# generated using pymatgen
data_Ho7Zr(Si4W3)4
_symmetry_space_group_name_H-M   'P 1'
_cell_length_a   6.73701786
_cell_length_b   6.90499865
_cell_length_c   12.88732150
_cell_angle_alpha   90.18505396
_cell_angle_beta   89.98885198
_cell_angle_gamma   90.16391965
_symmetry_Int_Tables_number   1
_chemical_formula_structural   Ho7Zr(Si4W3)4
_chemical_formula_sum   'Ho7 Zr1 Si16 W12'
_cell_volume   599.50099685
_cell_formula_units_Z   1
loop_
 _symmetry_equiv_pos_site_id
 _symmetry_equiv_pos_as_xyz
  1  'x, y, z'
loop_
 _atom_site_type_symbol
 _atom_site_label
 _atom_site_symmetry_multiplicity
 _atom_site_fract_x
 _atom_site_fract_y
 _atom_site_fract_z
 _atom_site_occupancy
  Ho  Ho0  1  0.494748  0.668058  0.592711  1
  Ho  Ho1  1  0.995938  0.832760  0.906733  1
  Ho  Ho2  1  0.503890  0.332511  0.093511  1
  Ho  Ho3  1  0.003327  0.166630  0.407849  1
  Ho  Ho4  1  0.503836  0.332215  0.407715  1
  Ho  Ho5  1  0.003994  0.167862  0.093464  1
  Ho  Ho6  1  0.495901  0.667784  0.905814  1
  Zr  Zr7  1  0.994191  0.830003  0.596430  1
  Si  Si8  1  0.664601  0.957341  0.455918  1
  Si  Si9  1  0.161341  0.541165  0.046453  1
  Si  Si10  1  0.339120  0.042466  0.952959  1
  Si  Si11  1  0.839536  0.459843  0.546214  1
  Si  Si12  1  0.331507  0.039647  0.545315  1
  Si  Si13  1  0.839148  0.458085  0.952436  1
  Si  Si14  1  0.661425  0.957858  0.046238  1
  Si  Si15  1  0.161333  0.544321  0.455620  1
  Si  Si16  1  0.464890  0.370964  0.749930  1
  Si  Si17  1  0.964459  0.127407  0.748511  1
  Si  Si18  1  0.536987  0.629490  0.250081  1
  Si  Si19  1  0.035828  0.871550  0.249735  1
  Si  Si20  1  0.699277  0.865248  0.749461  1
  Si  Si21  1  0.195448  0.635226  0.748910  1
  Si  Si22  1  0.302594  0.134679  0.250396  1
  Si  Si23  1  0.803775  0.366674  0.250672  1
  W  W24  1  0.667337  0.160594  0.625557  1
  W  W25  1  0.167673  0.335076  0.873575  1
  W  W26  1  0.332055  0.837467  0.124254  1
  W  W27  1  0.834373  0.665702  0.376500  1
  W  W28  1  0.332098  0.836464  0.374619  1
  W  W29  1  0.833015  0.664894  0.125189  1
  W  W30  1  0.668541  0.161587  0.874705  1
  W  W31  1  0.168275  0.336724  0.624919  1
  W  W32  1  0.833556  0.503207  0.748232  1
  W  W33  1  0.333834  0.998029  0.747232  1
  W  W34  1  0.166767  0.500510  0.250329  1
  W  W35  1  0.665378  0.999960  0.251811  1
