# generated using pymatgen
data_Sr3Yb(ScSe2)8
_symmetry_space_group_name_H-M   'P 1'
_cell_length_a   3.96155600
_cell_length_b   12.23965349
_cell_length_c   14.32723204
_cell_angle_alpha   89.94642179
_cell_angle_beta   90.00000000
_cell_angle_gamma   90.00000000
_symmetry_Int_Tables_number   1
_chemical_formula_structural   Sr3Yb(ScSe2)8
_chemical_formula_sum   'Sr3 Yb1 Sc8 Se16'
_cell_volume   694.69956539
_cell_formula_units_Z   1
loop_
 _symmetry_equiv_pos_site_id
 _symmetry_equiv_pos_as_xyz
  1  'x, y, z'
loop_
 _atom_site_type_symbol
 _atom_site_label
 _atom_site_symmetry_multiplicity
 _atom_site_fract_x
 _atom_site_fract_y
 _atom_site_fract_z
 _atom_site_occupancy
  Sr  Sr0  1  0.250000  0.238206  0.331119  1
  Sr  Sr1  1  0.750000  0.261337  0.830228  1
  Sr  Sr2  1  0.250000  0.738243  0.169435  1
  Yb  Yb3  1  0.750000  0.761630  0.669616  1
  Sc  Sc4  1  0.250000  0.080200  0.597286  1
  Sc  Sc5  1  0.250000  0.057354  0.110110  1
  Sc  Sc6  1  0.750000  0.419002  0.096673  1
  Sc  Sc7  1  0.750000  0.940107  0.887708  1
  Sc  Sc8  1  0.750000  0.445487  0.610882  1
  Sc  Sc9  1  0.250000  0.558743  0.391774  1
  Sc  Sc10  1  0.750000  0.916946  0.405834  1
  Sc  Sc11  1  0.250000  0.582050  0.902356  1
  Se  Se12  1  0.250000  0.871576  0.534243  1
  Se  Se13  1  0.250000  0.795121  0.830785  1
  Se  Se14  1  0.250000  0.969886  0.286219  1
  Se  Se15  1  0.750000  0.411568  0.426185  1
  Se  Se16  1  0.250000  0.470972  0.215577  1
  Se  Se17  1  0.250000  0.087790  0.924627  1
  Se  Se18  1  0.750000  0.203256  0.159665  1
  Se  Se19  1  0.750000  0.026099  0.714490  1
  Se  Se20  1  0.250000  0.594979  0.577324  1
  Se  Se21  1  0.750000  0.703266  0.340425  1
  Se  Se22  1  0.250000  0.297577  0.659410  1
  Se  Se23  1  0.250000  0.375631  0.970613  1
  Se  Se24  1  0.750000  0.625502  0.028119  1
  Se  Se25  1  0.750000  0.533285  0.783533  1
  Se  Se26  1  0.750000  0.123743  0.471679  1
  Se  Se27  1  0.750000  0.910440  0.074088  1
