# generated using pymatgen
data_Er10Ir3PdRh2
_symmetry_space_group_name_H-M   'P 1'
_cell_length_a   10.86868995
_cell_length_b   10.83520000
_cell_length_c   6.30672440
_cell_angle_alpha   90.00000000
_cell_angle_beta   89.93740826
_cell_angle_gamma   90.00000000
_symmetry_Int_Tables_number   1
_chemical_formula_structural   Er10Ir3PdRh2
_chemical_formula_sum   'Er20 Ir6 Pd2 Rh4'
_cell_volume   742.70735683
_cell_formula_units_Z   2
loop_
 _symmetry_equiv_pos_site_id
 _symmetry_equiv_pos_as_xyz
  1  'x, y, z'
loop_
 _atom_site_type_symbol
 _atom_site_label
 _atom_site_symmetry_multiplicity
 _atom_site_fract_x
 _atom_site_fract_y
 _atom_site_fract_z
 _atom_site_occupancy
  Er  Er0  1  0.289894  0.088848  0.378274  1
  Er  Er1  1  0.289894  0.911152  0.878274  1
  Er  Er2  1  0.702608  0.092666  0.873257  1
  Er  Er3  1  0.702608  0.907334  0.373257  1
  Er  Er4  1  0.581783  0.788686  0.879367  1
  Er  Er5  1  0.581783  0.211314  0.379367  1
  Er  Er6  1  0.408175  0.790403  0.379406  1
  Er  Er7  1  0.408175  0.209597  0.879406  1
  Er  Er8  1  0.211072  0.410660  0.619164  1
  Er  Er9  1  0.211072  0.589340  0.119164  1
  Er  Er10  1  0.790329  0.416347  0.121562  1
  Er  Er11  1  0.790329  0.583653  0.621562  1
  Er  Er12  1  0.914828  0.707850  0.128766  1
  Er  Er13  1  0.914828  0.292150  0.628766  1
  Er  Er14  1  0.094832  0.706589  0.621194  1
  Er  Er15  1  0.094832  0.293411  0.121194  1
  Er  Er16  1  0.002970  0.998210  0.499252  1
  Er  Er17  1  0.002970  0.001790  0.999252  1
  Er  Er18  1  0.501000  0.498040  0.000450  1
  Er  Er19  1  0.501000  0.501960  0.500450  1
  Ir  Ir20  1  0.152267  0.154968  0.749591  1
  Ir  Ir21  1  0.152267  0.845032  0.249591  1
  Ir  Ir22  1  0.657329  0.345539  0.748055  1
  Ir  Ir23  1  0.657329  0.654461  0.248055  1
  Ir  Ir24  1  0.347455  0.345316  0.251949  1
  Ir  Ir25  1  0.347455  0.654684  0.751949  1
  Pd  Pd26  1  0.844553  0.154547  0.249943  1
  Pd  Pd27  1  0.844553  0.845453  0.749943  1
  Rh  Rh28  1  0.500487  0.999593  0.125470  1
  Rh  Rh29  1  0.500487  0.000407  0.625470  1
  Rh  Rh30  1  0.000419  0.500277  0.874300  1
  Rh  Rh31  1  0.000419  0.499723  0.374300  1
