# generated using pymatgen
data_TmPuFe2(Ni4P3)2
_symmetry_space_group_name_H-M   'P 1'
_cell_length_a   3.66534200
_cell_length_b   10.31973600
_cell_length_c   11.87097100
_cell_angle_alpha   90.00000000
_cell_angle_beta   90.00000000
_cell_angle_gamma   90.00000000
_symmetry_Int_Tables_number   1
_chemical_formula_structural   TmPuFe2(Ni4P3)2
_chemical_formula_sum   'Tm2 Pu2 Fe4 Ni16 P12'
_cell_volume   449.02377287
_cell_formula_units_Z   2
loop_
 _symmetry_equiv_pos_site_id
 _symmetry_equiv_pos_as_xyz
  1  'x, y, z'
loop_
 _atom_site_type_symbol
 _atom_site_label
 _atom_site_symmetry_multiplicity
 _atom_site_fract_x
 _atom_site_fract_y
 _atom_site_fract_z
 _atom_site_occupancy
  Tm  Tm0  1  0.750000  0.422050  0.293508  1
  Tm  Tm1  1  0.750000  0.077950  0.793508  1
  Pu  Pu2  1  0.250000  0.579403  0.705269  1
  Pu  Pu3  1  0.250000  0.920597  0.205269  1
  Fe  Fe4  1  0.250000  0.463539  0.929543  1
  Fe  Fe5  1  0.250000  0.036461  0.429543  1
  Fe  Fe6  1  0.750000  0.538007  0.066749  1
  Fe  Fe7  1  0.750000  0.961993  0.566749  1
  Ni  Ni8  1  0.250000  0.714217  0.994865  1
  Ni  Ni9  1  0.250000  0.785783  0.494865  1
  Ni  Ni10  1  0.750000  0.285506  0.010690  1
  Ni  Ni11  1  0.750000  0.214494  0.510690  1
  Ni  Ni12  1  0.250000  0.406957  0.486475  1
  Ni  Ni13  1  0.250000  0.093043  0.986475  1
  Ni  Ni14  1  0.750000  0.590656  0.509314  1
  Ni  Ni15  1  0.750000  0.909344  0.009314  1
  Ni  Ni16  1  0.250000  0.225705  0.176844  1
  Ni  Ni17  1  0.250000  0.274295  0.676844  1
  Ni  Ni18  1  0.750000  0.777151  0.823359  1
  Ni  Ni19  1  0.750000  0.722849  0.323359  1
  Ni  Ni20  1  0.250000  0.877427  0.701461  1
  Ni  Ni21  1  0.250000  0.622573  0.201461  1
  Ni  Ni22  1  0.750000  0.129377  0.301754  1
  Ni  Ni23  1  0.750000  0.370623  0.801754  1
  P  P24  1  0.250000  0.425868  0.111710  1
  P  P25  1  0.250000  0.074132  0.611710  1
  P  P26  1  0.750000  0.573362  0.885556  1
  P  P27  1  0.750000  0.926638  0.385556  1
  P  P28  1  0.250000  0.265718  0.869648  1
  P  P29  1  0.250000  0.234282  0.369648  1
  P  P30  1  0.750000  0.734180  0.130627  1
  P  P31  1  0.750000  0.765820  0.630627  1
  P  P32  1  0.250000  0.603608  0.392306  1
  P  P33  1  0.250000  0.896392  0.892306  1
  P  P34  1  0.750000  0.399404  0.610317  1
  P  P35  1  0.750000  0.100596  0.110317  1
