# generated using pymatgen
data_Li2Ce2PtRh3
_symmetry_space_group_name_H-M   'P 1'
_cell_length_a   4.17133100
_cell_length_b   4.32299900
_cell_length_c   7.58225300
_cell_angle_alpha   90.00000000
_cell_angle_beta   90.00000000
_cell_angle_gamma   90.00000000
_symmetry_Int_Tables_number   1
_chemical_formula_structural   Li2Ce2PtRh3
_chemical_formula_sum   'Li2 Ce2 Pt1 Rh3'
_cell_volume   136.72818842
_cell_formula_units_Z   1
loop_
 _symmetry_equiv_pos_site_id
 _symmetry_equiv_pos_as_xyz
  1  'x, y, z'
loop_
 _atom_site_type_symbol
 _atom_site_label
 _atom_site_symmetry_multiplicity
 _atom_site_fract_x
 _atom_site_fract_y
 _atom_site_fract_z
 _atom_site_occupancy
  Li  Li0  1  0.500000  0.500000  0.255348  1
  Li  Li1  1  0.500000  0.500000  0.744652  1
  Ce  Ce2  1  0.000000  0.000000  0.243341  1
  Ce  Ce3  1  0.000000  0.000000  0.756659  1
  Pt  Pt4  1  0.000000  0.500000  0.500000  1
  Rh  Rh5  1  0.000000  0.500000  0.000000  1
  Rh  Rh6  1  0.500000  0.000000  0.500000  1
  Rh  Rh7  1  0.500000  0.000000  0.000000  1
