# generated using pymatgen
data_Na5VAs3
_symmetry_space_group_name_H-M   'P 1'
_cell_length_a   7.54113000
_cell_length_b   8.29184234
_cell_length_c   15.73318592
_cell_angle_alpha   58.91762581
_cell_angle_beta   90.00000000
_cell_angle_gamma   90.00000000
_symmetry_Int_Tables_number   1
_chemical_formula_structural   Na5VAs3
_chemical_formula_sum   'Na20 V4 As12'
_cell_volume   842.54664471
_cell_formula_units_Z   4
loop_
 _symmetry_equiv_pos_site_id
 _symmetry_equiv_pos_as_xyz
  1  'x, y, z'
loop_
 _atom_site_type_symbol
 _atom_site_label
 _atom_site_symmetry_multiplicity
 _atom_site_fract_x
 _atom_site_fract_y
 _atom_site_fract_z
 _atom_site_occupancy
  Na  Na0  1  0.508852  0.556876  0.756308  1
  Na  Na1  1  0.008852  0.443124  0.743692  1
  Na  Na2  1  0.491148  0.443124  0.243692  1
  Na  Na3  1  0.991148  0.556876  0.256308  1
  Na  Na4  1  0.971508  0.258810  0.579618  1
  Na  Na5  1  0.471508  0.741190  0.920382  1
  Na  Na6  1  0.028492  0.741190  0.420382  1
  Na  Na7  1  0.528492  0.258810  0.079618  1
  Na  Na8  1  0.485858  0.085746  0.589768  1
  Na  Na9  1  0.985858  0.914254  0.910232  1
  Na  Na10  1  0.514142  0.914254  0.410232  1
  Na  Na11  1  0.014142  0.085746  0.089768  1
  Na  Na12  1  0.339806  0.155513  0.919629  1
  Na  Na13  1  0.839806  0.844487  0.580371  1
  Na  Na14  1  0.660194  0.844487  0.080371  1
  Na  Na15  1  0.160194  0.155513  0.419629  1
  Na  Na16  1  0.150383  0.836115  0.740516  1
  Na  Na17  1  0.650383  0.163885  0.759484  1
  Na  Na18  1  0.849617  0.163885  0.259484  1
  Na  Na19  1  0.349617  0.836115  0.240516  1
  V  V20  1  0.135300  0.487131  0.081067  1
  V  V21  1  0.635300  0.512869  0.418933  1
  V  V22  1  0.864700  0.512869  0.918933  1
  V  V23  1  0.364700  0.487131  0.581067  1
  As  As24  1  0.243061  0.761810  0.579596  1
  As  As25  1  0.743061  0.238190  0.920404  1
  As  As26  1  0.756939  0.238190  0.420404  1
  As  As27  1  0.256939  0.761810  0.079596  1
  As  As28  1  0.265526  0.192619  0.724208  1
  As  As29  1  0.765526  0.807381  0.775792  1
  As  As30  1  0.734474  0.807381  0.275792  1
  As  As31  1  0.234474  0.192619  0.224208  1
  As  As32  1  0.189405  0.480064  0.929581  1
  As  As33  1  0.689405  0.519936  0.570419  1
  As  As34  1  0.810595  0.519936  0.070419  1
  As  As35  1  0.310595  0.480064  0.429581  1
