# generated using pymatgen
data_Tb4Fe3Co16P12Ru
_symmetry_space_group_name_H-M   'P 1'
_cell_length_a   3.68104800
_cell_length_b   10.31299543
_cell_length_c   11.80102254
_cell_angle_alpha   89.94056299
_cell_angle_beta   90.00000000
_cell_angle_gamma   90.00000000
_symmetry_Int_Tables_number   1
_chemical_formula_structural   Tb4Fe3Co16P12Ru
_chemical_formula_sum   'Tb4 Fe3 Co16 P12 Ru1'
_cell_volume   447.99762540
_cell_formula_units_Z   1
loop_
 _symmetry_equiv_pos_site_id
 _symmetry_equiv_pos_as_xyz
  1  'x, y, z'
loop_
 _atom_site_type_symbol
 _atom_site_label
 _atom_site_symmetry_multiplicity
 _atom_site_fract_x
 _atom_site_fract_y
 _atom_site_fract_z
 _atom_site_occupancy
  Tb  Tb0  1  0.250000  0.584926  0.705168  1
  Tb  Tb1  1  0.250000  0.916838  0.202527  1
  Tb  Tb2  1  0.750000  0.418334  0.297580  1
  Tb  Tb3  1  0.750000  0.082921  0.797069  1
  Fe  Fe4  1  0.250000  0.710046  0.988037  1
  Fe  Fe5  1  0.250000  0.788445  0.488177  1
  Fe  Fe6  1  0.750000  0.289751  0.011842  1
  Co  Co7  1  0.250000  0.407674  0.488864  1
  Co  Co8  1  0.250000  0.094168  0.987661  1
  Co  Co9  1  0.750000  0.594260  0.513318  1
  Co  Co10  1  0.750000  0.905696  0.012821  1
  Co  Co11  1  0.250000  0.221143  0.176004  1
  Co  Co12  1  0.250000  0.279908  0.675993  1
  Co  Co13  1  0.750000  0.779364  0.824433  1
  Co  Co14  1  0.750000  0.720008  0.323405  1
  Co  Co15  1  0.250000  0.883023  0.699225  1
  Co  Co16  1  0.250000  0.616102  0.197644  1
  Co  Co17  1  0.750000  0.113766  0.298859  1
  Co  Co18  1  0.750000  0.383142  0.801365  1
  Co  Co19  1  0.250000  0.467227  0.932660  1
  Co  Co20  1  0.250000  0.032808  0.432421  1
  Co  Co21  1  0.750000  0.532173  0.066608  1
  Co  Co22  1  0.750000  0.964621  0.566839  1
  P  P23  1  0.250000  0.418614  0.112240  1
  P  P24  1  0.250000  0.079218  0.613630  1
  P  P25  1  0.750000  0.582062  0.887909  1
  P  P26  1  0.750000  0.916806  0.387286  1
  P  P27  1  0.250000  0.271153  0.868529  1
  P  P28  1  0.250000  0.228267  0.365236  1
  P  P29  1  0.750000  0.728184  0.132136  1
  P  P30  1  0.750000  0.770682  0.633091  1
  P  P31  1  0.250000  0.602980  0.391704  1
  P  P32  1  0.250000  0.897687  0.893093  1
  P  P33  1  0.750000  0.404104  0.610169  1
  P  P34  1  0.750000  0.101705  0.106105  1
  Ru  Ru35  1  0.750000  0.212192  0.510352  1
