# generated using pymatgen
data_Gd4HfZr2O12
_symmetry_space_group_name_H-M   'P 1'
_cell_length_a   6.43104067
_cell_length_b   6.46607541
_cell_length_c   6.64942916
_cell_angle_alpha   99.71949263
_cell_angle_beta   98.19194189
_cell_angle_gamma   99.80893329
_symmetry_Int_Tables_number   1
_chemical_formula_structural   Gd4HfZr2O12
_chemical_formula_sum   'Gd4 Hf1 Zr2 O12'
_cell_volume   264.34646618
_cell_formula_units_Z   1
loop_
 _symmetry_equiv_pos_site_id
 _symmetry_equiv_pos_as_xyz
  1  'x, y, z'
loop_
 _atom_site_type_symbol
 _atom_site_label
 _atom_site_symmetry_multiplicity
 _atom_site_fract_x
 _atom_site_fract_y
 _atom_site_fract_z
 _atom_site_occupancy
  Gd  Gd0  1  0.385530  0.701052  0.866457  1
  Gd  Gd1  1  0.698460  0.864707  0.390670  1
  Gd  Gd2  1  0.614470  0.298948  0.133543  1
  Gd  Gd3  1  0.301540  0.135293  0.609330  1
  Hf  Hf4  1  0.000000  0.000000  0.000000  1
  Zr  Zr5  1  0.849948  0.398045  0.672018  1
  Zr  Zr6  1  0.150052  0.601955  0.327982  1
  O  O7  1  0.017878  0.682249  0.882065  1
  O  O8  1  0.689769  0.934862  0.056654  1
  O  O9  1  0.921662  0.088137  0.702146  1
  O  O10  1  0.982122  0.317751  0.117935  1
  O  O11  1  0.310231  0.065138  0.943346  1
  O  O12  1  0.078338  0.911863  0.297854  1
  O  O13  1  0.593513  0.189619  0.438296  1
  O  O14  1  0.169317  0.431203  0.573901  1
  O  O15  1  0.412918  0.583045  0.180320  1
  O  O16  1  0.406487  0.810381  0.561704  1
  O  O17  1  0.830683  0.568797  0.426099  1
  O  O18  1  0.587082  0.416955  0.819680  1
