# generated using pymatgen
data_Dy3Zn2AgPd3
_symmetry_space_group_name_H-M   'P 1'
_cell_length_a   7.32133439
_cell_length_b   7.32133451
_cell_length_c   3.88851300
_cell_angle_alpha   90.00000000
_cell_angle_beta   90.00000000
_cell_angle_gamma   119.16926238
_symmetry_Int_Tables_number   1
_chemical_formula_structural   Dy3Zn2AgPd3
_chemical_formula_sum   'Dy3 Zn2 Ag1 Pd3'
_cell_volume   181.99927409
_cell_formula_units_Z   1
loop_
 _symmetry_equiv_pos_site_id
 _symmetry_equiv_pos_as_xyz
  1  'x, y, z'
loop_
 _atom_site_type_symbol
 _atom_site_label
 _atom_site_symmetry_multiplicity
 _atom_site_fract_x
 _atom_site_fract_y
 _atom_site_fract_z
 _atom_site_occupancy
  Dy  Dy0  1  0.402899  0.402899  0.500000  1
  Dy  Dy1  1  0.595851  0.998113  0.500000  1
  Dy  Dy2  1  0.998113  0.595851  0.500000  1
  Zn  Zn3  1  0.251939  0.997235  0.000000  1
  Zn  Zn4  1  0.997235  0.251939  0.000000  1
  Ag  Ag5  1  0.748254  0.748254  0.000000  1
  Pd  Pd6  1  0.662957  0.322110  0.000000  1
  Pd  Pd7  1  0.322110  0.662957  0.000000  1
  Pd  Pd8  1  0.020642  0.020642  0.500000  1
