# generated using pymatgen
data_La3Pr2(Sn5Pd2)2
_symmetry_space_group_name_H-M   'P 1'
_cell_length_a   14.39991600
_cell_length_b   14.39991600
_cell_length_c   4.71275900
_cell_angle_alpha   90.00000000
_cell_angle_beta   90.00000000
_cell_angle_gamma   90.00000000
_symmetry_Int_Tables_number   1
_chemical_formula_structural   La3Pr2(Sn5Pd2)2
_chemical_formula_sum   'La6 Pr4 Sn20 Pd8'
_cell_volume   977.22630517
_cell_formula_units_Z   2
loop_
 _symmetry_equiv_pos_site_id
 _symmetry_equiv_pos_as_xyz
  1  'x, y, z'
loop_
 _atom_site_type_symbol
 _atom_site_label
 _atom_site_symmetry_multiplicity
 _atom_site_fract_x
 _atom_site_fract_y
 _atom_site_fract_z
 _atom_site_occupancy
  La  La0  1  0.500000  0.500000  0.000000  1
  La  La1  1  0.000000  0.000000  0.000000  1
  La  La2  1  0.890417  0.390417  0.500000  1
  La  La3  1  0.109583  0.609583  0.500000  1
  La  La4  1  0.390417  0.109583  0.500000  1
  La  La5  1  0.609583  0.890417  0.500000  1
  Pr  Pr6  1  0.678580  0.178580  0.500000  1
  Pr  Pr7  1  0.321420  0.821420  0.500000  1
  Pr  Pr8  1  0.178580  0.321420  0.500000  1
  Pr  Pr9  1  0.821420  0.678580  0.500000  1
  Sn  Sn10  1  0.569034  0.069034  0.000000  1
  Sn  Sn11  1  0.430966  0.930966  0.000000  1
  Sn  Sn12  1  0.069034  0.430966  0.000000  1
  Sn  Sn13  1  0.930966  0.569034  0.000000  1
  Sn  Sn14  1  0.654036  0.698908  0.000000  1
  Sn  Sn15  1  0.345964  0.301092  0.000000  1
  Sn  Sn16  1  0.154036  0.801092  0.000000  1
  Sn  Sn17  1  0.845964  0.198908  0.000000  1
  Sn  Sn18  1  0.301092  0.654036  0.000000  1
  Sn  Sn19  1  0.698908  0.345964  0.000000  1
  Sn  Sn20  1  0.198908  0.154036  0.000000  1
  Sn  Sn21  1  0.801092  0.845964  0.000000  1
  Sn  Sn22  1  0.662318  0.500979  0.500000  1
  Sn  Sn23  1  0.337682  0.499021  0.500000  1
  Sn  Sn24  1  0.162318  0.999021  0.500000  1
  Sn  Sn25  1  0.837682  0.000979  0.500000  1
  Sn  Sn26  1  0.499021  0.662318  0.500000  1
  Sn  Sn27  1  0.500979  0.337682  0.500000  1
  Sn  Sn28  1  0.000979  0.162318  0.500000  1
  Sn  Sn29  1  0.999021  0.837682  0.500000  1
  Pd  Pd30  1  0.745286  0.529157  0.000000  1
  Pd  Pd31  1  0.254714  0.470843  0.000000  1
  Pd  Pd32  1  0.245286  0.970843  0.000000  1
  Pd  Pd33  1  0.754714  0.029157  0.000000  1
  Pd  Pd34  1  0.470843  0.745286  0.000000  1
  Pd  Pd35  1  0.529157  0.254714  0.000000  1
  Pd  Pd36  1  0.029157  0.245286  0.000000  1
  Pd  Pd37  1  0.970843  0.754714  0.000000  1
