# generated using pymatgen
data_Y4Ho4Tc3B24Rh
_symmetry_space_group_name_H-M   'P 1'
_cell_length_a   3.67693900
_cell_length_b   9.14940544
_cell_length_c   11.53608411
_cell_angle_alpha   90.12445386
_cell_angle_beta   90.00000000
_cell_angle_gamma   90.00000000
_symmetry_Int_Tables_number   1
_chemical_formula_structural   Y4Ho4Tc3B24Rh
_chemical_formula_sum   'Y4 Ho4 Tc3 B24 Rh1'
_cell_volume   388.09378470
_cell_formula_units_Z   1
loop_
 _symmetry_equiv_pos_site_id
 _symmetry_equiv_pos_as_xyz
  1  'x, y, z'
loop_
 _atom_site_type_symbol
 _atom_site_label
 _atom_site_symmetry_multiplicity
 _atom_site_fract_x
 _atom_site_fract_y
 _atom_site_fract_z
 _atom_site_occupancy
  Y  Y0  1  0.500000  0.318656  0.415880  1
  Y  Y1  1  0.500000  0.677901  0.591034  1
  Y  Y2  1  0.500000  0.177128  0.912798  1
  Y  Y3  1  0.500000  0.827189  0.081311  1
  Ho  Ho4  1  0.500000  0.440503  0.129137  1
  Ho  Ho5  1  0.500000  0.557137  0.870969  1
  Ho  Ho6  1  0.500000  0.056210  0.629663  1
  Ho  Ho7  1  0.500000  0.943783  0.369543  1
  Tc  Tc8  1  0.500000  0.138878  0.180469  1
  Tc  Tc9  1  0.500000  0.861222  0.820355  1
  Tc  Tc10  1  0.500000  0.362282  0.678146  1
  B  B11  1  0.000000  0.101833  0.471214  1
  B  B12  1  0.000000  0.895111  0.528217  1
  B  B13  1  0.000000  0.397035  0.971994  1
  B  B14  1  0.000000  0.604012  0.029346  1
  B  B15  1  0.000000  0.130723  0.314821  1
  B  B16  1  0.000000  0.868509  0.685571  1
  B  B17  1  0.000000  0.369383  0.814063  1
  B  B18  1  0.000000  0.631548  0.184244  1
  B  B19  1  0.000000  0.053788  0.066744  1
  B  B20  1  0.000000  0.947116  0.932327  1
  B  B21  1  0.000000  0.446306  0.566896  1
  B  B22  1  0.000000  0.554032  0.433546  1
  B  B23  1  0.000000  0.483380  0.287782  1
  B  B24  1  0.000000  0.517717  0.712541  1
  B  B25  1  0.000000  0.017169  0.786928  1
  B  B26  1  0.000000  0.983249  0.212010  1
  B  B27  1  0.000000  0.249230  0.081491  1
  B  B28  1  0.000000  0.751766  0.918649  1
  B  B29  1  0.000000  0.250421  0.581247  1
  B  B30  1  0.000000  0.749131  0.419959  1
  B  B31  1  0.000000  0.291644  0.235078  1
  B  B32  1  0.000000  0.708248  0.766017  1
  B  B33  1  0.000000  0.208509  0.733978  1
  B  B34  1  0.000000  0.791117  0.265215  1
  Rh  Rh35  1  0.500000  0.638136  0.320818  1
