# generated using pymatgen
data_Sc2Al3Ag
_symmetry_space_group_name_H-M   'P 1'
_cell_length_a   5.45502600
_cell_length_b   5.45502592
_cell_length_c   8.59302100
_cell_angle_alpha   90.00000000
_cell_angle_beta   90.00000000
_cell_angle_gamma   120.00000050
_symmetry_Int_Tables_number   1
_chemical_formula_structural   Sc2Al3Ag
_chemical_formula_sum   'Sc4 Al6 Ag2'
_cell_volume   221.44717580
_cell_formula_units_Z   2
loop_
 _symmetry_equiv_pos_site_id
 _symmetry_equiv_pos_as_xyz
  1  'x, y, z'
loop_
 _atom_site_type_symbol
 _atom_site_label
 _atom_site_symmetry_multiplicity
 _atom_site_fract_x
 _atom_site_fract_y
 _atom_site_fract_z
 _atom_site_occupancy
  Sc  Sc0  1  0.666666  0.333334  0.069019  1
  Sc  Sc1  1  0.666666  0.333334  0.430982  1
  Sc  Sc2  1  0.333334  0.666667  0.569019  1
  Sc  Sc3  1  0.333334  0.666667  0.930981  1
  Al  Al4  1  0.171599  0.343197  0.250000  1
  Al  Al5  1  0.171598  0.828401  0.250000  1
  Al  Al6  1  0.656803  0.828401  0.250000  1
  Al  Al7  1  0.343196  0.171598  0.750001  1
  Al  Al8  1  0.828400  0.171598  0.750001  1
  Al  Al9  1  0.828401  0.656804  0.750001  1
  Ag  Ag10  1  0.000000  0.000000  0.000000  1
  Ag  Ag11  1  0.000000  0.000000  0.500000  1
