# generated using pymatgen
data_Sr2Bi2RuPt3O14
_symmetry_space_group_name_H-M   'P 1'
_cell_length_a   7.44278308
_cell_length_b   7.42367072
_cell_length_c   7.32656400
_cell_angle_alpha   60.43176162
_cell_angle_beta   60.51520086
_cell_angle_gamma   60.71327265
_symmetry_Int_Tables_number   1
_chemical_formula_structural   Sr2Bi2RuPt3O14
_chemical_formula_sum   'Sr2 Bi2 Ru1 Pt3 O14'
_cell_volume   289.82119583
_cell_formula_units_Z   1
loop_
 _symmetry_equiv_pos_site_id
 _symmetry_equiv_pos_as_xyz
  1  'x, y, z'
loop_
 _atom_site_type_symbol
 _atom_site_label
 _atom_site_symmetry_multiplicity
 _atom_site_fract_x
 _atom_site_fract_y
 _atom_site_fract_z
 _atom_site_occupancy
  Sr  Sr0  1  0.125000  0.125000  0.625000  1
  Sr  Sr1  1  0.125000  0.125000  0.125000  1
  Bi  Bi2  1  0.125000  0.625000  0.125000  1
  Bi  Bi3  1  0.625000  0.125000  0.125000  1
  Ru  Ru4  1  0.125000  0.625000  0.625000  1
  Pt  Pt5  1  0.625000  0.625000  0.125000  1
  Pt  Pt6  1  0.625000  0.125000  0.625000  1
  Pt  Pt7  1  0.625000  0.625000  0.625000  1
  O  O8  1  0.265537  0.267303  0.233580  1
  O  O9  1  0.984463  0.982697  0.016420  1
  O  O10  1  0.546035  0.955649  0.539192  1
  O  O11  1  0.296685  0.694083  0.298698  1
  O  O12  1  0.542058  0.545579  0.956182  1
  O  O13  1  0.953315  0.555917  0.539466  1
  O  O14  1  0.546035  0.955649  0.959125  1
  O  O15  1  0.952311  0.941520  0.553084  1
  O  O16  1  0.953315  0.555917  0.951302  1
  O  O17  1  0.703965  0.294351  0.290875  1
  O  O18  1  0.296685  0.694083  0.710534  1
  O  O19  1  0.703965  0.294351  0.710808  1
  O  O20  1  0.297689  0.308480  0.696916  1
  O  O21  1  0.707942  0.704421  0.293818  1
