# generated using pymatgen
data_Sn(S8Br)3
_symmetry_space_group_name_H-M   'P 1'
_cell_length_a   15.07480764
_cell_length_b   15.07480833
_cell_length_c   15.07480571
_cell_angle_alpha   118.80887275
_cell_angle_beta   118.80887493
_cell_angle_gamma   118.80887146
_symmetry_Int_Tables_number   1
_chemical_formula_structural   Sn(S8Br)3
_chemical_formula_sum   'Sn1 S24 Br3'
_cell_volume   966.16830090
_cell_formula_units_Z   1
loop_
 _symmetry_equiv_pos_site_id
 _symmetry_equiv_pos_as_xyz
  1  'x, y, z'
loop_
 _atom_site_type_symbol
 _atom_site_label
 _atom_site_symmetry_multiplicity
 _atom_site_fract_x
 _atom_site_fract_y
 _atom_site_fract_z
 _atom_site_occupancy
  Sn  Sn0  1  0.771023  0.771023  0.771023  1
  S  S1  1  0.808536  0.526248  0.526248  1
  S  S2  1  0.526248  0.526248  0.808536  1
  S  S3  1  0.526248  0.808536  0.526248  1
  S  S4  1  0.241501  0.370826  0.630485  1
  S  S5  1  0.361135  0.959770  0.361135  1
  S  S6  1  0.361135  0.361135  0.959770  1
  S  S7  1  0.959770  0.361135  0.361135  1
  S  S8  1  0.124857  0.737420  0.253886  1
  S  S9  1  0.253886  0.124857  0.737420  1
  S  S10  1  0.737420  0.253886  0.124857  1
  S  S11  1  0.737420  0.124857  0.253886  1
  S  S12  1  0.253886  0.737420  0.124857  1
  S  S13  1  0.124857  0.253886  0.737420  1
  S  S14  1  0.351307  0.882959  0.533997  1
  S  S15  1  0.533997  0.351307  0.882959  1
  S  S16  1  0.882959  0.533997  0.351307  1
  S  S17  1  0.882959  0.351307  0.533997  1
  S  S18  1  0.533997  0.882959  0.351307  1
  S  S19  1  0.351307  0.533997  0.882959  1
  S  S20  1  0.241501  0.630485  0.370826  1
  S  S21  1  0.370826  0.241501  0.630485  1
  S  S22  1  0.630485  0.370826  0.241501  1
  S  S23  1  0.630485  0.241501  0.370826  1
  S  S24  1  0.370826  0.630485  0.241501  1
  Br  Br25  1  0.882313  0.037208  0.037208  1
  Br  Br26  1  0.037208  0.037208  0.882313  1
  Br  Br27  1  0.037208  0.882313  0.037208  1
