# generated using pymatgen
data_YbEr6Lu(B6Os)4
_symmetry_space_group_name_H-M   'P 1'
_cell_length_a   3.62602800
_cell_length_b   9.09869304
_cell_length_c   11.48085803
_cell_angle_alpha   89.93552644
_cell_angle_beta   90.00000000
_cell_angle_gamma   90.00000000
_symmetry_Int_Tables_number   1
_chemical_formula_structural   YbEr6Lu(B6Os)4
_chemical_formula_sum   'Yb1 Er6 Lu1 B24 Os4'
_cell_volume   378.77755693
_cell_formula_units_Z   1
loop_
 _symmetry_equiv_pos_site_id
 _symmetry_equiv_pos_as_xyz
  1  'x, y, z'
loop_
 _atom_site_type_symbol
 _atom_site_label
 _atom_site_symmetry_multiplicity
 _atom_site_fract_x
 _atom_site_fract_y
 _atom_site_fract_z
 _atom_site_occupancy
  Yb  Yb0  1  0.000000  0.322725  0.413581  1
  Er  Er1  1  0.000000  0.676647  0.585315  1
  Er  Er2  1  0.000000  0.821493  0.086217  1
  Er  Er3  1  0.000000  0.179098  0.914306  1
  Er  Er4  1  0.000000  0.944222  0.371853  1
  Er  Er5  1  0.000000  0.057548  0.627575  1
  Er  Er6  1  0.000000  0.443392  0.128227  1
  Lu  Lu7  1  0.000000  0.555966  0.872731  1
  B  B8  1  0.500000  0.553641  0.432851  1
  B  B9  1  0.500000  0.446429  0.567511  1
  B  B10  1  0.500000  0.052984  0.066006  1
  B  B11  1  0.500000  0.945651  0.932999  1
  B  B12  1  0.500000  0.748502  0.419369  1
  B  B13  1  0.500000  0.252160  0.581169  1
  B  B14  1  0.500000  0.248153  0.080015  1
  B  B15  1  0.500000  0.750311  0.919767  1
  B  B16  1  0.500000  0.791718  0.265683  1
  B  B17  1  0.500000  0.209588  0.734791  1
  B  B18  1  0.500000  0.290370  0.233524  1
  B  B19  1  0.500000  0.708080  0.766447  1
  B  B20  1  0.500000  0.631468  0.185365  1
  B  B21  1  0.500000  0.369719  0.815793  1
  B  B22  1  0.500000  0.131000  0.313975  1
  B  B23  1  0.500000  0.868358  0.685224  1
  B  B24  1  0.500000  0.982533  0.211773  1
  B  B25  1  0.500000  0.017178  0.787328  1
  B  B26  1  0.500000  0.482987  0.287437  1
  B  B27  1  0.500000  0.517800  0.713527  1
  B  B28  1  0.500000  0.605851  0.028717  1
  B  B29  1  0.500000  0.394999  0.970466  1
  B  B30  1  0.500000  0.103776  0.471265  1
  B  B31  1  0.500000  0.894747  0.529139  1
  Os  Os32  1  0.000000  0.639614  0.320372  1
  Os  Os33  1  0.000000  0.362444  0.680872  1
  Os  Os34  1  0.000000  0.136920  0.177116  1
  Os  Os35  1  0.000000  0.861928  0.821695  1
