# generated using pymatgen
data_Ac7Tb12YSn16
_symmetry_space_group_name_H-M   'P 1'
_cell_length_a   8.36042832
_cell_length_b   8.43168241
_cell_length_c   16.02063100
_cell_angle_alpha   90.01031526
_cell_angle_beta   90.13531678
_cell_angle_gamma   90.35763379
_symmetry_Int_Tables_number   1
_chemical_formula_structural   Ac7Tb12YSn16
_chemical_formula_sum   'Ac7 Tb12 Y1 Sn16'
_cell_volume   1129.30878178
_cell_formula_units_Z   1
loop_
 _symmetry_equiv_pos_site_id
 _symmetry_equiv_pos_as_xyz
  1  'x, y, z'
loop_
 _atom_site_type_symbol
 _atom_site_label
 _atom_site_symmetry_multiplicity
 _atom_site_fract_x
 _atom_site_fract_y
 _atom_site_fract_z
 _atom_site_occupancy
  Ac  Ac0  1  0.512963  0.321203  0.903723  1
  Ac  Ac1  1  0.011774  0.175623  0.595826  1
  Ac  Ac2  1  0.487758  0.677001  0.404412  1
  Ac  Ac3  1  0.986211  0.824270  0.093937  1
  Ac  Ac4  1  0.488736  0.678331  0.093616  1
  Ac  Ac5  1  0.986945  0.823373  0.404652  1
  Ac  Ac6  1  0.513135  0.321630  0.598860  1
  Tb  Tb7  1  0.357952  0.840160  0.878573  1
  Tb  Tb8  1  0.856600  0.660362  0.627421  1
  Tb  Tb9  1  0.642976  0.162051  0.377004  1
  Tb  Tb10  1  0.141504  0.337071  0.123032  1
  Tb  Tb11  1  0.639643  0.160365  0.120480  1
  Tb  Tb12  1  0.143603  0.338444  0.375425  1
  Tb  Tb13  1  0.355681  0.839004  0.624684  1
  Tb  Tb14  1  0.856841  0.662902  0.875536  1
  Tb  Tb15  1  0.192653  0.502706  0.752149  1
  Tb  Tb16  1  0.695385  0.998288  0.752375  1
  Tb  Tb17  1  0.806022  0.495842  0.249089  1
  Tb  Tb18  1  0.304728  0.003550  0.249397  1
  Y  Y19  1  0.019001  0.178256  0.900761  1
  Sn  Sn20  1  0.298668  0.049945  0.038962  1
  Sn  Sn21  1  0.811661  0.455766  0.457087  1
  Sn  Sn22  1  0.688744  0.952145  0.545189  1
  Sn  Sn23  1  0.183752  0.536216  0.954997  1
  Sn  Sn24  1  0.704138  0.964587  0.952911  1
  Sn  Sn25  1  0.187984  0.544252  0.544939  1
  Sn  Sn26  1  0.310724  0.046193  0.455900  1
  Sn  Sn27  1  0.814664  0.452233  0.040876  1
  Sn  Sn28  1  0.553949  0.632258  0.751442  1
  Sn  Sn29  1  0.056598  0.872107  0.752306  1
  Sn  Sn30  1  0.444969  0.367044  0.248341  1
  Sn  Sn31  1  0.942458  0.132234  0.249205  1
  Sn  Sn32  1  0.313295  0.135726  0.752831  1
  Sn  Sn33  1  0.829448  0.356352  0.755608  1
  Sn  Sn34  1  0.679560  0.865474  0.249307  1
  Sn  Sn35  1  0.179278  0.637037  0.249148  1
