# generated using pymatgen
data_Dy3Cd5Sn
_symmetry_space_group_name_H-M   'P 1'
_cell_length_a   7.67235000
_cell_length_b   7.67235099
_cell_length_c   4.42673700
_cell_angle_alpha   90.00000000
_cell_angle_beta   90.00000000
_cell_angle_gamma   120.00001296
_symmetry_Int_Tables_number   1
_chemical_formula_structural   Dy3Cd5Sn
_chemical_formula_sum   'Dy3 Cd5 Sn1'
_cell_volume   225.66861560
_cell_formula_units_Z   1
loop_
 _symmetry_equiv_pos_site_id
 _symmetry_equiv_pos_as_xyz
  1  'x, y, z'
loop_
 _atom_site_type_symbol
 _atom_site_label
 _atom_site_symmetry_multiplicity
 _atom_site_fract_x
 _atom_site_fract_y
 _atom_site_fract_z
 _atom_site_occupancy
  Dy  Dy0  1  0.996941  0.421884  0.500000  1
  Dy  Dy1  1  0.578116  0.575057  0.500000  1
  Dy  Dy2  1  0.424943  0.003059  0.500000  1
  Cd  Cd3  1  0.988644  0.744720  0.000000  1
  Cd  Cd4  1  0.255280  0.243924  0.000000  1
  Cd  Cd5  1  0.756076  0.011356  0.000000  1
  Cd  Cd6  1  0.666667  0.333333  0.000000  1
  Cd  Cd7  1  0.000000  0.000000  0.500000  1
  Sn  Sn8  1  0.333333  0.666667  0.000000  1
