# generated using pymatgen
data_TbZn3P6N13
_symmetry_space_group_name_H-M   'P 1'
_cell_length_a   7.09117342
_cell_length_b   7.17918221
_cell_length_c   7.09117437
_cell_angle_alpha   109.72282220
_cell_angle_beta   109.21844368
_cell_angle_gamma   109.72283157
_symmetry_Int_Tables_number   1
_chemical_formula_structural   TbZn3P6N13
_chemical_formula_sum   'Tb1 Zn3 P6 N13'
_cell_volume   277.03292534
_cell_formula_units_Z   1
loop_
 _symmetry_equiv_pos_site_id
 _symmetry_equiv_pos_as_xyz
  1  'x, y, z'
loop_
 _atom_site_type_symbol
 _atom_site_label
 _atom_site_symmetry_multiplicity
 _atom_site_fract_x
 _atom_site_fract_y
 _atom_site_fract_z
 _atom_site_occupancy
  Tb  Tb0  1  0.000000  0.717354  0.000000  1
  Zn  Zn1  1  0.713341  0.014987  0.000000  1
  Zn  Zn2  1  0.000000  0.014987  0.713341  1
  Zn  Zn3  1  0.286659  0.301647  0.286659  1
  P  P4  1  0.494115  0.240725  0.746925  1
  P  P5  1  0.505885  0.746610  0.252810  1
  P  P6  1  0.747190  0.493800  0.253075  1
  P  P7  1  0.252810  0.746610  0.505885  1
  P  P8  1  0.746925  0.240725  0.494115  1
  P  P9  1  0.253075  0.493800  0.747190  1
  N  N10  1  0.000000  0.729008  0.448479  1
  N  N11  1  0.284351  0.546588  0.549045  1
  N  N12  1  0.720839  0.442783  0.000000  1
  N  N13  1  0.279161  0.721945  0.279161  1
  N  N14  1  0.450955  0.997543  0.735307  1
  N  N15  1  0.715649  0.262236  0.264693  1
  N  N16  1  0.551521  0.280529  0.551521  1
  N  N17  1  0.735307  0.997543  0.450955  1
  N  N18  1  0.264693  0.262236  0.715649  1
  N  N19  1  0.448479  0.729008  0.000000  1
  N  N20  1  0.549045  0.546588  0.284351  1
  N  N21  1  0.000000  0.442783  0.720839  1
  N  N22  1  0.000000  0.029967  0.000000  1
