# generated using pymatgen
data_Ho5Pa3(ReB6)4
_symmetry_space_group_name_H-M   'P 1'
_cell_length_a   3.69632200
_cell_length_b   9.14481023
_cell_length_c   11.49960700
_cell_angle_alpha   90.13459318
_cell_angle_beta   90.00000000
_cell_angle_gamma   90.00000000
_symmetry_Int_Tables_number   1
_chemical_formula_structural   Ho5Pa3(ReB6)4
_chemical_formula_sum   'Ho5 Pa3 Re4 B24'
_cell_volume   388.71052057
_cell_formula_units_Z   1
loop_
 _symmetry_equiv_pos_site_id
 _symmetry_equiv_pos_as_xyz
  1  'x, y, z'
loop_
 _atom_site_type_symbol
 _atom_site_label
 _atom_site_symmetry_multiplicity
 _atom_site_fract_x
 _atom_site_fract_y
 _atom_site_fract_z
 _atom_site_occupancy
  Ho  Ho0  1  0.000000  0.179567  0.913302  1
  Ho  Ho1  1  0.000000  0.945098  0.374501  1
  Ho  Ho2  1  0.000000  0.055773  0.627433  1
  Ho  Ho3  1  0.000000  0.443146  0.124886  1
  Ho  Ho4  1  0.000000  0.553870  0.874108  1
  Pa  Pa5  1  0.000000  0.321098  0.413425  1
  Pa  Pa6  1  0.000000  0.678373  0.587128  1
  Pa  Pa7  1  0.000000  0.823285  0.085980  1
  Re  Re8  1  0.000000  0.638437  0.322015  1
  Re  Re9  1  0.000000  0.363959  0.675667  1
  Re  Re10  1  0.000000  0.137780  0.180455  1
  Re  Re11  1  0.000000  0.860022  0.821193  1
  B  B12  1  0.500000  0.553593  0.432576  1
  B  B13  1  0.500000  0.446955  0.566512  1
  B  B14  1  0.500000  0.053174  0.067592  1
  B  B15  1  0.500000  0.945876  0.933218  1
  B  B16  1  0.500000  0.749063  0.420052  1
  B  B17  1  0.500000  0.251290  0.580735  1
  B  B18  1  0.500000  0.248207  0.079484  1
  B  B19  1  0.500000  0.751665  0.920039  1
  B  B20  1  0.500000  0.792493  0.265452  1
  B  B21  1  0.500000  0.207951  0.734250  1
  B  B22  1  0.500000  0.292291  0.233563  1
  B  B23  1  0.500000  0.707271  0.765902  1
  B  B24  1  0.500000  0.632116  0.184565  1
  B  B25  1  0.500000  0.367949  0.814797  1
  B  B26  1  0.500000  0.132304  0.315165  1
  B  B27  1  0.500000  0.867980  0.685941  1
  B  B28  1  0.500000  0.982497  0.212986  1
  B  B29  1  0.500000  0.018053  0.787249  1
  B  B30  1  0.500000  0.482467  0.285950  1
  B  B31  1  0.500000  0.517079  0.713460  1
  B  B32  1  0.500000  0.608542  0.030084  1
  B  B33  1  0.500000  0.390729  0.969495  1
  B  B34  1  0.500000  0.109288  0.470259  1
  B  B35  1  0.500000  0.890763  0.530581  1
