# generated using pymatgen
data_DyHo11Ir3Os
_symmetry_space_group_name_H-M   'P 1'
_cell_length_a   6.39218681
_cell_length_b   7.27341128
_cell_length_c   9.08038000
_cell_angle_alpha   90.00000000
_cell_angle_beta   90.00000000
_cell_angle_gamma   90.04473547
_symmetry_Int_Tables_number   1
_chemical_formula_structural   DyHo11Ir3Os
_chemical_formula_sum   'Dy1 Ho11 Ir3 Os1'
_cell_volume   422.17401169
_cell_formula_units_Z   1
loop_
 _symmetry_equiv_pos_site_id
 _symmetry_equiv_pos_as_xyz
  1  'x, y, z'
loop_
 _atom_site_type_symbol
 _atom_site_label
 _atom_site_symmetry_multiplicity
 _atom_site_fract_x
 _atom_site_fract_y
 _atom_site_fract_z
 _atom_site_occupancy
  Dy  Dy0  1  0.371786  0.963472  0.750000  1
  Ho  Ho1  1  0.325332  0.678272  0.064285  1
  Ho  Ho2  1  0.171939  0.175231  0.436108  1
  Ho  Ho3  1  0.672524  0.323131  0.562530  1
  Ho  Ho4  1  0.830864  0.823655  0.940103  1
  Ho  Ho5  1  0.672524  0.323131  0.937470  1
  Ho  Ho6  1  0.830864  0.823655  0.559897  1
  Ho  Ho7  1  0.325332  0.678272  0.435715  1
  Ho  Ho8  1  0.171939  0.175231  0.063892  1
  Ho  Ho9  1  0.871153  0.534504  0.250000  1
  Ho  Ho10  1  0.627680  0.035820  0.250000  1
  Ho  Ho11  1  0.131201  0.464827  0.750000  1
  Ir  Ir12  1  0.458067  0.384884  0.250000  1
  Ir  Ir13  1  0.957913  0.116628  0.750000  1
  Ir  Ir14  1  0.544512  0.615008  0.750000  1
  Os  Os15  1  0.036367  0.884276  0.250000  1
