# generated using pymatgen
data_Pr20Ir7Rh5
_symmetry_space_group_name_H-M   'P 1'
_cell_length_a   11.31530809
_cell_length_b   11.31530809
_cell_length_c   6.68659701
_cell_angle_alpha   90.00384244
_cell_angle_beta   90.00384244
_cell_angle_gamma   89.94974913
_symmetry_Int_Tables_number   1
_chemical_formula_structural   Pr20Ir7Rh5
_chemical_formula_sum   'Pr20 Ir7 Rh5'
_cell_volume   856.12612040
_cell_formula_units_Z   1
loop_
 _symmetry_equiv_pos_site_id
 _symmetry_equiv_pos_as_xyz
  1  'x, y, z'
loop_
 _atom_site_type_symbol
 _atom_site_label
 _atom_site_symmetry_multiplicity
 _atom_site_fract_x
 _atom_site_fract_y
 _atom_site_fract_z
 _atom_site_occupancy
  Pr  Pr0  1  0.290794  0.090538  0.383773  1
  Pr  Pr1  1  0.291154  0.909493  0.883308  1
  Pr  Pr2  1  0.708219  0.089887  0.881575  1
  Pr  Pr3  1  0.708191  0.907685  0.383675  1
  Pr  Pr4  1  0.590588  0.790734  0.883745  1
  Pr  Pr5  1  0.589062  0.209425  0.383193  1
  Pr  Pr6  1  0.409054  0.790990  0.383724  1
  Pr  Pr7  1  0.409269  0.208899  0.883392  1
  Pr  Pr8  1  0.209266  0.409412  0.616255  1
  Pr  Pr9  1  0.209010  0.590946  0.116276  1
  Pr  Pr10  1  0.790575  0.410938  0.116807  1
  Pr  Pr11  1  0.791101  0.590731  0.616608  1
  Pr  Pr12  1  0.909462  0.709206  0.116227  1
  Pr  Pr13  1  0.910113  0.291781  0.618425  1
  Pr  Pr14  1  0.090507  0.708846  0.616692  1
  Pr  Pr15  1  0.092315  0.291809  0.116325  1
  Pr  Pr16  1  0.999636  0.999735  0.499400  1
  Pr  Pr17  1  0.000265  0.000364  0.000600  1
  Pr  Pr18  1  0.499758  0.499709  0.999633  1
  Pr  Pr19  1  0.500291  0.500242  0.500367  1
  Ir  Ir20  1  0.846268  0.846707  0.749773  1
  Ir  Ir21  1  0.153293  0.153732  0.750227  1
  Ir  Ir22  1  0.154242  0.845758  0.250000  1
  Ir  Ir23  1  0.654688  0.345312  0.750000  1
  Ir  Ir24  1  0.654336  0.653706  0.249742  1
  Ir  Ir25  1  0.346294  0.345664  0.250258  1
  Ir  Ir26  1  0.345842  0.654158  0.750000  1
  Rh  Rh27  1  0.845803  0.154197  0.250000  1
  Rh  Rh28  1  0.500901  0.000374  0.116299  1
  Rh  Rh29  1  0.500413  0.000336  0.615348  1
  Rh  Rh30  1  0.999664  0.499587  0.884652  1
  Rh  Rh31  1  0.999626  0.499099  0.383701  1
