# generated using pymatgen
data_Ca12Ga8Si4Sn3Mo5O48
_symmetry_space_group_name_H-M   'P 1'
_cell_length_a   10.90566318
_cell_length_b   10.90564419
_cell_length_c   10.90566300
_cell_angle_alpha   109.04948547
_cell_angle_beta   109.04954551
_cell_angle_gamma   110.31804149
_symmetry_Int_Tables_number   1
_chemical_formula_structural   Ca12Ga8Si4Sn3Mo5O48
_chemical_formula_sum   'Ca12 Ga8 Si4 Sn3 Mo5 O48'
_cell_volume   998.30189979
_cell_formula_units_Z   1
loop_
 _symmetry_equiv_pos_site_id
 _symmetry_equiv_pos_as_xyz
  1  'x, y, z'
loop_
 _atom_site_type_symbol
 _atom_site_label
 _atom_site_symmetry_multiplicity
 _atom_site_fract_x
 _atom_site_fract_y
 _atom_site_fract_z
 _atom_site_occupancy
  Ca  Ca0  1  0.751485  0.751505  0.999835  1
  Ca  Ca1  1  0.875977  0.248615  0.875354  1
  Ca  Ca2  1  0.499865  0.124907  0.874865  1
  Ca  Ca3  1  0.250645  0.251386  0.000679  1
  Ca  Ca4  1  0.875179  0.748825  0.373918  1
  Ca  Ca5  1  0.249779  0.624700  0.125531  1
  Ca  Ca6  1  0.000221  0.125300  0.374469  1
  Ca  Ca7  1  0.999355  0.498614  0.499321  1
  Ca  Ca8  1  0.374821  0.001175  0.126082  1
  Ca  Ca9  1  0.750135  0.625093  0.625135  1
  Ca  Ca10  1  0.374023  0.501385  0.624646  1
  Ca  Ca11  1  0.498515  0.998495  0.500165  1
  Ga  Ga12  1  0.999668  0.624949  0.874538  1
  Ga  Ga13  1  0.375043  0.751263  0.876294  1
  Ga  Ga14  1  0.874911  0.499694  0.123815  1
  Ga  Ga15  1  0.749800  0.124269  0.124747  1
  Ga  Ga16  1  0.500200  0.625731  0.375253  1
  Ga  Ga17  1  0.375089  0.250306  0.376185  1
  Ga  Ga18  1  0.874957  0.998737  0.623706  1
  Ga  Ga19  1  0.250332  0.125051  0.625462  1
  Si  Si20  1  0.000266  0.000383  0.000146  1
  Si  Si21  1  0.500148  0.500153  0.000008  1
  Si  Si22  1  0.249734  0.749617  0.499854  1
  Si  Si23  1  0.749852  0.249847  0.499992  1
  Sn  Sn24  1  0.625000  0.875000  0.250000  1
  Sn  Sn25  1  0.125000  0.875000  0.750000  1
  Sn  Sn26  1  0.625000  0.375000  0.750000  1
  Mo  Mo27  1  0.125000  0.375000  0.750000  1
  Mo  Mo28  1  0.625000  0.375000  0.250000  1
  Mo  Mo29  1  0.125000  0.375000  0.250000  1
  Mo  Mo30  1  0.125000  0.875000  0.250000  1
  Mo  Mo31  1  0.625000  0.875000  0.750000  1
  O  O32  1  0.826333  0.872580  0.861710  1
  O  O33  1  0.030042  0.194853  0.775883  1
  O  O34  1  0.047717  0.475796  0.874224  1
  O  O35  1  0.805297  0.584300  0.835798  1
  O  O36  1  0.529934  0.754065  0.835122  1
  O  O37  1  0.535949  0.490671  0.861386  1
  O  O38  1  0.725646  0.348956  0.927894  1
  O  O39  1  0.918696  0.695294  0.164844  1
  O  O40  1  0.024265  0.451952  0.125701  1
  O  O41  1  0.036045  0.174323  0.045962  1
  O  O42  1  0.421033  0.797409  0.072377  1
  O  O43  1  0.248522  0.084512  0.779177  1
  O  O44  1  0.702230  0.076033  0.928095  1
  O  O45  1  0.326243  0.464565  0.953971  1
  O  O46  1  0.629353  0.674671  0.138669  1
  O  O47  1  0.510890  0.372741  0.046496  1
  O  O48  1  0.147882  0.773810  0.071759  1
  O  O49  1  0.328955  0.901277  0.876471  1
  O  O50  1  0.011014  0.964427  0.138323  1
  O  O51  1  0.831064  0.495634  0.275703  1
  O  O52  1  0.945090  0.280698  0.276299  1
  O  O53  1  0.602281  0.173864  0.126450  1
  O  O54  1  0.501031  0.780288  0.335495  1
  O  O55  1  0.129333  0.990478  0.954694  1
  O  O56  1  0.120667  0.759522  0.545306  1
  O  O57  1  0.748969  0.969712  0.164505  1
  O  O58  1  0.647719  0.576136  0.373550  1
  O  O59  1  0.304910  0.469302  0.223701  1
  O  O60  1  0.418936  0.254366  0.224297  1
  O  O61  1  0.238986  0.785573  0.361677  1
  O  O62  1  0.921045  0.848723  0.623529  1
  O  O63  1  0.102118  0.976190  0.428241  1
  O  O64  1  0.739110  0.377259  0.453504  1
  O  O65  1  0.620647  0.075329  0.361331  1
  O  O66  1  0.923757  0.285435  0.546029  1
  O  O67  1  0.547770  0.673967  0.571905  1
  O  O68  1  0.001478  0.665488  0.720823  1
  O  O69  1  0.828967  0.952591  0.427623  1
  O  O70  1  0.225735  0.298048  0.374299  1
  O  O71  1  0.213955  0.575677  0.454038  1
  O  O72  1  0.331304  0.054706  0.335156  1
  O  O73  1  0.524354  0.401044  0.572106  1
  O  O74  1  0.714051  0.259329  0.638614  1
  O  O75  1  0.720066  0.995935  0.664878  1
  O  O76  1  0.444703  0.165700  0.664202  1
  O  O77  1  0.202283  0.274204  0.625776  1
  O  O78  1  0.219958  0.555147  0.724117  1
  O  O79  1  0.423667  0.877420  0.638290  1
