# generated using pymatgen
data_Zr4GeB4PRu10
_symmetry_space_group_name_H-M   'P 1'
_cell_length_a   9.36972500
_cell_length_b   9.36972500
_cell_length_c   3.05235400
_cell_angle_alpha   90.00000000
_cell_angle_beta   90.00000000
_cell_angle_gamma   90.00000000
_symmetry_Int_Tables_number   1
_chemical_formula_structural   Zr4GeB4PRu10
_chemical_formula_sum   'Zr4 Ge1 B4 P1 Ru10'
_cell_volume   267.97148883
_cell_formula_units_Z   1
loop_
 _symmetry_equiv_pos_site_id
 _symmetry_equiv_pos_as_xyz
  1  'x, y, z'
loop_
 _atom_site_type_symbol
 _atom_site_label
 _atom_site_symmetry_multiplicity
 _atom_site_fract_x
 _atom_site_fract_y
 _atom_site_fract_z
 _atom_site_occupancy
  Zr  Zr0  1  0.675674  0.175856  0.000000  1
  Zr  Zr1  1  0.324326  0.824144  0.000000  1
  Zr  Zr2  1  0.175856  0.324326  0.000000  1
  Zr  Zr3  1  0.824144  0.675674  0.000000  1
  Ge  Ge4  1  0.500000  0.500000  0.000000  1
  B  B5  1  0.122367  0.624383  0.000000  1
  B  B6  1  0.877633  0.375617  0.000000  1
  B  B7  1  0.624383  0.877633  0.000000  1
  B  B8  1  0.375617  0.122367  0.000000  1
  P  P9  1  0.000000  0.000000  0.000000  1
  Ru  Ru10  1  0.208701  0.065281  0.500000  1
  Ru  Ru11  1  0.791299  0.934719  0.500000  1
  Ru  Ru12  1  0.065281  0.791299  0.500000  1
  Ru  Ru13  1  0.715105  0.429188  0.500000  1
  Ru  Ru14  1  0.934719  0.208701  0.500000  1
  Ru  Ru15  1  0.284895  0.570812  0.500000  1
  Ru  Ru16  1  0.570812  0.715105  0.500000  1
  Ru  Ru17  1  0.429188  0.284895  0.500000  1
  Ru  Ru18  1  0.500000  0.000000  0.500000  1
  Ru  Ru19  1  0.000000  0.500000  0.500000  1
