# generated using pymatgen
data_Li2Ti3Nb(AsRu)6
_symmetry_space_group_name_H-M   'P 1'
_cell_length_a   7.49666377
_cell_length_b   7.47580983
_cell_length_c   7.49666311
_cell_angle_alpha   127.77537404
_cell_angle_beta   121.31745054
_cell_angle_gamma   82.47219355
_symmetry_Int_Tables_number   1
_chemical_formula_structural   Li2Ti3Nb(AsRu)6
_chemical_formula_sum   'Li2 Ti3 Nb1 As6 Ru6'
_cell_volume   272.55839919
_cell_formula_units_Z   1
loop_
 _symmetry_equiv_pos_site_id
 _symmetry_equiv_pos_as_xyz
  1  'x, y, z'
loop_
 _atom_site_type_symbol
 _atom_site_label
 _atom_site_symmetry_multiplicity
 _atom_site_fract_x
 _atom_site_fract_y
 _atom_site_fract_z
 _atom_site_occupancy
  Li  Li0  1  0.478440  0.239275  0.260834  1
  Li  Li1  1  0.520517  0.773135  0.752618  1
  Ti  Ti2  1  0.251394  0.673424  0.922031  1
  Ti  Ti3  1  0.053619  0.854209  0.300590  1
  Ti  Ti4  1  0.941330  0.231094  0.789764  1
  Nb  Nb5  1  0.748042  0.670076  0.422033  1
  As  As6  1  0.832929  0.576142  0.749032  1
  As  As7  1  0.171721  0.916794  0.749009  1
  As  As8  1  0.667784  0.916794  0.245073  1
  As  As9  1  0.327111  0.576142  0.243214  1
  As  As10  1  0.295902  0.315792  0.519890  1
  As  As11  1  0.710498  0.203226  0.992728  1
  Ru  Ru12  1  0.667680  0.495049  0.918034  1
  Ru  Ru13  1  0.334947  0.251666  0.829691  1
  Ru  Ru14  1  0.921975  0.251666  0.416720  1
  Ru  Ru15  1  0.077015  0.495049  0.327369  1
  Ru  Ru16  1  0.018828  0.000432  0.020166  1
  Ru  Ru17  1  0.480266  0.000432  0.481604  1
