# generated using pymatgen
data_Th3Zn2AgC
_symmetry_space_group_name_H-M   'P 1'
_cell_length_a   9.58631858
_cell_length_b   9.58627027
_cell_length_c   9.58626337
_cell_angle_alpha   59.13323418
_cell_angle_beta   59.13364150
_cell_angle_gamma   59.13363157
_symmetry_Int_Tables_number   1
_chemical_formula_structural   Th3Zn2AgC
_chemical_formula_sum   'Th12 Zn8 Ag4 C4'
_cell_volume   610.62257015
_cell_formula_units_Z   4
loop_
 _symmetry_equiv_pos_site_id
 _symmetry_equiv_pos_as_xyz
  1  'x, y, z'
loop_
 _atom_site_type_symbol
 _atom_site_label
 _atom_site_symmetry_multiplicity
 _atom_site_fract_x
 _atom_site_fract_y
 _atom_site_fract_z
 _atom_site_occupancy
  Th  Th0  1  0.441853  0.441853  0.057677  1
  Th  Th1  1  0.057707  0.442481  0.057712  1
  Th  Th2  1  0.442482  0.057709  0.057709  1
  Th  Th3  1  0.057708  0.057712  0.442482  1
  Th  Th4  1  0.441853  0.057677  0.441853  1
  Th  Th5  1  0.057677  0.441851  0.441852  1
  Th  Th6  1  0.808147  0.808147  0.192323  1
  Th  Th7  1  0.192293  0.807519  0.192288  1
  Th  Th8  1  0.807518  0.192291  0.192291  1
  Th  Th9  1  0.192292  0.192288  0.807518  1
  Th  Th10  1  0.808147  0.192323  0.808147  1
  Th  Th11  1  0.192323  0.808149  0.808148  1
  Zn  Zn12  1  0.825519  0.825520  0.521464  1
  Zn  Zn13  1  0.825521  0.521460  0.825521  1
  Zn  Zn14  1  0.521456  0.825524  0.825523  1
  Zn  Zn15  1  0.826576  0.826576  0.826576  1
  Zn  Zn16  1  0.424481  0.424480  0.728536  1
  Zn  Zn17  1  0.424479  0.728540  0.424479  1
  Zn  Zn18  1  0.728544  0.424476  0.424477  1
  Zn  Zn19  1  0.423424  0.423424  0.423424  1
  Ag  Ag20  1  0.625000  0.625000  0.125000  1
  Ag  Ag21  1  0.625000  0.125000  0.625000  1
  Ag  Ag22  1  0.125000  0.625000  0.625000  1
  Ag  Ag23  1  0.625000  0.625000  0.625000  1
  C  C24  1  0.125000  0.125000  0.625000  1
  C  C25  1  0.125000  0.625000  0.125000  1
  C  C26  1  0.625000  0.125000  0.125000  1
  C  C27  1  0.125000  0.125000  0.125000  1
