# generated using pymatgen
data_K2Rb6YbSnI12
_symmetry_space_group_name_H-M   'P 1'
_cell_length_a   10.17017978
_cell_length_b   10.17017847
_cell_length_c   10.17018008
_cell_angle_alpha   90.51770961
_cell_angle_beta   90.51771788
_cell_angle_gamma   90.51770713
_symmetry_Int_Tables_number   1
_chemical_formula_structural   K2Rb6YbSnI12
_chemical_formula_sum   'K2 Rb6 Yb1 Sn1 I12'
_cell_volume   1051.79798500
_cell_formula_units_Z   1
loop_
 _symmetry_equiv_pos_site_id
 _symmetry_equiv_pos_as_xyz
  1  'x, y, z'
loop_
 _atom_site_type_symbol
 _atom_site_label
 _atom_site_symmetry_multiplicity
 _atom_site_fract_x
 _atom_site_fract_y
 _atom_site_fract_z
 _atom_site_occupancy
  K  K0  1  0.249849  0.249849  0.249849  1
  K  K1  1  0.750151  0.750151  0.750151  1
  Rb  Rb2  1  0.869510  0.631037  0.250757  1
  Rb  Rb3  1  0.631037  0.250757  0.869510  1
  Rb  Rb4  1  0.250757  0.869510  0.631037  1
  Rb  Rb5  1  0.130490  0.368963  0.749243  1
  Rb  Rb6  1  0.368963  0.749243  0.130490  1
  Rb  Rb7  1  0.749243  0.130490  0.368963  1
  Yb  Yb8  1  0.500000  0.500000  0.500000  1
  Sn  Sn9  1  0.000000  0.000000  0.000000  1
  I  I10  1  0.204135  0.553906  0.427899  1
  I  I11  1  0.054976  0.697853  0.926517  1
  I  I12  1  0.926517  0.054976  0.697853  1
  I  I13  1  0.795865  0.446094  0.572101  1
  I  I14  1  0.697853  0.926517  0.054976  1
  I  I15  1  0.446094  0.572101  0.795865  1
  I  I16  1  0.572101  0.795865  0.446094  1
  I  I17  1  0.553906  0.427899  0.204135  1
  I  I18  1  0.073483  0.945024  0.302147  1
  I  I19  1  0.945024  0.302147  0.073483  1
  I  I20  1  0.302147  0.073483  0.945024  1
  I  I21  1  0.427899  0.204135  0.553906  1
