# generated using pymatgen
data_Tm8ReTc(B12Ru)2
_symmetry_space_group_name_H-M   'P 1'
_cell_length_a   3.62967800
_cell_length_b   9.08480256
_cell_length_c   11.45808722
_cell_angle_alpha   89.82384792
_cell_angle_beta   90.00000000
_cell_angle_gamma   90.00000000
_symmetry_Int_Tables_number   1
_chemical_formula_structural   Tm8ReTc(B12Ru)2
_chemical_formula_sum   'Tm8 Re1 Tc1 B24 Ru2'
_cell_volume   377.82758588
_cell_formula_units_Z   1
loop_
 _symmetry_equiv_pos_site_id
 _symmetry_equiv_pos_as_xyz
  1  'x, y, z'
loop_
 _atom_site_type_symbol
 _atom_site_label
 _atom_site_symmetry_multiplicity
 _atom_site_fract_x
 _atom_site_fract_y
 _atom_site_fract_z
 _atom_site_occupancy
  Tm  Tm0  1  0.000000  0.324721  0.415384  1
  Tm  Tm1  1  0.000000  0.675680  0.584370  1
  Tm  Tm2  1  0.000000  0.820723  0.087742  1
  Tm  Tm3  1  0.000000  0.179544  0.912367  1
  Tm  Tm4  1  0.000000  0.942107  0.370775  1
  Tm  Tm5  1  0.000000  0.056932  0.628826  1
  Tm  Tm6  1  0.000000  0.443157  0.129793  1
  Tm  Tm7  1  0.000000  0.557267  0.871032  1
  Re  Re8  1  0.000000  0.361534  0.679686  1
  Tc  Tc9  1  0.000000  0.638650  0.320078  1
  B  B10  1  0.500000  0.553000  0.433247  1
  B  B11  1  0.500000  0.447294  0.566292  1
  B  B12  1  0.500000  0.053510  0.066492  1
  B  B13  1  0.500000  0.946414  0.933583  1
  B  B14  1  0.500000  0.749119  0.419544  1
  B  B15  1  0.500000  0.250501  0.580189  1
  B  B16  1  0.500000  0.249014  0.080586  1
  B  B17  1  0.500000  0.751033  0.919536  1
  B  B18  1  0.500000  0.792190  0.264814  1
  B  B19  1  0.500000  0.207420  0.735084  1
  B  B20  1  0.500000  0.291181  0.234577  1
  B  B21  1  0.500000  0.708849  0.765615  1
  B  B22  1  0.500000  0.631082  0.184540  1
  B  B23  1  0.500000  0.369100  0.815686  1
  B  B24  1  0.500000  0.130608  0.314618  1
  B  B25  1  0.500000  0.869202  0.685328  1
  B  B26  1  0.500000  0.982174  0.211901  1
  B  B27  1  0.500000  0.017683  0.788017  1
  B  B28  1  0.500000  0.481739  0.287483  1
  B  B29  1  0.500000  0.518805  0.712568  1
  B  B30  1  0.500000  0.603262  0.028524  1
  B  B31  1  0.500000  0.396902  0.971871  1
  B  B32  1  0.500000  0.102739  0.471127  1
  B  B33  1  0.500000  0.896764  0.528663  1
  Ru  Ru34  1  0.000000  0.137729  0.178533  1
  Ru  Ru35  1  0.000000  0.862373  0.821528  1
