# generated using pymatgen
data_YBe2Ni3
_symmetry_space_group_name_H-M   'P 1'
_cell_length_a   3.42795900
_cell_length_b   5.01762276
_cell_length_c   5.01762400
_cell_angle_alpha   60.00000503
_cell_angle_beta   90.00000000
_cell_angle_gamma   90.00000000
_symmetry_Int_Tables_number   1
_chemical_formula_structural   YBe2Ni3
_chemical_formula_sum   'Y1 Be2 Ni3'
_cell_volume   74.74160050
_cell_formula_units_Z   1
loop_
 _symmetry_equiv_pos_site_id
 _symmetry_equiv_pos_as_xyz
  1  'x, y, z'
loop_
 _atom_site_type_symbol
 _atom_site_label
 _atom_site_symmetry_multiplicity
 _atom_site_fract_x
 _atom_site_fract_y
 _atom_site_fract_z
 _atom_site_occupancy
  Y  Y0  1  0.500001  0.000000  0.000000  1
  Be  Be1  1  0.500001  0.333332  0.333335  1
  Be  Be2  1  0.500001  0.666667  0.666665  1
  Ni  Ni3  1  0.000000  0.500001  0.000000  1
  Ni  Ni4  1  0.000000  0.000000  0.499999  1
  Ni  Ni5  1  0.000000  0.499999  0.500001  1
