# generated using pymatgen
data_Ho12Ni4RuPb
_symmetry_space_group_name_H-M   'P 1'
_cell_length_a   8.28362959
_cell_length_b   8.28362921
_cell_length_c   8.28363005
_cell_angle_alpha   111.49810252
_cell_angle_beta   109.90971333
_cell_angle_gamma   107.03709432
_symmetry_Int_Tables_number   1
_chemical_formula_structural   Ho12Ni4RuPb
_chemical_formula_sum   'Ho12 Ni4 Ru1 Pb1'
_cell_volume   436.88544910
_cell_formula_units_Z   1
loop_
 _symmetry_equiv_pos_site_id
 _symmetry_equiv_pos_as_xyz
  1  'x, y, z'
loop_
 _atom_site_type_symbol
 _atom_site_label
 _atom_site_symmetry_multiplicity
 _atom_site_fract_x
 _atom_site_fract_y
 _atom_site_fract_z
 _atom_site_occupancy
  Ho  Ho0  1  0.405956  0.215513  0.190442  1
  Ho  Ho1  1  0.594044  0.784487  0.809558  1
  Ho  Ho2  1  0.025071  0.215513  0.809558  1
  Ho  Ho3  1  0.974929  0.784487  0.190442  1
  Ho  Ho4  1  0.180678  0.288069  0.468747  1
  Ho  Ho5  1  0.819322  0.711931  0.531253  1
  Ho  Ho6  1  0.180678  0.711931  0.892609  1
  Ho  Ho7  1  0.819322  0.288069  0.107391  1
  Ho  Ho8  1  0.319889  0.627191  0.307302  1
  Ho  Ho9  1  0.680111  0.372809  0.692698  1
  Ho  Ho10  1  0.319889  0.012588  0.692698  1
  Ho  Ho11  1  0.680111  0.987412  0.307302  1
  Ni  Ni12  1  0.361310  0.000000  0.361310  1
  Ni  Ni13  1  0.638690  0.000000  0.638690  1
  Ni  Ni14  1  0.122370  0.622370  0.500000  1
  Ni  Ni15  1  0.877630  0.377630  0.500000  1
  Ru  Ru16  1  0.000000  0.000000  0.000000  1
  Pb  Pb17  1  0.500000  0.500000  0.000000  1
