# generated using pymatgen
data_Hf3Ti2Ga2Bi
_symmetry_space_group_name_H-M   'P 1'
_cell_length_a   8.09309500
_cell_length_b   8.10238823
_cell_length_c   5.50815000
_cell_angle_alpha   90.00000000
_cell_angle_beta   90.00000000
_cell_angle_gamma   119.96206157
_symmetry_Int_Tables_number   1
_chemical_formula_structural   Hf3Ti2Ga2Bi
_chemical_formula_sum   'Hf6 Ti4 Ga4 Bi2'
_cell_volume   312.91759099
_cell_formula_units_Z   2
loop_
 _symmetry_equiv_pos_site_id
 _symmetry_equiv_pos_as_xyz
  1  'x, y, z'
loop_
 _atom_site_type_symbol
 _atom_site_label
 _atom_site_symmetry_multiplicity
 _atom_site_fract_x
 _atom_site_fract_y
 _atom_site_fract_z
 _atom_site_occupancy
  Hf  Hf0  1  0.220225  0.000000  0.250000  1
  Hf  Hf1  1  0.779775  0.000000  0.750000  1
  Hf  Hf2  1  0.019943  0.264162  0.250000  1
  Hf  Hf3  1  0.980057  0.735838  0.750000  1
  Hf  Hf4  1  0.755781  0.735838  0.250000  1
  Hf  Hf5  1  0.244219  0.264162  0.750000  1
  Ti  Ti6  1  0.323027  0.646054  0.000000  1
  Ti  Ti7  1  0.676973  0.353946  0.000000  1
  Ti  Ti8  1  0.676973  0.353946  0.500000  1
  Ti  Ti9  1  0.323027  0.646054  0.500000  1
  Ga  Ga10  1  0.007198  0.604909  0.250000  1
  Ga  Ga11  1  0.992802  0.395091  0.750000  1
  Ga  Ga12  1  0.402289  0.395091  0.250000  1
  Ga  Ga13  1  0.597711  0.604909  0.750000  1
  Bi  Bi14  1  0.608122  0.000000  0.250000  1
  Bi  Bi15  1  0.391878  0.000000  0.750000  1
