# generated using pymatgen
data_Zr6NbFeCo16As11P
_symmetry_space_group_name_H-M   'P 1'
_cell_length_a   12.45223400
_cell_length_b   12.45223298
_cell_length_c   3.76727400
_cell_angle_alpha   90.00000000
_cell_angle_beta   90.00000000
_cell_angle_gamma   119.92586536
_symmetry_Int_Tables_number   1
_chemical_formula_structural   Zr6NbFeCo16As11P
_chemical_formula_sum   'Zr6 Nb1 Fe1 Co16 As11 P1'
_cell_volume   506.26312726
_cell_formula_units_Z   1
loop_
 _symmetry_equiv_pos_site_id
 _symmetry_equiv_pos_as_xyz
  1  'x, y, z'
loop_
 _atom_site_type_symbol
 _atom_site_label
 _atom_site_symmetry_multiplicity
 _atom_site_fract_x
 _atom_site_fract_y
 _atom_site_fract_z
 _atom_site_occupancy
  Zr  Zr0  1  0.000318  0.556596  0.000000  1
  Zr  Zr1  1  0.664381  0.333316  0.000000  1
  Zr  Zr2  1  0.334815  0.666590  0.000000  1
  Zr  Zr3  1  0.816444  0.815839  0.500000  1
  Zr  Zr4  1  0.174501  0.003641  0.500000  1
  Zr  Zr5  1  0.004321  0.173984  0.500000  1
  Nb  Nb6  1  0.555242  0.000525  0.000000  1
  Fe  Fe7  1  0.446313  0.446572  0.000000  1
  Co  Co8  1  0.200339  0.368010  0.000000  1
  Co  Co9  1  0.180206  0.807729  0.000000  1
  Co  Co10  1  0.818662  0.627819  0.000000  1
  Co  Co11  1  0.803564  0.175963  0.000000  1
  Co  Co12  1  0.369088  0.200219  0.000000  1
  Co  Co13  1  0.128894  0.477224  0.500000  1
  Co  Co14  1  0.358534  0.878725  0.500000  1
  Co  Co15  1  0.517013  0.642394  0.500000  1
  Co  Co16  1  0.640260  0.517341  0.500000  1
  Co  Co17  1  0.876621  0.353998  0.500000  1
  Co  Co18  1  0.480020  0.129381  0.500000  1
  Co  Co19  1  0.009268  0.009516  0.000000  1
  Co  Co20  1  0.719862  0.000976  0.500000  1
  Co  Co21  1  0.001051  0.720900  0.500000  1
  Co  Co22  1  0.627139  0.821725  0.000000  1
  Co  Co23  1  0.275272  0.274897  0.500000  1
  As  As24  1  0.636503  0.638074  0.000000  1
  As  As25  1  0.350823  0.005330  0.000000  1
  As  As26  1  0.004040  0.345321  0.000000  1
  As  As27  1  0.480137  0.318198  0.500000  1
  As  As28  1  0.687083  0.172584  0.500000  1
  As  As29  1  0.824176  0.515336  0.500000  1
  As  As30  1  0.516550  0.828325  0.500000  1
  As  As31  1  0.176759  0.690319  0.500000  1
  As  As32  1  0.825404  0.997762  0.000000  1
  As  As33  1  0.998554  0.825953  0.000000  1
  As  As34  1  0.318476  0.480109  0.500000  1
  P  P35  1  0.179369  0.178812  0.000000  1
