# generated using pymatgen
data_DyTm11GaCo4Sn
_symmetry_space_group_name_H-M   'P 1'
_cell_length_a   8.20372323
_cell_length_b   8.19233528
_cell_length_c   8.19233502
_cell_angle_alpha   112.09293745
_cell_angle_beta   109.40792849
_cell_angle_gamma   106.90180129
_symmetry_Int_Tables_number   1
_chemical_formula_structural   DyTm11GaCo4Sn
_chemical_formula_sum   'Dy1 Tm11 Ga1 Co4 Sn1'
_cell_volume   423.24675913
_cell_formula_units_Z   1
loop_
 _symmetry_equiv_pos_site_id
 _symmetry_equiv_pos_as_xyz
  1  'x, y, z'
loop_
 _atom_site_type_symbol
 _atom_site_label
 _atom_site_symmetry_multiplicity
 _atom_site_fract_x
 _atom_site_fract_y
 _atom_site_fract_z
 _atom_site_occupancy
  Dy  Dy0  1  0.564837  0.266680  0.298156  1
  Tm  Tm1  1  0.180248  0.219010  0.399933  1
  Tm  Tm2  1  0.180248  0.780315  0.961239  1
  Tm  Tm3  1  0.675225  0.488135  0.813463  1
  Tm  Tm4  1  0.675225  0.861763  0.187090  1
  Tm  Tm5  1  0.968986  0.266650  0.702336  1
  Tm  Tm6  1  0.031387  0.733392  0.297995  1
  Tm  Tm7  1  0.324196  0.137394  0.811792  1
  Tm  Tm8  1  0.324196  0.512404  0.186803  1
  Tm  Tm9  1  0.819558  0.218796  0.037729  1
  Tm  Tm10  1  0.819558  0.781828  0.600762  1
  Tm  Tm11  1  0.435376  0.733147  0.702229  1
  Ga  Ga12  1  0.001500  0.500922  0.500578  1
  Co  Co13  1  0.884819  0.884701  0.000118  1
  Co  Co14  1  0.342171  0.499885  0.842286  1
  Co  Co15  1  0.658127  0.500448  0.157679  1
  Co  Co16  1  0.114219  0.114986  0.999234  1
  Sn  Sn17  1  0.500123  0.999545  0.500577  1
