# generated using pymatgen
data_ScMn5(GaRu2)6
_symmetry_space_group_name_H-M   'P 1'
_cell_length_a   4.27000900
_cell_length_b   6.03444100
_cell_length_c   12.79480500
_cell_angle_alpha   90.00043676
_cell_angle_beta   89.99989265
_cell_angle_gamma   89.99993354
_symmetry_Int_Tables_number   1
_chemical_formula_structural   ScMn5(GaRu2)6
_chemical_formula_sum   'Sc1 Mn5 Ga6 Ru12'
_cell_volume   329.68524229
_cell_formula_units_Z   1
loop_
 _symmetry_equiv_pos_site_id
 _symmetry_equiv_pos_as_xyz
  1  'x, y, z'
loop_
 _atom_site_type_symbol
 _atom_site_label
 _atom_site_symmetry_multiplicity
 _atom_site_fract_x
 _atom_site_fract_y
 _atom_site_fract_z
 _atom_site_occupancy
  Sc  Sc0  1  0.999994  0.000008  0.999986  1
  Mn  Mn1  1  0.499944  0.500031  0.167728  1
  Mn  Mn2  1  0.999967  0.000013  0.333467  1
  Mn  Mn3  1  0.499965  0.500026  0.500014  1
  Mn  Mn4  1  0.000103  0.999943  0.666505  1
  Mn  Mn5  1  0.500019  0.500105  0.832270  1
  Ga  Ga6  1  0.999995  0.500010  0.999992  1
  Ga  Ga7  1  0.500002  0.999973  0.165608  1
  Ga  Ga8  1  0.999935  0.499989  0.337247  1
  Ga  Ga9  1  0.499954  0.000001  0.500017  1
  Ga  Ga10  1  0.000024  0.500024  0.662756  1
  Ga  Ga11  1  0.500063  0.999979  0.834400  1
  Ru  Ru12  1  0.499998  0.265425  0.000006  1
  Ru  Ru13  1  0.500000  0.734583  0.000020  1
  Ru  Ru14  1  0.000010  0.257324  0.173721  1
  Ru  Ru15  1  0.000007  0.742642  0.173735  1
  Ru  Ru16  1  0.499950  0.248626  0.334749  1
  Ru  Ru17  1  0.499952  0.751314  0.334752  1
  Ru  Ru18  1  0.999963  0.248917  0.500010  1
  Ru  Ru19  1  0.999974  0.751071  0.499998  1
  Ru  Ru20  1  0.500024  0.248702  0.665251  1
  Ru  Ru21  1  0.500026  0.751308  0.665249  1
  Ru  Ru22  1  0.000061  0.257360  0.826263  1
  Ru  Ru23  1  0.000072  0.742628  0.826257  1
