# generated using pymatgen
data_Ce2NdCd3AgPt2
_symmetry_space_group_name_H-M   'P 1'
_cell_length_a   7.92709219
_cell_length_b   7.92709161
_cell_length_c   3.88035500
_cell_angle_alpha   90.00000000
_cell_angle_beta   90.00000000
_cell_angle_gamma   120.54051957
_symmetry_Int_Tables_number   1
_chemical_formula_structural   Ce2NdCd3AgPt2
_chemical_formula_sum   'Ce2 Nd1 Cd3 Ag1 Pt2'
_cell_volume   210.00932190
_cell_formula_units_Z   1
loop_
 _symmetry_equiv_pos_site_id
 _symmetry_equiv_pos_as_xyz
  1  'x, y, z'
loop_
 _atom_site_type_symbol
 _atom_site_label
 _atom_site_symmetry_multiplicity
 _atom_site_fract_x
 _atom_site_fract_y
 _atom_site_fract_z
 _atom_site_occupancy
  Ce  Ce0  1  0.582671  0.000405  0.000000  1
  Ce  Ce1  1  0.000405  0.582671  0.000000  1
  Nd  Nd2  1  0.413362  0.413362  0.000000  1
  Cd  Cd3  1  0.737630  0.737630  0.500000  1
  Cd  Cd4  1  0.258542  0.002669  0.500000  1
  Cd  Cd5  1  0.002669  0.258542  0.500000  1
  Ag  Ag6  1  0.997767  0.997767  0.000000  1
  Pt  Pt7  1  0.676313  0.330641  0.500000  1
  Pt  Pt8  1  0.330641  0.676313  0.500000  1
