# generated using pymatgen
data_Y6Al20Si4Os7Ru
_symmetry_space_group_name_H-M   'P 1'
_cell_length_a   8.70295200
_cell_length_b   8.70295328
_cell_length_c   9.64711900
_cell_angle_alpha   90.00000000
_cell_angle_beta   90.00000000
_cell_angle_gamma   119.99999513
_symmetry_Int_Tables_number   1
_chemical_formula_structural   Y6Al20Si4Os7Ru
_chemical_formula_sum   'Y6 Al20 Si4 Os7 Ru1'
_cell_volume   632.79280014
_cell_formula_units_Z   1
loop_
 _symmetry_equiv_pos_site_id
 _symmetry_equiv_pos_as_xyz
  1  'x, y, z'
loop_
 _atom_site_type_symbol
 _atom_site_label
 _atom_site_symmetry_multiplicity
 _atom_site_fract_x
 _atom_site_fract_y
 _atom_site_fract_z
 _atom_site_occupancy
  Y  Y0  1  0.195217  0.390434  0.250222  1
  Y  Y1  1  0.804783  0.609566  0.749778  1
  Y  Y2  1  0.609566  0.804783  0.250222  1
  Y  Y3  1  0.390434  0.195217  0.749778  1
  Y  Y4  1  0.195217  0.804783  0.250222  1
  Y  Y5  1  0.804783  0.195217  0.749778  1
  Al  Al6  1  0.165012  0.330023  0.576808  1
  Al  Al7  1  0.834988  0.669977  0.423192  1
  Al  Al8  1  0.669977  0.834988  0.576808  1
  Al  Al9  1  0.835155  0.670310  0.076838  1
  Al  Al10  1  0.330023  0.165012  0.423192  1
  Al  Al11  1  0.164845  0.329690  0.923162  1
  Al  Al12  1  0.165012  0.834988  0.576808  1
  Al  Al13  1  0.329690  0.164845  0.076838  1
  Al  Al14  1  0.834988  0.165012  0.423192  1
  Al  Al15  1  0.670310  0.835155  0.923162  1
  Al  Al16  1  0.835155  0.164845  0.076838  1
  Al  Al17  1  0.164845  0.835155  0.923162  1
  Al  Al18  1  0.563686  0.127371  0.250102  1
  Al  Al19  1  0.436314  0.872629  0.749898  1
  Al  Al20  1  0.872629  0.436314  0.250102  1
  Al  Al21  1  0.127371  0.563686  0.749898  1
  Al  Al22  1  0.563686  0.436314  0.250102  1
  Al  Al23  1  0.436314  0.563686  0.749898  1
  Al  Al24  1  0.000000  0.000000  0.248480  1
  Al  Al25  1  0.000000  0.000000  0.751520  1
  Si  Si26  1  0.333333  0.666667  0.035919  1
  Si  Si27  1  0.666667  0.333333  0.964081  1
  Si  Si28  1  0.666667  0.333333  0.536701  1
  Si  Si29  1  0.333333  0.666667  0.463299  1
  Os  Os30  1  0.500000  0.000000  0.000000  1
  Os  Os31  1  0.000000  0.500000  0.000000  1
  Os  Os32  1  0.500000  0.000000  0.500000  1
  Os  Os33  1  0.500000  0.500000  0.000000  1
  Os  Os34  1  0.000000  0.500000  0.500000  1
  Os  Os35  1  0.500000  0.500000  0.500000  1
  Os  Os36  1  0.000000  0.000000  0.500000  1
  Ru  Ru37  1  0.000000  0.000000  0.000000  1
