# generated using pymatgen
data_Zr6Al16OsPt6
_symmetry_space_group_name_H-M   'P 1'
_cell_length_a   8.79097162
_cell_length_b   8.79097241
_cell_length_c   8.78892600
_cell_angle_alpha   60.00770020
_cell_angle_beta   60.00769721
_cell_angle_gamma   59.90345628
_symmetry_Int_Tables_number   1
_chemical_formula_structural   Zr6Al16OsPt6
_chemical_formula_sum   'Zr6 Al16 Os1 Pt6'
_cell_volume   479.98446688
_cell_formula_units_Z   1
loop_
 _symmetry_equiv_pos_site_id
 _symmetry_equiv_pos_as_xyz
  1  'x, y, z'
loop_
 _atom_site_type_symbol
 _atom_site_label
 _atom_site_symmetry_multiplicity
 _atom_site_fract_x
 _atom_site_fract_y
 _atom_site_fract_z
 _atom_site_occupancy
  Zr  Zr0  1  0.687659  0.687659  0.312341  1
  Zr  Zr1  1  0.317229  0.682771  0.313162  1
  Zr  Zr2  1  0.682771  0.317229  0.313162  1
  Zr  Zr3  1  0.312341  0.312341  0.687659  1
  Zr  Zr4  1  0.682771  0.317229  0.686838  1
  Zr  Zr5  1  0.317229  0.682771  0.686838  1
  Al  Al6  1  0.879582  0.879582  0.360322  1
  Al  Al7  1  0.870436  0.362431  0.883566  1
  Al  Al8  1  0.362431  0.870436  0.883566  1
  Al  Al9  1  0.879582  0.879582  0.880512  1
  Al  Al10  1  0.120418  0.120418  0.639678  1
  Al  Al11  1  0.129564  0.637569  0.116434  1
  Al  Al12  1  0.637569  0.129564  0.116434  1
  Al  Al13  1  0.120418  0.120418  0.119488  1
  Al  Al14  1  0.662927  0.662927  0.007898  1
  Al  Al15  1  0.663074  0.009812  0.663557  1
  Al  Al16  1  0.009812  0.663074  0.663557  1
  Al  Al17  1  0.662927  0.662927  0.666246  1
  Al  Al18  1  0.337073  0.337073  0.992102  1
  Al  Al19  1  0.336926  0.990188  0.336443  1
  Al  Al20  1  0.990188  0.336926  0.336443  1
  Al  Al21  1  0.337073  0.337073  0.333754  1
  Os  Os22  1  0.500000  0.500000  0.000000  1
  Pt  Pt23  1  0.000000  0.000000  0.000000  1
  Pt  Pt24  1  0.000000  0.000000  0.500000  1
  Pt  Pt25  1  0.500000  0.000000  0.500000  1
  Pt  Pt26  1  0.000000  0.500000  0.500000  1
  Pt  Pt27  1  0.000000  0.500000  0.000000  1
  Pt  Pt28  1  0.500000  0.000000  0.000000  1
