# generated using pymatgen
data_Ca16Tl5Hg
_symmetry_space_group_name_H-M   'P 1'
_cell_length_a   9.61480972
_cell_length_b   9.70477961
_cell_length_c   9.76688127
_cell_angle_alpha   99.11669787
_cell_angle_beta   101.15269267
_cell_angle_gamma   119.80875226
_symmetry_Int_Tables_number   1
_chemical_formula_structural   Ca16Tl5Hg
_chemical_formula_sum   'Ca16 Tl5 Hg1'
_cell_volume   740.32156666
_cell_formula_units_Z   1
loop_
 _symmetry_equiv_pos_site_id
 _symmetry_equiv_pos_as_xyz
  1  'x, y, z'
loop_
 _atom_site_type_symbol
 _atom_site_label
 _atom_site_symmetry_multiplicity
 _atom_site_fract_x
 _atom_site_fract_y
 _atom_site_fract_z
 _atom_site_occupancy
  Ca  Ca0  1  0.530774  0.700713  0.650600  1
  Ca  Ca1  1  0.469226  0.299287  0.349400  1
  Ca  Ca2  1  0.079482  0.232538  0.105626  1
  Ca  Ca3  1  0.920518  0.767462  0.894374  1
  Ca  Ca4  1  0.879791  0.403149  0.653455  1
  Ca  Ca5  1  0.120209  0.596851  0.346545  1
  Ca  Ca6  1  0.328403  0.874397  0.108906  1
  Ca  Ca7  1  0.671597  0.125603  0.891094  1
  Ca  Ca8  1  0.958507  0.060850  0.670650  1
  Ca  Ca9  1  0.041493  0.939150  0.329350  1
  Ca  Ca10  1  0.704831  0.497359  0.108710  1
  Ca  Ca11  1  0.295169  0.502641  0.891290  1
  Ca  Ca12  1  0.774152  0.153485  0.299198  1
  Ca  Ca13  1  0.225848  0.846515  0.700802  1
  Ca  Ca14  1  0.544125  0.710553  0.296401  1
  Ca  Ca15  1  0.455875  0.289447  0.703599  1
  Tl  Tl16  1  0.500000  0.000000  0.500000  1
  Tl  Tl17  1  0.174299  0.337786  0.499257  1
  Tl  Tl18  1  0.825701  0.662214  0.500743  1
  Tl  Tl19  1  0.676219  0.840441  0.025064  1
  Tl  Tl20  1  0.323781  0.159559  0.974936  1
  Hg  Hg21  1  0.000000  0.500000  0.000000  1
