# generated using pymatgen
data_Ta4Si4Ir3Ru
_symmetry_space_group_name_H-M   'P 1'
_cell_length_a   3.82453000
_cell_length_b   6.41474857
_cell_length_c   7.31370666
_cell_angle_alpha   89.82381208
_cell_angle_beta   90.00000000
_cell_angle_gamma   90.00000000
_symmetry_Int_Tables_number   1
_chemical_formula_structural   Ta4Si4Ir3Ru
_chemical_formula_sum   'Ta4 Si4 Ir3 Ru1'
_cell_volume   179.42923052
_cell_formula_units_Z   1
loop_
 _symmetry_equiv_pos_site_id
 _symmetry_equiv_pos_as_xyz
  1  'x, y, z'
loop_
 _atom_site_type_symbol
 _atom_site_label
 _atom_site_symmetry_multiplicity
 _atom_site_fract_x
 _atom_site_fract_y
 _atom_site_fract_z
 _atom_site_occupancy
  Ta  Ta0  1  0.750000  0.525454  0.827510  1
  Ta  Ta1  1  0.250000  0.974119  0.325142  1
  Ta  Ta2  1  0.750000  0.021799  0.674845  1
  Ta  Ta3  1  0.250000  0.477473  0.172149  1
  Si  Si4  1  0.250000  0.228629  0.875933  1
  Si  Si5  1  0.250000  0.731287  0.626506  1
  Si  Si6  1  0.750000  0.770663  0.120983  1
  Si  Si7  1  0.750000  0.267910  0.376421  1
  Ir  Ir8  1  0.250000  0.352080  0.563442  1
  Ir  Ir9  1  0.750000  0.647501  0.435195  1
  Ir  Ir10  1  0.750000  0.149818  0.064290  1
  Ru  Ru11  1  0.250000  0.853268  0.937585  1
