# generated using pymatgen
data_Zr10BiPb5Au2
_symmetry_space_group_name_H-M   'P 1'
_cell_length_a   8.91449000
_cell_length_b   8.91875742
_cell_length_c   6.00619300
_cell_angle_alpha   90.00000000
_cell_angle_beta   90.00000000
_cell_angle_gamma   119.98417337
_symmetry_Int_Tables_number   1
_chemical_formula_structural   Zr10BiPb5Au2
_chemical_formula_sum   'Zr10 Bi1 Pb5 Au2'
_cell_volume   413.61855025
_cell_formula_units_Z   1
loop_
 _symmetry_equiv_pos_site_id
 _symmetry_equiv_pos_as_xyz
  1  'x, y, z'
loop_
 _atom_site_type_symbol
 _atom_site_label
 _atom_site_symmetry_multiplicity
 _atom_site_fract_x
 _atom_site_fract_y
 _atom_site_fract_z
 _atom_site_occupancy
  Zr  Zr0  1  0.332848  0.666266  0.999077  1
  Zr  Zr1  1  0.666583  0.333734  0.500923  1
  Zr  Zr2  1  0.666583  0.333734  0.999077  1
  Zr  Zr3  1  0.332848  0.666266  0.500923  1
  Zr  Zr4  1  0.273197  0.000000  0.250000  1
  Zr  Zr5  1  0.273956  0.273550  0.750000  1
  Zr  Zr6  1  0.000406  0.726450  0.750000  1
  Zr  Zr7  1  0.000523  0.273902  0.250000  1
  Zr  Zr8  1  0.726621  0.726098  0.250000  1
  Zr  Zr9  1  0.726432  0.000000  0.750000  1
  Bi  Bi10  1  0.616886  0.000000  0.250000  1
  Pb  Pb11  1  0.617989  0.618045  0.750000  1
  Pb  Pb12  1  0.999943  0.381955  0.750000  1
  Pb  Pb13  1  0.000219  0.618184  0.250000  1
  Pb  Pb14  1  0.382035  0.381816  0.250000  1
  Pb  Pb15  1  0.382005  0.000000  0.750000  1
  Au  Au16  1  0.000464  0.000000  0.999448  1
  Au  Au17  1  0.000464  0.000000  0.500552  1
