# generated using pymatgen
data_Zr4TiSn2BiB
_symmetry_space_group_name_H-M   'P 1'
_cell_length_a   8.55319273
_cell_length_b   8.53112792
_cell_length_c   5.75252510
_cell_angle_alpha   89.97806902
_cell_angle_beta   90.01093735
_cell_angle_gamma   119.91470568
_symmetry_Int_Tables_number   1
_chemical_formula_structural   Zr4TiSn2BiB
_chemical_formula_sum   'Zr8 Ti2 Sn4 Bi2 B2'
_cell_volume   363.82828740
_cell_formula_units_Z   2
loop_
 _symmetry_equiv_pos_site_id
 _symmetry_equiv_pos_as_xyz
  1  'x, y, z'
loop_
 _atom_site_type_symbol
 _atom_site_label
 _atom_site_symmetry_multiplicity
 _atom_site_fract_x
 _atom_site_fract_y
 _atom_site_fract_z
 _atom_site_occupancy
  Zr  Zr0  1  0.330763  0.665928  0.495183  1
  Zr  Zr1  1  0.669237  0.335164  0.495183  1
  Zr  Zr2  1  0.774070  0.769470  0.748165  1
  Zr  Zr3  1  0.225930  0.995400  0.748165  1
  Zr  Zr4  1  0.000000  0.231143  0.747872  1
  Zr  Zr5  1  0.230181  0.230865  0.251733  1
  Zr  Zr6  1  0.769819  0.000683  0.251733  1
  Zr  Zr7  1  0.000000  0.767787  0.251786  1
  Ti  Ti8  1  0.669477  0.335501  0.004641  1
  Ti  Ti9  1  0.330523  0.666025  0.004641  1
  Sn  Sn10  1  0.000000  0.595360  0.758292  1
  Sn  Sn11  1  0.599993  0.600726  0.242253  1
  Sn  Sn12  1  0.400007  0.000733  0.242253  1
  Sn  Sn13  1  0.000000  0.402305  0.240907  1
  Bi  Bi14  1  0.403639  0.402934  0.758514  1
  Bi  Bi15  1  0.596361  0.999295  0.758514  1
  B  B16  1  0.000000  0.000240  0.000663  1
  B  B17  1  0.000000  0.000440  0.499500  1
