# generated using pymatgen
data_HoEr11InCo4Ir
_symmetry_space_group_name_H-M   'P 1'
_cell_length_a   8.21003746
_cell_length_b   8.21003727
_cell_length_c   8.20925367
_cell_angle_alpha   111.23219235
_cell_angle_beta   110.82329686
_cell_angle_gamma   106.40546939
_symmetry_Int_Tables_number   1
_chemical_formula_structural   HoEr11InCo4Ir
_chemical_formula_sum   'Ho1 Er11 In1 Co4 Ir1'
_cell_volume   425.02632292
_cell_formula_units_Z   1
loop_
 _symmetry_equiv_pos_site_id
 _symmetry_equiv_pos_as_xyz
  1  'x, y, z'
loop_
 _atom_site_type_symbol
 _atom_site_label
 _atom_site_symmetry_multiplicity
 _atom_site_fract_x
 _atom_site_fract_y
 _atom_site_fract_z
 _atom_site_occupancy
  Ho  Ho0  1  0.184446  0.286196  0.470642  1
  Er  Er1  1  0.816282  0.714234  0.530516  1
  Er  Er2  1  0.183677  0.714475  0.898152  1
  Er  Er3  1  0.816094  0.285791  0.101885  1
  Er  Er4  1  0.315303  0.621190  0.305401  1
  Er  Er5  1  0.685130  0.379100  0.694522  1
  Er  Er6  1  0.315422  0.009391  0.694522  1
  Er  Er7  1  0.684211  0.990099  0.305401  1
  Er  Er8  1  0.412025  0.217373  0.194167  1
  Er  Er9  1  0.588605  0.783136  0.805861  1
  Er  Er10  1  0.022725  0.217255  0.805861  1
  Er  Er11  1  0.976793  0.782142  0.194167  1
  In  In12  1  0.500045  0.500054  0.000099  1
  Co  Co13  1  0.111729  0.612409  0.499858  1
  Co  Co14  1  0.887449  0.388129  0.499858  1
  Co  Co15  1  0.376952  0.999685  0.376637  1
  Co  Co16  1  0.623066  0.000138  0.623203  1
  Ir  Ir17  1  0.000046  0.999203  0.999249  1
