# generated using pymatgen
data_Nd5DyAl24Os7Au
_symmetry_space_group_name_H-M   'P 1'
_cell_length_a   8.94720054
_cell_length_b   8.94720163
_cell_length_c   9.65238402
_cell_angle_alpha   89.87633381
_cell_angle_beta   90.12366157
_cell_angle_gamma   120.11163595
_symmetry_Int_Tables_number   1
_chemical_formula_structural   Nd5DyAl24Os7Au
_chemical_formula_sum   'Nd5 Dy1 Al24 Os7 Au1'
_cell_volume   668.41875492
_cell_formula_units_Z   1
loop_
 _symmetry_equiv_pos_site_id
 _symmetry_equiv_pos_as_xyz
  1  'x, y, z'
loop_
 _atom_site_type_symbol
 _atom_site_label
 _atom_site_symmetry_multiplicity
 _atom_site_fract_x
 _atom_site_fract_y
 _atom_site_fract_z
 _atom_site_occupancy
  Nd  Nd0  1  0.190137  0.383133  0.249910  1
  Nd  Nd1  1  0.809950  0.616798  0.749881  1
  Nd  Nd2  1  0.616867  0.809863  0.249910  1
  Nd  Nd3  1  0.383202  0.190050  0.749881  1
  Nd  Nd4  1  0.192840  0.807160  0.254278  1
  Dy  Dy5  1  0.805368  0.194632  0.745426  1
  Al  Al6  1  0.328507  0.671493  0.015032  1
  Al  Al7  1  0.672266  0.327734  0.982245  1
  Al  Al8  1  0.666656  0.333344  0.514117  1
  Al  Al9  1  0.334003  0.665997  0.487984  1
  Al  Al10  1  0.160840  0.325315  0.575214  1
  Al  Al11  1  0.837225  0.673288  0.426236  1
  Al  Al12  1  0.674685  0.839160  0.575214  1
  Al  Al13  1  0.848592  0.676871  0.077724  1
  Al  Al14  1  0.326712  0.162775  0.426236  1
  Al  Al15  1  0.149162  0.321532  0.920705  1
  Al  Al16  1  0.163306  0.836694  0.575437  1
  Al  Al17  1  0.323129  0.151408  0.077724  1
  Al  Al18  1  0.836891  0.163109  0.427376  1
  Al  Al19  1  0.678468  0.850838  0.920705  1
  Al  Al20  1  0.836634  0.163366  0.071782  1
  Al  Al21  1  0.163403  0.836597  0.925506  1
  Al  Al22  1  0.562475  0.122952  0.249029  1
  Al  Al23  1  0.440526  0.879177  0.750891  1
  Al  Al24  1  0.877048  0.437525  0.249029  1
  Al  Al25  1  0.120823  0.559474  0.750891  1
  Al  Al26  1  0.564726  0.435274  0.256550  1
  Al  Al27  1  0.435208  0.564792  0.744007  1
  Al  Al28  1  0.999425  0.000575  0.250506  1
  Al  Al29  1  0.998230  0.001770  0.749645  1
  Os  Os30  1  0.501105  0.000431  0.999059  1
  Os  Os31  1  0.999569  0.498895  0.999059  1
  Os  Os32  1  0.501514  0.000675  0.501091  1
  Os  Os33  1  0.999325  0.498486  0.501091  1
  Os  Os34  1  0.500296  0.499704  0.500628  1
  Os  Os35  1  0.000175  0.999825  0.999785  1
  Os  Os36  1  0.000283  0.999717  0.500464  1
  Au  Au37  1  0.500428  0.499572  0.999753  1
