# generated using pymatgen
data_DyY4W2C7
_symmetry_space_group_name_H-M   'P 1'
_cell_length_a   8.45142156
_cell_length_b   8.45098954
_cell_length_c   3.42673800
_cell_angle_alpha   90.00000000
_cell_angle_beta   90.00000000
_cell_angle_gamma   122.77229501
_symmetry_Int_Tables_number   1
_chemical_formula_structural   DyY4W2C7
_chemical_formula_sum   'Dy1 Y4 W2 C7'
_cell_volume   205.79064321
_cell_formula_units_Z   1
loop_
 _symmetry_equiv_pos_site_id
 _symmetry_equiv_pos_as_xyz
  1  'x, y, z'
loop_
 _atom_site_type_symbol
 _atom_site_label
 _atom_site_symmetry_multiplicity
 _atom_site_fract_x
 _atom_site_fract_y
 _atom_site_fract_z
 _atom_site_occupancy
  Dy  Dy0  1  0.331426  0.073728  0.500000  1
  Y  Y1  1  0.500013  0.499971  0.000000  1
  Y  Y2  1  0.073602  0.331283  0.500000  1
  Y  Y3  1  0.926463  0.668775  0.500000  1
  Y  Y4  1  0.668722  0.926405  0.500000  1
  W  W5  1  0.712762  0.287242  0.000000  1
  W  W6  1  0.287284  0.712798  0.000000  1
  C  C7  1  0.625427  0.373947  0.500000  1
  C  C8  1  0.374265  0.625720  0.500000  1
  C  C9  1  0.000033  0.000030  0.000000  1
  C  C10  1  0.167455  0.167342  0.000000  1
  C  C11  1  0.832640  0.832624  0.000000  1
  C  C12  1  0.999999  0.500001  0.000000  1
  C  C13  1  0.499908  0.000134  0.000000  1
