# generated using pymatgen
data_DyEr2(In2Pd)2
_symmetry_space_group_name_H-M   'P 1'
_cell_length_a   7.88263800
_cell_length_b   7.86799581
_cell_length_c   3.85549000
_cell_angle_alpha   90.00000000
_cell_angle_beta   90.00000000
_cell_angle_gamma   120.01504507
_symmetry_Int_Tables_number   1
_chemical_formula_structural   DyEr2(In2Pd)2
_chemical_formula_sum   'Dy1 Er2 In4 Pd2'
_cell_volume   207.05229777
_cell_formula_units_Z   1
loop_
 _symmetry_equiv_pos_site_id
 _symmetry_equiv_pos_as_xyz
  1  'x, y, z'
loop_
 _atom_site_type_symbol
 _atom_site_label
 _atom_site_symmetry_multiplicity
 _atom_site_fract_x
 _atom_site_fract_y
 _atom_site_fract_z
 _atom_site_occupancy
  Dy  Dy0  1  0.690497  0.946347  0.500000  1
  Er  Er1  1  0.255072  0.307235  0.500000  1
  Er  Er2  1  0.052495  0.744862  0.500000  1
  In  In3  1  0.924451  0.332631  0.000000  1
  In  In4  1  0.407967  0.075671  0.000000  1
  In  In5  1  0.667972  0.592433  0.000000  1
  In  In6  1  0.332055  0.665747  0.000000  1
  Pd  Pd7  1  0.666807  0.334511  0.500000  1
  Pd  Pd8  1  0.002683  0.000562  0.000000  1
