# generated using pymatgen
data_Eu2NiRuO6
_symmetry_space_group_name_H-M   'P 1'
_cell_length_a   5.71383400
_cell_length_b   5.46370506
_cell_length_c   9.52027072
_cell_angle_alpha   55.27918077
_cell_angle_beta   90.00000000
_cell_angle_gamma   90.00000000
_symmetry_Int_Tables_number   1
_chemical_formula_structural   Eu2NiRuO6
_chemical_formula_sum   'Eu4 Ni2 Ru2 O12'
_cell_volume   244.28835451
_cell_formula_units_Z   2
loop_
 _symmetry_equiv_pos_site_id
 _symmetry_equiv_pos_as_xyz
  1  'x, y, z'
loop_
 _atom_site_type_symbol
 _atom_site_label
 _atom_site_symmetry_multiplicity
 _atom_site_fract_x
 _atom_site_fract_y
 _atom_site_fract_z
 _atom_site_occupancy
  Eu  Eu0  1  0.061871  0.734189  0.751555  1
  Eu  Eu1  1  0.938129  0.265811  0.248445  1
  Eu  Eu2  1  0.561871  0.265811  0.748445  1
  Eu  Eu3  1  0.438129  0.734189  0.251555  1
  Ni  Ni4  1  0.500000  0.500000  0.000000  1
  Ni  Ni5  1  0.000000  0.500000  0.500000  1
  Ru  Ru6  1  0.500000  0.000000  0.500000  1
  Ru  Ru7  1  0.000000  0.000000  0.000000  1
  O  O8  1  0.470290  0.850180  0.745433  1
  O  O9  1  0.529710  0.149820  0.254567  1
  O  O10  1  0.970290  0.149820  0.754567  1
  O  O11  1  0.029710  0.850180  0.245433  1
  O  O12  1  0.792448  0.759933  0.551350  1
  O  O13  1  0.207552  0.240067  0.448650  1
  O  O14  1  0.292448  0.240067  0.948650  1
  O  O15  1  0.707552  0.759933  0.051350  1
  O  O16  1  0.307364  0.654989  0.546638  1
  O  O17  1  0.692636  0.345011  0.453362  1
  O  O18  1  0.807364  0.345011  0.953362  1
  O  O19  1  0.192636  0.654989  0.046638  1
