# generated using pymatgen
data_CaPr(Si2Rh3)2
_symmetry_space_group_name_H-M   'P 1'
_cell_length_a   6.69038115
_cell_length_b   6.69038198
_cell_length_c   6.69038202
_cell_angle_alpha   130.13850572
_cell_angle_beta   115.29057403
_cell_angle_gamma   85.87993563
_symmetry_Int_Tables_number   1
_chemical_formula_structural   CaPr(Si2Rh3)2
_chemical_formula_sum   'Ca1 Pr1 Si4 Rh6'
_cell_volume   197.81892902
_cell_formula_units_Z   1
loop_
 _symmetry_equiv_pos_site_id
 _symmetry_equiv_pos_as_xyz
  1  'x, y, z'
loop_
 _atom_site_type_symbol
 _atom_site_label
 _atom_site_symmetry_multiplicity
 _atom_site_fract_x
 _atom_site_fract_y
 _atom_site_fract_z
 _atom_site_occupancy
  Ca  Ca0  1  0.750000  0.035869  0.285869  1
  Pr  Pr1  1  0.250000  0.961216  0.711216  1
  Si  Si2  1  0.579235  0.382069  0.802836  1
  Si  Si3  1  0.423186  0.621527  0.198340  1
  Si  Si4  1  0.076814  0.275154  0.198340  1
  Si  Si5  1  0.920765  0.723601  0.802836  1
  Rh  Rh6  1  0.215660  0.498939  0.715630  1
  Rh  Rh7  1  0.716690  0.999970  0.715630  1
  Rh  Rh8  1  0.783310  0.498939  0.283279  1
  Rh  Rh9  1  0.284340  0.999970  0.283279  1
  Rh  Rh10  1  0.500583  0.501373  0.501956  1
  Rh  Rh11  1  0.999417  0.501373  0.000790  1
