# generated using pymatgen
data_Er10IrPd3Rh2
_symmetry_space_group_name_H-M   'P 1'
_cell_length_a   10.97684911
_cell_length_b   10.96808900
_cell_length_c   6.31131401
_cell_angle_alpha   90.00000000
_cell_angle_beta   90.00484413
_cell_angle_gamma   90.00000000
_symmetry_Int_Tables_number   1
_chemical_formula_structural   Er10IrPd3Rh2
_chemical_formula_sum   'Er20 Ir2 Pd6 Rh4'
_cell_volume   759.85101386
_cell_formula_units_Z   2
loop_
 _symmetry_equiv_pos_site_id
 _symmetry_equiv_pos_as_xyz
  1  'x, y, z'
loop_
 _atom_site_type_symbol
 _atom_site_label
 _atom_site_symmetry_multiplicity
 _atom_site_fract_x
 _atom_site_fract_y
 _atom_site_fract_z
 _atom_site_occupancy
  Er  Er0  1  0.295650  0.091974  0.373535  1
  Er  Er1  1  0.295650  0.908026  0.873535  1
  Er  Er2  1  0.704128  0.086809  0.873183  1
  Er  Er3  1  0.704128  0.913191  0.373183  1
  Er  Er4  1  0.581951  0.792376  0.873687  1
  Er  Er5  1  0.581951  0.207624  0.373687  1
  Er  Er6  1  0.410801  0.792429  0.381126  1
  Er  Er7  1  0.410801  0.207571  0.881126  1
  Er  Er8  1  0.210476  0.415628  0.620345  1
  Er  Er9  1  0.210476  0.584372  0.120345  1
  Er  Er10  1  0.795789  0.412814  0.124649  1
  Er  Er11  1  0.795789  0.587186  0.624649  1
  Er  Er12  1  0.914182  0.704488  0.126315  1
  Er  Er13  1  0.914182  0.295512  0.626315  1
  Er  Er14  1  0.093029  0.704051  0.627210  1
  Er  Er15  1  0.093029  0.295949  0.127210  1
  Er  Er16  1  0.999844  0.000000  0.499886  1
  Er  Er17  1  0.999844  0.000000  0.999886  1
  Er  Er18  1  0.496217  0.499496  0.000020  1
  Er  Er19  1  0.496217  0.500504  0.500020  1
  Ir  Ir20  1  0.345683  0.344407  0.249852  1
  Ir  Ir21  1  0.345683  0.655593  0.749852  1
  Pd  Pd22  1  0.844755  0.154542  0.250458  1
  Pd  Pd23  1  0.844755  0.845458  0.750458  1
  Pd  Pd24  1  0.153527  0.154199  0.749519  1
  Pd  Pd25  1  0.153527  0.845801  0.249519  1
  Pd  Pd26  1  0.655480  0.345416  0.750206  1
  Pd  Pd27  1  0.655480  0.654584  0.250206  1
  Rh  Rh28  1  0.501031  0.999607  0.123565  1
  Rh  Rh29  1  0.501031  0.000393  0.623565  1
  Rh  Rh30  1  0.997458  0.500225  0.876445  1
  Rh  Rh31  1  0.997458  0.499775  0.376445  1
