# generated using pymatgen
data_Lu2GaCu(Ni3B)2
_symmetry_space_group_name_H-M   'P 1'
_cell_length_a   5.04118200
_cell_length_b   5.04118292
_cell_length_c   6.81424400
_cell_angle_alpha   90.00000000
_cell_angle_beta   90.00000000
_cell_angle_gamma   119.99564636
_symmetry_Int_Tables_number   1
_chemical_formula_structural   Lu2GaCu(Ni3B)2
_chemical_formula_sum   'Lu2 Ga1 Cu1 Ni6 B2'
_cell_volume   149.97960192
_cell_formula_units_Z   1
loop_
 _symmetry_equiv_pos_site_id
 _symmetry_equiv_pos_as_xyz
  1  'x, y, z'
loop_
 _atom_site_type_symbol
 _atom_site_label
 _atom_site_symmetry_multiplicity
 _atom_site_fract_x
 _atom_site_fract_y
 _atom_site_fract_z
 _atom_site_occupancy
  Lu  Lu0  1  0.000002  0.999998  0.000000  1
  Lu  Lu1  1  0.999998  0.000002  0.500000  1
  Ga  Ga2  1  0.666661  0.333339  0.000000  1
  Cu  Cu3  1  0.333336  0.666664  0.000000  1
  Ni  Ni4  1  0.499975  0.500025  0.704355  1
  Ni  Ni5  1  0.499975  0.999946  0.704357  1
  Ni  Ni6  1  0.000054  0.500025  0.704357  1
  Ni  Ni7  1  0.499975  0.500025  0.295645  1
  Ni  Ni8  1  0.499975  0.999946  0.295643  1
  Ni  Ni9  1  0.000054  0.500025  0.295643  1
  B  B10  1  0.666651  0.333349  0.500000  1
  B  B11  1  0.333346  0.666654  0.500000  1
