# generated using pymatgen
data_Er2Al2PdRh
_symmetry_space_group_name_H-M   'P 1'
_cell_length_a   4.31048500
_cell_length_b   6.83422400
_cell_length_c   7.85257200
_cell_angle_alpha   90.00000000
_cell_angle_beta   90.00000000
_cell_angle_gamma   90.00000000
_symmetry_Int_Tables_number   1
_chemical_formula_structural   Er2Al2PdRh
_chemical_formula_sum   'Er4 Al4 Pd2 Rh2'
_cell_volume   231.32750539
_cell_formula_units_Z   2
loop_
 _symmetry_equiv_pos_site_id
 _symmetry_equiv_pos_as_xyz
  1  'x, y, z'
loop_
 _atom_site_type_symbol
 _atom_site_label
 _atom_site_symmetry_multiplicity
 _atom_site_fract_x
 _atom_site_fract_y
 _atom_site_fract_z
 _atom_site_occupancy
  Er  Er0  1  0.250000  0.034968  0.322565  1
  Er  Er1  1  0.250000  0.534968  0.177435  1
  Er  Er2  1  0.750000  0.971215  0.681375  1
  Er  Er3  1  0.750000  0.471215  0.818625  1
  Al  Al4  1  0.250000  0.138476  0.935980  1
  Al  Al5  1  0.250000  0.638476  0.564020  1
  Al  Al6  1  0.750000  0.857639  0.058804  1
  Al  Al7  1  0.750000  0.357639  0.441196  1
  Pd  Pd8  1  0.750000  0.731210  0.378164  1
  Pd  Pd9  1  0.750000  0.231210  0.121836  1
  Rh  Rh10  1  0.250000  0.266492  0.619108  1
  Rh  Rh11  1  0.250000  0.766492  0.880892  1
