# generated using pymatgen
data_Tb9Tm10LuPb16
_symmetry_space_group_name_H-M   'P 1'
_cell_length_a   8.17220219
_cell_length_b   8.24960699
_cell_length_c   15.56683317
_cell_angle_alpha   90.05116506
_cell_angle_beta   90.05114326
_cell_angle_gamma   90.30141661
_symmetry_Int_Tables_number   1
_chemical_formula_structural   Tb9Tm10LuPb16
_chemical_formula_sum   'Tb9 Tm10 Lu1 Pb16'
_cell_volume   1049.46093192
_cell_formula_units_Z   1
loop_
 _symmetry_equiv_pos_site_id
 _symmetry_equiv_pos_as_xyz
  1  'x, y, z'
loop_
 _atom_site_type_symbol
 _atom_site_label
 _atom_site_symmetry_multiplicity
 _atom_site_fract_x
 _atom_site_fract_y
 _atom_site_fract_z
 _atom_site_occupancy
  Tb  Tb0  1  0.875690  0.658503  0.879177  1
  Tb  Tb1  1  0.534976  0.322335  0.901317  1
  Tb  Tb2  1  0.034617  0.177001  0.598394  1
  Tb  Tb3  1  0.465598  0.677205  0.401465  1
  Tb  Tb4  1  0.964306  0.824702  0.100260  1
  Tb  Tb5  1  0.466002  0.676697  0.098754  1
  Tb  Tb6  1  0.965392  0.823434  0.401006  1
  Tb  Tb7  1  0.533966  0.322659  0.598448  1
  Tb  Tb8  1  0.035269  0.176199  0.900780  1
  Tm  Tm9  1  0.373715  0.842170  0.877704  1
  Tm  Tm10  1  0.874424  0.657193  0.621578  1
  Tm  Tm11  1  0.626163  0.157240  0.377959  1
  Tm  Tm12  1  0.125493  0.342911  0.121563  1
  Tm  Tm13  1  0.624979  0.157454  0.123047  1
  Tm  Tm14  1  0.125557  0.342050  0.378099  1
  Tm  Tm15  1  0.373985  0.842606  0.621456  1
  Tm  Tm16  1  0.706087  0.995151  0.749563  1
  Tm  Tm17  1  0.793417  0.494146  0.250497  1
  Tm  Tm18  1  0.293166  0.005020  0.250029  1
  Lu  Lu19  1  0.207154  0.505591  0.749349  1
  Pb  Pb20  1  0.284447  0.036060  0.042970  1
  Pb  Pb21  1  0.784964  0.464162  0.456801  1
  Pb  Pb22  1  0.715206  0.963318  0.542660  1
  Pb  Pb23  1  0.218637  0.533947  0.956181  1
  Pb  Pb24  1  0.713886  0.966375  0.957592  1
  Pb  Pb25  1  0.215090  0.535626  0.543075  1
  Pb  Pb26  1  0.284638  0.036738  0.457086  1
  Pb  Pb27  1  0.784339  0.463159  0.044735  1
  Pb  Pb28  1  0.568191  0.627155  0.749233  1
  Pb  Pb29  1  0.069665  0.874061  0.748987  1
  Pb  Pb30  1  0.430334  0.373017  0.250430  1
  Pb  Pb31  1  0.931035  0.126903  0.250010  1
  Pb  Pb32  1  0.346102  0.154946  0.749771  1
  Pb  Pb33  1  0.846772  0.344933  0.749486  1
  Pb  Pb34  1  0.653387  0.845036  0.250315  1
  Pb  Pb35  1  0.153356  0.654298  0.250221  1
