# generated using pymatgen
data_PuFeH5
_symmetry_space_group_name_H-M   'P 1'
_cell_length_a   4.26657200
_cell_length_b   4.50299600
_cell_length_c   11.20604200
_cell_angle_alpha   90.00000000
_cell_angle_beta   90.00000000
_cell_angle_gamma   90.00000000
_symmetry_Int_Tables_number   1
_chemical_formula_structural   PuFeH5
_chemical_formula_sum   'Pu4 Fe4 H20'
_cell_volume   215.29447554
_cell_formula_units_Z   4
loop_
 _symmetry_equiv_pos_site_id
 _symmetry_equiv_pos_as_xyz
  1  'x, y, z'
loop_
 _atom_site_type_symbol
 _atom_site_label
 _atom_site_symmetry_multiplicity
 _atom_site_fract_x
 _atom_site_fract_y
 _atom_site_fract_z
 _atom_site_occupancy
  Pu  Pu0  1  0.264802  0.239523  0.645294  1
  Pu  Pu1  1  0.764802  0.260477  0.354706  1
  Pu  Pu2  1  0.235198  0.760477  0.145294  1
  Pu  Pu3  1  0.735198  0.739523  0.854706  1
  Fe  Fe4  1  0.289697  0.239014  0.919787  1
  Fe  Fe5  1  0.789697  0.260986  0.080213  1
  Fe  Fe6  1  0.210303  0.760986  0.419787  1
  Fe  Fe7  1  0.710303  0.739014  0.580213  1
  H  H8  1  0.491719  0.524017  0.496337  1
  H  H9  1  0.991719  0.975983  0.503663  1
  H  H10  1  0.008281  0.475983  0.996337  1
  H  H11  1  0.508281  0.024017  0.003663  1
  H  H12  1  0.200297  0.980003  0.826746  1
  H  H13  1  0.700297  0.519997  0.173254  1
  H  H14  1  0.299703  0.019997  0.326746  1
  H  H15  1  0.799703  0.480003  0.673254  1
  H  H16  1  0.192133  0.489312  0.824622  1
  H  H17  1  0.692133  0.010688  0.175378  1
  H  H18  1  0.307867  0.510688  0.324622  1
  H  H19  1  0.807867  0.989312  0.675378  1
  H  H20  1  0.581527  0.237498  0.832538  1
  H  H21  1  0.081527  0.262502  0.167462  1
  H  H22  1  0.918473  0.762502  0.332538  1
  H  H23  1  0.418473  0.737498  0.667462  1
  H  H24  1  0.998278  0.033109  0.995193  1
  H  H25  1  0.498278  0.466891  0.004807  1
  H  H26  1  0.501722  0.966891  0.495193  1
  H  H27  1  0.001722  0.533109  0.504807  1
