# generated using pymatgen
data_TmU7Re3B24W
_symmetry_space_group_name_H-M   'P 1'
_cell_length_a   3.64415300
_cell_length_b   9.28795899
_cell_length_c   11.37686501
_cell_angle_alpha   89.97577785
_cell_angle_beta   90.00000000
_cell_angle_gamma   90.00000000
_symmetry_Int_Tables_number   1
_chemical_formula_structural   TmU7Re3B24W
_chemical_formula_sum   'Tm1 U7 Re3 B24 W1'
_cell_volume   385.06979891
_cell_formula_units_Z   1
loop_
 _symmetry_equiv_pos_site_id
 _symmetry_equiv_pos_as_xyz
  1  'x, y, z'
loop_
 _atom_site_type_symbol
 _atom_site_label
 _atom_site_symmetry_multiplicity
 _atom_site_fract_x
 _atom_site_fract_y
 _atom_site_fract_z
 _atom_site_occupancy
  Tm  Tm0  1  0.000000  0.335810  0.408066  1
  U  U1  1  0.000000  0.664606  0.593284  1
  U  U2  1  0.000000  0.835823  0.092328  1
  U  U3  1  0.000000  0.163890  0.907304  1
  U  U4  1  0.000000  0.956767  0.395013  1
  U  U5  1  0.000000  0.044368  0.603849  1
  U  U6  1  0.000000  0.456170  0.104045  1
  U  U7  1  0.000000  0.543898  0.895717  1
  Re  Re8  1  0.000000  0.646336  0.319803  1
  Re  Re9  1  0.000000  0.355434  0.681429  1
  Re  Re10  1  0.000000  0.143809  0.178669  1
  B  B11  1  0.500000  0.551128  0.433028  1
  B  B12  1  0.500000  0.450247  0.568366  1
  B  B13  1  0.500000  0.050228  0.067540  1
  B  B14  1  0.500000  0.950591  0.933685  1
  B  B15  1  0.500000  0.741902  0.424104  1
  B  B16  1  0.500000  0.257153  0.576374  1
  B  B17  1  0.500000  0.243310  0.076545  1
  B  B18  1  0.500000  0.756389  0.925029  1
  B  B19  1  0.500000  0.803431  0.273480  1
  B  B20  1  0.500000  0.197097  0.726281  1
  B  B21  1  0.500000  0.302799  0.225968  1
  B  B22  1  0.500000  0.695341  0.772457  1
  B  B23  1  0.500000  0.643693  0.188825  1
  B  B24  1  0.500000  0.355055  0.811688  1
  B  B25  1  0.500000  0.144278  0.311583  1
  B  B26  1  0.500000  0.854797  0.686834  1
  B  B27  1  0.500000  0.986182  0.218704  1
  B  B28  1  0.500000  0.015228  0.780520  1
  B  B29  1  0.500000  0.486855  0.281344  1
  B  B30  1  0.500000  0.513836  0.718078  1
  B  B31  1  0.500000  0.642423  0.040490  1
  B  B32  1  0.500000  0.356799  0.960358  1
  B  B33  1  0.500000  0.142090  0.460473  1
  B  B34  1  0.500000  0.857221  0.538815  1
  W  W35  1  0.000000  0.855019  0.819924  1
