# generated using pymatgen
data_La17Yb2HoIr12
_symmetry_space_group_name_H-M   'P 1'
_cell_length_a   11.40627100
_cell_length_b   11.40627100
_cell_length_c   6.57136900
_cell_angle_alpha   90.00000000
_cell_angle_beta   90.00000000
_cell_angle_gamma   90.00000000
_symmetry_Int_Tables_number   1
_chemical_formula_structural   La17Yb2HoIr12
_chemical_formula_sum   'La17 Yb2 Ho1 Ir12'
_cell_volume   854.95494012
_cell_formula_units_Z   1
loop_
 _symmetry_equiv_pos_site_id
 _symmetry_equiv_pos_as_xyz
  1  'x, y, z'
loop_
 _atom_site_type_symbol
 _atom_site_label
 _atom_site_symmetry_multiplicity
 _atom_site_fract_x
 _atom_site_fract_y
 _atom_site_fract_z
 _atom_site_occupancy
  La  La0  1  0.285120  0.089682  0.394946  1
  La  La1  1  0.288982  0.910597  0.893666  1
  La  La2  1  0.711018  0.089403  0.893666  1
  La  La3  1  0.714880  0.910318  0.394946  1
  La  La4  1  0.590207  0.787109  0.894417  1
  La  La5  1  0.588633  0.207467  0.392770  1
  La  La6  1  0.411367  0.792533  0.392770  1
  La  La7  1  0.409793  0.212891  0.894417  1
  La  La8  1  0.207467  0.411367  0.607230  1
  La  La9  1  0.212891  0.590207  0.105583  1
  La  La10  1  0.787109  0.409793  0.105583  1
  La  La11  1  0.792533  0.588633  0.607230  1
  La  La12  1  0.910597  0.711018  0.106334  1
  La  La13  1  0.910318  0.285120  0.605054  1
  La  La14  1  0.089682  0.714880  0.605054  1
  La  La15  1  0.089403  0.288982  0.106334  1
  La  La16  1  0.500000  0.500000  0.500000  1
  Yb  Yb17  1  0.000000  0.000000  0.500000  1
  Yb  Yb18  1  0.500000  0.500000  0.000000  1
  Ho  Ho19  1  0.000000  0.000000  0.000000  1
  Ir  Ir20  1  0.849183  0.151531  0.240951  1
  Ir  Ir21  1  0.848469  0.849183  0.759049  1
  Ir  Ir22  1  0.151531  0.150817  0.759049  1
  Ir  Ir23  1  0.150817  0.848469  0.240951  1
  Ir  Ir24  1  0.656679  0.346389  0.743330  1
  Ir  Ir25  1  0.653611  0.656679  0.256670  1
  Ir  Ir26  1  0.346389  0.343321  0.256670  1
  Ir  Ir27  1  0.343321  0.653611  0.743330  1
  Ir  Ir28  1  0.500000  0.000000  0.121064  1
  Ir  Ir29  1  0.500000  0.000000  0.622529  1
  Ir  Ir30  1  0.000000  0.500000  0.878936  1
  Ir  Ir31  1  0.000000  0.500000  0.377471  1
