# generated using pymatgen
data_Y3HoMn16(CoP3)4
_symmetry_space_group_name_H-M   'P 1'
_cell_length_a   3.60165400
_cell_length_b   10.54188402
_cell_length_c   12.17969102
_cell_angle_alpha   90.00623391
_cell_angle_beta   90.00000000
_cell_angle_gamma   90.00000000
_symmetry_Int_Tables_number   1
_chemical_formula_structural   Y3HoMn16(CoP3)4
_chemical_formula_sum   'Y3 Ho1 Mn16 Co4 P12'
_cell_volume   462.44116993
_cell_formula_units_Z   1
loop_
 _symmetry_equiv_pos_site_id
 _symmetry_equiv_pos_as_xyz
  1  'x, y, z'
loop_
 _atom_site_type_symbol
 _atom_site_label
 _atom_site_symmetry_multiplicity
 _atom_site_fract_x
 _atom_site_fract_y
 _atom_site_fract_z
 _atom_site_occupancy
  Y  Y0  1  0.750000  0.084238  0.791998  1
  Y  Y1  1  0.750000  0.415789  0.292091  1
  Y  Y2  1  0.250000  0.584055  0.708052  1
  Ho  Ho3  1  0.250000  0.915975  0.208123  1
  Mn  Mn4  1  0.250000  0.787645  0.487936  1
  Mn  Mn5  1  0.750000  0.212366  0.511917  1
  Mn  Mn6  1  0.750000  0.287490  0.011998  1
  Mn  Mn7  1  0.250000  0.712354  0.988104  1
  Mn  Mn8  1  0.250000  0.092547  0.993136  1
  Mn  Mn9  1  0.750000  0.907320  0.007460  1
  Mn  Mn10  1  0.750000  0.592718  0.507012  1
  Mn  Mn11  1  0.250000  0.407318  0.492939  1
  Mn  Mn12  1  0.250000  0.283408  0.676507  1
  Mn  Mn13  1  0.750000  0.716978  0.323428  1
  Mn  Mn14  1  0.750000  0.783388  0.823569  1
  Mn  Mn15  1  0.250000  0.216358  0.176511  1
  Mn  Mn16  1  0.250000  0.622245  0.197556  1
  Mn  Mn17  1  0.750000  0.378250  0.802409  1
  Mn  Mn18  1  0.750000  0.121405  0.302435  1
  Mn  Mn19  1  0.250000  0.878262  0.697479  1
  Co  Co20  1  0.250000  0.035319  0.433748  1
  Co  Co21  1  0.750000  0.964374  0.565662  1
  Co  Co22  1  0.750000  0.535841  0.065994  1
  Co  Co23  1  0.250000  0.464446  0.933986  1
  P  P24  1  0.250000  0.079689  0.611234  1
  P  P25  1  0.750000  0.920412  0.388040  1
  P  P26  1  0.750000  0.579640  0.888637  1
  P  P27  1  0.250000  0.420405  0.111327  1
  P  P28  1  0.250000  0.233258  0.372272  1
  P  P29  1  0.750000  0.766482  0.627719  1
  P  P30  1  0.750000  0.734201  0.128050  1
  P  P31  1  0.250000  0.266545  0.872213  1
  P  P32  1  0.250000  0.906314  0.886518  1
  P  P33  1  0.750000  0.092893  0.113946  1
  P  P34  1  0.750000  0.406361  0.613557  1
  P  P35  1  0.250000  0.593714  0.386436  1
