# generated using pymatgen
data_La2MgZn4Sn
_symmetry_space_group_name_H-M   'P 1'
_cell_length_a   8.87812242
_cell_length_b   8.87812242
_cell_length_c   9.32203500
_cell_angle_alpha   90.00000000
_cell_angle_beta   90.00000000
_cell_angle_gamma   150.12525965
_symmetry_Int_Tables_number   1
_chemical_formula_structural   La2MgZn4Sn
_chemical_formula_sum   'La4 Mg2 Zn8 Sn2'
_cell_volume   365.99430800
_cell_formula_units_Z   2
loop_
 _symmetry_equiv_pos_site_id
 _symmetry_equiv_pos_as_xyz
  1  'x, y, z'
loop_
 _atom_site_type_symbol
 _atom_site_label
 _atom_site_symmetry_multiplicity
 _atom_site_fract_x
 _atom_site_fract_y
 _atom_site_fract_z
 _atom_site_occupancy
  La  La0  1  0.206061  0.793939  0.250000  1
  La  La1  1  0.793939  0.206061  0.750000  1
  La  La2  1  0.000000  0.000000  0.500000  1
  La  La3  1  0.000000  0.000000  0.000000  1
  Mg  Mg4  1  0.398496  0.601504  0.250000  1
  Mg  Mg5  1  0.601504  0.398496  0.750000  1
  Zn  Zn6  1  0.814013  0.185987  0.392027  1
  Zn  Zn7  1  0.185987  0.814013  0.607973  1
  Zn  Zn8  1  0.814013  0.185987  0.107973  1
  Zn  Zn9  1  0.185987  0.814013  0.892027  1
  Zn  Zn10  1  0.659954  0.340046  0.480040  1
  Zn  Zn11  1  0.340046  0.659954  0.519960  1
  Zn  Zn12  1  0.659954  0.340046  0.019960  1
  Zn  Zn13  1  0.340046  0.659954  0.980040  1
  Sn  Sn14  1  0.561152  0.438848  0.250000  1
  Sn  Sn15  1  0.438848  0.561152  0.750000  1
