# generated using pymatgen
data_LaPr3CdHgPd4
_symmetry_space_group_name_H-M   'P 1'
_cell_length_a   7.86802468
_cell_length_b   7.86038671
_cell_length_c   3.97455600
_cell_angle_alpha   90.00000000
_cell_angle_beta   90.00000000
_cell_angle_gamma   90.32018984
_symmetry_Int_Tables_number   1
_chemical_formula_structural   LaPr3CdHgPd4
_chemical_formula_sum   'La1 Pr3 Cd1 Hg1 Pd4'
_cell_volume   245.80542611
_cell_formula_units_Z   1
loop_
 _symmetry_equiv_pos_site_id
 _symmetry_equiv_pos_as_xyz
  1  'x, y, z'
loop_
 _atom_site_type_symbol
 _atom_site_label
 _atom_site_symmetry_multiplicity
 _atom_site_fract_x
 _atom_site_fract_y
 _atom_site_fract_z
 _atom_site_occupancy
  La  La0  1  0.319160  0.833114  0.500000  1
  Pr  Pr1  1  0.833446  0.680436  0.500000  1
  Pr  Pr2  1  0.165719  0.319158  0.500000  1
  Pr  Pr3  1  0.681484  0.166838  0.500000  1
  Cd  Cd4  1  0.500604  0.499143  0.000000  1
  Hg  Hg5  1  0.999111  0.000709  0.000000  1
  Pd  Pd6  1  0.379318  0.134870  0.000000  1
  Pd  Pd7  1  0.864989  0.379686  0.000000  1
  Pd  Pd8  1  0.135953  0.621413  0.000000  1
  Pd  Pd9  1  0.620215  0.864633  0.000000  1
