# generated using pymatgen
data_La3SmC2Br5
_symmetry_space_group_name_H-M   'P 1'
_cell_length_a   4.01191030
_cell_length_b   8.40277262
_cell_length_c   10.06993361
_cell_angle_alpha   105.56241024
_cell_angle_beta   78.50967791
_cell_angle_gamma   90.00000591
_symmetry_Int_Tables_number   1
_chemical_formula_structural   La3SmC2Br5
_chemical_formula_sum   'La3 Sm1 C2 Br5'
_cell_volume   319.95584633
_cell_formula_units_Z   1
loop_
 _symmetry_equiv_pos_site_id
 _symmetry_equiv_pos_as_xyz
  1  'x, y, z'
loop_
 _atom_site_type_symbol
 _atom_site_label
 _atom_site_symmetry_multiplicity
 _atom_site_fract_x
 _atom_site_fract_y
 _atom_site_fract_z
 _atom_site_occupancy
  La  La0  1  0.002768  0.201726  0.994462  1
  La  La1  1  0.003500  0.794660  0.993001  1
  La  La2  1  0.661381  0.890033  0.677239  1
  Sm  Sm3  1  0.348745  0.103348  0.302510  1
  C  C4  1  0.466319  0.022976  0.067362  1
  C  C5  1  0.540467  0.973136  0.919067  1
  Br  Br6  1  0.165238  0.619118  0.669523  1
  Br  Br7  1  0.839250  0.362545  0.321500  1
  Br  Br8  1  0.501874  0.499016  0.996252  1
  Br  Br9  1  0.171155  0.160895  0.657691  1
  Br  Br10  1  0.836904  0.847847  0.326191  1
