# generated using pymatgen
data_Na3Yb3AlAs4
_symmetry_space_group_name_H-M   'P 1'
_cell_length_a   9.43724400
_cell_length_b   9.43724396
_cell_length_c   7.19106700
_cell_angle_alpha   90.00000000
_cell_angle_beta   90.00000000
_cell_angle_gamma   120.00000014
_symmetry_Int_Tables_number   1
_chemical_formula_structural   Na3Yb3AlAs4
_chemical_formula_sum   'Na6 Yb6 Al2 As8'
_cell_volume   554.64401649
_cell_formula_units_Z   2
loop_
 _symmetry_equiv_pos_site_id
 _symmetry_equiv_pos_as_xyz
  1  'x, y, z'
loop_
 _atom_site_type_symbol
 _atom_site_label
 _atom_site_symmetry_multiplicity
 _atom_site_fract_x
 _atom_site_fract_y
 _atom_site_fract_z
 _atom_site_occupancy
  Na  Na0  1  0.137511  0.862489  0.172954  1
  Na  Na1  1  0.275023  0.137511  0.672954  1
  Na  Na2  1  0.862489  0.724977  0.672954  1
  Na  Na3  1  0.137511  0.275023  0.172954  1
  Na  Na4  1  0.724977  0.862489  0.172954  1
  Na  Na5  1  0.862489  0.137511  0.672954  1
  Yb  Yb6  1  0.475093  0.950186  0.500663  1
  Yb  Yb7  1  0.524907  0.049814  0.000663  1
  Yb  Yb8  1  0.950186  0.475093  0.000663  1
  Yb  Yb9  1  0.475093  0.524907  0.500663  1
  Yb  Yb10  1  0.524907  0.475093  0.000663  1
  Yb  Yb11  1  0.049814  0.524907  0.500663  1
  Al  Al12  1  0.333333  0.666667  0.877313  1
  Al  Al13  1  0.666667  0.333333  0.377313  1
  As  As14  1  0.189804  0.810196  0.771066  1
  As  As15  1  0.379608  0.189804  0.271066  1
  As  As16  1  0.810196  0.620392  0.271066  1
  As  As17  1  0.189804  0.379608  0.771066  1
  As  As18  1  0.620392  0.810196  0.771066  1
  As  As19  1  0.810196  0.189804  0.271066  1
  As  As20  1  0.333333  0.666667  0.229321  1
  As  As21  1  0.666667  0.333333  0.729321  1
