# generated using pymatgen
data_TaBe9Nb2
_symmetry_space_group_name_H-M   'P 1'
_cell_length_a   7.48581736
_cell_length_b   7.48581736
_cell_length_c   7.48581822
_cell_angle_alpha   35.52048042
_cell_angle_beta   35.52047808
_cell_angle_gamma   35.52048151
_symmetry_Int_Tables_number   1
_chemical_formula_structural   TaBe9Nb2
_chemical_formula_sum   'Ta1 Be9 Nb2'
_cell_volume   126.54445849
_cell_formula_units_Z   1
loop_
 _symmetry_equiv_pos_site_id
 _symmetry_equiv_pos_as_xyz
  1  'x, y, z'
loop_
 _atom_site_type_symbol
 _atom_site_label
 _atom_site_symmetry_multiplicity
 _atom_site_fract_x
 _atom_site_fract_y
 _atom_site_fract_z
 _atom_site_occupancy
  Ta  Ta0  1  0.139948  0.139948  0.139948  1
  Be  Be1  1  0.499784  0.499784  0.499784  1
  Be  Be2  1  0.334355  0.334355  0.334356  1
  Be  Be3  1  0.665596  0.665596  0.665595  1
  Be  Be4  1  0.075679  0.583996  0.583996  1
  Be  Be5  1  0.583996  0.583996  0.075679  1
  Be  Be6  1  0.583996  0.075679  0.583996  1
  Be  Be7  1  0.415995  0.924527  0.415995  1
  Be  Be8  1  0.924527  0.415995  0.415995  1
  Be  Be9  1  0.415995  0.415995  0.924527  1
  Nb  Nb10  1  0.000065  0.000065  0.000065  1
  Nb  Nb11  1  0.860062  0.860062  0.860062  1
