# generated using pymatgen
data_Li2Cr3Ni9P7
_symmetry_space_group_name_H-M   'P 1'
_cell_length_a   8.98853800
_cell_length_b   8.98853865
_cell_length_c   3.52986800
_cell_angle_alpha   90.00000000
_cell_angle_beta   90.00000000
_cell_angle_gamma   119.99999761
_symmetry_Int_Tables_number   1
_chemical_formula_structural   Li2Cr3Ni9P7
_chemical_formula_sum   'Li2 Cr3 Ni9 P7'
_cell_volume   246.98311074
_cell_formula_units_Z   1
loop_
 _symmetry_equiv_pos_site_id
 _symmetry_equiv_pos_as_xyz
  1  'x, y, z'
loop_
 _atom_site_type_symbol
 _atom_site_label
 _atom_site_symmetry_multiplicity
 _atom_site_fract_x
 _atom_site_fract_y
 _atom_site_fract_z
 _atom_site_occupancy
  Li  Li0  1  0.333333  0.666667  0.000000  1
  Li  Li1  1  0.666667  0.333333  0.500000  1
  Cr  Cr2  1  0.218825  0.123814  0.500000  1
  Cr  Cr3  1  0.876186  0.095012  0.500000  1
  Cr  Cr4  1  0.904988  0.781175  0.500000  1
  Ni  Ni5  1  0.122587  0.282828  0.000000  1
  Ni  Ni6  1  0.717172  0.839760  0.000000  1
  Ni  Ni7  1  0.160240  0.877413  0.000000  1
  Ni  Ni8  1  0.438288  0.376730  0.000000  1
  Ni  Ni9  1  0.623270  0.061559  0.000000  1
  Ni  Ni10  1  0.938441  0.561712  0.000000  1
  Ni  Ni11  1  0.053829  0.438997  0.500000  1
  Ni  Ni12  1  0.561003  0.614832  0.500000  1
  Ni  Ni13  1  0.385168  0.946171  0.500000  1
  P  P14  1  0.291170  0.411828  0.500000  1
  P  P15  1  0.588172  0.879341  0.500000  1
  P  P16  1  0.120659  0.708830  0.500000  1
  P  P17  1  0.412740  0.122804  0.000000  1
  P  P18  1  0.877196  0.289936  0.000000  1
  P  P19  1  0.710064  0.587260  0.000000  1
  P  P20  1  0.000000  0.000000  0.000000  1
