# generated using pymatgen
data_Nd6Cd17Ag6Ge
_symmetry_space_group_name_H-M   'P 1'
_cell_length_a   9.97798842
_cell_length_b   9.97797901
_cell_length_c   9.97800400
_cell_angle_alpha   59.99978494
_cell_angle_beta   60.00004072
_cell_angle_gamma   59.99982133
_symmetry_Int_Tables_number   1
_chemical_formula_structural   Nd6Cd17Ag6Ge
_chemical_formula_sum   'Nd6 Cd17 Ag6 Ge1'
_cell_volume   702.44625091
_cell_formula_units_Z   1
loop_
 _symmetry_equiv_pos_site_id
 _symmetry_equiv_pos_as_xyz
  1  'x, y, z'
loop_
 _atom_site_type_symbol
 _atom_site_label
 _atom_site_symmetry_multiplicity
 _atom_site_fract_x
 _atom_site_fract_y
 _atom_site_fract_z
 _atom_site_occupancy
  Nd  Nd0  1  0.789535  0.789534  0.210466  1
  Nd  Nd1  1  0.210465  0.789535  0.210465  1
  Nd  Nd2  1  0.789535  0.210467  0.210465  1
  Nd  Nd3  1  0.210465  0.210466  0.789534  1
  Nd  Nd4  1  0.789535  0.210465  0.789535  1
  Nd  Nd5  1  0.210465  0.789533  0.789535  1
  Cd  Cd6  1  0.833060  0.833060  0.500819  1
  Cd  Cd7  1  0.833061  0.500818  0.833061  1
  Cd  Cd8  1  0.500819  0.833060  0.833060  1
  Cd  Cd9  1  0.833060  0.833060  0.833061  1
  Cd  Cd10  1  0.166940  0.166940  0.499181  1
  Cd  Cd11  1  0.166939  0.499182  0.166939  1
  Cd  Cd12  1  0.499181  0.166940  0.166940  1
  Cd  Cd13  1  0.166940  0.166940  0.166939  1
  Cd  Cd14  1  0.622557  0.622557  0.132328  1
  Cd  Cd15  1  0.622557  0.132328  0.622557  1
  Cd  Cd16  1  0.132328  0.622557  0.622557  1
  Cd  Cd17  1  0.622558  0.622557  0.622558  1
  Cd  Cd18  1  0.377443  0.377443  0.867672  1
  Cd  Cd19  1  0.377443  0.867672  0.377443  1
  Cd  Cd20  1  0.867672  0.377443  0.377443  1
  Cd  Cd21  1  0.377442  0.377443  0.377442  1
  Cd  Cd22  1  0.500000  0.500000  0.500000  1
  Ag  Ag23  1  0.000000  0.000000  0.500000  1
  Ag  Ag24  1  0.500000  0.000000  0.500000  1
  Ag  Ag25  1  0.000000  0.500000  0.500000  1
  Ag  Ag26  1  0.500000  0.500000  0.000000  1
  Ag  Ag27  1  0.000000  0.500000  0.000000  1
  Ag  Ag28  1  0.500000  0.000000  0.000000  1
  Ge  Ge29  1  0.000000  0.000000  0.000000  1
