# generated using pymatgen
data_CeDy7(Si3Rh)4
_symmetry_space_group_name_H-M   'P 1'
_cell_length_a   8.17326300
_cell_length_b   8.17333077
_cell_length_c   7.94771300
_cell_angle_alpha   90.00000000
_cell_angle_beta   90.00000000
_cell_angle_gamma   119.99876739
_symmetry_Int_Tables_number   1
_chemical_formula_structural   CeDy7(Si3Rh)4
_chemical_formula_sum   'Ce1 Dy7 Si12 Rh4'
_cell_volume   459.80400604
_cell_formula_units_Z   1
loop_
 _symmetry_equiv_pos_site_id
 _symmetry_equiv_pos_as_xyz
  1  'x, y, z'
loop_
 _atom_site_type_symbol
 _atom_site_label
 _atom_site_symmetry_multiplicity
 _atom_site_fract_x
 _atom_site_fract_y
 _atom_site_fract_z
 _atom_site_occupancy
  Ce  Ce0  1  0.000006  0.000002  0.250000  1
  Dy  Dy1  1  0.000000  0.000000  0.750000  1
  Dy  Dy2  1  0.508398  0.491602  0.250000  1
  Dy  Dy3  1  0.508398  0.016796  0.250000  1
  Dy  Dy4  1  0.983204  0.491602  0.250000  1
  Dy  Dy5  1  0.491230  0.508770  0.750000  1
  Dy  Dy6  1  0.491229  0.982459  0.750000  1
  Dy  Dy7  1  0.017541  0.508770  0.750000  1
  Si  Si8  1  0.166851  0.833149  0.500499  1
  Si  Si9  1  0.166850  0.333702  0.500500  1
  Si  Si10  1  0.666298  0.833150  0.500500  1
  Si  Si11  1  0.832749  0.167250  0.500208  1
  Si  Si12  1  0.832749  0.665498  0.500209  1
  Si  Si13  1  0.334501  0.167250  0.500209  1
  Si  Si14  1  0.832749  0.167250  0.999792  1
  Si  Si15  1  0.832749  0.665498  0.999791  1
  Si  Si16  1  0.334501  0.167250  0.999791  1
  Si  Si17  1  0.166851  0.833149  0.999501  1
  Si  Si18  1  0.166850  0.333702  0.999500  1
  Si  Si19  1  0.666298  0.833150  0.999500  1
  Rh  Rh20  1  0.333333  0.666666  0.468535  1
  Rh  Rh21  1  0.666666  0.333334  0.535547  1
  Rh  Rh22  1  0.666666  0.333334  0.964453  1
  Rh  Rh23  1  0.333333  0.666666  0.031465  1
