# generated using pymatgen
data_Lu10Zn3Bi2Pt
_symmetry_space_group_name_H-M   'P 1'
_cell_length_a   8.48475380
_cell_length_b   8.48475549
_cell_length_c   8.52540133
_cell_angle_alpha   124.36775957
_cell_angle_beta   124.36776436
_cell_angle_gamma   82.27527432
_symmetry_Int_Tables_number   1
_chemical_formula_structural   Lu10Zn3Bi2Pt
_chemical_formula_sum   'Lu10 Zn3 Bi2 Pt1'
_cell_volume   402.59178722
_cell_formula_units_Z   1
loop_
 _symmetry_equiv_pos_site_id
 _symmetry_equiv_pos_as_xyz
  1  'x, y, z'
loop_
 _atom_site_type_symbol
 _atom_site_label
 _atom_site_symmetry_multiplicity
 _atom_site_fract_x
 _atom_site_fract_y
 _atom_site_fract_z
 _atom_site_occupancy
  Lu  Lu0  1  0.004404  0.002089  0.006493  1
  Lu  Lu1  1  0.497911  0.495596  0.993507  1
  Lu  Lu2  1  0.787762  0.294460  0.801434  1
  Lu  Lu3  1  0.205540  0.712238  0.198566  1
  Lu  Lu4  1  0.486328  0.993026  0.198566  1
  Lu  Lu5  1  0.300003  0.476588  0.500000  1
  Lu  Lu6  1  0.023412  0.199997  0.500000  1
  Lu  Lu7  1  0.506974  0.013672  0.801434  1
  Lu  Lu8  1  0.705894  0.514947  0.500000  1
  Lu  Lu9  1  0.985053  0.794106  0.500000  1
  Zn  Zn10  1  0.135546  0.638660  0.774207  1
  Zn  Zn11  1  0.861340  0.364454  0.225793  1
  Zn  Zn12  1  0.636833  0.863167  0.500000  1
  Bi  Bi13  1  0.247162  0.252838  0.000000  1
  Bi  Bi14  1  0.747162  0.752838  0.000000  1
  Pt  Pt15  1  0.368676  0.131324  0.500000  1
