# generated using pymatgen
data_Sm2Y3Cr3(Ni4As3)4
_symmetry_space_group_name_H-M   'P 1'
_cell_length_a   12.61435100
_cell_length_b   12.61434952
_cell_length_c   3.88247800
_cell_angle_alpha   90.00000000
_cell_angle_beta   90.00000000
_cell_angle_gamma   120.00000125
_symmetry_Int_Tables_number   1
_chemical_formula_structural   Sm2Y3Cr3(Ni4As3)4
_chemical_formula_sum   'Sm2 Y3 Cr3 Ni16 As12'
_cell_volume   535.01924151
_cell_formula_units_Z   1
loop_
 _symmetry_equiv_pos_site_id
 _symmetry_equiv_pos_as_xyz
  1  'x, y, z'
loop_
 _atom_site_type_symbol
 _atom_site_label
 _atom_site_symmetry_multiplicity
 _atom_site_fract_x
 _atom_site_fract_y
 _atom_site_fract_z
 _atom_site_occupancy
  Sm  Sm0  1  0.333333  0.666667  0.000000  1
  Sm  Sm1  1  0.666667  0.333333  0.000000  1
  Y  Y2  1  0.186866  0.186866  0.500000  1
  Y  Y3  1  0.813134  0.000000  0.500000  1
  Y  Y4  1  0.000000  0.813134  0.500000  1
  Cr  Cr5  1  0.561833  0.561833  0.000000  1
  Cr  Cr6  1  0.438167  0.000000  0.000000  1
  Cr  Cr7  1  0.000000  0.438167  0.000000  1
  Ni  Ni8  1  0.718348  0.718348  0.500000  1
  Ni  Ni9  1  0.281652  0.000000  0.500000  1
  Ni  Ni10  1  0.000000  0.281652  0.500000  1
  Ni  Ni11  1  0.183120  0.378508  0.000000  1
  Ni  Ni12  1  0.621492  0.804614  0.000000  1
  Ni  Ni13  1  0.195386  0.816880  0.000000  1
  Ni  Ni14  1  0.804614  0.621492  0.000000  1
  Ni  Ni15  1  0.816880  0.195386  0.000000  1
  Ni  Ni16  1  0.378508  0.183120  0.000000  1
  Ni  Ni17  1  0.359665  0.481868  0.500000  1
  Ni  Ni18  1  0.518132  0.877798  0.500000  1
  Ni  Ni19  1  0.122202  0.640335  0.500000  1
  Ni  Ni20  1  0.877798  0.518132  0.500000  1
  Ni  Ni21  1  0.640335  0.122202  0.500000  1
  Ni  Ni22  1  0.481868  0.359665  0.500000  1
  Ni  Ni23  1  0.000000  0.000000  0.000000  1
  As  As24  1  0.821501  0.821501  0.000000  1
  As  As25  1  0.178499  0.000000  0.000000  1
  As  As26  1  0.000000  0.178499  0.000000  1
  As  As27  1  0.165252  0.478960  0.500000  1
  As  As28  1  0.521040  0.686292  0.500000  1
  As  As29  1  0.313708  0.834748  0.500000  1
  As  As30  1  0.686292  0.521040  0.500000  1
  As  As31  1  0.834748  0.313708  0.500000  1
  As  As32  1  0.478960  0.165252  0.500000  1
  As  As33  1  0.364577  0.364577  0.000000  1
  As  As34  1  0.635423  0.000000  0.000000  1
  As  As35  1  0.000000  0.635423  0.000000  1
