# generated using pymatgen
data_Rb6PbSe4
_symmetry_space_group_name_H-M   'P 1'
_cell_length_a   11.20733000
_cell_length_b   11.20733044
_cell_length_c   8.50712000
_cell_angle_alpha   90.00000000
_cell_angle_beta   90.00000000
_cell_angle_gamma   119.99999869
_symmetry_Int_Tables_number   1
_chemical_formula_structural   Rb6PbSe4
_chemical_formula_sum   'Rb12 Pb2 Se8'
_cell_volume   925.37451202
_cell_formula_units_Z   2
loop_
 _symmetry_equiv_pos_site_id
 _symmetry_equiv_pos_as_xyz
  1  'x, y, z'
loop_
 _atom_site_type_symbol
 _atom_site_label
 _atom_site_symmetry_multiplicity
 _atom_site_fract_x
 _atom_site_fract_y
 _atom_site_fract_z
 _atom_site_occupancy
  Rb  Rb0  1  0.148143  0.296286  0.208008  1
  Rb  Rb1  1  0.148143  0.851857  0.208008  1
  Rb  Rb2  1  0.703714  0.851857  0.208008  1
  Rb  Rb3  1  0.851857  0.703714  0.708008  1
  Rb  Rb4  1  0.851857  0.148143  0.708008  1
  Rb  Rb5  1  0.296286  0.148143  0.708008  1
  Rb  Rb6  1  0.530450  0.060901  0.377686  1
  Rb  Rb7  1  0.530450  0.469550  0.377686  1
  Rb  Rb8  1  0.939099  0.469550  0.377686  1
  Rb  Rb9  1  0.469550  0.939099  0.877686  1
  Rb  Rb10  1  0.469550  0.530450  0.877686  1
  Rb  Rb11  1  0.060901  0.530450  0.877686  1
  Pb  Pb12  1  0.333333  0.666667  0.499620  1
  Pb  Pb13  1  0.666667  0.333333  0.999620  1
  Se  Se14  1  0.333333  0.666667  0.148822  1
  Se  Se15  1  0.666667  0.333333  0.648822  1
  Se  Se16  1  0.813164  0.626329  0.105819  1
  Se  Se17  1  0.813164  0.186836  0.105819  1
  Se  Se18  1  0.373671  0.186836  0.105819  1
  Se  Se19  1  0.186836  0.373671  0.605819  1
  Se  Se20  1  0.186836  0.813164  0.605819  1
  Se  Se21  1  0.626329  0.813164  0.605819  1
