# generated using pymatgen
data_Tm12ZnCo2Si2Sn
_symmetry_space_group_name_H-M   'P 1'
_cell_length_a   8.31575907
_cell_length_b   8.31575895
_cell_length_c   8.31575852
_cell_angle_alpha   113.46152864
_cell_angle_beta   111.18563734
_cell_angle_gamma   103.91463407
_symmetry_Int_Tables_number   1
_chemical_formula_structural   Tm12ZnCo2Si2Sn
_chemical_formula_sum   'Tm12 Zn1 Co2 Si2 Sn1'
_cell_volume   439.39911116
_cell_formula_units_Z   1
loop_
 _symmetry_equiv_pos_site_id
 _symmetry_equiv_pos_as_xyz
  1  'x, y, z'
loop_
 _atom_site_type_symbol
 _atom_site_label
 _atom_site_symmetry_multiplicity
 _atom_site_fract_x
 _atom_site_fract_y
 _atom_site_fract_z
 _atom_site_occupancy
  Tm  Tm0  1  0.433351  0.237656  0.195694  1
  Tm  Tm1  1  0.566649  0.762344  0.804306  1
  Tm  Tm2  1  0.041962  0.237656  0.804306  1
  Tm  Tm3  1  0.958038  0.762344  0.195694  1
  Tm  Tm4  1  0.183021  0.284073  0.467094  1
  Tm  Tm5  1  0.816979  0.715927  0.532906  1
  Tm  Tm6  1  0.183021  0.715927  0.898947  1
  Tm  Tm7  1  0.816979  0.284073  0.101053  1
  Tm  Tm8  1  0.306189  0.619055  0.312864  1
  Tm  Tm9  1  0.693811  0.380945  0.687136  1
  Tm  Tm10  1  0.306189  0.993326  0.687136  1
  Tm  Tm11  1  0.693811  0.006674  0.312864  1
  Zn  Zn12  1  0.000000  0.000000  0.000000  1
  Co  Co13  1  0.108947  0.608947  0.500000  1
  Co  Co14  1  0.891053  0.391053  0.500000  1
  Si  Si15  1  0.355166  0.000000  0.355166  1
  Si  Si16  1  0.644834  0.000000  0.644834  1
  Sn  Sn17  1  0.500000  0.500000  0.000000  1
