# generated using pymatgen
data_Y3Pa(SnPd2)2
_symmetry_space_group_name_H-M   'P 1'
_cell_length_a   7.80140043
_cell_length_b   7.80140477
_cell_length_c   3.69090600
_cell_angle_alpha   90.00000000
_cell_angle_beta   90.00000000
_cell_angle_gamma   91.67871983
_symmetry_Int_Tables_number   1
_chemical_formula_structural   Y3Pa(SnPd2)2
_chemical_formula_sum   'Y3 Pa1 Sn2 Pd4'
_cell_volume   224.53907604
_cell_formula_units_Z   1
loop_
 _symmetry_equiv_pos_site_id
 _symmetry_equiv_pos_as_xyz
  1  'x, y, z'
loop_
 _atom_site_type_symbol
 _atom_site_label
 _atom_site_symmetry_multiplicity
 _atom_site_fract_x
 _atom_site_fract_y
 _atom_site_fract_z
 _atom_site_occupancy
  Y  Y0  1  0.323521  0.823521  0.500000  1
  Y  Y1  1  0.174090  0.328583  0.500000  1
  Y  Y2  1  0.828583  0.674090  0.500000  1
  Pa  Pa3  1  0.670265  0.170265  0.500000  1
  Sn  Sn4  1  0.498525  0.505159  0.000000  1
  Sn  Sn5  1  0.005159  0.998525  0.000000  1
  Pd  Pd6  1  0.122026  0.622026  0.000000  1
  Pd  Pd7  1  0.862799  0.362799  0.000000  1
  Pd  Pd8  1  0.632385  0.882647  0.000000  1
  Pd  Pd9  1  0.382647  0.132385  0.000000  1
