# generated using pymatgen
data_CeDy3Zn4Ir3Pt
_symmetry_space_group_name_H-M   'P 1'
_cell_length_a   4.04997100
_cell_length_b   6.99712685
_cell_length_c   8.24108784
_cell_angle_alpha   89.83263574
_cell_angle_beta   90.00000000
_cell_angle_gamma   90.00000000
_symmetry_Int_Tables_number   1
_chemical_formula_structural   CeDy3Zn4Ir3Pt
_chemical_formula_sum   'Ce1 Dy3 Zn4 Ir3 Pt1'
_cell_volume   233.53627616
_cell_formula_units_Z   1
loop_
 _symmetry_equiv_pos_site_id
 _symmetry_equiv_pos_as_xyz
  1  'x, y, z'
loop_
 _atom_site_type_symbol
 _atom_site_label
 _atom_site_symmetry_multiplicity
 _atom_site_fract_x
 _atom_site_fract_y
 _atom_site_fract_z
 _atom_site_occupancy
  Ce  Ce0  1  0.750000  0.957865  0.683796  1
  Dy  Dy1  1  0.750000  0.459369  0.814342  1
  Dy  Dy2  1  0.250000  0.040701  0.317021  1
  Dy  Dy3  1  0.250000  0.551560  0.183787  1
  Zn  Zn4  1  0.250000  0.627900  0.561030  1
  Zn  Zn5  1  0.250000  0.136843  0.939090  1
  Zn  Zn6  1  0.750000  0.366890  0.437636  1
  Zn  Zn7  1  0.750000  0.862294  0.065513  1
  Ir  Ir8  1  0.250000  0.756090  0.871634  1
  Ir  Ir9  1  0.250000  0.243832  0.625141  1
  Ir  Ir10  1  0.750000  0.747444  0.378026  1
  Pt  Pt11  1  0.750000  0.249211  0.122984  1
