# generated using pymatgen
data_K4Hf5Ti3Se16
_symmetry_space_group_name_H-M   'P 1'
_cell_length_a   6.44829403
_cell_length_b   7.46332024
_cell_length_c   16.56222250
_cell_angle_alpha   90.02753831
_cell_angle_beta   89.99968375
_cell_angle_gamma   89.98991835
_symmetry_Int_Tables_number   1
_chemical_formula_structural   K4Hf5Ti3Se16
_chemical_formula_sum   'K4 Hf5 Ti3 Se16'
_cell_volume   797.06817004
_cell_formula_units_Z   1
loop_
 _symmetry_equiv_pos_site_id
 _symmetry_equiv_pos_as_xyz
  1  'x, y, z'
loop_
 _atom_site_type_symbol
 _atom_site_label
 _atom_site_symmetry_multiplicity
 _atom_site_fract_x
 _atom_site_fract_y
 _atom_site_fract_z
 _atom_site_occupancy
  K  K0  1  0.346456  0.999840  0.999461  1
  K  K1  1  0.653544  0.500160  0.500539  1
  K  K2  1  0.031834  0.999508  0.500979  1
  K  K3  1  0.968166  0.500492  0.999021  1
  Hf  Hf4  1  0.000781  0.995446  0.249109  1
  Hf  Hf5  1  0.000352  0.999957  0.751070  1
  Hf  Hf6  1  0.999219  0.504554  0.250891  1
  Hf  Hf7  1  0.999648  0.500043  0.748930  1
  Hf  Hf8  1  0.500000  0.250000  0.250000  1
  Ti  Ti9  1  0.500000  0.750000  0.750000  1
  Ti  Ti10  1  0.500000  0.750000  0.250000  1
  Ti  Ti11  1  0.500000  0.250000  0.750000  1
  Se  Se12  1  0.835118  0.248904  0.347215  1
  Se  Se13  1  0.827897  0.751353  0.654305  1
  Se  Se14  1  0.172787  0.748369  0.153509  1
  Se  Se15  1  0.172058  0.251454  0.845741  1
  Se  Se16  1  0.164882  0.251096  0.152785  1
  Se  Se17  1  0.172103  0.748647  0.845695  1
  Se  Se18  1  0.827213  0.751631  0.346491  1
  Se  Se19  1  0.827942  0.248546  0.654259  1
  Se  Se20  1  0.665172  0.994793  0.155269  1
  Se  Se21  1  0.661151  0.000021  0.842465  1
  Se  Se22  1  0.334828  0.505207  0.344731  1
  Se  Se23  1  0.338849  0.499979  0.657535  1
  Se  Se24  1  0.339430  0.994266  0.343895  1
  Se  Se25  1  0.342584  0.999907  0.658642  1
  Se  Se26  1  0.660570  0.505734  0.156105  1
  Se  Se27  1  0.657416  0.500093  0.841358  1
