# generated using pymatgen
data_Tb4Er(SiAs)2
_symmetry_space_group_name_H-M   'P 1'
_cell_length_a   8.23452417
_cell_length_b   8.23452445
_cell_length_c   7.65727400
_cell_angle_alpha   90.00000000
_cell_angle_beta   90.00000000
_cell_angle_gamma   125.00336807
_symmetry_Int_Tables_number   1
_chemical_formula_structural   Tb4Er(SiAs)2
_chemical_formula_sum   'Tb8 Er2 Si4 As4'
_cell_volume   425.30242813
_cell_formula_units_Z   2
loop_
 _symmetry_equiv_pos_site_id
 _symmetry_equiv_pos_as_xyz
  1  'x, y, z'
loop_
 _atom_site_type_symbol
 _atom_site_label
 _atom_site_symmetry_multiplicity
 _atom_site_fract_x
 _atom_site_fract_y
 _atom_site_fract_z
 _atom_site_occupancy
  Tb  Tb0  1  0.035833  0.307535  0.331849  1
  Tb  Tb1  1  0.964167  0.692465  0.668151  1
  Tb  Tb2  1  0.464167  0.192465  0.831849  1
  Tb  Tb3  1  0.807535  0.535833  0.168151  1
  Tb  Tb4  1  0.535833  0.807535  0.168151  1
  Tb  Tb5  1  0.192465  0.464167  0.831849  1
  Tb  Tb6  1  0.692465  0.964167  0.668151  1
  Tb  Tb7  1  0.307535  0.035833  0.331849  1
  Er  Er8  1  0.000000  0.000000  0.000000  1
  Er  Er9  1  0.500000  0.500000  0.500000  1
  Si  Si10  1  0.378553  0.378553  0.122230  1
  Si  Si11  1  0.621447  0.621447  0.877770  1
  Si  Si12  1  0.121447  0.121447  0.622230  1
  Si  Si13  1  0.878553  0.878553  0.377770  1
  As  As14  1  0.798668  0.201332  0.000000  1
  As  As15  1  0.201332  0.798668  0.000000  1
  As  As16  1  0.701332  0.298668  0.500000  1
  As  As17  1  0.298668  0.701332  0.500000  1
