# generated using pymatgen
data_RbSn2IrS6
_symmetry_space_group_name_H-M   'P 1'
_cell_length_a   8.83893504
_cell_length_b   8.83893350
_cell_length_c   8.83893500
_cell_angle_alpha   40.78359843
_cell_angle_beta   40.78360997
_cell_angle_gamma   40.78360836
_symmetry_Int_Tables_number   1
_chemical_formula_structural   RbSn2IrS6
_chemical_formula_sum   'Rb1 Sn2 Ir1 S6'
_cell_volume   265.88553702
_cell_formula_units_Z   1
loop_
 _symmetry_equiv_pos_site_id
 _symmetry_equiv_pos_as_xyz
  1  'x, y, z'
loop_
 _atom_site_type_symbol
 _atom_site_label
 _atom_site_symmetry_multiplicity
 _atom_site_fract_x
 _atom_site_fract_y
 _atom_site_fract_z
 _atom_site_occupancy
  Rb  Rb0  1  0.998394  0.998394  0.998394  1
  Sn  Sn1  1  0.501072  0.501072  0.501072  1
  Sn  Sn2  1  0.832358  0.832358  0.832358  1
  Ir  Ir3  1  0.166824  0.166824  0.166824  1
  S  S4  1  0.533869  0.224444  0.916613  1
  S  S5  1  0.916613  0.533869  0.224444  1
  S  S6  1  0.224444  0.916613  0.533869  1
  S  S7  1  0.797095  0.111218  0.418113  1
  S  S8  1  0.111218  0.418113  0.797095  1
  S  S9  1  0.418113  0.797095  0.111218  1
