# generated using pymatgen
data_TbEr3CS3
_symmetry_space_group_name_H-M   'P 1'
_cell_length_a   6.73363836
_cell_length_b   6.73363880
_cell_length_c   6.76092100
_cell_angle_alpha   79.28249809
_cell_angle_beta   79.28249739
_cell_angle_gamma   32.40973236
_symmetry_Int_Tables_number   1
_chemical_formula_structural   TbEr3CS3
_chemical_formula_sum   'Tb1 Er3 C1 S3'
_cell_volume   161.19273242
_cell_formula_units_Z   1
loop_
 _symmetry_equiv_pos_site_id
 _symmetry_equiv_pos_as_xyz
  1  'x, y, z'
loop_
 _atom_site_type_symbol
 _atom_site_label
 _atom_site_symmetry_multiplicity
 _atom_site_fract_x
 _atom_site_fract_y
 _atom_site_fract_z
 _atom_site_occupancy
  Tb  Tb0  1  0.016039  0.016039  0.019153  1
  Er  Er1  1  0.233592  0.233592  0.230107  1
  Er  Er2  1  0.509960  0.509960  0.465186  1
  Er  Er3  1  0.740094  0.740094  0.784984  1
  C  C4  1  0.626547  0.626547  0.126711  1
  S  S5  1  0.868118  0.868118  0.381238  1
  S  S6  1  0.125907  0.125907  0.622501  1
  S  S7  1  0.379743  0.379743  0.870120  1
