# generated using pymatgen
data_Lu2Ga9Ir2Pt
_symmetry_space_group_name_H-M   'P 1'
_cell_length_a   7.58953442
_cell_length_b   7.58953452
_cell_length_c   9.42505700
_cell_angle_alpha   90.00000000
_cell_angle_beta   90.00000000
_cell_angle_gamma   119.84242248
_symmetry_Int_Tables_number   1
_chemical_formula_structural   Lu2Ga9Ir2Pt
_chemical_formula_sum   'Lu4 Ga18 Ir4 Pt2'
_cell_volume   470.90391566
_cell_formula_units_Z   2
loop_
 _symmetry_equiv_pos_site_id
 _symmetry_equiv_pos_as_xyz
  1  'x, y, z'
loop_
 _atom_site_type_symbol
 _atom_site_label
 _atom_site_symmetry_multiplicity
 _atom_site_fract_x
 _atom_site_fract_y
 _atom_site_fract_z
 _atom_site_occupancy
  Lu  Lu0  1  0.996740  0.673470  0.250000  1
  Lu  Lu1  1  0.003260  0.326530  0.750000  1
  Lu  Lu2  1  0.673470  0.996740  0.250000  1
  Lu  Lu3  1  0.326530  0.003260  0.750000  1
  Ga  Ga4  1  0.336362  0.549885  0.250000  1
  Ga  Ga5  1  0.663638  0.450115  0.750000  1
  Ga  Ga6  1  0.549885  0.336362  0.250000  1
  Ga  Ga7  1  0.450115  0.663638  0.750000  1
  Ga  Ga8  1  0.997649  0.338714  0.082731  1
  Ga  Ga9  1  0.002351  0.661286  0.917269  1
  Ga  Ga10  1  0.002351  0.661286  0.582731  1
  Ga  Ga11  1  0.338714  0.997649  0.417269  1
  Ga  Ga12  1  0.997649  0.338714  0.417269  1
  Ga  Ga13  1  0.661286  0.002351  0.582731  1
  Ga  Ga14  1  0.661286  0.002351  0.917269  1
  Ga  Ga15  1  0.338714  0.997649  0.082731  1
  Ga  Ga16  1  0.335300  0.335300  0.570783  1
  Ga  Ga17  1  0.664700  0.664700  0.429217  1
  Ga  Ga18  1  0.664700  0.664700  0.070783  1
  Ga  Ga19  1  0.335300  0.335300  0.929217  1
  Ga  Ga20  1  0.135485  0.135485  0.250000  1
  Ga  Ga21  1  0.864515  0.864515  0.750000  1
  Ir  Ir22  1  0.671470  0.328530  0.000000  1
  Ir  Ir23  1  0.328530  0.671470  0.000000  1
  Ir  Ir24  1  0.328530  0.671470  0.500000  1
  Ir  Ir25  1  0.671470  0.328530  0.500000  1
  Pt  Pt26  1  0.000000  0.000000  0.000000  1
  Pt  Pt27  1  0.000000  0.000000  0.500000  1
