# generated using pymatgen
data_Eu8Sc12Sn9Sb7
_symmetry_space_group_name_H-M   'P 1'
_cell_length_a   7.99336487
_cell_length_b   7.99128337
_cell_length_c   15.06110000
_cell_angle_alpha   90.04848209
_cell_angle_beta   89.90997809
_cell_angle_gamma   90.02054588
_symmetry_Int_Tables_number   1
_chemical_formula_structural   Eu8Sc12Sn9Sb7
_chemical_formula_sum   'Eu8 Sc12 Sn9 Sb7'
_cell_volume   962.05996229
_cell_formula_units_Z   1
loop_
 _symmetry_equiv_pos_site_id
 _symmetry_equiv_pos_as_xyz
  1  'x, y, z'
loop_
 _atom_site_type_symbol
 _atom_site_label
 _atom_site_symmetry_multiplicity
 _atom_site_fract_x
 _atom_site_fract_y
 _atom_site_fract_z
 _atom_site_occupancy
  Eu  Eu0  1  0.982814  0.180413  0.091764  1
  Eu  Eu1  1  0.019144  0.821122  0.907573  1
  Eu  Eu2  1  0.518948  0.679073  0.906625  1
  Eu  Eu3  1  0.019707  0.819437  0.593286  1
  Eu  Eu4  1  0.480250  0.320837  0.093198  1
  Eu  Eu5  1  0.980626  0.180504  0.407059  1
  Eu  Eu6  1  0.480439  0.319172  0.406842  1
  Eu  Eu7  1  0.519954  0.680342  0.593307  1
  Sc  Sc8  1  0.190721  0.494161  0.750420  1
  Sc  Sc9  1  0.809227  0.505983  0.249300  1
  Sc  Sc10  1  0.310002  0.993843  0.248382  1
  Sc  Sc11  1  0.690666  0.006270  0.750195  1
  Sc  Sc12  1  0.361411  0.155441  0.623564  1
  Sc  Sc13  1  0.638938  0.844412  0.376651  1
  Sc  Sc14  1  0.138203  0.655554  0.376933  1
  Sc  Sc15  1  0.638273  0.843541  0.124868  1
  Sc  Sc16  1  0.861597  0.344571  0.623531  1
  Sc  Sc17  1  0.359606  0.155799  0.875918  1
  Sc  Sc18  1  0.860350  0.343551  0.876622  1
  Sc  Sc19  1  0.140170  0.656369  0.123056  1
  Sn  Sn20  1  0.055906  0.130896  0.749508  1
  Sn  Sn21  1  0.944153  0.869020  0.250505  1
  Sn  Sn22  1  0.443192  0.629985  0.251436  1
  Sn  Sn23  1  0.556630  0.369798  0.749681  1
  Sn  Sn24  1  0.322101  0.860635  0.750040  1
  Sn  Sn25  1  0.679689  0.139397  0.249662  1
  Sn  Sn26  1  0.176887  0.361309  0.249965  1
  Sn  Sn27  1  0.822934  0.639145  0.750514  1
  Sn  Sn28  1  0.305835  0.950910  0.046999  1
  Sb  Sb29  1  0.197921  0.450420  0.548127  1
  Sb  Sb30  1  0.802268  0.549626  0.452102  1
  Sb  Sb31  1  0.302459  0.950137  0.451986  1
  Sb  Sb32  1  0.802608  0.549402  0.047865  1
  Sb  Sb33  1  0.697729  0.049593  0.548039  1
  Sb  Sb34  1  0.196404  0.450532  0.951554  1
  Sb  Sb35  1  0.692239  0.048800  0.952920  1
