# generated using pymatgen
data_EuAsIrF
_symmetry_space_group_name_H-M   'P 1'
_cell_length_a   4.08861200
_cell_length_b   4.08861200
_cell_length_c   8.59165400
_cell_angle_alpha   90.00000000
_cell_angle_beta   90.00000000
_cell_angle_gamma   90.00000000
_symmetry_Int_Tables_number   1
_chemical_formula_structural   EuAsIrF
_chemical_formula_sum   'Eu2 As2 Ir2 F2'
_cell_volume   143.62451556
_cell_formula_units_Z   2
loop_
 _symmetry_equiv_pos_site_id
 _symmetry_equiv_pos_as_xyz
  1  'x, y, z'
loop_
 _atom_site_type_symbol
 _atom_site_label
 _atom_site_symmetry_multiplicity
 _atom_site_fract_x
 _atom_site_fract_y
 _atom_site_fract_z
 _atom_site_occupancy
  Eu  Eu0  1  0.499999  0.000000  0.170844  1
  Eu  Eu1  1  0.000000  0.499999  0.829156  1
  As  As2  1  0.000000  0.499999  0.333130  1
  As  As3  1  0.499999  0.000000  0.666870  1
  Ir  Ir4  1  0.000000  0.000000  0.500000  1
  Ir  Ir5  1  0.499999  0.499999  0.500000  1
  F  F6  1  0.000000  0.000000  0.000000  1
  F  F7  1  0.499999  0.499999  0.000000  1
