# generated using pymatgen
data_Sn2PIO4
_symmetry_space_group_name_H-M   'P 1'
_cell_length_a   5.13400931
_cell_length_b   5.13400900
_cell_length_c   15.59761700
_cell_angle_alpha   90.00000000
_cell_angle_beta   90.00000000
_cell_angle_gamma   123.27819879
_symmetry_Int_Tables_number   1
_chemical_formula_structural   Sn2PIO4
_chemical_formula_sum   'Sn4 P2 I2 O8'
_cell_volume   343.70529737
_cell_formula_units_Z   2
loop_
 _symmetry_equiv_pos_site_id
 _symmetry_equiv_pos_as_xyz
  1  'x, y, z'
loop_
 _atom_site_type_symbol
 _atom_site_label
 _atom_site_symmetry_multiplicity
 _atom_site_fract_x
 _atom_site_fract_y
 _atom_site_fract_z
 _atom_site_occupancy
  Sn  Sn0  1  0.833779  0.229001  0.870810  1
  Sn  Sn1  1  0.229001  0.833779  0.370810  1
  Sn  Sn2  1  0.229001  0.833779  0.129190  1
  Sn  Sn3  1  0.833779  0.229001  0.629190  1
  P  P4  1  0.186206  0.913279  0.750000  1
  P  P5  1  0.913279  0.186206  0.250000  1
  I  I6  1  0.471006  0.471006  0.000000  1
  I  I7  1  0.471006  0.471006  0.500000  1
  O  O8  1  0.117390  0.721294  0.832795  1
  O  O9  1  0.180423  0.543758  0.250000  1
  O  O10  1  0.003847  0.077548  0.750000  1
  O  O11  1  0.721294  0.117390  0.167205  1
  O  O12  1  0.117390  0.721294  0.667205  1
  O  O13  1  0.721294  0.117390  0.332795  1
  O  O14  1  0.543758  0.180423  0.750000  1
  O  O15  1  0.077548  0.003847  0.250000  1
