# generated using pymatgen
data_Ca6ZrS8
_symmetry_space_group_name_H-M   'P 1'
_cell_length_a   8.02151942
_cell_length_b   8.02151915
_cell_length_c   8.02152000
_cell_angle_alpha   60.00000474
_cell_angle_beta   60.00000584
_cell_angle_gamma   59.99999803
_symmetry_Int_Tables_number   1
_chemical_formula_structural   Ca6ZrS8
_chemical_formula_sum   'Ca6 Zr1 S8'
_cell_volume   364.96814881
_cell_formula_units_Z   1
loop_
 _symmetry_equiv_pos_site_id
 _symmetry_equiv_pos_as_xyz
  1  'x, y, z'
loop_
 _atom_site_type_symbol
 _atom_site_label
 _atom_site_symmetry_multiplicity
 _atom_site_fract_x
 _atom_site_fract_y
 _atom_site_fract_z
 _atom_site_occupancy
  Ca  Ca0  1  0.500000  0.000000  0.000000  1
  Ca  Ca1  1  0.500000  0.000000  0.500000  1
  Ca  Ca2  1  0.000000  0.000000  0.500000  1
  Ca  Ca3  1  0.500000  0.500000  0.000000  1
  Ca  Ca4  1  0.000000  0.500000  0.000000  1
  Ca  Ca5  1  0.000000  0.500000  0.500000  1
  Zr  Zr6  1  0.000000  0.000000  0.000000  1
  S  S7  1  0.769669  0.230331  0.230331  1
  S  S8  1  0.250000  0.250000  0.250000  1
  S  S9  1  0.230331  0.769669  0.230331  1
  S  S10  1  0.230331  0.230331  0.769669  1
  S  S11  1  0.769669  0.230331  0.769669  1
  S  S12  1  0.769669  0.769669  0.230331  1
  S  S13  1  0.750000  0.750000  0.750000  1
  S  S14  1  0.230331  0.769669  0.769669  1
