# generated using pymatgen
data_Gd2MgNiRu
_symmetry_space_group_name_H-M   'P 1'
_cell_length_a   4.33844002
_cell_length_b   5.92741775
_cell_length_c   5.63872100
_cell_angle_alpha   121.70861230
_cell_angle_beta   112.62514756
_cell_angle_gamma   89.99999593
_symmetry_Int_Tables_number   1
_chemical_formula_structural   Gd2MgNiRu
_chemical_formula_sum   'Gd2 Mg1 Ni1 Ru1'
_cell_volume   110.02641806
_cell_formula_units_Z   1
loop_
 _symmetry_equiv_pos_site_id
 _symmetry_equiv_pos_as_xyz
  1  'x, y, z'
loop_
 _atom_site_type_symbol
 _atom_site_label
 _atom_site_symmetry_multiplicity
 _atom_site_fract_x
 _atom_site_fract_y
 _atom_site_fract_z
 _atom_site_occupancy
  Gd  Gd0  1  0.794521  0.284349  0.589041  1
  Gd  Gd1  1  0.205479  0.695309  0.410959  1
  Mg  Mg2  1  0.000000  0.998468  0.000000  1
  Ni  Ni3  1  0.500000  0.721256  0.000000  1
  Ru  Ru4  1  0.500000  0.300619  0.000000  1
