# generated using pymatgen
data_La2Sm2Hg2RhAu3
_symmetry_space_group_name_H-M   'P 1'
_cell_length_a   8.07943747
_cell_length_b   8.07943616
_cell_length_c   3.87283400
_cell_angle_alpha   90.00000000
_cell_angle_beta   90.00000000
_cell_angle_gamma   90.03509643
_symmetry_Int_Tables_number   1
_chemical_formula_structural   La2Sm2Hg2RhAu3
_chemical_formula_sum   'La2 Sm2 Hg2 Rh1 Au3'
_cell_volume   252.80809656
_cell_formula_units_Z   1
loop_
 _symmetry_equiv_pos_site_id
 _symmetry_equiv_pos_as_xyz
  1  'x, y, z'
loop_
 _atom_site_type_symbol
 _atom_site_label
 _atom_site_symmetry_multiplicity
 _atom_site_fract_x
 _atom_site_fract_y
 _atom_site_fract_z
 _atom_site_occupancy
  La  La0  1  0.692240  0.192240  0.500000  1
  La  La1  1  0.326401  0.826401  0.500000  1
  Sm  Sm2  1  0.154999  0.321021  0.500000  1
  Sm  Sm3  1  0.821021  0.654999  0.500000  1
  Hg  Hg4  1  0.000040  0.004286  0.000000  1
  Hg  Hg5  1  0.504286  0.500040  0.000000  1
  Rh  Rh6  1  0.872166  0.372166  0.000000  1
  Au  Au7  1  0.119640  0.619640  0.000000  1
  Au  Au8  1  0.632842  0.876364  0.000000  1
  Au  Au9  1  0.376364  0.132842  0.000000  1
