# generated using pymatgen
data_Y2Er4TiCo17P12
_symmetry_space_group_name_H-M   'P 1'
_cell_length_a   3.68595100
_cell_length_b   10.53726000
_cell_length_c   12.21176800
_cell_angle_alpha   90.00000000
_cell_angle_beta   90.00000000
_cell_angle_gamma   90.00000000
_symmetry_Int_Tables_number   1
_chemical_formula_structural   Y2Er4TiCo17P12
_chemical_formula_sum   'Y2 Er4 Ti1 Co17 P12'
_cell_volume   474.30292027
_cell_formula_units_Z   1
loop_
 _symmetry_equiv_pos_site_id
 _symmetry_equiv_pos_as_xyz
  1  'x, y, z'
loop_
 _atom_site_type_symbol
 _atom_site_label
 _atom_site_symmetry_multiplicity
 _atom_site_fract_x
 _atom_site_fract_y
 _atom_site_fract_z
 _atom_site_occupancy
  Y  Y0  1  0.750000  0.250000  0.475189  1
  Y  Y1  1  0.250000  0.750000  0.522353  1
  Er  Er2  1  0.250000  0.930163  0.793655  1
  Er  Er3  1  0.250000  0.569837  0.793655  1
  Er  Er4  1  0.750000  0.068399  0.203545  1
  Er  Er5  1  0.750000  0.431601  0.203545  1
  Ti  Ti6  1  0.250000  0.250000  0.848457  1
  Co  Co7  1  0.750000  0.750000  0.159906  1
  Co  Co8  1  0.250000  0.250000  0.296706  1
  Co  Co9  1  0.750000  0.750000  0.704186  1
  Co  Co10  1  0.750000  0.250000  0.013847  1
  Co  Co11  1  0.250000  0.750000  0.986310  1
  Co  Co12  1  0.250000  0.419950  0.008129  1
  Co  Co13  1  0.250000  0.080050  0.008129  1
  Co  Co14  1  0.750000  0.585588  0.995651  1
  Co  Co15  1  0.750000  0.914412  0.995651  1
  Co  Co16  1  0.250000  0.454449  0.568193  1
  Co  Co17  1  0.250000  0.045551  0.568193  1
  Co  Co18  1  0.750000  0.547100  0.429868  1
  Co  Co19  1  0.750000  0.952900  0.429868  1
  Co  Co20  1  0.250000  0.870723  0.290834  1
  Co  Co21  1  0.250000  0.629277  0.290834  1
  Co  Co22  1  0.750000  0.127961  0.708120  1
  Co  Co23  1  0.750000  0.372039  0.708120  1
  P  P24  1  0.250000  0.250000  0.117918  1
  P  P25  1  0.750000  0.750000  0.882770  1
  P  P26  1  0.250000  0.250000  0.647900  1
  P  P27  1  0.750000  0.750000  0.343308  1
  P  P28  1  0.250000  0.439911  0.382428  1
  P  P29  1  0.250000  0.060089  0.382428  1
  P  P30  1  0.750000  0.560960  0.615663  1
  P  P31  1  0.750000  0.939040  0.615663  1
  P  P32  1  0.250000  0.900631  0.109418  1
  P  P33  1  0.250000  0.599369  0.109418  1
  P  P34  1  0.750000  0.090705  0.895072  1
  P  P35  1  0.750000  0.409295  0.895072  1
