# generated using pymatgen
data_HoErSi4(PtAu)2
_symmetry_space_group_name_H-M   'P 1'
_cell_length_a   4.22180100
_cell_length_b   4.22180100
_cell_length_c   10.07294000
_cell_angle_alpha   90.00000000
_cell_angle_beta   90.00000000
_cell_angle_gamma   90.00000000
_symmetry_Int_Tables_number   1
_chemical_formula_structural   HoErSi4(PtAu)2
_chemical_formula_sum   'Ho1 Er1 Si4 Pt2 Au2'
_cell_volume   179.53609049
_cell_formula_units_Z   1
loop_
 _symmetry_equiv_pos_site_id
 _symmetry_equiv_pos_as_xyz
  1  'x, y, z'
loop_
 _atom_site_type_symbol
 _atom_site_label
 _atom_site_symmetry_multiplicity
 _atom_site_fract_x
 _atom_site_fract_y
 _atom_site_fract_z
 _atom_site_occupancy
  Ho  Ho0  1  0.500000  0.000000  0.255944  1
  Er  Er1  1  0.000000  0.500000  0.743917  1
  Si  Si2  1  0.000000  0.500000  0.146331  1
  Si  Si3  1  0.500000  0.500000  0.500109  1
  Si  Si4  1  0.500000  0.000000  0.853591  1
  Si  Si5  1  0.000000  0.000000  0.500109  1
  Pt  Pt6  1  0.500000  0.000000  0.619582  1
  Pt  Pt7  1  0.000000  0.500000  0.380686  1
  Au  Au8  1  0.000000  0.000000  0.999866  1
  Au  Au9  1  0.500000  0.500000  0.999866  1
