# generated using pymatgen
data_Ca6OsRuN6
_symmetry_space_group_name_H-M   'P 1'
_cell_length_a   6.74855853
_cell_length_b   6.74854493
_cell_length_c   5.01868500
_cell_angle_alpha   90.00000000
_cell_angle_beta   90.00000000
_cell_angle_gamma   101.20324443
_symmetry_Int_Tables_number   1
_chemical_formula_structural   Ca6OsRuN6
_chemical_formula_sum   'Ca6 Os1 Ru1 N6'
_cell_volume   224.21020916
_cell_formula_units_Z   1
loop_
 _symmetry_equiv_pos_site_id
 _symmetry_equiv_pos_as_xyz
  1  'x, y, z'
loop_
 _atom_site_type_symbol
 _atom_site_label
 _atom_site_symmetry_multiplicity
 _atom_site_fract_x
 _atom_site_fract_y
 _atom_site_fract_z
 _atom_site_occupancy
  Ca  Ca0  1  0.670716  0.902201  0.750000  1
  Ca  Ca1  1  0.393196  0.606803  0.250000  1
  Ca  Ca2  1  0.900232  0.669523  0.250000  1
  Ca  Ca3  1  0.606660  0.393341  0.750000  1
  Ca  Ca4  1  0.330478  0.099770  0.250000  1
  Ca  Ca5  1  0.097797  0.329283  0.750000  1
  Os  Os6  1  0.191961  0.808040  0.750000  1
  Ru  Ru7  1  0.806349  0.193651  0.250000  1
  N  N8  1  0.675996  0.917032  0.250000  1
  N  N9  1  0.376664  0.623335  0.750000  1
  N  N10  1  0.621292  0.378708  0.250000  1
  N  N11  1  0.920403  0.674714  0.750000  1
  N  N12  1  0.325285  0.079595  0.750000  1
  N  N13  1  0.082969  0.324004  0.250000  1
