# generated using pymatgen
data_LaYHf2(MoO4)7
_symmetry_space_group_name_H-M   'P 1'
_cell_length_a   11.76759239
_cell_length_b   11.78596138
_cell_length_c   14.13555656
_cell_angle_alpha   69.86118960
_cell_angle_beta   69.68723928
_cell_angle_gamma   50.42481230
_symmetry_Int_Tables_number   1
_chemical_formula_structural   LaYHf2(MoO4)7
_chemical_formula_sum   'La2 Y2 Hf4 Mo14 O56'
_cell_volume   1396.44121729
_cell_formula_units_Z   2
loop_
 _symmetry_equiv_pos_site_id
 _symmetry_equiv_pos_as_xyz
  1  'x, y, z'
loop_
 _atom_site_type_symbol
 _atom_site_label
 _atom_site_symmetry_multiplicity
 _atom_site_fract_x
 _atom_site_fract_y
 _atom_site_fract_z
 _atom_site_occupancy
  La  La0  1  0.149491  0.123865  0.063178  1
  La  La1  1  0.850509  0.876135  0.936822  1
  Y  Y2  1  0.875807  0.851409  0.437697  1
  Y  Y3  1  0.124193  0.148591  0.562303  1
  Hf  Hf4  1  0.416827  0.346434  0.191011  1
  Hf  Hf5  1  0.583173  0.653566  0.808989  1
  Hf  Hf6  1  0.652546  0.581532  0.312753  1
  Hf  Hf7  1  0.347454  0.418468  0.687247  1
  Mo  Mo8  1  0.499188  0.986346  0.178040  1
  Mo  Mo9  1  0.500812  0.013654  0.821960  1
  Mo  Mo10  1  0.013162  0.499711  0.329211  1
  Mo  Mo11  1  0.986838  0.500289  0.670789  1
  Mo  Mo12  1  0.455687  0.225209  0.476953  1
  Mo  Mo13  1  0.544313  0.774791  0.523047  1
  Mo  Mo14  1  0.764633  0.547837  0.024628  1
  Mo  Mo15  1  0.235367  0.452163  0.975372  1
  Mo  Mo16  1  0.806892  0.067586  0.152960  1
  Mo  Mo17  1  0.193108  0.932414  0.847040  1
  Mo  Mo18  1  0.928166  0.190073  0.358204  1
  Mo  Mo19  1  0.071834  0.809927  0.641796  1
  Mo  Mo20  1  0.298214  0.697678  0.254674  1
  Mo  Mo21  1  0.701786  0.302322  0.745326  1
  O  O22  1  0.487167  0.125246  0.220074  1
  O  O23  1  0.512833  0.874754  0.779926  1
  O  O24  1  0.872965  0.515127  0.286244  1
  O  O25  1  0.127035  0.484873  0.713756  1
  O  O26  1  0.640582  0.068104  0.494214  1
  O  O27  1  0.359418  0.931896  0.505786  1
  O  O28  1  0.918738  0.363990  0.005114  1
  O  O29  1  0.081262  0.636010  0.994886  1
  O  O30  1  0.316443  0.057274  0.174426  1
  O  O31  1  0.683557  0.942726  0.825574  1
  O  O32  1  0.943464  0.679206  0.340097  1
  O  O33  1  0.056536  0.320794  0.659903  1
  O  O34  1  0.924545  0.032770  0.400028  1
  O  O35  1  0.075455  0.967230  0.599972  1
  O  O36  1  0.966584  0.067735  0.103390  1
  O  O37  1  0.033416  0.932265  0.896610  1
  O  O38  1  0.799127  0.995486  0.286291  1
  O  O39  1  0.200873  0.004514  0.713709  1
  O  O40  1  0.998414  0.203809  0.224722  1
  O  O41  1  0.001586  0.796191  0.775278  1
  O  O42  1  0.582490  0.803559  0.260416  1
  O  O43  1  0.417510  0.196441  0.739584  1
  O  O44  1  0.193078  0.421022  0.241638  1
  O  O45  1  0.806922  0.578978  0.758362  1
  O  O46  1  0.666178  0.828474  0.473746  1
  O  O47  1  0.333822  0.171526  0.526254  1
  O  O48  1  0.173595  0.337376  0.025673  1
  O  O49  1  0.826405  0.662624  0.974327  1
  O  O50  1  0.824015  0.947794  0.091003  1
  O  O51  1  0.175985  0.052206  0.908997  1
  O  O52  1  0.049495  0.167964  0.422315  1
  O  O53  1  0.950505  0.832036  0.577685  1
  O  O54  1  0.601789  0.963057  0.052623  1
  O  O55  1  0.398211  0.036943  0.947377  1
  O  O56  1  0.043871  0.385024  0.450468  1
  O  O57  1  0.956129  0.614976  0.549532  1
  O  O58  1  0.377587  0.386521  0.046251  1
  O  O59  1  0.622413  0.613479  0.953749  1
  O  O60  1  0.605695  0.632464  0.454129  1
  O  O61  1  0.394305  0.367536  0.545871  1
  O  O62  1  0.261775  0.856906  0.161651  1
  O  O63  1  0.738225  0.143094  0.838349  1
  O  O64  1  0.134085  0.740787  0.346142  1
  O  O65  1  0.865915  0.259213  0.653858  1
  O  O66  1  0.443829  0.636729  0.319362  1
  O  O67  1  0.556171  0.363271  0.680638  1
  O  O68  1  0.359344  0.553848  0.187931  1
  O  O69  1  0.640656  0.446152  0.812069  1
  O  O70  1  0.637371  0.261816  0.131906  1
  O  O71  1  0.362629  0.738184  0.868094  1
  O  O72  1  0.735716  0.363542  0.377417  1
  O  O73  1  0.264284  0.636458  0.622583  1
  O  O74  1  0.445442  0.302671  0.341666  1
  O  O75  1  0.554558  0.697329  0.658334  1
  O  O76  1  0.693397  0.555078  0.161380  1
  O  O77  1  0.306603  0.444922  0.838620  1
