# generated using pymatgen
data_Dy2LuHgRu2
_symmetry_space_group_name_H-M   'P 1'
_cell_length_a   3.40119400
_cell_length_b   3.40119400
_cell_length_c   11.09219800
_cell_angle_alpha   90.00000000
_cell_angle_beta   90.00000000
_cell_angle_gamma   90.00000000
_symmetry_Int_Tables_number   1
_chemical_formula_structural   Dy2LuHgRu2
_chemical_formula_sum   'Dy2 Lu1 Hg1 Ru2'
_cell_volume   128.31588447
_cell_formula_units_Z   1
loop_
 _symmetry_equiv_pos_site_id
 _symmetry_equiv_pos_as_xyz
  1  'x, y, z'
loop_
 _atom_site_type_symbol
 _atom_site_label
 _atom_site_symmetry_multiplicity
 _atom_site_fract_x
 _atom_site_fract_y
 _atom_site_fract_z
 _atom_site_occupancy
  Dy  Dy0  1  0.499999  0.499999  0.298996  1
  Dy  Dy1  1  0.499999  0.499999  0.701003  1
  Lu  Lu2  1  0.499999  0.499999  0.000000  1
  Hg  Hg3  1  0.000000  0.000000  0.500000  1
  Ru  Ru4  1  0.000000  0.000000  0.151888  1
  Ru  Ru5  1  0.000000  0.000000  0.848111  1
