# generated using pymatgen
data_TiRh6W
_symmetry_space_group_name_H-M   'P 1'
_cell_length_a   5.50230600
_cell_length_b   5.50230619
_cell_length_c   4.39783700
_cell_angle_alpha   90.00000000
_cell_angle_beta   90.00000000
_cell_angle_gamma   119.99999883
_symmetry_Int_Tables_number   1
_chemical_formula_structural   TiRh6W
_chemical_formula_sum   'Ti1 Rh6 W1'
_cell_volume   115.30795217
_cell_formula_units_Z   1
loop_
 _symmetry_equiv_pos_site_id
 _symmetry_equiv_pos_as_xyz
  1  'x, y, z'
loop_
 _atom_site_type_symbol
 _atom_site_label
 _atom_site_symmetry_multiplicity
 _atom_site_fract_x
 _atom_site_fract_y
 _atom_site_fract_z
 _atom_site_occupancy
  Ti  Ti0  1  0.333333  0.666667  0.250000  1
  Rh  Rh1  1  0.833123  0.666244  0.250000  1
  Rh  Rh2  1  0.165691  0.834309  0.750000  1
  Rh  Rh3  1  0.668618  0.834309  0.750000  1
  Rh  Rh4  1  0.333756  0.166877  0.250000  1
  Rh  Rh5  1  0.833123  0.166877  0.250000  1
  Rh  Rh6  1  0.165691  0.331382  0.750000  1
  W  W7  1  0.666667  0.333333  0.750000  1
