# generated using pymatgen
data_Er12Fe4BiAu
_symmetry_space_group_name_H-M   'P 1'
_cell_length_a   8.31747270
_cell_length_b   8.31995714
_cell_length_c   8.31747281
_cell_angle_alpha   110.52718724
_cell_angle_beta   111.30634524
_cell_angle_gamma   106.60688661
_symmetry_Int_Tables_number   1
_chemical_formula_structural   Er12Fe4BiAu
_chemical_formula_sum   'Er12 Fe4 Bi1 Au1'
_cell_volume   442.29841158
_cell_formula_units_Z   1
loop_
 _symmetry_equiv_pos_site_id
 _symmetry_equiv_pos_as_xyz
  1  'x, y, z'
loop_
 _atom_site_type_symbol
 _atom_site_label
 _atom_site_symmetry_multiplicity
 _atom_site_fract_x
 _atom_site_fract_y
 _atom_site_fract_z
 _atom_site_occupancy
  Er  Er0  1  0.289746  0.186102  0.475880  1
  Er  Er1  1  0.710254  0.813898  0.524120  1
  Er  Er2  1  0.289779  0.813898  0.103645  1
  Er  Er3  1  0.710221  0.186102  0.896355  1
  Er  Er4  1  0.615311  0.310759  0.304706  1
  Er  Er5  1  0.384689  0.689241  0.695294  1
  Er  Er6  1  0.006053  0.310759  0.695448  1
  Er  Er7  1  0.993947  0.689241  0.304552  1
  Er  Er8  1  0.215013  0.425044  0.210031  1
  Er  Er9  1  0.784987  0.574956  0.789969  1
  Er  Er10  1  0.215237  0.005089  0.789852  1
  Er  Er11  1  0.784763  0.994911  0.210148  1
  Fe  Fe12  1  0.000203  0.386607  0.386404  1
  Fe  Fe13  1  0.999797  0.613393  0.613596  1
  Fe  Fe14  1  0.392370  0.893855  0.501485  1
  Fe  Fe15  1  0.607630  0.106145  0.498515  1
  Bi  Bi16  1  0.500000  0.500000  0.000000  1
  Au  Au17  1  0.000000  0.000000  0.000000  1
