# generated using pymatgen
data_HoNp2Se5
_symmetry_space_group_name_H-M   'P 1'
_cell_length_a   7.74005924
_cell_length_b   8.30316900
_cell_length_c   12.22890789
_cell_angle_alpha   90.10095152
_cell_angle_beta   90.09483553
_cell_angle_gamma   90.13615509
_symmetry_Int_Tables_number   1
_chemical_formula_structural   HoNp2Se5
_chemical_formula_sum   'Ho4 Np8 Se20'
_cell_volume   785.91094627
_cell_formula_units_Z   4
loop_
 _symmetry_equiv_pos_site_id
 _symmetry_equiv_pos_as_xyz
  1  'x, y, z'
loop_
 _atom_site_type_symbol
 _atom_site_label
 _atom_site_symmetry_multiplicity
 _atom_site_fract_x
 _atom_site_fract_y
 _atom_site_fract_z
 _atom_site_occupancy
  Ho  Ho0  1  0.982931  0.505243  0.318034  1
  Ho  Ho1  1  0.922012  0.749821  0.007563  1
  Ho  Ho2  1  0.577721  0.749004  0.507574  1
  Ho  Ho3  1  0.075924  0.250144  0.994621  1
  Np  Np4  1  0.519073  0.998463  0.818883  1
  Np  Np5  1  0.020778  0.000658  0.682179  1
  Np  Np6  1  0.480876  0.499941  0.179293  1
  Np  Np7  1  0.019316  0.498540  0.682974  1
  Np  Np8  1  0.479283  0.998711  0.178413  1
  Np  Np9  1  0.982776  0.999064  0.319475  1
  Np  Np10  1  0.517026  0.501289  0.818782  1
  Np  Np11  1  0.428000  0.249872  0.489148  1
  Se  Se12  1  0.832662  0.042680  0.101801  1
  Se  Se13  1  0.665780  0.454932  0.599536  1
  Se  Se14  1  0.167967  0.541542  0.900104  1
  Se  Se15  1  0.332956  0.955757  0.400973  1
  Se  Se16  1  0.165560  0.958594  0.900056  1
  Se  Se17  1  0.332380  0.542488  0.400299  1
  Se  Se18  1  0.834949  0.458307  0.101750  1
  Se  Se19  1  0.664924  0.044481  0.597999  1
  Se  Se20  1  0.535425  0.750154  0.999890  1
  Se  Se21  1  0.961990  0.750201  0.500166  1
  Se  Se22  1  0.463690  0.250047  0.999197  1
  Se  Se23  1  0.039014  0.250032  0.500440  1
  Se  Se24  1  0.171410  0.751376  0.186567  1
  Se  Se25  1  0.328674  0.749252  0.686894  1
  Se  Se26  1  0.828698  0.249456  0.812917  1
  Se  Se27  1  0.670268  0.249540  0.313895  1
  Se  Se28  1  0.696196  0.750005  0.285700  1
  Se  Se29  1  0.800792  0.749659  0.783494  1
  Se  Se30  1  0.302366  0.250107  0.712925  1
  Se  Se31  1  0.198583  0.250639  0.218458  1
