# generated using pymatgen
data_Pr3Nd(Si5Os3)2
_symmetry_space_group_name_H-M   'P 1'
_cell_length_a   8.24391916
_cell_length_b   8.24653725
_cell_length_c   5.90034009
_cell_angle_alpha   70.36692916
_cell_angle_beta   70.36354373
_cell_angle_gamma   93.59284080
_symmetry_Int_Tables_number   1
_chemical_formula_structural   Pr3Nd(Si5Os3)2
_chemical_formula_sum   'Pr3 Nd1 Si10 Os6'
_cell_volume   348.79608686
_cell_formula_units_Z   1
loop_
 _symmetry_equiv_pos_site_id
 _symmetry_equiv_pos_as_xyz
  1  'x, y, z'
loop_
 _atom_site_type_symbol
 _atom_site_label
 _atom_site_symmetry_multiplicity
 _atom_site_fract_x
 _atom_site_fract_y
 _atom_site_fract_z
 _atom_site_occupancy
  Pr  Pr0  1  0.867801  0.602961  0.754319  1
  Pr  Pr1  1  0.396815  0.133455  0.744579  1
  Pr  Pr2  1  0.133170  0.396574  0.245172  1
  Nd  Nd3  1  0.602440  0.867226  0.255413  1
  Si  Si4  1  0.060898  0.260248  0.837293  1
  Si  Si5  1  0.739664  0.938540  0.663612  1
  Si  Si6  1  0.937643  0.740488  0.162748  1
  Si  Si7  1  0.259989  0.060223  0.337209  1
  Si  Si8  1  0.208910  0.791115  0.750354  1
  Si  Si9  1  0.790528  0.208254  0.250367  1
  Si  Si10  1  0.512558  0.488562  0.750071  1
  Si  Si11  1  0.488996  0.512714  0.248667  1
  Si  Si12  1  0.771529  0.227905  0.750356  1
  Si  Si13  1  0.228979  0.771746  0.249997  1
  Os  Os14  1  0.257786  0.541889  0.632084  1
  Os  Os15  1  0.458231  0.743617  0.867567  1
  Os  Os16  1  0.743216  0.458371  0.367581  1
  Os  Os17  1  0.541836  0.256315  0.132115  1
  Os  Os18  1  0.002484  0.997097  0.750030  1
  Os  Os19  1  0.996531  0.002702  0.250467  1
