# generated using pymatgen
data_LiYb(UI6)2
_symmetry_space_group_name_H-M   'P 1'
_cell_length_a   7.72153072
_cell_length_b   7.72153084
_cell_length_c   14.99397800
_cell_angle_alpha   84.25000155
_cell_angle_beta   84.25000146
_cell_angle_gamma   119.52701772
_symmetry_Int_Tables_number   1
_chemical_formula_structural   LiYb(UI6)2
_chemical_formula_sum   'Li1 Yb1 U2 I12'
_cell_volume   762.31487121
_cell_formula_units_Z   1
loop_
 _symmetry_equiv_pos_site_id
 _symmetry_equiv_pos_as_xyz
  1  'x, y, z'
loop_
 _atom_site_type_symbol
 _atom_site_label
 _atom_site_symmetry_multiplicity
 _atom_site_fract_x
 _atom_site_fract_y
 _atom_site_fract_z
 _atom_site_occupancy
  Li  Li0  1  0.084405  0.915595  0.250000  1
  Yb  Yb1  1  0.915374  0.084626  0.750000  1
  U  U2  1  0.419101  0.580899  0.250000  1
  U  U3  1  0.580789  0.419211  0.750000  1
  I  I4  1  0.303872  0.457267  0.631407  1
  I  I5  1  0.448282  0.302660  0.136618  1
  I  I6  1  0.215056  0.060988  0.870393  1
  I  I7  1  0.071074  0.218092  0.364608  1
  I  I8  1  0.159930  0.642505  0.134793  1
  I  I9  1  0.638180  0.154550  0.629250  1
  I  I10  1  0.357495  0.840070  0.365207  1
  I  I11  1  0.845450  0.361820  0.870750  1
  I  I12  1  0.781908  0.928926  0.135392  1
  I  I13  1  0.939012  0.784944  0.629607  1
  I  I14  1  0.542733  0.696128  0.868593  1
  I  I15  1  0.697340  0.551718  0.363382  1
