# generated using pymatgen
data_TbNb8VS16
_symmetry_space_group_name_H-M   'P 1'
_cell_length_a   6.70421300
_cell_length_b   6.70421481
_cell_length_c   13.03512800
_cell_angle_alpha   90.00000000
_cell_angle_beta   90.00000000
_cell_angle_gamma   120.00000585
_symmetry_Int_Tables_number   1
_chemical_formula_structural   TbNb8VS16
_chemical_formula_sum   'Tb1 Nb8 V1 S16'
_cell_volume   507.38968210
_cell_formula_units_Z   1
loop_
 _symmetry_equiv_pos_site_id
 _symmetry_equiv_pos_as_xyz
  1  'x, y, z'
loop_
 _atom_site_type_symbol
 _atom_site_label
 _atom_site_symmetry_multiplicity
 _atom_site_fract_x
 _atom_site_fract_y
 _atom_site_fract_z
 _atom_site_occupancy
  Tb  Tb0  1  0.000000  0.000000  0.000000  1
  Nb  Nb1  1  0.000000  0.000000  0.265462  1
  Nb  Nb2  1  0.000000  0.000000  0.734538  1
  Nb  Nb3  1  0.504938  0.009874  0.267573  1
  Nb  Nb4  1  0.495062  0.990126  0.732427  1
  Nb  Nb5  1  0.990126  0.495062  0.267573  1
  Nb  Nb6  1  0.009874  0.504938  0.732427  1
  Nb  Nb7  1  0.504938  0.495062  0.267573  1
  Nb  Nb8  1  0.495062  0.504938  0.732427  1
  V  V9  1  0.000000  0.000000  0.500000  1
  S  S10  1  0.333333  0.666667  0.610632  1
  S  S11  1  0.666667  0.333333  0.389368  1
  S  S12  1  0.666667  0.333333  0.143787  1
  S  S13  1  0.333333  0.666667  0.856213  1
  S  S14  1  0.169246  0.338493  0.145759  1
  S  S15  1  0.830754  0.661507  0.854241  1
  S  S16  1  0.661507  0.830754  0.145759  1
  S  S17  1  0.834256  0.668513  0.612975  1
  S  S18  1  0.338493  0.169246  0.854241  1
  S  S19  1  0.165744  0.331487  0.387025  1
  S  S20  1  0.169246  0.830754  0.145759  1
  S  S21  1  0.331487  0.165744  0.612975  1
  S  S22  1  0.830754  0.169246  0.854241  1
  S  S23  1  0.668513  0.834256  0.387025  1
  S  S24  1  0.834256  0.165744  0.612975  1
  S  S25  1  0.165744  0.834256  0.387025  1
