# generated using pymatgen
data_Sm6Zr5Al11Os7
_symmetry_space_group_name_H-M   'P 1'
_cell_length_a   9.27876002
_cell_length_b   9.27876024
_cell_length_c   9.26050514
_cell_angle_alpha   59.93476975
_cell_angle_beta   59.93476821
_cell_angle_gamma   59.99999964
_symmetry_Int_Tables_number   1
_chemical_formula_structural   Sm6Zr5Al11Os7
_chemical_formula_sum   'Sm6 Zr5 Al11 Os7'
_cell_volume   563.21040416
_cell_formula_units_Z   1
loop_
 _symmetry_equiv_pos_site_id
 _symmetry_equiv_pos_as_xyz
  1  'x, y, z'
loop_
 _atom_site_type_symbol
 _atom_site_label
 _atom_site_symmetry_multiplicity
 _atom_site_fract_x
 _atom_site_fract_y
 _atom_site_fract_z
 _atom_site_occupancy
  Sm  Sm0  1  0.702600  0.702600  0.297975  1
  Sm  Sm1  1  0.296825  0.702600  0.297975  1
  Sm  Sm2  1  0.702600  0.296825  0.297975  1
  Sm  Sm3  1  0.297527  0.297527  0.710640  1
  Sm  Sm4  1  0.694304  0.297527  0.710640  1
  Sm  Sm5  1  0.297527  0.694304  0.710640  1
  Zr  Zr6  1  0.881213  0.881213  0.356359  1
  Zr  Zr7  1  0.876496  0.363102  0.883904  1
  Zr  Zr8  1  0.363102  0.876496  0.883904  1
  Zr  Zr9  1  0.876496  0.876496  0.883904  1
  Zr  Zr10  1  0.124437  0.124437  0.626689  1
  Al  Al11  1  0.119435  0.640610  0.120522  1
  Al  Al12  1  0.640610  0.119435  0.120522  1
  Al  Al13  1  0.119435  0.119435  0.120522  1
  Al  Al14  1  0.667859  0.667859  0.996424  1
  Al  Al15  1  0.669877  0.992014  0.668232  1
  Al  Al16  1  0.992014  0.669877  0.668232  1
  Al  Al17  1  0.669877  0.669877  0.668232  1
  Al  Al18  1  0.327616  0.327616  0.017149  1
  Al  Al19  1  0.334609  0.008105  0.322678  1
  Al  Al20  1  0.008105  0.334609  0.322678  1
  Al  Al21  1  0.334609  0.334609  0.322678  1
  Os  Os22  1  0.002524  0.002524  0.992428  1
  Os  Os23  1  0.000199  0.000199  0.500675  1
  Os  Os24  1  0.498927  0.000199  0.500675  1
  Os  Os25  1  0.000199  0.498927  0.500675  1
  Os  Os26  1  0.499241  0.499241  0.999024  1
  Os  Os27  1  0.002495  0.499241  0.999024  1
  Os  Os28  1  0.499241  0.002495  0.999024  1
