# generated using pymatgen
data_Cs4Li2DyInAs4
_symmetry_space_group_name_H-M   'P 1'
_cell_length_a   9.95238490
_cell_length_b   9.95238422
_cell_length_c   9.95238344
_cell_angle_alpha   139.87074606
_cell_angle_beta   57.85576135
_cell_angle_gamma   140.12634760
_symmetry_Int_Tables_number   1
_chemical_formula_structural   Cs4Li2DyInAs4
_chemical_formula_sum   'Cs4 Li2 Dy1 In1 As4'
_cell_volume   403.73112147
_cell_formula_units_Z   1
loop_
 _symmetry_equiv_pos_site_id
 _symmetry_equiv_pos_as_xyz
  1  'x, y, z'
loop_
 _atom_site_type_symbol
 _atom_site_label
 _atom_site_symmetry_multiplicity
 _atom_site_fract_x
 _atom_site_fract_y
 _atom_site_fract_z
 _atom_site_occupancy
  Cs  Cs0  1  0.331904  0.775460  0.097962  1
  Cs  Cs1  1  0.168096  0.266058  0.443556  1
  Cs  Cs2  1  0.822503  0.724542  0.556444  1
  Cs  Cs3  1  0.677497  0.233943  0.902038  1
  Li  Li4  1  0.750000  0.250000  0.500000  1
  Li  Li5  1  0.250000  0.750001  0.500001  1
  Dy  Dy6  1  0.250000  0.250000  0.000000  1
  In  In7  1  0.749999  0.749999  0.000000  1
  As  As8  1  0.909956  0.237095  0.157352  1
  As  As9  1  0.590044  0.747397  0.327139  1
  As  As10  1  0.420258  0.262906  0.672862  1
  As  As11  1  0.079742  0.752604  0.842648  1
