# generated using pymatgen
data_Y12GaCo4Bi
_symmetry_space_group_name_H-M   'P 1'
_cell_length_a   8.40610860
_cell_length_b   8.40610830
_cell_length_c   8.40610803
_cell_angle_alpha   107.57668471
_cell_angle_beta   110.23211479
_cell_angle_gamma   110.62156165
_symmetry_Int_Tables_number   1
_chemical_formula_structural   Y12GaCo4Bi
_chemical_formula_sum   'Y12 Ga1 Co4 Bi1'
_cell_volume   456.88092316
_cell_formula_units_Z   1
loop_
 _symmetry_equiv_pos_site_id
 _symmetry_equiv_pos_as_xyz
  1  'x, y, z'
loop_
 _atom_site_type_symbol
 _atom_site_label
 _atom_site_symmetry_multiplicity
 _atom_site_fract_x
 _atom_site_fract_y
 _atom_site_fract_z
 _atom_site_occupancy
  Y  Y0  1  0.707017  0.276068  0.983085  1
  Y  Y1  1  0.292983  0.723932  0.016915  1
  Y  Y2  1  0.707017  0.723932  0.430949  1
  Y  Y3  1  0.292983  0.276068  0.569051  1
  Y  Y4  1  0.808185  0.121569  0.313384  1
  Y  Y5  1  0.808185  0.494801  0.686616  1
  Y  Y6  1  0.191815  0.878431  0.686616  1
  Y  Y7  1  0.191815  0.505199  0.313384  1
  Y  Y8  1  0.599703  0.781306  0.818396  1
  Y  Y9  1  0.962910  0.781306  0.181604  1
  Y  Y10  1  0.037090  0.218694  0.818396  1
  Y  Y11  1  0.400297  0.218694  0.181604  1
  Ga  Ga12  1  0.500000  0.500000  0.000000  1
  Co  Co13  1  0.878354  0.500000  0.378354  1
  Co  Co14  1  0.121646  0.500000  0.621646  1
  Co  Co15  1  0.000000  0.110331  0.110331  1
  Co  Co16  1  0.000000  0.889669  0.889669  1
  Bi  Bi17  1  0.500000  0.000000  0.500000  1
