# generated using pymatgen
data_NdGa6Cu7
_symmetry_space_group_name_H-M   'P 1'
_cell_length_a   8.42093829
_cell_length_b   8.42093898
_cell_length_c   8.42093787
_cell_angle_alpha   122.15595081
_cell_angle_beta   118.59040761
_cell_angle_gamma   89.38288089
_symmetry_Int_Tables_number   1
_chemical_formula_structural   NdGa6Cu7
_chemical_formula_sum   'Nd2 Ga12 Cu14'
_cell_volume   419.32376347
_cell_formula_units_Z   2
loop_
 _symmetry_equiv_pos_site_id
 _symmetry_equiv_pos_as_xyz
  1  'x, y, z'
loop_
 _atom_site_type_symbol
 _atom_site_label
 _atom_site_symmetry_multiplicity
 _atom_site_fract_x
 _atom_site_fract_y
 _atom_site_fract_z
 _atom_site_occupancy
  Nd  Nd0  1  0.250000  0.750000  0.500000  1
  Nd  Nd1  1  0.750000  0.250000  0.500000  1
  Ga  Ga2  1  0.554598  0.542179  0.356428  1
  Ga  Ga3  1  0.445402  0.457821  0.643572  1
  Ga  Ga4  1  0.185750  0.198168  0.643572  1
  Ga  Ga5  1  0.314250  0.957821  0.012418  1
  Ga  Ga6  1  0.814250  0.801832  0.356428  1
  Ga  Ga7  1  0.685750  0.042179  0.987582  1
  Ga  Ga8  1  0.945402  0.301832  0.987582  1
  Ga  Ga9  1  0.054598  0.698168  0.012418  1
  Ga  Ga10  1  0.051225  0.315031  0.366256  1
  Ga  Ga11  1  0.948775  0.684969  0.633744  1
  Ga  Ga12  1  0.551225  0.184969  0.736193  1
  Ga  Ga13  1  0.448775  0.815031  0.263807  1
  Cu  Cu14  1  0.285811  0.300547  0.234803  1
  Cu  Cu15  1  0.714189  0.699453  0.765197  1
  Cu  Cu16  1  0.065744  0.051008  0.765197  1
  Cu  Cu17  1  0.434256  0.199453  0.985264  1
  Cu  Cu18  1  0.934256  0.948992  0.234803  1
  Cu  Cu19  1  0.565744  0.800547  0.014736  1
  Cu  Cu20  1  0.214189  0.448992  0.014736  1
  Cu  Cu21  1  0.785811  0.551008  0.985264  1
  Cu  Cu22  1  0.000000  0.000000  0.000000  1
  Cu  Cu23  1  0.500000  0.500000  0.000000  1
  Cu  Cu24  1  0.284203  0.070674  0.354878  1
  Cu  Cu25  1  0.715797  0.929326  0.645122  1
  Cu  Cu26  1  0.784203  0.429326  0.213530  1
  Cu  Cu27  1  0.215797  0.570674  0.786470  1
