# generated using pymatgen
data_Pr8Dy11ScGa5Si11
_symmetry_space_group_name_H-M   'P 1'
_cell_length_a   7.53271592
_cell_length_b   7.86461310
_cell_length_c   15.02762624
_cell_angle_alpha   90.00522864
_cell_angle_beta   90.12701600
_cell_angle_gamma   89.92879596
_symmetry_Int_Tables_number   1
_chemical_formula_structural   Pr8Dy11ScGa5Si11
_chemical_formula_sum   'Pr8 Dy11 Sc1 Ga5 Si11'
_cell_volume   890.26219716
_cell_formula_units_Z   1
loop_
 _symmetry_equiv_pos_site_id
 _symmetry_equiv_pos_as_xyz
  1  'x, y, z'
loop_
 _atom_site_type_symbol
 _atom_site_label
 _atom_site_symmetry_multiplicity
 _atom_site_fract_x
 _atom_site_fract_y
 _atom_site_fract_z
 _atom_site_occupancy
  Pr  Pr0  1  0.019135  0.177446  0.400998  1
  Pr  Pr1  1  0.518360  0.323130  0.401175  1
  Pr  Pr2  1  0.482900  0.677445  0.897964  1
  Pr  Pr3  1  0.480999  0.679664  0.600935  1
  Pr  Pr4  1  0.983678  0.817888  0.600506  1
  Pr  Pr5  1  0.983340  0.823249  0.898451  1
  Pr  Pr6  1  0.517264  0.320365  0.100426  1
  Pr  Pr7  1  0.017080  0.178751  0.100621  1
  Dy  Dy8  1  0.324707  0.174432  0.624698  1
  Dy  Dy9  1  0.674380  0.821734  0.376409  1
  Dy  Dy10  1  0.661634  0.992442  0.751592  1
  Dy  Dy11  1  0.173070  0.678664  0.376804  1
  Dy  Dy12  1  0.825370  0.325316  0.875341  1
  Dy  Dy13  1  0.826242  0.327118  0.624366  1
  Dy  Dy14  1  0.838115  0.492402  0.250551  1
  Dy  Dy15  1  0.339987  0.006350  0.251536  1
  Dy  Dy16  1  0.326839  0.177052  0.873446  1
  Dy  Dy17  1  0.172270  0.673698  0.124575  1
  Dy  Dy18  1  0.672934  0.826431  0.124142  1
  Sc  Sc19  1  0.160544  0.503725  0.750553  1
  Ga  Ga20  1  0.155244  0.464249  0.539466  1
  Ga  Ga21  1  0.843650  0.536826  0.038113  1
  Ga  Ga22  1  0.344449  0.962895  0.036424  1
  Ga  Ga23  1  0.155649  0.465845  0.958276  1
  Ga  Ga24  1  0.655174  0.036848  0.537980  1
  Si  Si25  1  0.276956  0.872797  0.749457  1
  Si  Si26  1  0.465874  0.611986  0.251393  1
  Si  Si27  1  0.031648  0.114231  0.749287  1
  Si  Si28  1  0.526741  0.392832  0.749234  1
  Si  Si29  1  0.967155  0.888887  0.250703  1
  Si  Si30  1  0.722254  0.120346  0.251358  1
  Si  Si31  1  0.350546  0.966076  0.461191  1
  Si  Si32  1  0.849688  0.534119  0.461023  1
  Si  Si33  1  0.783954  0.620529  0.749313  1
  Si  Si34  1  0.222018  0.379639  0.251233  1
  Si  Si35  1  0.650150  0.034596  0.960459  1
