# generated using pymatgen
data_CoTc(Sn4Au)2
_symmetry_space_group_name_H-M   'P 1'
_cell_length_a   6.77131700
_cell_length_b   6.77131700
_cell_length_c   5.87858600
_cell_angle_alpha   90.00000000
_cell_angle_beta   90.00000000
_cell_angle_gamma   90.00000000
_symmetry_Int_Tables_number   1
_chemical_formula_structural   CoTc(Sn4Au)2
_chemical_formula_sum   'Co1 Tc1 Sn8 Au2'
_cell_volume   269.53748248
_cell_formula_units_Z   1
loop_
 _symmetry_equiv_pos_site_id
 _symmetry_equiv_pos_as_xyz
  1  'x, y, z'
loop_
 _atom_site_type_symbol
 _atom_site_label
 _atom_site_symmetry_multiplicity
 _atom_site_fract_x
 _atom_site_fract_y
 _atom_site_fract_z
 _atom_site_occupancy
  Co  Co0  1  0.500000  0.500000  0.250000  1
  Tc  Tc1  1  0.500000  0.500000  0.750000  1
  Sn  Sn2  1  0.369417  0.181976  0.004486  1
  Sn  Sn3  1  0.630583  0.818024  0.004486  1
  Sn  Sn4  1  0.181976  0.630583  0.004486  1
  Sn  Sn5  1  0.369417  0.818024  0.495514  1
  Sn  Sn6  1  0.818024  0.369417  0.004486  1
  Sn  Sn7  1  0.630583  0.181976  0.495514  1
  Sn  Sn8  1  0.181976  0.369417  0.495514  1
  Sn  Sn9  1  0.818024  0.630583  0.495514  1
  Au  Au10  1  0.000000  0.000000  0.001139  1
  Au  Au11  1  0.000000  0.000000  0.498861  1
