# generated using pymatgen
data_Ho3Er2In3Br
_symmetry_space_group_name_H-M   'P 1'
_cell_length_a   9.12993800
_cell_length_b   9.12993779
_cell_length_c   6.72932000
_cell_angle_alpha   90.00000000
_cell_angle_beta   90.00000000
_cell_angle_gamma   120.00000076
_symmetry_Int_Tables_number   1
_chemical_formula_structural   Ho3Er2In3Br
_chemical_formula_sum   'Ho6 Er4 In6 Br2'
_cell_volume   485.77756748
_cell_formula_units_Z   2
loop_
 _symmetry_equiv_pos_site_id
 _symmetry_equiv_pos_as_xyz
  1  'x, y, z'
loop_
 _atom_site_type_symbol
 _atom_site_label
 _atom_site_symmetry_multiplicity
 _atom_site_fract_x
 _atom_site_fract_y
 _atom_site_fract_z
 _atom_site_occupancy
  Ho  Ho0  1  0.733440  0.733440  0.250000  1
  Ho  Ho1  1  0.000000  0.733440  0.750000  1
  Ho  Ho2  1  0.733440  0.000000  0.750000  1
  Ho  Ho3  1  0.266560  0.266560  0.750000  1
  Ho  Ho4  1  0.000000  0.266560  0.250000  1
  Ho  Ho5  1  0.266560  0.000000  0.250000  1
  Er  Er6  1  0.333333  0.666667  0.500000  1
  Er  Er7  1  0.666667  0.333333  0.500000  1
  Er  Er8  1  0.333333  0.666667  0.000000  1
  Er  Er9  1  0.666667  0.333333  0.000000  1
  In  In10  1  0.393669  0.000000  0.750000  1
  In  In11  1  0.000000  0.606331  0.250000  1
  In  In12  1  0.606331  0.000000  0.250000  1
  In  In13  1  0.000000  0.393669  0.750000  1
  In  In14  1  0.393669  0.393669  0.250000  1
  In  In15  1  0.606331  0.606331  0.750000  1
  Br  Br16  1  0.000000  0.000000  0.500000  1
  Br  Br17  1  0.000000  0.000000  0.000000  1
