# generated using pymatgen
data_Tm2LuTh(Ga3Rh)6
_symmetry_space_group_name_H-M   'P 1'
_cell_length_a   7.58548500
_cell_length_b   7.59010634
_cell_length_c   9.48518500
_cell_angle_alpha   90.00000000
_cell_angle_beta   90.00000000
_cell_angle_gamma   119.76429684
_symmetry_Int_Tables_number   1
_chemical_formula_structural   Tm2LuTh(Ga3Rh)6
_chemical_formula_sum   'Tm2 Lu1 Th1 Ga18 Rh6'
_cell_volume   474.06102744
_cell_formula_units_Z   1
loop_
 _symmetry_equiv_pos_site_id
 _symmetry_equiv_pos_as_xyz
  1  'x, y, z'
loop_
 _atom_site_type_symbol
 _atom_site_label
 _atom_site_symmetry_multiplicity
 _atom_site_fract_x
 _atom_site_fract_y
 _atom_site_fract_z
 _atom_site_occupancy
  Tm  Tm0  1  0.002656  0.330292  0.750000  1
  Tm  Tm1  1  0.671265  0.996776  0.250000  1
  Lu  Lu2  1  0.329207  0.002626  0.750000  1
  Th  Th3  1  0.996689  0.669151  0.250000  1
  Ga  Ga4  1  0.342610  0.547736  0.250000  1
  Ga  Ga5  1  0.659887  0.449976  0.750000  1
  Ga  Ga6  1  0.542872  0.335808  0.250000  1
  Ga  Ga7  1  0.450409  0.662619  0.750000  1
  Ga  Ga8  1  0.999404  0.328236  0.076007  1
  Ga  Ga9  1  0.001184  0.665191  0.913009  1
  Ga  Ga10  1  0.001184  0.665191  0.586991  1
  Ga  Ga11  1  0.341786  0.005318  0.423798  1
  Ga  Ga12  1  0.999404  0.328236  0.423993  1
  Ga  Ga13  1  0.665054  0.002074  0.580577  1
  Ga  Ga14  1  0.665054  0.002074  0.919423  1
  Ga  Ga15  1  0.341786  0.005318  0.076202  1
  Ga  Ga16  1  0.330969  0.330890  0.569765  1
  Ga  Ga17  1  0.661783  0.667512  0.439881  1
  Ga  Ga18  1  0.661783  0.667512  0.060119  1
  Ga  Ga19  1  0.330969  0.330890  0.930235  1
  Ga  Ga20  1  0.130049  0.132452  0.250000  1
  Ga  Ga21  1  0.872329  0.875228  0.750000  1
  Rh  Rh22  1  0.673816  0.331063  0.999765  1
  Rh  Rh23  1  0.325894  0.670890  0.999907  1
  Rh  Rh24  1  0.325894  0.670890  0.500093  1
  Rh  Rh25  1  0.673816  0.331063  0.500235  1
  Rh  Rh26  1  0.001124  0.997495  0.999919  1
  Rh  Rh27  1  0.001124  0.997495  0.500081  1
