# generated using pymatgen
data_Sc12Ni2IrBr16
_symmetry_space_group_name_H-M   'P 1'
_cell_length_a   8.96497733
_cell_length_b   11.08311881
_cell_length_c   11.72645940
_cell_angle_alpha   117.08057433
_cell_angle_beta   101.73160331
_cell_angle_gamma   101.36588184
_symmetry_Int_Tables_number   1
_chemical_formula_structural   Sc12Ni2IrBr16
_chemical_formula_sum   'Sc12 Ni2 Ir1 Br16'
_cell_volume   958.03282625
_cell_formula_units_Z   1
loop_
 _symmetry_equiv_pos_site_id
 _symmetry_equiv_pos_as_xyz
  1  'x, y, z'
loop_
 _atom_site_type_symbol
 _atom_site_label
 _atom_site_symmetry_multiplicity
 _atom_site_fract_x
 _atom_site_fract_y
 _atom_site_fract_z
 _atom_site_occupancy
  Sc  Sc0  1  0.082888  0.260183  0.352915  1
  Sc  Sc1  1  0.917112  0.739817  0.647085  1
  Sc  Sc2  1  0.779451  0.537072  0.322971  1
  Sc  Sc3  1  0.220549  0.462928  0.677029  1
  Sc  Sc4  1  0.279198  0.740274  0.647384  1
  Sc  Sc5  1  0.720802  0.259726  0.352616  1
  Sc  Sc6  1  0.141199  0.536723  0.323432  1
  Sc  Sc7  1  0.858801  0.463277  0.676568  1
  Sc  Sc8  1  0.402930  0.354411  0.267998  1
  Sc  Sc9  1  0.597070  0.645589  0.732002  1
  Sc  Sc10  1  0.457345  0.303369  0.520787  1
  Sc  Sc11  1  0.542655  0.696631  0.479213  1
  Ni  Ni12  1  0.343124  0.500154  0.499340  1
  Ni  Ni13  1  0.656877  0.499846  0.500660  1
  Ir  Ir14  1  0.000000  0.500000  0.500000  1
  Br  Br15  1  0.398321  0.742066  0.884834  1
  Br  Br16  1  0.601679  0.257934  0.115166  1
  Br  Br17  1  0.189851  0.968443  0.784477  1
  Br  Br18  1  0.810149  0.031557  0.215523  1
  Br  Br19  1  0.337918  0.093436  0.250148  1
  Br  Br20  1  0.662082  0.906564  0.749852  1
  Br  Br21  1  0.555085  0.438045  0.799292  1
  Br  Br22  1  0.444915  0.561955  0.200708  1
  Br  Br23  1  0.311017  0.828050  0.462673  1
  Br  Br24  1  0.688983  0.171950  0.537327  1
  Br  Br25  1  0.168469  0.169977  0.532802  1
  Br  Br26  1  0.831531  0.830023  0.467198  1
  Br  Br27  1  0.926649  0.577470  0.159815  1
  Br  Br28  1  0.073351  0.422530  0.840185  1
  Br  Br29  1  0.922695  0.740490  0.884799  1
  Br  Br30  1  0.077305  0.259510  0.115201  1
