# generated using pymatgen
data_HfU(NiP)2
_symmetry_space_group_name_H-M   'P 1'
_cell_length_a   3.84185600
_cell_length_b   3.84185523
_cell_length_c   14.67385100
_cell_angle_alpha   90.00000000
_cell_angle_beta   90.00000000
_cell_angle_gamma   120.00000666
_symmetry_Int_Tables_number   1
_chemical_formula_structural   HfU(NiP)2
_chemical_formula_sum   'Hf2 U2 Ni4 P4'
_cell_volume   187.56715246
_cell_formula_units_Z   2
loop_
 _symmetry_equiv_pos_site_id
 _symmetry_equiv_pos_as_xyz
  1  'x, y, z'
loop_
 _atom_site_type_symbol
 _atom_site_label
 _atom_site_symmetry_multiplicity
 _atom_site_fract_x
 _atom_site_fract_y
 _atom_site_fract_z
 _atom_site_occupancy
  Hf  Hf0  1  0.000000  0.000000  0.250000  1
  Hf  Hf1  1  0.000000  0.000000  0.750000  1
  U  U2  1  0.000000  0.000000  0.500000  1
  U  U3  1  0.000000  0.000000  0.000000  1
  Ni  Ni4  1  0.333333  0.666667  0.344329  1
  Ni  Ni5  1  0.666667  0.333333  0.655671  1
  Ni  Ni6  1  0.666667  0.333333  0.844329  1
  Ni  Ni7  1  0.333333  0.666667  0.155671  1
  P  P8  1  0.333333  0.666667  0.878158  1
  P  P9  1  0.666667  0.333333  0.121842  1
  P  P10  1  0.666667  0.333333  0.378158  1
  P  P11  1  0.333333  0.666667  0.621842  1
