# generated using pymatgen
data_Gd11(SbO8)3
_symmetry_space_group_name_H-M   'P 1'
_cell_length_a   8.48058354
_cell_length_b   8.54749083
_cell_length_c   8.58978530
_cell_angle_alpha   71.18635103
_cell_angle_beta   72.38848814
_cell_angle_gamma   71.54779151
_symmetry_Int_Tables_number   1
_chemical_formula_structural   Gd11(SbO8)3
_chemical_formula_sum   'Gd11 Sb3 O24'
_cell_volume   544.97041364
_cell_formula_units_Z   1
loop_
 _symmetry_equiv_pos_site_id
 _symmetry_equiv_pos_as_xyz
  1  'x, y, z'
loop_
 _atom_site_type_symbol
 _atom_site_label
 _atom_site_symmetry_multiplicity
 _atom_site_fract_x
 _atom_site_fract_y
 _atom_site_fract_z
 _atom_site_occupancy
  Gd  Gd0  1  0.383269  0.915478  0.225829  1
  Gd  Gd1  1  0.720594  0.885914  0.421487  1
  Gd  Gd2  1  0.417919  0.727410  0.886660  1
  Gd  Gd3  1  0.080794  0.780587  0.615078  1
  Gd  Gd4  1  0.888808  0.418207  0.721599  1
  Gd  Gd5  1  0.774166  0.617528  0.083796  1
  Gd  Gd6  1  0.112148  0.582248  0.286154  1
  Gd  Gd7  1  0.916637  0.217669  0.390731  1
  Gd  Gd8  1  0.587878  0.281102  0.109152  1
  Gd  Gd9  1  0.283272  0.113014  0.567118  1
  Gd  Gd10  1  0.610970  0.084292  0.771211  1
  Sb  Sb11  1  0.001591  0.001819  0.004592  1
  Sb  Sb12  1  0.500638  0.492403  0.499849  1
  Sb  Sb13  1  0.207438  0.392523  0.941219  1
  O  O14  1  0.134199  0.917533  0.795004  1
  O  O15  1  0.591932  0.702200  0.376397  1
  O  O16  1  0.511541  0.916049  0.662694  1
  O  O17  1  0.207411  0.862070  0.098037  1
  O  O18  1  0.832232  0.987730  0.580589  1
  O  O19  1  0.927704  0.665632  0.518559  1
  O  O20  1  0.574172  0.842465  0.990873  1
  O  O21  1  0.669191  0.519110  0.922145  1
  O  O22  1  0.295180  0.638525  0.403626  1
  O  O23  1  0.012275  0.564857  0.846106  1
  O  O24  1  0.639809  0.410914  0.286652  1
  O  O25  1  0.906845  0.791704  0.137244  1
  O  O26  1  0.103025  0.224982  0.878321  1
  O  O27  1  0.350360  0.558189  0.727233  1
  O  O28  1  0.027699  0.403580  0.156326  1
  O  O29  1  0.705498  0.361764  0.599177  1
  O  O30  1  0.317635  0.491207  0.062902  1
  O  O31  1  0.397721  0.192826  0.992090  1
  O  O32  1  0.070947  0.335530  0.487974  1
  O  O33  1  0.165091  0.007499  0.423030  1
  O  O34  1  0.797609  0.142231  0.903393  1
  O  O35  1  0.489817  0.078000  0.319162  1
  O  O36  1  0.422855  0.279812  0.601618  1
  O  O37  1  0.863130  0.095392  0.206373  1
