# generated using pymatgen
data_Tb8Lu12Si15Pb
_symmetry_space_group_name_H-M   'P 1'
_cell_length_a   7.35316323
_cell_length_b   7.65322485
_cell_length_c   14.45755302
_cell_angle_alpha   89.96860256
_cell_angle_beta   91.27772746
_cell_angle_gamma   90.04366108
_symmetry_Int_Tables_number   1
_chemical_formula_structural   Tb8Lu12Si15Pb
_chemical_formula_sum   'Tb8 Lu12 Si15 Pb1'
_cell_volume   813.40209634
_cell_formula_units_Z   1
loop_
 _symmetry_equiv_pos_site_id
 _symmetry_equiv_pos_as_xyz
  1  'x, y, z'
loop_
 _atom_site_type_symbol
 _atom_site_label
 _atom_site_symmetry_multiplicity
 _atom_site_fract_x
 _atom_site_fract_y
 _atom_site_fract_z
 _atom_site_occupancy
  Tb  Tb0  1  0.507192  0.669785  0.601613  1
  Tb  Tb1  1  0.019596  0.820198  0.901124  1
  Tb  Tb2  1  0.479837  0.322111  0.097665  1
  Tb  Tb3  1  0.999997  0.188712  0.398634  1
  Tb  Tb4  1  0.487274  0.328335  0.399892  1
  Tb  Tb5  1  0.980414  0.180016  0.097795  1
  Tb  Tb6  1  0.519505  0.678746  0.901856  1
  Tb  Tb7  1  0.018104  0.815964  0.601721  1
  Lu  Lu8  1  0.663389  0.185393  0.630784  1
  Lu  Lu9  1  0.174773  0.321538  0.877835  1
  Lu  Lu10  1  0.321908  0.823748  0.122963  1
  Lu  Lu11  1  0.841321  0.658564  0.370259  1
  Lu  Lu12  1  0.320320  0.826263  0.374426  1
  Lu  Lu13  1  0.823310  0.675807  0.122697  1
  Lu  Lu14  1  0.676347  0.177330  0.876537  1
  Lu  Lu15  1  0.164961  0.325879  0.625329  1
  Lu  Lu16  1  0.840165  0.508497  0.749448  1
  Lu  Lu17  1  0.339484  0.991818  0.749222  1
  Lu  Lu18  1  0.162736  0.492107  0.249573  1
  Lu  Lu19  1  0.658217  0.006770  0.245617  1
  Si  Si20  1  0.150381  0.531784  0.039760  1
  Si  Si21  1  0.349998  0.030625  0.959697  1
  Si  Si22  1  0.831209  0.466131  0.540997  1
  Si  Si23  1  0.325563  0.037351  0.541713  1
  Si  Si24  1  0.848316  0.469789  0.959064  1
  Si  Si25  1  0.649397  0.968374  0.038986  1
  Si  Si26  1  0.170891  0.535498  0.460683  1
  Si  Si27  1  0.465978  0.391174  0.754665  1
  Si  Si28  1  0.969208  0.109736  0.752494  1
  Si  Si29  1  0.530822  0.615728  0.247490  1
  Si  Si30  1  0.026889  0.890705  0.246864  1
  Si  Si31  1  0.718813  0.871136  0.751403  1
  Si  Si32  1  0.218900  0.627727  0.752990  1
  Si  Si33  1  0.283288  0.131534  0.247791  1
  Si  Si34  1  0.782065  0.366717  0.246637  1
  Pb  Pb35  1  0.679435  0.958409  0.463773  1
