# generated using pymatgen
data_Er7Lu13Sn16
_symmetry_space_group_name_H-M   'P 1'
_cell_length_a   7.91849790
_cell_length_b   8.04372798
_cell_length_c   15.19734206
_cell_angle_alpha   90.01362549
_cell_angle_beta   90.20219971
_cell_angle_gamma   89.92601089
_symmetry_Int_Tables_number   1
_chemical_formula_structural   Er7Lu13Sn16
_chemical_formula_sum   'Er7 Lu13 Sn16'
_cell_volume   967.97633924
_cell_formula_units_Z   1
loop_
 _symmetry_equiv_pos_site_id
 _symmetry_equiv_pos_as_xyz
  1  'x, y, z'
loop_
 _atom_site_type_symbol
 _atom_site_label
 _atom_site_symmetry_multiplicity
 _atom_site_fract_x
 _atom_site_fract_y
 _atom_site_fract_z
 _atom_site_occupancy
  Er  Er0  1  0.019532  0.179131  0.596403  1
  Er  Er1  1  0.480648  0.678855  0.404496  1
  Er  Er2  1  0.979404  0.820887  0.095905  1
  Er  Er3  1  0.479316  0.678062  0.095831  1
  Er  Er4  1  0.980518  0.821325  0.404460  1
  Er  Er5  1  0.518570  0.321803  0.595426  1
  Er  Er6  1  0.020417  0.179071  0.903804  1
  Lu  Lu7  1  0.364992  0.838347  0.876464  1
  Lu  Lu8  1  0.863512  0.662173  0.623943  1
  Lu  Lu9  1  0.635699  0.162153  0.376088  1
  Lu  Lu10  1  0.134033  0.338314  0.123142  1
  Lu  Lu11  1  0.634203  0.161734  0.123158  1
  Lu  Lu12  1  0.135886  0.338060  0.376339  1
  Lu  Lu13  1  0.364328  0.838481  0.624428  1
  Lu  Lu14  1  0.866082  0.661341  0.876706  1
  Lu  Lu15  1  0.522811  0.321273  0.903230  1
  Lu  Lu16  1  0.195813  0.504671  0.750430  1
  Lu  Lu17  1  0.695462  0.995343  0.750494  1
  Lu  Lu18  1  0.804248  0.495007  0.249727  1
  Lu  Lu19  1  0.304318  0.004869  0.249798  1
  Sn  Sn20  1  0.295542  0.039078  0.041509  1
  Sn  Sn21  1  0.797179  0.459660  0.458788  1
  Sn  Sn22  1  0.702051  0.960667  0.541292  1
  Sn  Sn23  1  0.207184  0.537257  0.957909  1
  Sn  Sn24  1  0.703492  0.960944  0.958284  1
  Sn  Sn25  1  0.202112  0.540947  0.541398  1
  Sn  Sn26  1  0.297518  0.040042  0.458780  1
  Sn  Sn27  1  0.794778  0.459277  0.040442  1
  Sn  Sn28  1  0.561326  0.619596  0.750423  1
  Sn  Sn29  1  0.061062  0.879847  0.750285  1
  Sn  Sn30  1  0.438726  0.380345  0.249617  1
  Sn  Sn31  1  0.938715  0.119818  0.249818  1
  Sn  Sn32  1  0.331575  0.151644  0.750763  1
  Sn  Sn33  1  0.829467  0.349846  0.750115  1
  Sn  Sn34  1  0.669744  0.849795  0.250149  1
  Sn  Sn35  1  0.169736  0.650337  0.250153  1
