# generated using pymatgen
data_Tb3Nd5Sc12Si15Au
_symmetry_space_group_name_H-M   'P 1'
_cell_length_a   7.20600390
_cell_length_b   7.45111545
_cell_length_c   14.19796591
_cell_angle_alpha   89.87642036
_cell_angle_beta   89.84365335
_cell_angle_gamma   90.20671659
_symmetry_Int_Tables_number   1
_chemical_formula_structural   Tb3Nd5Sc12Si15Au
_chemical_formula_sum   'Tb3 Nd5 Sc12 Si15 Au1'
_cell_volume   762.31848653
_cell_formula_units_Z   1
loop_
 _symmetry_equiv_pos_site_id
 _symmetry_equiv_pos_as_xyz
  1  'x, y, z'
loop_
 _atom_site_type_symbol
 _atom_site_label
 _atom_site_symmetry_multiplicity
 _atom_site_fract_x
 _atom_site_fract_y
 _atom_site_fract_z
 _atom_site_occupancy
  Tb  Tb0  1  0.010690  0.174991  0.398926  1
  Tb  Tb1  1  0.510115  0.324331  0.400044  1
  Tb  Tb2  1  0.490511  0.676058  0.598974  1
  Nd  Nd3  1  0.012008  0.172784  0.098862  1
  Nd  Nd4  1  0.988293  0.828289  0.902424  1
  Nd  Nd5  1  0.487809  0.673065  0.903399  1
  Nd  Nd6  1  0.988317  0.830342  0.595777  1
  Nd  Nd7  1  0.511606  0.327069  0.097507  1
  Sc  Sc8  1  0.162584  0.499543  0.750053  1
  Sc  Sc9  1  0.837335  0.499695  0.252224  1
  Sc  Sc10  1  0.338396  0.998490  0.250783  1
  Sc  Sc11  1  0.664473  0.999207  0.750255  1
  Sc  Sc12  1  0.339844  0.177090  0.624940  1
  Sc  Sc13  1  0.666514  0.822878  0.374537  1
  Sc  Sc14  1  0.169493  0.671918  0.374445  1
  Sc  Sc15  1  0.670984  0.825125  0.126669  1
  Sc  Sc16  1  0.826734  0.326034  0.623467  1
  Sc  Sc17  1  0.328792  0.174531  0.875212  1
  Sc  Sc18  1  0.829790  0.323555  0.875439  1
  Sc  Sc19  1  0.169329  0.675679  0.126524  1
  Si  Si20  1  0.036566  0.126638  0.749269  1
  Si  Si21  1  0.966054  0.878834  0.251881  1
  Si  Si22  1  0.465667  0.620031  0.250445  1
  Si  Si23  1  0.536387  0.380743  0.750716  1
  Si  Si24  1  0.288555  0.879722  0.748676  1
  Si  Si25  1  0.711440  0.123222  0.251975  1
  Si  Si26  1  0.213180  0.375832  0.251176  1
  Si  Si27  1  0.786580  0.621015  0.749976  1
  Si  Si28  1  0.835210  0.534053  0.457811  1
  Si  Si29  1  0.343401  0.963763  0.459421  1
  Si  Si30  1  0.848251  0.537623  0.039617  1
  Si  Si31  1  0.652416  0.037687  0.536675  1
  Si  Si32  1  0.150691  0.462685  0.961374  1
  Si  Si33  1  0.652379  0.036569  0.961022  1
  Si  Si34  1  0.347444  0.962401  0.039986  1
  Au  Au35  1  0.162159  0.458508  0.539519  1
