# generated using pymatgen
data_Tb2Mo3P7RuRh8
_symmetry_space_group_name_H-M   'P 1'
_cell_length_a   3.94879672
_cell_length_b   9.50662389
_cell_length_c   9.54936375
_cell_angle_alpha   119.92015889
_cell_angle_beta   90.00221315
_cell_angle_gamma   90.00049519
_symmetry_Int_Tables_number   1
_chemical_formula_structural   Tb2Mo3P7RuRh8
_chemical_formula_sum   'Tb2 Mo3 P7 Ru1 Rh8'
_cell_volume   310.70267975
_cell_formula_units_Z   1
loop_
 _symmetry_equiv_pos_site_id
 _symmetry_equiv_pos_as_xyz
  1  'x, y, z'
loop_
 _atom_site_type_symbol
 _atom_site_label
 _atom_site_symmetry_multiplicity
 _atom_site_fract_x
 _atom_site_fract_y
 _atom_site_fract_z
 _atom_site_occupancy
  Tb  Tb0  1  0.261919  0.667732  0.331834  1
  Tb  Tb1  1  0.761945  0.333071  0.666625  1
  Mo  Mo2  1  0.761924  0.090154  0.872280  1
  Mo  Mo3  1  0.761906  0.127418  0.218433  1
  Mo  Mo4  1  0.761910  0.781625  0.908503  1
  P  P5  1  0.261909  0.997592  0.001381  1
  P  P6  1  0.761877  0.882621  0.595621  1
  P  P7  1  0.761871  0.405845  0.287090  1
  P  P8  1  0.761907  0.717098  0.119982  1
  P  P9  1  0.261880  0.115276  0.411019  1
  P  P10  1  0.261894  0.585599  0.703206  1
  P  P11  1  0.261899  0.295593  0.882356  1
  Ru  Ru12  1  0.261919  0.884938  0.160896  1
  Rh  Rh13  1  0.261908  0.839445  0.725251  1
  Rh  Rh14  1  0.261908  0.274235  0.113411  1
  Rh  Rh15  1  0.761913  0.611701  0.559789  1
  Rh  Rh16  1  0.761939  0.442184  0.053642  1
  Rh  Rh17  1  0.761877  0.948671  0.390536  1
  Rh  Rh18  1  0.261874  0.368742  0.436550  1
  Rh  Rh19  1  0.261931  0.561904  0.930085  1
  Rh  Rh20  1  0.261891  0.068553  0.631511  1
