# generated using pymatgen
data_Nd8Te(OsO8)3
_symmetry_space_group_name_H-M   'P 1'
_cell_length_a   5.44683109
_cell_length_b   9.39491016
_cell_length_c   10.24484771
_cell_angle_alpha   89.77438653
_cell_angle_beta   89.87318241
_cell_angle_gamma   90.17311617
_symmetry_Int_Tables_number   1
_chemical_formula_structural   Nd8Te(OsO8)3
_chemical_formula_sum   'Nd8 Te1 Os3 O24'
_cell_volume   524.24659851
_cell_formula_units_Z   1
loop_
 _symmetry_equiv_pos_site_id
 _symmetry_equiv_pos_as_xyz
  1  'x, y, z'
loop_
 _atom_site_type_symbol
 _atom_site_label
 _atom_site_symmetry_multiplicity
 _atom_site_fract_x
 _atom_site_fract_y
 _atom_site_fract_z
 _atom_site_occupancy
  Nd  Nd0  1  0.033148  0.216632  0.132921  1
  Nd  Nd1  1  0.465930  0.782575  0.632997  1
  Nd  Nd2  1  0.963126  0.718862  0.365083  1
  Nd  Nd3  1  0.533224  0.285692  0.867545  1
  Nd  Nd4  1  0.026666  0.101002  0.535964  1
  Nd  Nd5  1  0.473121  0.898507  0.039944  1
  Nd  Nd6  1  0.976428  0.602483  0.964839  1
  Nd  Nd7  1  0.524401  0.394822  0.458042  1
  Te  Te8  1  0.042244  0.494531  0.645370  1
  Os  Os9  1  0.543780  0.002871  0.355296  1
  Os  Os10  1  0.956408  0.997504  0.853972  1
  Os  Os11  1  0.456688  0.503542  0.144143  1
  O  O12  1  0.431288  0.149359  0.476577  1
  O  O13  1  0.066775  0.850440  0.976786  1
  O  O14  1  0.567470  0.651908  0.022598  1
  O  O15  1  0.929241  0.349210  0.523439  1
  O  O16  1  0.723911  0.390499  0.067653  1
  O  O17  1  0.776160  0.609965  0.567337  1
  O  O18  1  0.279142  0.886302  0.433813  1
  O  O19  1  0.219455  0.109127  0.932624  1
  O  O20  1  0.248034  0.409553  0.006698  1
  O  O21  1  0.249161  0.586511  0.508388  1
  O  O22  1  0.754224  0.910047  0.493214  1
  O  O23  1  0.745272  0.090644  0.991112  1
  O  O24  1  0.192082  0.635556  0.179694  1
  O  O25  1  0.312043  0.362188  0.677385  1
  O  O26  1  0.810267  0.136910  0.321845  1
  O  O27  1  0.694718  0.867482  0.822410  1
  O  O28  1  0.332721  0.054655  0.213111  1
  O  O29  1  0.172747  0.949213  0.714847  1
  O  O30  1  0.664733  0.556636  0.286517  1
  O  O31  1  0.835794  0.443880  0.791011  1
  O  O32  1  0.317362  0.362178  0.256871  1
  O  O33  1  0.177727  0.638801  0.758767  1
  O  O34  1  0.683546  0.864198  0.240614  1
  O  O35  1  0.820965  0.135715  0.740573  1
