# generated using pymatgen
data_Nd4BI5
_symmetry_space_group_name_H-M   'P 1'
_cell_length_a   10.00296630
_cell_length_b   10.00296651
_cell_length_c   8.89397349
_cell_angle_alpha   102.17820751
_cell_angle_beta   102.17820694
_cell_angle_gamma   24.46508932
_symmetry_Int_Tables_number   1
_chemical_formula_structural   Nd4BI5
_chemical_formula_sum   'Nd4 B1 I5'
_cell_volume   359.86406824
_cell_formula_units_Z   1
loop_
 _symmetry_equiv_pos_site_id
 _symmetry_equiv_pos_as_xyz
  1  'x, y, z'
loop_
 _atom_site_type_symbol
 _atom_site_label
 _atom_site_symmetry_multiplicity
 _atom_site_fract_x
 _atom_site_fract_y
 _atom_site_fract_z
 _atom_site_occupancy
  Nd  Nd0  1  0.637797  0.637797  0.069565  1
  Nd  Nd1  1  0.998926  0.998926  0.199308  1
  Nd  Nd2  1  0.001074  0.001074  0.800692  1
  Nd  Nd3  1  0.362203  0.362203  0.930435  1
  B  B4  1  0.500000  0.500000  0.000000  1
  I  I5  1  0.829165  0.829165  0.177363  1
  I  I6  1  0.164672  0.164672  0.342313  1
  I  I7  1  0.500000  0.500000  0.500000  1
  I  I8  1  0.835328  0.835328  0.657687  1
  I  I9  1  0.170835  0.170835  0.822637  1
