# generated using pymatgen
data_Nd4Ga5Ir5Pd4
_symmetry_space_group_name_H-M   'P 1'
_cell_length_a   12.56282120
_cell_length_b   12.55363299
_cell_length_c   12.56282081
_cell_angle_alpha   25.90304394
_cell_angle_beta   25.96886867
_cell_angle_gamma   25.90304442
_symmetry_Int_Tables_number   1
_chemical_formula_structural   Nd4Ga5Ir5Pd4
_chemical_formula_sum   'Nd4 Ga5 Ir5 Pd4'
_cell_volume   333.55098027
_cell_formula_units_Z   1
loop_
 _symmetry_equiv_pos_site_id
 _symmetry_equiv_pos_as_xyz
  1  'x, y, z'
loop_
 _atom_site_type_symbol
 _atom_site_label
 _atom_site_symmetry_multiplicity
 _atom_site_fract_x
 _atom_site_fract_y
 _atom_site_fract_z
 _atom_site_occupancy
  Nd  Nd0  1  0.955528  0.956386  0.955528  1
  Nd  Nd1  1  0.047892  0.047071  0.047892  1
  Nd  Nd2  1  0.856580  0.842268  0.856580  1
  Nd  Nd3  1  0.145325  0.142244  0.145325  1
  Ga  Ga4  1  0.493781  0.508419  0.493781  1
  Ga  Ga5  1  0.724332  0.715245  0.724332  1
  Ga  Ga6  1  0.277855  0.279704  0.277855  1
  Ga  Ga7  1  0.612290  0.613262  0.612290  1
  Ga  Ga8  1  0.384066  0.398412  0.384066  1
  Ir  Ir9  1  0.499155  0.499932  0.000906  1
  Ir  Ir10  1  0.000906  0.499932  0.499155  1
  Ir  Ir11  1  0.499440  0.003966  0.499440  1
  Ir  Ir12  1  0.614501  0.611367  0.105134  1
  Ir  Ir13  1  0.105134  0.611367  0.614501  1
  Pd  Pd14  1  0.389760  0.891117  0.389760  1
  Pd  Pd15  1  0.390561  0.386599  0.891072  1
  Pd  Pd16  1  0.891072  0.386599  0.390561  1
  Pd  Pd17  1  0.611821  0.106110  0.611821  1
