# generated using pymatgen
data_La7Dy(Er3Pt4)4
_symmetry_space_group_name_H-M   'P 1'
_cell_length_a   7.61373788
_cell_length_b   7.65766208
_cell_length_c   14.60788900
_cell_angle_alpha   89.90606156
_cell_angle_beta   89.89879950
_cell_angle_gamma   90.10034918
_symmetry_Int_Tables_number   1
_chemical_formula_structural   La7Dy(Er3Pt4)4
_chemical_formula_sum   'La7 Dy1 Er12 Pt16'
_cell_volume   851.68627612
_cell_formula_units_Z   1
loop_
 _symmetry_equiv_pos_site_id
 _symmetry_equiv_pos_as_xyz
  1  'x, y, z'
loop_
 _atom_site_type_symbol
 _atom_site_label
 _atom_site_symmetry_multiplicity
 _atom_site_fract_x
 _atom_site_fract_y
 _atom_site_fract_z
 _atom_site_occupancy
  La  La0  1  0.500252  0.675338  0.594478  1
  La  La1  1  0.000410  0.824173  0.904043  1
  La  La2  1  0.497893  0.326362  0.094808  1
  La  La3  1  0.998129  0.170444  0.406897  1
  La  La4  1  0.499003  0.325866  0.404493  1
  La  La5  1  0.999341  0.175766  0.094786  1
  La  La6  1  0.502149  0.675356  0.903490  1
  Dy  Dy7  1  0.000803  0.823562  0.599014  1
  Er  Er8  1  0.660610  0.166113  0.622363  1
  Er  Er9  1  0.158427  0.332050  0.875050  1
  Er  Er10  1  0.341926  0.833248  0.123242  1
  Er  Er11  1  0.843477  0.670132  0.378920  1
  Er  Er12  1  0.340550  0.834307  0.376948  1
  Er  Er13  1  0.841465  0.666702  0.124122  1
  Er  Er14  1  0.659435  0.166069  0.875150  1
  Er  Er15  1  0.158918  0.332099  0.622911  1
  Er  Er16  1  0.823478  0.506396  0.748492  1
  Er  Er17  1  0.321813  0.993081  0.748049  1
  Er  Er18  1  0.176323  0.493896  0.251413  1
  Er  Er19  1  0.677265  0.007343  0.250169  1
  Pt  Pt20  1  0.675460  0.960540  0.458986  1
  Pt  Pt21  1  0.176010  0.537370  0.043472  1
  Pt  Pt22  1  0.324948  0.036440  0.954600  1
  Pt  Pt23  1  0.828830  0.470231  0.547208  1
  Pt  Pt24  1  0.314007  0.030450  0.545682  1
  Pt  Pt25  1  0.823997  0.462062  0.955609  1
  Pt  Pt26  1  0.676935  0.962558  0.043752  1
  Pt  Pt27  1  0.175366  0.540541  0.457741  1
  Pt  Pt28  1  0.454629  0.371820  0.749161  1
  Pt  Pt29  1  0.956586  0.124319  0.747987  1
  Pt  Pt30  1  0.545215  0.629723  0.250823  1
  Pt  Pt31  1  0.044915  0.872897  0.250127  1
  Pt  Pt32  1  0.691754  0.862280  0.747457  1
  Pt  Pt33  1  0.186403  0.638556  0.747159  1
  Pt  Pt34  1  0.311737  0.137588  0.250069  1
  Pt  Pt35  1  0.811541  0.364319  0.251323  1
