# generated using pymatgen
data_Cs2AlZn3Sb4
_symmetry_space_group_name_H-M   'P 1'
_cell_length_a   9.07891493
_cell_length_b   9.07891391
_cell_length_c   6.16118300
_cell_angle_alpha   90.00000000
_cell_angle_beta   90.00000000
_cell_angle_gamma   140.93786480
_symmetry_Int_Tables_number   1
_chemical_formula_structural   Cs2AlZn3Sb4
_chemical_formula_sum   'Cs2 Al1 Zn3 Sb4'
_cell_volume   320.02560004
_cell_formula_units_Z   1
loop_
 _symmetry_equiv_pos_site_id
 _symmetry_equiv_pos_as_xyz
  1  'x, y, z'
loop_
 _atom_site_type_symbol
 _atom_site_label
 _atom_site_symmetry_multiplicity
 _atom_site_fract_x
 _atom_site_fract_y
 _atom_site_fract_z
 _atom_site_occupancy
  Cs  Cs0  1  0.500000  0.000000  0.252808  1
  Cs  Cs1  1  0.000000  0.500000  0.747192  1
  Al  Al2  1  0.000000  0.000000  0.000000  1
  Zn  Zn3  1  0.500000  0.500000  0.500000  1
  Zn  Zn4  1  0.500000  0.500000  0.000000  1
  Zn  Zn5  1  0.000000  0.000000  0.500000  1
  Sb  Sb6  1  0.650036  0.851273  0.750929  1
  Sb  Sb7  1  0.148727  0.349964  0.249071  1
  Sb  Sb8  1  0.851273  0.650036  0.249071  1
  Sb  Sb9  1  0.349964  0.148727  0.750929  1
