# generated using pymatgen
data_Y2Er14CdIn3Ir4
_symmetry_space_group_name_H-M   'P 1'
_cell_length_a   9.60073856
_cell_length_b   9.59741189
_cell_length_c   9.59271100
_cell_angle_alpha   60.01619795
_cell_angle_beta   60.02765199
_cell_angle_gamma   59.96375140
_symmetry_Int_Tables_number   1
_chemical_formula_structural   Y2Er14CdIn3Ir4
_chemical_formula_sum   'Y2 Er14 Cd1 In3 Ir4'
_cell_volume   625.04283474
_cell_formula_units_Z   1
loop_
 _symmetry_equiv_pos_site_id
 _symmetry_equiv_pos_as_xyz
  1  'x, y, z'
loop_
 _atom_site_type_symbol
 _atom_site_label
 _atom_site_symmetry_multiplicity
 _atom_site_fract_x
 _atom_site_fract_y
 _atom_site_fract_z
 _atom_site_occupancy
  Y  Y0  1  0.567289  0.563964  0.934374  1
  Y  Y1  1  0.939942  0.936230  0.561914  1
  Er  Er2  1  0.350170  0.349285  0.344618  1
  Er  Er3  1  0.350170  0.349285  0.955928  1
  Er  Er4  1  0.349180  0.953075  0.348873  1
  Er  Er5  1  0.950544  0.349660  0.349898  1
  Er  Er6  1  0.808373  0.189672  0.192488  1
  Er  Er7  1  0.188657  0.810042  0.810852  1
  Er  Er8  1  0.188657  0.810042  0.190450  1
  Er  Er9  1  0.808373  0.189672  0.809467  1
  Er  Er10  1  0.190760  0.190245  0.809498  1
  Er  Er11  1  0.807131  0.807142  0.192863  1
  Er  Er12  1  0.943459  0.559251  0.558954  1
  Er  Er13  1  0.560904  0.940465  0.939766  1
  Er  Er14  1  0.560904  0.940465  0.558867  1
  Er  Er15  1  0.943459  0.559251  0.938336  1
  Cd  Cd16  1  0.253464  0.581505  0.582516  1
  In  In17  1  0.580608  0.583568  0.584068  1
  In  In18  1  0.580608  0.583568  0.251759  1
  In  In19  1  0.579779  0.251843  0.584190  1
  Ir  Ir20  1  0.141343  0.143121  0.140044  1
  Ir  Ir21  1  0.141343  0.143121  0.575493  1
  Ir  Ir22  1  0.137625  0.576900  0.142738  1
  Ir  Ir23  1  0.577263  0.138635  0.142052  1
