# generated using pymatgen
data_Dy2TmSc3Bi2Ir
_symmetry_space_group_name_H-M   'P 1'
_cell_length_a   7.99379229
_cell_length_b   7.99379216
_cell_length_c   4.18190000
_cell_angle_alpha   90.00000000
_cell_angle_beta   90.00000000
_cell_angle_gamma   120.29387373
_symmetry_Int_Tables_number   1
_chemical_formula_structural   Dy2TmSc3Bi2Ir
_chemical_formula_sum   'Dy2 Tm1 Sc3 Bi2 Ir1'
_cell_volume   230.73649593
_cell_formula_units_Z   1
loop_
 _symmetry_equiv_pos_site_id
 _symmetry_equiv_pos_as_xyz
  1  'x, y, z'
loop_
 _atom_site_type_symbol
 _atom_site_label
 _atom_site_symmetry_multiplicity
 _atom_site_fract_x
 _atom_site_fract_y
 _atom_site_fract_z
 _atom_site_occupancy
  Dy  Dy0  1  0.613894  0.999391  0.000000  1
  Dy  Dy1  1  0.999391  0.613894  0.000000  1
  Tm  Tm2  1  0.382117  0.382117  0.000000  1
  Sc  Sc3  1  0.225756  0.998439  0.500000  1
  Sc  Sc4  1  0.998439  0.225756  0.500000  1
  Sc  Sc5  1  0.774117  0.774117  0.500000  1
  Bi  Bi6  1  0.332933  0.664313  0.500000  1
  Bi  Bi7  1  0.664313  0.332933  0.500000  1
  Ir  Ir8  1  0.009040  0.009040  0.000000  1
