# generated using pymatgen
data_LaYb5Lu2(Cu2Sn5)2
_symmetry_space_group_name_H-M   'P 1'
_cell_length_a   4.44411800
_cell_length_b   8.82117900
_cell_length_c   14.02135600
_cell_angle_alpha   90.00000000
_cell_angle_beta   90.00000000
_cell_angle_gamma   90.00000000
_symmetry_Int_Tables_number   1
_chemical_formula_structural   LaYb5Lu2(Cu2Sn5)2
_chemical_formula_sum   'La1 Yb5 Lu2 Cu4 Sn10'
_cell_volume   549.67025086
_cell_formula_units_Z   1
loop_
 _symmetry_equiv_pos_site_id
 _symmetry_equiv_pos_as_xyz
  1  'x, y, z'
loop_
 _atom_site_type_symbol
 _atom_site_label
 _atom_site_symmetry_multiplicity
 _atom_site_fract_x
 _atom_site_fract_y
 _atom_site_fract_z
 _atom_site_occupancy
  La  La0  1  0.500000  0.139492  0.000000  1
  Yb  Yb1  1  0.500000  0.789528  0.741081  1
  Yb  Yb2  1  0.000000  0.206715  0.754290  1
  Yb  Yb3  1  0.000000  0.206715  0.245710  1
  Yb  Yb4  1  0.000000  0.866035  0.500000  1
  Yb  Yb5  1  0.500000  0.789528  0.258919  1
  Lu  Lu6  1  0.500000  0.694729  0.000000  1
  Lu  Lu7  1  0.000000  0.297738  0.500000  1
  Cu  Cu8  1  0.500000  0.378046  0.640201  1
  Cu  Cu9  1  0.000000  0.624265  0.853843  1
  Cu  Cu10  1  0.000000  0.624265  0.146157  1
  Cu  Cu11  1  0.500000  0.378046  0.359799  1
  Sn  Sn12  1  0.500000  0.084980  0.395906  1
  Sn  Sn13  1  0.000000  0.551374  0.661723  1
  Sn  Sn14  1  0.000000  0.418005  0.000000  1
  Sn  Sn15  1  0.500000  0.446741  0.164984  1
  Sn  Sn16  1  0.500000  0.594590  0.500000  1
  Sn  Sn17  1  0.500000  0.446741  0.835016  1
  Sn  Sn18  1  0.000000  0.913056  0.895600  1
  Sn  Sn19  1  0.000000  0.551374  0.338277  1
  Sn  Sn20  1  0.500000  0.084980  0.604094  1
  Sn  Sn21  1  0.000000  0.913056  0.104400  1
