# generated using pymatgen
data_PrSm4CoRuO12
_symmetry_space_group_name_H-M   'P 1'
_cell_length_a   6.99639644
_cell_length_b   6.99639670
_cell_length_c   7.47976047
_cell_angle_alpha   74.56000687
_cell_angle_beta   74.56001264
_cell_angle_gamma   50.08856581
_symmetry_Int_Tables_number   1
_chemical_formula_structural   PrSm4CoRuO12
_chemical_formula_sum   'Pr1 Sm4 Co1 Ru1 O12'
_cell_volume   268.43699059
_cell_formula_units_Z   1
loop_
 _symmetry_equiv_pos_site_id
 _symmetry_equiv_pos_as_xyz
  1  'x, y, z'
loop_
 _atom_site_type_symbol
 _atom_site_label
 _atom_site_symmetry_multiplicity
 _atom_site_fract_x
 _atom_site_fract_y
 _atom_site_fract_z
 _atom_site_occupancy
  Pr  Pr0  1  0.998159  0.001841  0.500000  1
  Sm  Sm1  1  0.314251  0.296912  0.356722  1
  Sm  Sm2  1  0.703088  0.685749  0.643278  1
  Sm  Sm3  1  0.696774  0.691414  0.163959  1
  Sm  Sm4  1  0.308586  0.303226  0.836041  1
  Co  Co5  1  0.747072  0.252928  0.000000  1
  Ru  Ru6  1  0.237375  0.762625  0.000000  1
  O  O7  1  0.100356  0.590231  0.578716  1
  O  O8  1  0.986543  0.011731  0.170878  1
  O  O9  1  0.409769  0.899644  0.421284  1
  O  O10  1  0.503335  0.497509  0.174485  1
  O  O11  1  0.099459  0.579910  0.078543  1
  O  O12  1  0.909251  0.406110  0.419961  1
  O  O13  1  0.988269  0.013457  0.829122  1
  O  O14  1  0.593890  0.090748  0.580039  1
  O  O15  1  0.502491  0.496665  0.825515  1
  O  O16  1  0.584688  0.103446  0.076732  1
  O  O17  1  0.420090  0.900541  0.921457  1
  O  O18  1  0.896554  0.415312  0.923268  1
