# generated using pymatgen
data_CeNdHf2O7
_symmetry_space_group_name_H-M   'P 1'
_cell_length_a   7.58696280
_cell_length_b   7.57436146
_cell_length_c   7.58696250
_cell_angle_alpha   60.05492268
_cell_angle_beta   60.22071551
_cell_angle_gamma   60.05492514
_symmetry_Int_Tables_number   1
_chemical_formula_structural   CeNdHf2O7
_chemical_formula_sum   'Ce2 Nd2 Hf4 O14'
_cell_volume   309.06324715
_cell_formula_units_Z   2
loop_
 _symmetry_equiv_pos_site_id
 _symmetry_equiv_pos_as_xyz
  1  'x, y, z'
loop_
 _atom_site_type_symbol
 _atom_site_label
 _atom_site_symmetry_multiplicity
 _atom_site_fract_x
 _atom_site_fract_y
 _atom_site_fract_z
 _atom_site_occupancy
  Ce  Ce0  1  0.125000  0.625000  0.125000  1
  Ce  Ce1  1  0.125000  0.125000  0.125000  1
  Nd  Nd2  1  0.625000  0.125000  0.125000  1
  Nd  Nd3  1  0.125000  0.125000  0.625000  1
  Hf  Hf4  1  0.125000  0.625000  0.625000  1
  Hf  Hf5  1  0.625000  0.125000  0.625000  1
  Hf  Hf6  1  0.625000  0.625000  0.125000  1
  Hf  Hf7  1  0.625000  0.625000  0.625000  1
  O  O8  1  0.706227  0.707777  0.293233  1
  O  O9  1  0.293233  0.292763  0.706227  1
  O  O10  1  0.707720  0.292280  0.707720  1
  O  O11  1  0.293420  0.706580  0.293420  1
  O  O12  1  0.293233  0.707777  0.706227  1
  O  O13  1  0.706227  0.292763  0.293233  1
  O  O14  1  0.543773  0.542223  0.956767  1
  O  O15  1  0.956767  0.957237  0.543773  1
  O  O16  1  0.542280  0.957720  0.542280  1
  O  O17  1  0.956580  0.543420  0.956580  1
  O  O18  1  0.956767  0.542223  0.543773  1
  O  O19  1  0.543773  0.957237  0.956767  1
  O  O20  1  0.249426  0.250574  0.249426  1
  O  O21  1  0.000574  0.999426  0.000574  1
