# generated using pymatgen
data_TaNb(FeP)2
_symmetry_space_group_name_H-M   'P 1'
_cell_length_a   3.59413800
_cell_length_b   6.13815300
_cell_length_c   6.95740100
_cell_angle_alpha   90.00000000
_cell_angle_beta   90.00000000
_cell_angle_gamma   90.00000000
_symmetry_Int_Tables_number   1
_chemical_formula_structural   TaNb(FeP)2
_chemical_formula_sum   'Ta2 Nb2 Fe4 P4'
_cell_volume   153.48979037
_cell_formula_units_Z   2
loop_
 _symmetry_equiv_pos_site_id
 _symmetry_equiv_pos_as_xyz
  1  'x, y, z'
loop_
 _atom_site_type_symbol
 _atom_site_label
 _atom_site_symmetry_multiplicity
 _atom_site_fract_x
 _atom_site_fract_y
 _atom_site_fract_z
 _atom_site_occupancy
  Ta  Ta0  1  0.750000  0.977892  0.176547  1
  Ta  Ta1  1  0.750000  0.477892  0.323453  1
  Nb  Nb2  1  0.250000  0.522095  0.675954  1
  Nb  Nb3  1  0.250000  0.022095  0.824046  1
  Fe  Fe4  1  0.750000  0.358888  0.939906  1
  Fe  Fe5  1  0.250000  0.141594  0.434993  1
  Fe  Fe6  1  0.750000  0.858888  0.560094  1
  Fe  Fe7  1  0.250000  0.641594  0.065007  1
  P  P8  1  0.250000  0.777635  0.381271  1
  P  P9  1  0.250000  0.277635  0.118729  1
  P  P10  1  0.750000  0.221895  0.619109  1
  P  P11  1  0.750000  0.721895  0.880891  1
