# generated using pymatgen
data_Pr8Be2Si13Pd
_symmetry_space_group_name_H-M   'P 1'
_cell_length_a   8.13639100
_cell_length_b   8.13639582
_cell_length_c   8.59852600
_cell_angle_alpha   89.99999296
_cell_angle_beta   90.00001408
_cell_angle_gamma   119.99999260
_symmetry_Int_Tables_number   1
_chemical_formula_structural   Pr8Be2Si13Pd
_chemical_formula_sum   'Pr8 Be2 Si13 Pd1'
_cell_volume   492.96779879
_cell_formula_units_Z   1
loop_
 _symmetry_equiv_pos_site_id
 _symmetry_equiv_pos_as_xyz
  1  'x, y, z'
loop_
 _atom_site_type_symbol
 _atom_site_label
 _atom_site_symmetry_multiplicity
 _atom_site_fract_x
 _atom_site_fract_y
 _atom_site_fract_z
 _atom_site_occupancy
  Pr  Pr0  1  0.498009  0.501990  0.750852  1
  Pr  Pr1  1  0.498056  0.501944  0.249142  1
  Pr  Pr2  1  0.003981  0.501990  0.750852  1
  Pr  Pr3  1  0.003888  0.501944  0.249142  1
  Pr  Pr4  1  0.498009  0.996019  0.750852  1
  Pr  Pr5  1  0.498056  0.996112  0.249142  1
  Pr  Pr6  1  0.000000  0.000000  0.751221  1
  Pr  Pr7  1  0.000000  0.000000  0.248798  1
  Be  Be8  1  0.666667  0.333333  0.999578  1
  Be  Be9  1  0.333333  0.666667  0.000384  1
  Si  Si10  1  0.333333  0.666667  0.499899  1
  Si  Si11  1  0.828315  0.171685  0.000073  1
  Si  Si12  1  0.173464  0.826536  0.999957  1
  Si  Si13  1  0.343370  0.171685  0.000073  1
  Si  Si14  1  0.163008  0.836992  0.499934  1
  Si  Si15  1  0.653072  0.826536  0.999957  1
  Si  Si16  1  0.831973  0.168027  0.500082  1
  Si  Si17  1  0.828315  0.656630  0.000073  1
  Si  Si18  1  0.673983  0.836991  0.499934  1
  Si  Si19  1  0.173464  0.346928  0.999957  1
  Si  Si20  1  0.336054  0.168027  0.500082  1
  Si  Si21  1  0.163009  0.326017  0.499934  1
  Si  Si22  1  0.831973  0.663946  0.500082  1
  Pd  Pd23  1  0.666667  0.333333  0.500002  1
