# generated using pymatgen
data_Sm3In3CuAu2
_symmetry_space_group_name_H-M   'P 1'
_cell_length_a   7.82867200
_cell_length_b   7.82867215
_cell_length_c   3.98879500
_cell_angle_alpha   90.00000000
_cell_angle_beta   90.00000000
_cell_angle_gamma   119.99999938
_symmetry_Int_Tables_number   1
_chemical_formula_structural   Sm3In3CuAu2
_chemical_formula_sum   'Sm3 In3 Cu1 Au2'
_cell_volume   211.71350140
_cell_formula_units_Z   1
loop_
 _symmetry_equiv_pos_site_id
 _symmetry_equiv_pos_as_xyz
  1  'x, y, z'
loop_
 _atom_site_type_symbol
 _atom_site_label
 _atom_site_symmetry_multiplicity
 _atom_site_fract_x
 _atom_site_fract_y
 _atom_site_fract_z
 _atom_site_occupancy
  Sm  Sm0  1  0.000000  0.593973  0.500000  1
  Sm  Sm1  1  0.593973  0.000000  0.500000  1
  Sm  Sm2  1  0.406027  0.406027  0.500000  1
  In  In3  1  0.000000  0.244255  0.000000  1
  In  In4  1  0.244255  0.000000  0.000000  1
  In  In5  1  0.755745  0.755745  0.000000  1
  Cu  Cu6  1  0.000000  0.000000  0.500000  1
  Au  Au7  1  0.666667  0.333333  0.000000  1
  Au  Au8  1  0.333333  0.666667  0.000000  1
