# generated using pymatgen
data_Pr5Nd(CCl5)2
_symmetry_space_group_name_H-M   'P 1'
_cell_length_a   7.50030952
_cell_length_b   8.90673193
_cell_length_c   8.98270551
_cell_angle_alpha   108.62047011
_cell_angle_beta   97.28204204
_cell_angle_gamma   106.25082329
_symmetry_Int_Tables_number   1
_chemical_formula_structural   Pr5Nd(CCl5)2
_chemical_formula_sum   'Pr5 Nd1 C2 Cl10'
_cell_volume   530.31685383
_cell_formula_units_Z   1
loop_
 _symmetry_equiv_pos_site_id
 _symmetry_equiv_pos_as_xyz
  1  'x, y, z'
loop_
 _atom_site_type_symbol
 _atom_site_label
 _atom_site_symmetry_multiplicity
 _atom_site_fract_x
 _atom_site_fract_y
 _atom_site_fract_z
 _atom_site_occupancy
  Pr  Pr0  1  0.879324  0.950913  0.234335  1
  Pr  Pr1  1  0.121386  0.049662  0.765971  1
  Pr  Pr2  1  0.027457  0.710978  0.910506  1
  Pr  Pr3  1  0.972943  0.289214  0.089930  1
  Pr  Pr4  1  0.602394  0.838713  0.786168  1
  Nd  Nd5  1  0.396395  0.160295  0.212694  1
  C  C6  1  0.906900  0.965136  0.951282  1
  C  C7  1  0.094144  0.035288  0.049057  1
  Cl  Cl8  1  0.757123  0.915489  0.537091  1
  Cl  Cl9  1  0.244998  0.085484  0.461252  1
  Cl  Cl10  1  0.456528  0.828363  0.078557  1
  Cl  Cl11  1  0.542486  0.173717  0.924328  1
  Cl  Cl12  1  0.816744  0.262263  0.354501  1
  Cl  Cl13  1  0.179619  0.736850  0.644092  1
  Cl  Cl14  1  0.909301  0.626721  0.168422  1
  Cl  Cl15  1  0.090783  0.373426  0.831785  1
  Cl  Cl16  1  0.652234  0.531370  0.717199  1
  Cl  Cl17  1  0.349240  0.466119  0.282831  1
