# generated using pymatgen
data_Rb3Pr(VS4)2
_symmetry_space_group_name_H-M   'P 1'
_cell_length_a   9.46240942
_cell_length_b   10.24589967
_cell_length_c   11.03079000
_cell_angle_alpha   106.80358786
_cell_angle_beta   103.83256035
_cell_angle_gamma   114.16987207
_symmetry_Int_Tables_number   1
_chemical_formula_structural   Rb3Pr(VS4)2
_chemical_formula_sum   'Rb6 Pr2 V4 S16'
_cell_volume   852.22141402
_cell_formula_units_Z   2
loop_
 _symmetry_equiv_pos_site_id
 _symmetry_equiv_pos_as_xyz
  1  'x, y, z'
loop_
 _atom_site_type_symbol
 _atom_site_label
 _atom_site_symmetry_multiplicity
 _atom_site_fract_x
 _atom_site_fract_y
 _atom_site_fract_z
 _atom_site_occupancy
  Rb  Rb0  1  0.500000  0.500002  0.999997  1
  Rb  Rb1  1  0.000003  0.500001  0.999999  1
  Rb  Rb2  1  0.261866  0.011897  0.023831  1
  Rb  Rb3  1  0.484834  0.734837  0.469624  1
  Rb  Rb4  1  0.515174  0.265171  0.530380  1
  Rb  Rb5  1  0.738132  0.988097  0.976167  1
  Pr  Pr6  1  0.991088  0.241161  0.482238  1
  Pr  Pr7  1  0.008922  0.758842  0.517763  1
  V  V8  1  0.005964  0.907492  0.253458  1
  V  V9  1  0.747444  0.345910  0.253468  1
  V  V10  1  0.252564  0.654096  0.746537  1
  V  V11  1  0.994031  0.092507  0.746537  1
  S  S12  1  0.884936  0.761567  0.035645  1
  S  S13  1  0.650719  0.274063  0.035773  1
  S  S14  1  0.132103  0.155945  0.291551  1
  S  S15  1  0.659246  0.135552  0.291435  1
  S  S16  1  0.820567  0.868196  0.341786  1
  S  S17  1  0.021167  0.473470  0.341908  1
  S  S18  1  0.192585  0.857468  0.351641  1
  S  S19  1  0.659009  0.494056  0.351573  1
  S  S20  1  0.340998  0.505937  0.648423  1
  S  S21  1  0.807407  0.142525  0.648349  1
  S  S22  1  0.978810  0.526518  0.658082  1
  S  S23  1  0.179411  0.131796  0.658214  1
  S  S24  1  0.340763  0.864458  0.708562  1
  S  S25  1  0.867899  0.844058  0.708445  1
  S  S26  1  0.349303  0.725953  0.964276  1
  S  S27  1  0.115058  0.238424  0.964339  1
