# generated using pymatgen
data_Li2Tm7Lu(Sc5Si8)2
_symmetry_space_group_name_H-M   'P 1'
_cell_length_a   6.93860315
_cell_length_b   7.34333494
_cell_length_c   13.91311564
_cell_angle_alpha   89.97437131
_cell_angle_beta   89.97638051
_cell_angle_gamma   89.94837609
_symmetry_Int_Tables_number   1
_chemical_formula_structural   Li2Tm7Lu(Sc5Si8)2
_chemical_formula_sum   'Li2 Tm7 Lu1 Sc10 Si16'
_cell_volume   708.90742442
_cell_formula_units_Z   1
loop_
 _symmetry_equiv_pos_site_id
 _symmetry_equiv_pos_as_xyz
  1  'x, y, z'
loop_
 _atom_site_type_symbol
 _atom_site_label
 _atom_site_symmetry_multiplicity
 _atom_site_fract_x
 _atom_site_fract_y
 _atom_site_fract_z
 _atom_site_occupancy
  Li  Li0  1  0.160136  0.507182  0.749997  1
  Li  Li1  1  0.839893  0.492539  0.249884  1
  Tm  Tm2  1  0.989838  0.815167  0.902320  1
  Tm  Tm3  1  0.485350  0.674777  0.903256  1
  Tm  Tm4  1  0.989886  0.815277  0.597852  1
  Tm  Tm5  1  0.514405  0.325027  0.096873  1
  Tm  Tm6  1  0.010177  0.184843  0.402250  1
  Tm  Tm7  1  0.514419  0.325231  0.402926  1
  Tm  Tm8  1  0.485519  0.674772  0.596916  1
  Lu  Lu9  1  0.010622  0.185666  0.098251  1
  Sc  Sc10  1  0.341362  0.004208  0.249933  1
  Sc  Sc11  1  0.658675  0.995847  0.750023  1
  Sc  Sc12  1  0.326000  0.181079  0.626360  1
  Sc  Sc13  1  0.674048  0.819030  0.373448  1
  Sc  Sc14  1  0.165572  0.675021  0.372910  1
  Sc  Sc15  1  0.674185  0.819183  0.126308  1
  Sc  Sc16  1  0.834488  0.324961  0.626999  1
  Sc  Sc17  1  0.325765  0.180859  0.873689  1
  Sc  Sc18  1  0.834672  0.324825  0.873064  1
  Sc  Sc19  1  0.165508  0.675005  0.126995  1
  Si  Si20  1  0.028860  0.098797  0.750061  1
  Si  Si21  1  0.971392  0.901981  0.249710  1
  Si  Si22  1  0.466605  0.611003  0.249921  1
  Si  Si23  1  0.533423  0.388649  0.749992  1
  Si  Si24  1  0.286947  0.875475  0.749938  1
  Si  Si25  1  0.713636  0.125043  0.249598  1
  Si  Si26  1  0.219873  0.370759  0.249743  1
  Si  Si27  1  0.779566  0.628816  0.750044  1
  Si  Si28  1  0.161568  0.461654  0.533135  1
  Si  Si29  1  0.838341  0.538422  0.466819  1
  Si  Si30  1  0.342098  0.966943  0.461263  1
  Si  Si31  1  0.838675  0.537483  0.033602  1
  Si  Si32  1  0.658036  0.033055  0.538686  1
  Si  Si33  1  0.161336  0.460895  0.967063  1
  Si  Si34  1  0.657825  0.032952  0.961262  1
  Si  Si35  1  0.341298  0.967572  0.038909  1
