# generated using pymatgen
data_Ho4InNi
_symmetry_space_group_name_H-M   'P 1'
_cell_length_a   9.55399492
_cell_length_b   9.56165798
_cell_length_c   9.56681724
_cell_angle_alpha   59.88419349
_cell_angle_beta   59.85744230
_cell_angle_gamma   59.83209770
_symmetry_Int_Tables_number   1
_chemical_formula_structural   Ho4InNi
_chemical_formula_sum   'Ho16 In4 Ni4'
_cell_volume   615.98185461
_cell_formula_units_Z   4
loop_
 _symmetry_equiv_pos_site_id
 _symmetry_equiv_pos_as_xyz
  1  'x, y, z'
loop_
 _atom_site_type_symbol
 _atom_site_label
 _atom_site_symmetry_multiplicity
 _atom_site_fract_x
 _atom_site_fract_y
 _atom_site_fract_z
 _atom_site_occupancy
  Ho  Ho0  1  0.346623  0.346485  0.346406  1
  Ho  Ho1  1  0.346735  0.347149  0.955814  1
  Ho  Ho2  1  0.346621  0.955696  0.347200  1
  Ho  Ho3  1  0.956132  0.346279  0.346416  1
  Ho  Ho4  1  0.813313  0.188145  0.188237  1
  Ho  Ho5  1  0.189411  0.812106  0.812057  1
  Ho  Ho6  1  0.187824  0.813054  0.188354  1
  Ho  Ho7  1  0.811786  0.189555  0.812023  1
  Ho  Ho8  1  0.187804  0.188258  0.813080  1
  Ho  Ho9  1  0.811806  0.812081  0.189514  1
  Ho  Ho10  1  0.936867  0.563146  0.563173  1
  Ho  Ho11  1  0.564278  0.937286  0.937343  1
  Ho  Ho12  1  0.562935  0.937171  0.562880  1
  Ho  Ho13  1  0.937764  0.563896  0.937756  1
  Ho  Ho14  1  0.562920  0.562834  0.937206  1
  Ho  Ho15  1  0.937862  0.937772  0.563798  1
  In  In16  1  0.583131  0.583150  0.583174  1
  In  In17  1  0.581974  0.582046  0.253097  1
  In  In18  1  0.581883  0.253264  0.582053  1
  In  In19  1  0.253616  0.581697  0.581753  1
  Ni  Ni20  1  0.142788  0.142857  0.142706  1
  Ni  Ni21  1  0.141561  0.141397  0.573267  1
  Ni  Ni22  1  0.141474  0.573253  0.141295  1
  Ni  Ni23  1  0.572891  0.141423  0.141398  1
