# generated using pymatgen
data_LuCrFe4P3
_symmetry_space_group_name_H-M   'P 1'
_cell_length_a   3.63660400
_cell_length_b   10.30731900
_cell_length_c   11.80750100
_cell_angle_alpha   90.00000000
_cell_angle_beta   90.00000000
_cell_angle_gamma   90.00000000
_symmetry_Int_Tables_number   1
_chemical_formula_structural   LuCrFe4P3
_chemical_formula_sum   'Lu4 Cr4 Fe16 P12'
_cell_volume   442.58808732
_cell_formula_units_Z   4
loop_
 _symmetry_equiv_pos_site_id
 _symmetry_equiv_pos_as_xyz
  1  'x, y, z'
loop_
 _atom_site_type_symbol
 _atom_site_label
 _atom_site_symmetry_multiplicity
 _atom_site_fract_x
 _atom_site_fract_y
 _atom_site_fract_z
 _atom_site_occupancy
  Lu  Lu0  1  0.250000  0.580375  0.705088  1
  Lu  Lu1  1  0.250000  0.919625  0.205088  1
  Lu  Lu2  1  0.750000  0.419625  0.294912  1
  Lu  Lu3  1  0.750000  0.080375  0.794912  1
  Cr  Cr4  1  0.250000  0.703194  0.989050  1
  Cr  Cr5  1  0.250000  0.796806  0.489050  1
  Cr  Cr6  1  0.750000  0.296806  0.010950  1
  Cr  Cr7  1  0.750000  0.203194  0.510950  1
  Fe  Fe8  1  0.250000  0.405667  0.489073  1
  Fe  Fe9  1  0.250000  0.094333  0.989073  1
  Fe  Fe10  1  0.750000  0.594333  0.510927  1
  Fe  Fe11  1  0.750000  0.905667  0.010927  1
  Fe  Fe12  1  0.250000  0.219108  0.174259  1
  Fe  Fe13  1  0.250000  0.280892  0.674259  1
  Fe  Fe14  1  0.750000  0.780892  0.825741  1
  Fe  Fe15  1  0.750000  0.719108  0.325741  1
  Fe  Fe16  1  0.250000  0.874652  0.702048  1
  Fe  Fe17  1  0.250000  0.625348  0.202048  1
  Fe  Fe18  1  0.750000  0.125348  0.297952  1
  Fe  Fe19  1  0.750000  0.374652  0.797952  1
  Fe  Fe20  1  0.250000  0.462913  0.932084  1
  Fe  Fe21  1  0.250000  0.037087  0.432084  1
  Fe  Fe22  1  0.750000  0.537087  0.067916  1
  Fe  Fe23  1  0.750000  0.962913  0.567916  1
  P  P24  1  0.250000  0.423934  0.113968  1
  P  P25  1  0.250000  0.076066  0.613968  1
  P  P26  1  0.750000  0.576066  0.886032  1
  P  P27  1  0.750000  0.923934  0.386032  1
  P  P28  1  0.250000  0.263659  0.868209  1
  P  P29  1  0.250000  0.236341  0.368209  1
  P  P30  1  0.750000  0.736341  0.131791  1
  P  P31  1  0.750000  0.763659  0.631791  1
  P  P32  1  0.250000  0.596343  0.393279  1
  P  P33  1  0.250000  0.903657  0.893279  1
  P  P34  1  0.750000  0.403657  0.606721  1
  P  P35  1  0.750000  0.096343  0.106721  1
