# generated using pymatgen
data_TlBiTeO6
_symmetry_space_group_name_H-M   'P 1'
_cell_length_a   5.40198100
_cell_length_b   9.36126200
_cell_length_c   10.21359000
_cell_angle_alpha   90.00000000
_cell_angle_beta   90.00000000
_cell_angle_gamma   90.00000000
_symmetry_Int_Tables_number   1
_chemical_formula_structural   TlBiTeO6
_chemical_formula_sum   'Tl4 Bi4 Te4 O24'
_cell_volume   516.49470409
_cell_formula_units_Z   4
loop_
 _symmetry_equiv_pos_site_id
 _symmetry_equiv_pos_as_xyz
  1  'x, y, z'
loop_
 _atom_site_type_symbol
 _atom_site_label
 _atom_site_symmetry_multiplicity
 _atom_site_fract_x
 _atom_site_fract_y
 _atom_site_fract_z
 _atom_site_occupancy
  Tl  Tl0  1  0.501384  0.118975  0.943372  1
  Tl  Tl1  1  0.001384  0.381025  0.056628  1
  Tl  Tl2  1  0.498616  0.618975  0.556628  1
  Tl  Tl3  1  0.998616  0.881025  0.443372  1
  Bi  Bi4  1  0.989260  0.794149  0.854782  1
  Bi  Bi5  1  0.489260  0.705851  0.145218  1
  Bi  Bi6  1  0.010740  0.294149  0.645218  1
  Bi  Bi7  1  0.510740  0.205851  0.354782  1
  Te  Te8  1  0.474856  0.996474  0.641330  1
  Te  Te9  1  0.974855  0.503526  0.358670  1
  Te  Te10  1  0.525145  0.496474  0.858670  1
  Te  Te11  1  0.025144  0.003526  0.141330  1
  O  O12  1  0.765022  0.444724  0.508452  1
  O  O13  1  0.265022  0.055276  0.491548  1
  O  O14  1  0.234978  0.944724  0.991548  1
  O  O15  1  0.734978  0.555276  0.008452  1
  O  O16  1  0.703233  0.134341  0.563713  1
  O  O17  1  0.203233  0.365659  0.436287  1
  O  O18  1  0.296767  0.634341  0.936287  1
  O  O19  1  0.796767  0.865659  0.063713  1
  O  O20  1  0.771186  0.346820  0.827633  1
  O  O21  1  0.271186  0.153180  0.172367  1
  O  O22  1  0.228814  0.846820  0.672367  1
  O  O23  1  0.728814  0.653180  0.327633  1
  O  O24  1  0.686461  0.966391  0.792262  1
  O  O25  1  0.186461  0.533609  0.207738  1
  O  O26  1  0.313539  0.466391  0.707738  1
  O  O27  1  0.813539  0.033609  0.292262  1
  O  O28  1  0.705583  0.632608  0.751311  1
  O  O29  1  0.205583  0.867392  0.248689  1
  O  O30  1  0.294417  0.132608  0.748689  1
  O  O31  1  0.794417  0.367392  0.251311  1
  O  O32  1  0.644127  0.845753  0.539581  1
  O  O33  1  0.144127  0.654247  0.460419  1
  O  O34  1  0.355873  0.345753  0.960419  1
  O  O35  1  0.855873  0.154247  0.039581  1
