# generated using pymatgen
data_Np2MnCo11As7
_symmetry_space_group_name_H-M   'P 1'
_cell_length_a   9.47245200
_cell_length_b   9.49490410
_cell_length_c   3.78840500
_cell_angle_alpha   90.00000000
_cell_angle_beta   90.00000000
_cell_angle_gamma   120.12550814
_symmetry_Int_Tables_number   1
_chemical_formula_structural   Np2MnCo11As7
_chemical_formula_sum   'Np2 Mn1 Co11 As7'
_cell_volume   294.70627603
_cell_formula_units_Z   1
loop_
 _symmetry_equiv_pos_site_id
 _symmetry_equiv_pos_as_xyz
  1  'x, y, z'
loop_
 _atom_site_type_symbol
 _atom_site_label
 _atom_site_symmetry_multiplicity
 _atom_site_fract_x
 _atom_site_fract_y
 _atom_site_fract_z
 _atom_site_occupancy
  Np  Np0  1  0.667250  0.332111  0.000000  1
  Np  Np1  1  0.335961  0.669875  0.500000  1
  Mn  Mn2  1  0.111053  0.213787  0.500000  1
  Co  Co3  1  0.058369  0.627617  0.000000  1
  Co  Co4  1  0.568825  0.943028  0.000000  1
  Co  Co5  1  0.373312  0.433036  0.000000  1
  Co  Co6  1  0.275318  0.121294  0.000000  1
  Co  Co7  1  0.846653  0.721551  0.000000  1
  Co  Co8  1  0.879714  0.151602  0.000000  1
  Co  Co9  1  0.432149  0.051922  0.500000  1
  Co  Co10  1  0.620973  0.569994  0.500000  1
  Co  Co11  1  0.948470  0.381484  0.500000  1
  Co  Co12  1  0.100143  0.879501  0.500000  1
  Co  Co13  1  0.777491  0.900526  0.500000  1
  As  As14  1  0.294940  0.887565  0.000000  1
  As  As15  1  0.592975  0.706036  0.000000  1
  As  As16  1  0.113693  0.412455  0.000000  1
  As  As17  1  0.408800  0.295600  0.500000  1
  As  As18  1  0.888309  0.595801  0.500000  1
  As  As19  1  0.708105  0.111810  0.500000  1
  As  As20  1  0.997497  0.993409  0.000000  1
