# generated using pymatgen
data_PrEr4(MnB3)2
_symmetry_space_group_name_H-M   'P 1'
_cell_length_a   5.40110802
_cell_length_b   5.40110902
_cell_length_c   8.28610300
_cell_angle_alpha   70.97905953
_cell_angle_beta   70.97905864
_cell_angle_gamma   60.00000164
_symmetry_Int_Tables_number   1
_chemical_formula_structural   PrEr4(MnB3)2
_chemical_formula_sum   'Pr1 Er4 Mn2 B6'
_cell_volume   193.94784912
_cell_formula_units_Z   1
loop_
 _symmetry_equiv_pos_site_id
 _symmetry_equiv_pos_as_xyz
  1  'x, y, z'
loop_
 _atom_site_type_symbol
 _atom_site_label
 _atom_site_symmetry_multiplicity
 _atom_site_fract_x
 _atom_site_fract_y
 _atom_site_fract_z
 _atom_site_occupancy
  Pr  Pr0  1  0.000000  0.000000  0.000000  1
  Er  Er1  1  0.249391  0.249391  0.251827  1
  Er  Er2  1  0.750609  0.750609  0.748173  1
  Er  Er3  1  0.417797  0.417797  0.746608  1
  Er  Er4  1  0.582203  0.582203  0.253392  1
  Mn  Mn5  1  0.114818  0.114818  0.655546  1
  Mn  Mn6  1  0.885182  0.885182  0.344454  1
  B  B7  1  0.166534  0.833466  0.500000  1
  B  B8  1  0.833466  0.500000  0.500000  1
  B  B9  1  0.500000  0.166534  0.500000  1
  B  B10  1  0.166534  0.500000  0.500000  1
  B  B11  1  0.500000  0.833466  0.500000  1
  B  B12  1  0.833466  0.166534  0.500000  1
