# generated using pymatgen
data_Sm2Mn3Fe3Ni6P7
_symmetry_space_group_name_H-M   'P 1'
_cell_length_a   9.11717800
_cell_length_b   9.11717871
_cell_length_c   3.68003000
_cell_angle_alpha   90.00000000
_cell_angle_beta   90.00000000
_cell_angle_gamma   120.00000468
_symmetry_Int_Tables_number   1
_chemical_formula_structural   Sm2Mn3Fe3Ni6P7
_chemical_formula_sum   'Sm2 Mn3 Fe3 Ni6 P7'
_cell_volume   264.91275660
_cell_formula_units_Z   1
loop_
 _symmetry_equiv_pos_site_id
 _symmetry_equiv_pos_as_xyz
  1  'x, y, z'
loop_
 _atom_site_type_symbol
 _atom_site_label
 _atom_site_symmetry_multiplicity
 _atom_site_fract_x
 _atom_site_fract_y
 _atom_site_fract_z
 _atom_site_occupancy
  Sm  Sm0  1  0.333333  0.666667  0.000000  1
  Sm  Sm1  1  0.666667  0.333333  0.500000  1
  Mn  Mn2  1  0.214515  0.118285  0.500000  1
  Mn  Mn3  1  0.881715  0.096231  0.500000  1
  Mn  Mn4  1  0.903769  0.785485  0.500000  1
  Fe  Fe5  1  0.153088  0.878890  0.000000  1
  Fe  Fe6  1  0.121110  0.274198  0.000000  1
  Fe  Fe7  1  0.725802  0.846912  0.000000  1
  Ni  Ni8  1  0.434994  0.374601  0.000000  1
  Ni  Ni9  1  0.625399  0.060394  0.000000  1
  Ni  Ni10  1  0.939606  0.565006  0.000000  1
  Ni  Ni11  1  0.385403  0.949657  0.500000  1
  Ni  Ni12  1  0.050343  0.435746  0.500000  1
  Ni  Ni13  1  0.564254  0.614597  0.500000  1
  P  P14  1  0.402147  0.108828  0.000000  1
  P  P15  1  0.891172  0.293318  0.000000  1
  P  P16  1  0.706682  0.597853  0.000000  1
  P  P17  1  0.112095  0.715142  0.500000  1
  P  P18  1  0.284858  0.396952  0.500000  1
  P  P19  1  0.603048  0.887905  0.500000  1
  P  P20  1  0.000000  0.000000  0.000000  1
