# generated using pymatgen
data_Cs7Rb5(As4W)2
_symmetry_space_group_name_H-M   'P 1'
_cell_length_a   11.04181063
_cell_length_b   11.03327601
_cell_length_c   8.73840124
_cell_angle_alpha   90.21061450
_cell_angle_beta   90.71312244
_cell_angle_gamma   120.03731528
_symmetry_Int_Tables_number   1
_chemical_formula_structural   Cs7Rb5(As4W)2
_chemical_formula_sum   'Cs7 Rb5 As8 W2'
_cell_volume   921.47146228
_cell_formula_units_Z   1
loop_
 _symmetry_equiv_pos_site_id
 _symmetry_equiv_pos_as_xyz
  1  'x, y, z'
loop_
 _atom_site_type_symbol
 _atom_site_label
 _atom_site_symmetry_multiplicity
 _atom_site_fract_x
 _atom_site_fract_y
 _atom_site_fract_z
 _atom_site_occupancy
  Cs  Cs0  1  0.295779  0.146584  0.687991  1
  Cs  Cs1  1  0.857796  0.716340  0.680713  1
  Cs  Cs2  1  0.144719  0.852918  0.179782  1
  Cs  Cs3  1  0.715204  0.857132  0.181587  1
  Cs  Cs4  1  0.146929  0.295759  0.189093  1
  Cs  Cs5  1  0.462529  0.926234  0.490322  1
  Cs  Cs6  1  0.928694  0.463554  0.994474  1
  Rb  Rb7  1  0.470630  0.529792  0.504135  1
  Rb  Rb8  1  0.059133  0.529506  0.503539  1
  Rb  Rb9  1  0.530520  0.469681  0.004048  1
  Rb  Rb10  1  0.530633  0.058801  0.004907  1
  Rb  Rb11  1  0.845735  0.149903  0.679671  1
  As  As12  1  0.668002  0.338552  0.670052  1
  As  As13  1  0.337905  0.668251  0.165120  1
  As  As14  1  0.787865  0.212837  0.306463  1
  As  As15  1  0.424274  0.213554  0.300577  1
  As  As16  1  0.787019  0.575565  0.304437  1
  As  As17  1  0.214488  0.786463  0.801656  1
  As  As18  1  0.577788  0.787874  0.802237  1
  As  As19  1  0.212409  0.421336  0.798602  1
  W  W20  1  0.666530  0.334296  0.391985  1
  W  W21  1  0.335415  0.665068  0.887188  1
