# generated using pymatgen
data_Sm3Mg3CuAgRu
_symmetry_space_group_name_H-M   'P 1'
_cell_length_a   7.74949000
_cell_length_b   7.74948982
_cell_length_c   3.96533400
_cell_angle_alpha   90.00000000
_cell_angle_beta   90.00000000
_cell_angle_gamma   120.00000076
_symmetry_Int_Tables_number   1
_chemical_formula_structural   Sm3Mg3CuAgRu
_chemical_formula_sum   'Sm3 Mg3 Cu1 Ag1 Ru1'
_cell_volume   206.23227686
_cell_formula_units_Z   1
loop_
 _symmetry_equiv_pos_site_id
 _symmetry_equiv_pos_as_xyz
  1  'x, y, z'
loop_
 _atom_site_type_symbol
 _atom_site_label
 _atom_site_symmetry_multiplicity
 _atom_site_fract_x
 _atom_site_fract_y
 _atom_site_fract_z
 _atom_site_occupancy
  Sm  Sm0  1  0.031618  0.425676  0.500000  1
  Sm  Sm1  1  0.574324  0.605942  0.500000  1
  Sm  Sm2  1  0.394058  0.968382  0.500000  1
  Mg  Mg3  1  0.997900  0.753502  0.000000  1
  Mg  Mg4  1  0.246498  0.244400  0.000000  1
  Mg  Mg5  1  0.755600  0.002100  0.000000  1
  Cu  Cu6  1  0.000000  0.000000  0.500000  1
  Ag  Ag7  1  0.666667  0.333333  0.000000  1
  Ru  Ru8  1  0.333333  0.666667  0.000000  1
