# generated using pymatgen
data_Y7Th(AlRh)2
_symmetry_space_group_name_H-M   'P 1'
_cell_length_a   9.61096767
_cell_length_b   9.61097746
_cell_length_c   9.60532385
_cell_angle_alpha   60.16472165
_cell_angle_beta   60.16456442
_cell_angle_gamma   60.42512598
_symmetry_Int_Tables_number   1
_chemical_formula_structural   Y7Th(AlRh)2
_chemical_formula_sum   'Y14 Th2 Al4 Rh4'
_cell_volume   630.94411104
_cell_formula_units_Z   2
loop_
 _symmetry_equiv_pos_site_id
 _symmetry_equiv_pos_as_xyz
  1  'x, y, z'
loop_
 _atom_site_type_symbol
 _atom_site_label
 _atom_site_symmetry_multiplicity
 _atom_site_fract_x
 _atom_site_fract_y
 _atom_site_fract_z
 _atom_site_occupancy
  Y  Y0  1  0.605401  0.186434  0.605583  1
  Y  Y1  1  0.186439  0.605390  0.605591  1
  Y  Y2  1  0.058405  0.444787  0.441116  1
  Y  Y3  1  0.443283  0.058482  0.056629  1
  Y  Y4  1  0.444789  0.058402  0.441117  1
  Y  Y5  1  0.058488  0.443280  0.056626  1
  Y  Y6  1  0.441764  0.441762  0.057766  1
  Y  Y7  1  0.056639  0.056641  0.444944  1
  Y  Y8  1  0.188665  0.814616  0.814146  1
  Y  Y9  1  0.813524  0.188894  0.185514  1
  Y  Y10  1  0.814613  0.188673  0.814135  1
  Y  Y11  1  0.188888  0.813522  0.185526  1
  Y  Y12  1  0.814897  0.814894  0.186082  1
  Y  Y13  1  0.188322  0.188317  0.811136  1
  Th  Th14  1  0.597044  0.597053  0.599611  1
  Th  Th15  1  0.598649  0.598655  0.201191  1
  Al  Al16  1  0.828604  0.828602  0.828807  1
  Al  Al17  1  0.827392  0.827390  0.516492  1
  Al  Al18  1  0.826313  0.516265  0.828105  1
  Al  Al19  1  0.516264  0.826313  0.828108  1
  Rh  Rh20  1  0.393425  0.393414  0.393005  1
  Rh  Rh21  1  0.391912  0.391912  0.820023  1
  Rh  Rh22  1  0.396608  0.819675  0.389382  1
  Rh  Rh23  1  0.819672  0.396629  0.389366  1
