# generated using pymatgen
data_Tm12Ni3BiOs2
_symmetry_space_group_name_H-M   'P 1'
_cell_length_a   8.27904636
_cell_length_b   8.27904712
_cell_length_c   8.27904624
_cell_angle_alpha   110.47173725
_cell_angle_beta   112.43035248
_cell_angle_gamma   105.58659999
_symmetry_Int_Tables_number   1
_chemical_formula_structural   Tm12Ni3BiOs2
_chemical_formula_sum   'Tm12 Ni3 Bi1 Os2'
_cell_volume   435.20700713
_cell_formula_units_Z   1
loop_
 _symmetry_equiv_pos_site_id
 _symmetry_equiv_pos_as_xyz
  1  'x, y, z'
loop_
 _atom_site_type_symbol
 _atom_site_label
 _atom_site_symmetry_multiplicity
 _atom_site_fract_x
 _atom_site_fract_y
 _atom_site_fract_z
 _atom_site_occupancy
  Tm  Tm0  1  0.270715  0.180624  0.451338  1
  Tm  Tm1  1  0.724262  0.825934  0.550197  1
  Tm  Tm2  1  0.275738  0.825934  0.101671  1
  Tm  Tm3  1  0.729285  0.180624  0.909909  1
  Tm  Tm4  1  0.634424  0.318413  0.310236  1
  Tm  Tm5  1  0.365576  0.675812  0.683989  1
  Tm  Tm6  1  0.008177  0.318413  0.683989  1
  Tm  Tm7  1  0.991823  0.675812  0.310236  1
  Tm  Tm8  1  0.225318  0.413702  0.188385  1
  Tm  Tm9  1  0.779560  0.585977  0.806416  1
  Tm  Tm10  1  0.220440  0.026857  0.806416  1
  Tm  Tm11  1  0.774682  0.963066  0.188385  1
  Ni  Ni12  1  0.000000  0.654725  0.654725  1
  Ni  Ni13  1  0.383689  0.886818  0.503128  1
  Ni  Ni14  1  0.616311  0.119439  0.503128  1
  Bi  Bi15  1  0.500000  0.498781  0.998781  1
  Os  Os16  1  0.000000  0.350454  0.350454  1
  Os  Os17  1  0.000000  0.998617  0.998617  1
