# generated using pymatgen
data_KLaVH9
_symmetry_space_group_name_H-M   'P 1'
_cell_length_a   8.81875800
_cell_length_b   8.81875724
_cell_length_c   5.16512300
_cell_angle_alpha   90.00000000
_cell_angle_beta   90.00000000
_cell_angle_gamma   120.00001036
_symmetry_Int_Tables_number   1
_chemical_formula_structural   KLaVH9
_chemical_formula_sum   'K3 La3 V3 H27'
_cell_volume   347.87728103
_cell_formula_units_Z   3
loop_
 _symmetry_equiv_pos_site_id
 _symmetry_equiv_pos_as_xyz
  1  'x, y, z'
loop_
 _atom_site_type_symbol
 _atom_site_label
 _atom_site_symmetry_multiplicity
 _atom_site_fract_x
 _atom_site_fract_y
 _atom_site_fract_z
 _atom_site_occupancy
  K  K0  1  0.000000  0.592086  0.000000  1
  K  K1  1  0.407914  0.407914  0.000000  1
  K  K2  1  0.592086  0.000000  0.000000  1
  La  La3  1  0.000000  0.279133  0.500000  1
  La  La4  1  0.720867  0.720867  0.500000  1
  La  La5  1  0.279133  0.000000  0.500000  1
  V  V6  1  0.666667  0.333333  0.500000  1
  V  V7  1  0.333333  0.666667  0.500000  1
  V  V8  1  0.000000  0.000000  0.000000  1
  H  H9  1  0.789537  0.306707  0.738132  1
  H  H10  1  0.693293  0.482829  0.738132  1
  H  H11  1  0.517171  0.210463  0.738132  1
  H  H12  1  0.210463  0.517171  0.261868  1
  H  H13  1  0.517171  0.210463  0.261868  1
  H  H14  1  0.789537  0.306707  0.261868  1
  H  H15  1  0.693293  0.482829  0.261868  1
  H  H16  1  0.306707  0.789537  0.738132  1
  H  H17  1  0.482829  0.693293  0.738132  1
  H  H18  1  0.195497  0.000000  0.000000  1
  H  H19  1  0.804503  0.804503  0.000000  1
  H  H20  1  0.000000  0.195497  0.000000  1
  H  H21  1  0.861487  0.000000  0.238094  1
  H  H22  1  0.138513  0.138513  0.761906  1
  H  H23  1  0.000000  0.861487  0.761906  1
  H  H24  1  0.000000  0.861487  0.238094  1
  H  H25  1  0.138513  0.138513  0.238094  1
  H  H26  1  0.861487  0.000000  0.761906  1
  H  H27  1  0.127766  0.635565  0.500000  1
  H  H28  1  0.507799  0.872234  0.500000  1
  H  H29  1  0.364435  0.492201  0.500000  1
  H  H30  1  0.492201  0.364435  0.500000  1
  H  H31  1  0.872234  0.507799  0.500000  1
  H  H32  1  0.635565  0.127766  0.500000  1
  H  H33  1  0.210463  0.517171  0.738132  1
  H  H34  1  0.306707  0.789537  0.261868  1
  H  H35  1  0.482829  0.693293  0.261868  1
