# generated using pymatgen
data_TbDy9(In2Ir)4
_symmetry_space_group_name_H-M   'P 1'
_cell_length_a   3.66537800
_cell_length_b   8.02582455
_cell_length_c   18.32532600
_cell_angle_alpha   89.85542943
_cell_angle_beta   90.00000000
_cell_angle_gamma   90.00000000
_symmetry_Int_Tables_number   1
_chemical_formula_structural   TbDy9(In2Ir)4
_chemical_formula_sum   'Tb1 Dy9 In8 Ir4'
_cell_volume   539.08687350
_cell_formula_units_Z   1
loop_
 _symmetry_equiv_pos_site_id
 _symmetry_equiv_pos_as_xyz
  1  'x, y, z'
loop_
 _atom_site_type_symbol
 _atom_site_label
 _atom_site_symmetry_multiplicity
 _atom_site_fract_x
 _atom_site_fract_y
 _atom_site_fract_z
 _atom_site_occupancy
  Tb  Tb0  1  0.500000  0.500000  0.000000  1
  Dy  Dy1  1  0.500000  0.384088  0.589372  1
  Dy  Dy2  1  0.500000  0.882799  0.910129  1
  Dy  Dy3  1  0.500000  0.117201  0.089871  1
  Dy  Dy4  1  0.500000  0.755144  0.721938  1
  Dy  Dy5  1  0.500000  0.254785  0.777497  1
  Dy  Dy6  1  0.500000  0.745215  0.222503  1
  Dy  Dy7  1  0.500000  0.244856  0.278062  1
  Dy  Dy8  1  0.500000  0.000000  0.500000  1
  Dy  Dy9  1  0.500000  0.615912  0.410628  1
  In  In10  1  0.000000  0.794580  0.068072  1
  In  In11  1  0.000000  0.931800  0.351031  1
  In  In12  1  0.000000  0.068200  0.648969  1
  In  In13  1  0.000000  0.568019  0.849859  1
  In  In14  1  0.000000  0.707509  0.567708  1
  In  In15  1  0.000000  0.205420  0.931928  1
  In  In16  1  0.000000  0.292491  0.432292  1
  In  In17  1  0.000000  0.431981  0.150141  1
  Ir  Ir18  1  0.000000  0.981331  0.804058  1
  Ir  Ir19  1  0.000000  0.518265  0.304835  1
  Ir  Ir20  1  0.000000  0.481735  0.695165  1
  Ir  Ir21  1  0.000000  0.018669  0.195942  1
