# generated using pymatgen
data_Tb2Al16MoPt8
_symmetry_space_group_name_H-M   'P 1'
_cell_length_a   11.23715443
_cell_length_b   11.23715498
_cell_length_c   11.23715518
_cell_angle_alpha   158.81792364
_cell_angle_beta   116.96056791
_cell_angle_gamma   67.30571374
_symmetry_Int_Tables_number   1
_chemical_formula_structural   Tb2Al16MoPt8
_chemical_formula_sum   'Tb2 Al16 Mo1 Pt8'
_cell_volume   453.97851099
_cell_formula_units_Z   1
loop_
 _symmetry_equiv_pos_site_id
 _symmetry_equiv_pos_as_xyz
  1  'x, y, z'
loop_
 _atom_site_type_symbol
 _atom_site_label
 _atom_site_symmetry_multiplicity
 _atom_site_fract_x
 _atom_site_fract_y
 _atom_site_fract_z
 _atom_site_occupancy
  Tb  Tb0  1  0.231679  0.232510  0.999170  1
  Tb  Tb1  1  0.766660  0.767490  0.999170  1
  Al  Al2  1  0.273969  0.392158  0.881812  1
  Al  Al3  1  0.089055  0.925000  0.164055  1
  Al  Al4  1  0.503543  0.200641  0.302904  1
  Al  Al5  1  0.239054  0.075000  0.164055  1
  Al  Al6  1  0.908216  0.415857  0.492360  1
  Al  Al7  1  0.725487  0.599461  0.126026  1
  Al  Al8  1  0.903286  0.210545  0.692741  1
  Al  Al9  1  0.482199  0.789455  0.692741  1
  Al  Al10  1  0.390495  0.000000  0.390495  1
  Al  Al11  1  0.627939  0.000000  0.627939  1
  Al  Al12  1  0.489654  0.607842  0.881812  1
  Al  Al13  1  0.102263  0.799359  0.302904  1
  Al  Al14  1  0.912171  0.089265  0.822906  1
  Al  Al15  1  0.733640  0.910735  0.822906  1
  Al  Al16  1  0.526565  0.400539  0.126026  1
  Al  Al17  1  0.076503  0.584143  0.492360  1
  Mo  Mo18  1  0.787567  0.500000  0.287567  1
  Pt  Pt19  1  0.022440  0.343605  0.678834  1
  Pt  Pt20  1  0.629826  0.127445  0.502381  1
  Pt  Pt21  1  0.256602  0.500000  0.756602  1
  Pt  Pt22  1  0.374936  0.872555  0.502381  1
  Pt  Pt23  1  0.983447  0.000000  0.983447  1
  Pt  Pt24  1  0.647404  0.333616  0.313788  1
  Pt  Pt25  1  0.335229  0.656395  0.678834  1
  Pt  Pt26  1  0.980170  0.666384  0.313788  1
