# generated using pymatgen
data_TmSc3CrFe19P12
_symmetry_space_group_name_H-M   'P 1'
_cell_length_a   3.61001600
_cell_length_b   10.18057963
_cell_length_c   11.71104576
_cell_angle_alpha   89.81940155
_cell_angle_beta   90.00000000
_cell_angle_gamma   90.00000000
_symmetry_Int_Tables_number   1
_chemical_formula_structural   TmSc3CrFe19P12
_chemical_formula_sum   'Tm1 Sc3 Cr1 Fe19 P12'
_cell_volume   430.40286395
_cell_formula_units_Z   1
loop_
 _symmetry_equiv_pos_site_id
 _symmetry_equiv_pos_as_xyz
  1  'x, y, z'
loop_
 _atom_site_type_symbol
 _atom_site_label
 _atom_site_symmetry_multiplicity
 _atom_site_fract_x
 _atom_site_fract_y
 _atom_site_fract_z
 _atom_site_occupancy
  Tm  Tm0  1  0.250000  0.919446  0.205109  1
  Sc  Sc1  1  0.250000  0.579787  0.704169  1
  Sc  Sc2  1  0.750000  0.420832  0.296373  1
  Sc  Sc3  1  0.750000  0.080782  0.795059  1
  Cr  Cr4  1  0.250000  0.703635  0.988498  1
  Fe  Fe5  1  0.250000  0.791050  0.488758  1
  Fe  Fe6  1  0.750000  0.292229  0.010405  1
  Fe  Fe7  1  0.750000  0.209580  0.511875  1
  Fe  Fe8  1  0.250000  0.406396  0.488656  1
  Fe  Fe9  1  0.250000  0.095472  0.987490  1
  Fe  Fe10  1  0.750000  0.593155  0.512174  1
  Fe  Fe11  1  0.750000  0.906480  0.008611  1
  Fe  Fe12  1  0.250000  0.221017  0.176346  1
  Fe  Fe13  1  0.250000  0.280368  0.676009  1
  Fe  Fe14  1  0.750000  0.781864  0.822448  1
  Fe  Fe15  1  0.750000  0.718374  0.325566  1
  Fe  Fe16  1  0.250000  0.876401  0.701385  1
  Fe  Fe17  1  0.250000  0.621761  0.202544  1
  Fe  Fe18  1  0.750000  0.125660  0.299885  1
  Fe  Fe19  1  0.750000  0.376233  0.798226  1
  Fe  Fe20  1  0.250000  0.461129  0.931127  1
  Fe  Fe21  1  0.250000  0.039199  0.433854  1
  Fe  Fe22  1  0.750000  0.533268  0.066574  1
  Fe  Fe23  1  0.750000  0.963191  0.569706  1
  P  P24  1  0.250000  0.422268  0.115756  1
  P  P25  1  0.250000  0.078776  0.616157  1
  P  P26  1  0.750000  0.577720  0.883200  1
  P  P27  1  0.750000  0.921670  0.388083  1
  P  P28  1  0.250000  0.261255  0.868435  1
  P  P29  1  0.250000  0.238865  0.369958  1
  P  P30  1  0.750000  0.733479  0.131631  1
  P  P31  1  0.750000  0.761047  0.629284  1
  P  P32  1  0.250000  0.598665  0.394170  1
  P  P33  1  0.250000  0.906365  0.892088  1
  P  P34  1  0.750000  0.401161  0.605725  1
  P  P35  1  0.750000  0.101419  0.104664  1
