# generated using pymatgen
data_TbHoZn14Co3
_symmetry_space_group_name_H-M   'P 1'
_cell_length_a   6.67963071
_cell_length_b   6.67963107
_cell_length_c   6.67963038
_cell_angle_alpha   82.66903472
_cell_angle_beta   97.33085179
_cell_angle_gamma   97.33090794
_symmetry_Int_Tables_number   1
_chemical_formula_structural   TbHoZn14Co3
_chemical_formula_sum   'Tb1 Ho1 Zn14 Co3'
_cell_volume   291.29265402
_cell_formula_units_Z   1
loop_
 _symmetry_equiv_pos_site_id
 _symmetry_equiv_pos_as_xyz
  1  'x, y, z'
loop_
 _atom_site_type_symbol
 _atom_site_label
 _atom_site_symmetry_multiplicity
 _atom_site_fract_x
 _atom_site_fract_y
 _atom_site_fract_z
 _atom_site_occupancy
  Tb  Tb0  1  0.334582  0.665417  0.665417  1
  Ho  Ho1  1  0.665799  0.334200  0.334201  1
  Zn  Zn2  1  0.292927  0.292771  0.000165  1
  Zn  Zn3  1  0.707229  0.707073  0.000165  1
  Zn  Zn4  1  0.894189  0.105809  0.105810  1
  Zn  Zn5  1  0.346935  0.653066  0.147998  1
  Zn  Zn6  1  0.999835  0.707073  0.292770  1
  Zn  Zn7  1  0.292927  0.000165  0.292771  1
  Zn  Zn8  1  0.653211  0.852234  0.346788  1
  Zn  Zn9  1  0.147766  0.346789  0.346790  1
  Zn  Zn10  1  0.852002  0.653066  0.653065  1
  Zn  Zn11  1  0.346934  0.147997  0.653066  1
  Zn  Zn12  1  0.999835  0.292771  0.707072  1
  Zn  Zn13  1  0.707229  0.000165  0.707073  1
  Zn  Zn14  1  0.653211  0.346789  0.852234  1
  Zn  Zn15  1  0.105591  0.894409  0.894408  1
  Co  Co16  1  0.500113  0.000158  0.000158  1
  Co  Co17  1  0.999842  0.499886  0.000158  1
  Co  Co18  1  0.999842  0.000158  0.499887  1
