# generated using pymatgen
data_ZrSc3V3Os5
_symmetry_space_group_name_H-M   'P 1'
_cell_length_a   5.11949230
_cell_length_b   5.24148274
_cell_length_c   8.65139092
_cell_angle_alpha   90.00000040
_cell_angle_beta   89.87538583
_cell_angle_gamma   120.79142799
_symmetry_Int_Tables_number   1
_chemical_formula_structural   ZrSc3V3Os5
_chemical_formula_sum   'Zr1 Sc3 V3 Os5'
_cell_volume   199.42390352
_cell_formula_units_Z   1
loop_
 _symmetry_equiv_pos_site_id
 _symmetry_equiv_pos_as_xyz
  1  'x, y, z'
loop_
 _atom_site_type_symbol
 _atom_site_label
 _atom_site_symmetry_multiplicity
 _atom_site_fract_x
 _atom_site_fract_y
 _atom_site_fract_z
 _atom_site_occupancy
  Zr  Zr0  1  0.338102  0.669052  0.434505  1
  Sc  Sc1  1  0.663025  0.331512  0.559862  1
  Sc  Sc2  1  0.662594  0.331297  0.942655  1
  Sc  Sc3  1  0.335980  0.667991  0.063234  1
  V  V4  1  0.171681  0.337913  0.750201  1
  V  V5  1  0.171681  0.833767  0.750201  1
  V  V6  1  0.338074  0.169037  0.249525  1
  Os  Os7  1  0.830113  0.658672  0.249891  1
  Os  Os8  1  0.639418  0.819708  0.749814  1
  Os  Os9  1  0.005842  0.002920  0.994771  1
  Os  Os10  1  0.830113  0.171442  0.249891  1
  Os  Os11  1  0.013379  0.006689  0.505451  1
