# generated using pymatgen
data_Ce2SbPt2
_symmetry_space_group_name_H-M   'P 1'
_cell_length_a   7.73423200
_cell_length_b   7.73423200
_cell_length_c   3.90168400
_cell_angle_alpha   90.00000000
_cell_angle_beta   90.00000000
_cell_angle_gamma   90.00260764
_symmetry_Int_Tables_number   1
_chemical_formula_structural   Ce2SbPt2
_chemical_formula_sum   'Ce4 Sb2 Pt4'
_cell_volume   233.39227803
_cell_formula_units_Z   2
loop_
 _symmetry_equiv_pos_site_id
 _symmetry_equiv_pos_as_xyz
  1  'x, y, z'
loop_
 _atom_site_type_symbol
 _atom_site_label
 _atom_site_symmetry_multiplicity
 _atom_site_fract_x
 _atom_site_fract_y
 _atom_site_fract_z
 _atom_site_occupancy
  Ce  Ce0  1  0.675235  0.175234  0.500001  1
  Ce  Ce1  1  0.175249  0.324750  0.500001  1
  Ce  Ce2  1  0.824751  0.675250  0.500001  1
  Ce  Ce3  1  0.324765  0.824766  0.500001  1
  Sb  Sb4  1  0.000000  0.000000  0.000000  1
  Sb  Sb5  1  0.499999  0.499999  0.000000  1
  Pt  Pt6  1  0.372271  0.127729  0.000000  1
  Pt  Pt7  1  0.872210  0.372210  0.000000  1
  Pt  Pt8  1  0.127790  0.627790  0.000000  1
  Pt  Pt9  1  0.627729  0.872271  0.000000  1
