# generated using pymatgen
data_Ti3Re2TcGe3
_symmetry_space_group_name_H-M   'P 1'
_cell_length_a   6.94349795
_cell_length_b   6.94349777
_cell_length_c   3.28459900
_cell_angle_alpha   90.00000000
_cell_angle_beta   90.00000000
_cell_angle_gamma   119.82003912
_symmetry_Int_Tables_number   1
_chemical_formula_structural   Ti3Re2TcGe3
_chemical_formula_sum   'Ti3 Re2 Tc1 Ge3'
_cell_volume   137.38973900
_cell_formula_units_Z   1
loop_
 _symmetry_equiv_pos_site_id
 _symmetry_equiv_pos_as_xyz
  1  'x, y, z'
loop_
 _atom_site_type_symbol
 _atom_site_label
 _atom_site_symmetry_multiplicity
 _atom_site_fract_x
 _atom_site_fract_y
 _atom_site_fract_z
 _atom_site_occupancy
  Ti  Ti0  1  0.397739  0.397739  0.500000  1
  Ti  Ti1  1  0.596990  0.003024  0.500000  1
  Ti  Ti2  1  0.003024  0.596990  0.500000  1
  Re  Re3  1  0.266567  0.001525  0.000000  1
  Re  Re4  1  0.001525  0.266567  0.000000  1
  Tc  Tc5  1  0.734224  0.734224  0.000000  1
  Ge  Ge6  1  0.668071  0.336495  0.000000  1
  Ge  Ge7  1  0.336495  0.668071  0.000000  1
  Ge  Ge8  1  0.995364  0.995364  0.500000  1
