# generated using pymatgen
data_LuB4W
_symmetry_space_group_name_H-M   'P 1'
_cell_length_a   5.98176005
_cell_length_b   5.98176012
_cell_length_c   3.58826700
_cell_angle_alpha   90.00000000
_cell_angle_beta   90.00000000
_cell_angle_gamma   103.95890249
_symmetry_Int_Tables_number   1
_chemical_formula_structural   LuB4W
_chemical_formula_sum   'Lu2 B8 W2'
_cell_volume   124.60182429
_cell_formula_units_Z   2
loop_
 _symmetry_equiv_pos_site_id
 _symmetry_equiv_pos_as_xyz
  1  'x, y, z'
loop_
 _atom_site_type_symbol
 _atom_site_label
 _atom_site_symmetry_multiplicity
 _atom_site_fract_x
 _atom_site_fract_y
 _atom_site_fract_z
 _atom_site_occupancy
  Lu  Lu0  1  0.200519  0.799481  0.000000  1
  Lu  Lu1  1  0.799481  0.200519  0.000000  1
  B  B2  1  0.884635  0.566740  0.500000  1
  B  B3  1  0.406874  0.593126  0.500000  1
  B  B4  1  0.877631  0.877631  0.500000  1
  B  B5  1  0.566740  0.884635  0.500000  1
  B  B6  1  0.433260  0.115365  0.500000  1
  B  B7  1  0.122369  0.122369  0.500000  1
  B  B8  1  0.593126  0.406874  0.500000  1
  B  B9  1  0.115365  0.433260  0.500000  1
  W  W10  1  0.671543  0.671543  0.000000  1
  W  W11  1  0.328457  0.328457  0.000000  1
