# generated using pymatgen
data_Hf8Ti7Si16MoW4
_symmetry_space_group_name_H-M   'P 1'
_cell_length_a   6.55610921
_cell_length_b   6.71849439
_cell_length_c   12.89572213
_cell_angle_alpha   90.01772249
_cell_angle_beta   89.99687997
_cell_angle_gamma   89.91562302
_symmetry_Int_Tables_number   1
_chemical_formula_structural   Hf8Ti7Si16MoW4
_chemical_formula_sum   'Hf8 Ti7 Si16 Mo1 W4'
_cell_volume   568.01958812
_cell_formula_units_Z   1
loop_
 _symmetry_equiv_pos_site_id
 _symmetry_equiv_pos_as_xyz
  1  'x, y, z'
loop_
 _atom_site_type_symbol
 _atom_site_label
 _atom_site_symmetry_multiplicity
 _atom_site_fract_x
 _atom_site_fract_y
 _atom_site_fract_z
 _atom_site_occupancy
  Hf  Hf0  1  0.996683  0.173404  0.091821  1
  Hf  Hf1  1  0.004498  0.827403  0.906897  1
  Hf  Hf2  1  0.504607  0.672358  0.907476  1
  Hf  Hf3  1  0.004426  0.828268  0.591831  1
  Hf  Hf4  1  0.495213  0.328399  0.091995  1
  Hf  Hf5  1  0.994411  0.171800  0.408141  1
  Hf  Hf6  1  0.494590  0.328294  0.408039  1
  Hf  Hf7  1  0.504188  0.672103  0.592579  1
  Ti  Ti8  1  0.335760  0.168479  0.625050  1
  Ti  Ti9  1  0.667233  0.831526  0.374470  1
  Ti  Ti10  1  0.164369  0.668550  0.374704  1
  Ti  Ti11  1  0.664500  0.832218  0.125128  1
  Ti  Ti12  1  0.834825  0.331672  0.624720  1
  Ti  Ti13  1  0.334604  0.166642  0.876476  1
  Ti  Ti14  1  0.834491  0.333323  0.876032  1
  Si  Si15  1  0.035439  0.116681  0.750314  1
  Si  Si16  1  0.966730  0.884007  0.248784  1
  Si  Si17  1  0.463287  0.617544  0.250651  1
  Si  Si18  1  0.535054  0.383749  0.750441  1
  Si  Si19  1  0.297052  0.860048  0.749577  1
  Si  Si20  1  0.702825  0.140520  0.249829  1
  Si  Si21  1  0.201457  0.359843  0.251170  1
  Si  Si22  1  0.797231  0.639954  0.749428  1
  Si  Si23  1  0.171013  0.460087  0.538779  1
  Si  Si24  1  0.828348  0.539306  0.461358  1
  Si  Si25  1  0.329611  0.960537  0.460689  1
  Si  Si26  1  0.830003  0.539748  0.039407  1
  Si  Si27  1  0.670381  0.039333  0.538638  1
  Si  Si28  1  0.170403  0.458336  0.959925  1
  Si  Si29  1  0.671568  0.039243  0.961367  1
  Si  Si30  1  0.329303  0.958892  0.039746  1
  Mo  Mo31  1  0.167720  0.663737  0.122842  1
  W  W32  1  0.160998  0.495407  0.750916  1
  W  W33  1  0.836145  0.505475  0.250172  1
  W  W34  1  0.339981  0.997394  0.249892  1
  W  W35  1  0.661052  0.005717  0.750718  1
