# generated using pymatgen
data_NdGa4Ru
_symmetry_space_group_name_H-M   'P 1'
_cell_length_a   7.69065700
_cell_length_b   8.82521900
_cell_length_c   9.77608000
_cell_angle_alpha   90.00000000
_cell_angle_beta   90.00000000
_cell_angle_gamma   90.00000000
_symmetry_Int_Tables_number   1
_chemical_formula_structural   NdGa4Ru
_chemical_formula_sum   'Nd6 Ga24 Ru6'
_cell_volume   663.51948450
_cell_formula_units_Z   6
loop_
 _symmetry_equiv_pos_site_id
 _symmetry_equiv_pos_as_xyz
  1  'x, y, z'
loop_
 _atom_site_type_symbol
 _atom_site_label
 _atom_site_symmetry_multiplicity
 _atom_site_fract_x
 _atom_site_fract_y
 _atom_site_fract_z
 _atom_site_occupancy
  Nd  Nd0  1  0.317356  0.500000  0.750000  1
  Nd  Nd1  1  0.682644  0.500000  0.250000  1
  Nd  Nd2  1  0.840852  0.250728  0.750000  1
  Nd  Nd3  1  0.159148  0.749272  0.250000  1
  Nd  Nd4  1  0.840852  0.749272  0.750000  1
  Nd  Nd5  1  0.159148  0.250728  0.250000  1
  Ga  Ga6  1  0.179075  0.235646  0.574944  1
  Ga  Ga7  1  0.820925  0.764354  0.425056  1
  Ga  Ga8  1  0.179075  0.764354  0.925056  1
  Ga  Ga9  1  0.820925  0.235646  0.425056  1
  Ga  Ga10  1  0.820925  0.235646  0.074944  1
  Ga  Ga11  1  0.179075  0.764354  0.574944  1
  Ga  Ga12  1  0.820925  0.764354  0.074944  1
  Ga  Ga13  1  0.179075  0.235646  0.925056  1
  Ga  Ga14  1  0.127950  0.000000  0.750000  1
  Ga  Ga15  1  0.872050  0.000000  0.250000  1
  Ga  Ga16  1  0.338899  0.000000  0.062292  1
  Ga  Ga17  1  0.661101  0.000000  0.937708  1
  Ga  Ga18  1  0.338899  0.000000  0.437708  1
  Ga  Ga19  1  0.661101  0.000000  0.562292  1
  Ga  Ga20  1  0.453694  0.158090  0.750000  1
  Ga  Ga21  1  0.546306  0.841910  0.250000  1
  Ga  Ga22  1  0.453694  0.841910  0.750000  1
  Ga  Ga23  1  0.546306  0.158090  0.250000  1
  Ga  Ga24  1  0.656370  0.500000  0.585953  1
  Ga  Ga25  1  0.343630  0.500000  0.414047  1
  Ga  Ga26  1  0.656370  0.500000  0.914047  1
  Ga  Ga27  1  0.343630  0.500000  0.085953  1
  Ga  Ga28  1  0.000000  0.500000  0.500000  1
  Ga  Ga29  1  0.000000  0.500000  0.000000  1
  Ru  Ru30  1  0.500000  0.260282  0.500000  1
  Ru  Ru31  1  0.500000  0.739718  0.500000  1
  Ru  Ru32  1  0.500000  0.739718  0.000000  1
  Ru  Ru33  1  0.500000  0.260282  0.000000  1
  Ru  Ru34  1  0.000000  0.000000  0.500000  1
  Ru  Ru35  1  0.000000  0.000000  0.000000  1
