# generated using pymatgen
data_Hf9Sc3(Si3Ru)4
_symmetry_space_group_name_H-M   'P 1'
_cell_length_a   3.92034200
_cell_length_b   10.29091335
_cell_length_c   11.63142731
_cell_angle_alpha   90.03949589
_cell_angle_beta   90.00000000
_cell_angle_gamma   90.00000000
_symmetry_Int_Tables_number   1
_chemical_formula_structural   Hf9Sc3(Si3Ru)4
_chemical_formula_sum   'Hf9 Sc3 Si12 Ru4'
_cell_volume   469.25702679
_cell_formula_units_Z   1
loop_
 _symmetry_equiv_pos_site_id
 _symmetry_equiv_pos_as_xyz
  1  'x, y, z'
loop_
 _atom_site_type_symbol
 _atom_site_label
 _atom_site_symmetry_multiplicity
 _atom_site_fract_x
 _atom_site_fract_y
 _atom_site_fract_z
 _atom_site_occupancy
  Hf  Hf0  1  0.250000  0.874020  0.019395  1
  Hf  Hf1  1  0.250000  0.626016  0.520009  1
  Hf  Hf2  1  0.750000  0.124286  0.979802  1
  Hf  Hf3  1  0.750000  0.374733  0.480718  1
  Hf  Hf4  1  0.250000  0.924746  0.597433  1
  Hf  Hf5  1  0.250000  0.576046  0.095444  1
  Hf  Hf6  1  0.750000  0.076284  0.403266  1
  Hf  Hf7  1  0.750000  0.425254  0.901864  1
  Hf  Hf8  1  0.250000  0.657015  0.802231  1
  Sc  Sc9  1  0.250000  0.843336  0.301578  1
  Sc  Sc10  1  0.750000  0.342629  0.197917  1
  Sc  Sc11  1  0.750000  0.157571  0.698351  1
  Si  Si12  1  0.250000  0.016638  0.825403  1
  Si  Si13  1  0.250000  0.483357  0.325224  1
  Si  Si14  1  0.750000  0.983058  0.174248  1
  Si  Si15  1  0.750000  0.517482  0.674243  1
  Si  Si16  1  0.250000  0.250863  0.840110  1
  Si  Si17  1  0.250000  0.248512  0.340195  1
  Si  Si18  1  0.750000  0.747943  0.160282  1
  Si  Si19  1  0.750000  0.751912  0.659733  1
  Si  Si20  1  0.250000  0.191596  0.544010  1
  Si  Si21  1  0.250000  0.307521  0.043287  1
  Si  Si22  1  0.750000  0.809161  0.456366  1
  Si  Si23  1  0.750000  0.690752  0.956938  1
  Ru  Ru24  1  0.250000  0.388707  0.676502  1
  Ru  Ru25  1  0.250000  0.112285  0.175108  1
  Ru  Ru26  1  0.750000  0.612101  0.325325  1
  Ru  Ru27  1  0.750000  0.886174  0.825014  1
