# generated using pymatgen
data_KFePt5O12
_symmetry_space_group_name_H-M   'P 1'
_cell_length_a   8.72122533
_cell_length_b   8.64145033
_cell_length_c   8.70010700
_cell_angle_alpha   107.48270932
_cell_angle_beta   107.83855697
_cell_angle_gamma   113.31560711
_symmetry_Int_Tables_number   1
_chemical_formula_structural   KFePt5O12
_chemical_formula_sum   'K2 Fe2 Pt10 O24'
_cell_volume   502.09645741
_cell_formula_units_Z   2
loop_
 _symmetry_equiv_pos_site_id
 _symmetry_equiv_pos_as_xyz
  1  'x, y, z'
loop_
 _atom_site_type_symbol
 _atom_site_label
 _atom_site_symmetry_multiplicity
 _atom_site_fract_x
 _atom_site_fract_y
 _atom_site_fract_z
 _atom_site_occupancy
  K  K0  1  0.281845  0.289088  0.999047  1
  K  K1  1  0.716776  0.721360  0.003600  1
  Fe  Fe2  1  0.858352  0.336665  0.189686  1
  Fe  Fe3  1  0.999488  0.808671  0.475677  1
  Pt  Pt4  1  0.667719  0.850450  0.517105  1
  Pt  Pt5  1  0.484184  0.004784  0.818153  1
  Pt  Pt6  1  0.814908  0.333913  0.817813  1
  Pt  Pt7  1  0.518986  0.003113  0.184740  1
  Pt  Pt8  1  0.665279  0.481757  0.480748  1
  Pt  Pt9  1  0.329923  0.146389  0.481922  1
  Pt  Pt10  1  0.334164  0.518463  0.521767  1
  Pt  Pt11  1  0.001356  0.183890  0.518257  1
  Pt  Pt12  1  0.145013  0.668693  0.815749  1
  Pt  Pt13  1  0.180975  0.663599  0.182297  1
  O  O14  1  0.673599  0.047296  0.721542  1
  O  O15  1  0.320832  0.970006  0.951329  1
  O  O16  1  0.654027  0.297718  0.948494  1
  O  O17  1  0.713788  0.989770  0.368833  1
  O  O18  1  0.617548  0.338386  0.625811  1
  O  O19  1  0.282189  0.987235  0.611196  1
  O  O20  1  0.675876  0.034137  0.049280  1
  O  O21  1  0.328182  0.953932  0.281881  1
  O  O22  1  0.680184  0.292212  0.295364  1
  O  O23  1  0.298223  0.346599  0.649485  1
  O  O24  1  0.959397  0.010241  0.637854  1
  O  O25  1  0.632101  0.682332  0.645573  1
  O  O26  1  0.036073  0.990116  0.355196  1
  O  O27  1  0.694220  0.648404  0.351632  1
  O  O28  1  0.368587  0.320720  0.357123  1
  O  O29  1  0.005171  0.381174  0.720847  1
  O  O30  1  0.338094  0.714342  0.723287  1
  O  O31  1  0.984341  0.632391  0.950536  1
  O  O32  1  0.377671  0.658064  0.373738  1
  O  O33  1  0.048491  0.343717  0.388536  1
  O  O34  1  0.953863  0.659840  0.608047  1
  O  O35  1  0.015283  0.368674  0.045383  1
  O  O36  1  0.345942  0.703638  0.049163  1
  O  O37  1  0.997350  0.618220  0.283310  1
