# generated using pymatgen
data_TbCe4CoPb3
_symmetry_space_group_name_H-M   'P 1'
_cell_length_a   9.49106365
_cell_length_b   9.49106446
_cell_length_c   6.44222700
_cell_angle_alpha   90.00000000
_cell_angle_beta   90.00000000
_cell_angle_gamma   118.81362952
_symmetry_Int_Tables_number   1
_chemical_formula_structural   TbCe4CoPb3
_chemical_formula_sum   'Tb2 Ce8 Co2 Pb6'
_cell_volume   508.46977673
_cell_formula_units_Z   2
loop_
 _symmetry_equiv_pos_site_id
 _symmetry_equiv_pos_as_xyz
  1  'x, y, z'
loop_
 _atom_site_type_symbol
 _atom_site_label
 _atom_site_symmetry_multiplicity
 _atom_site_fract_x
 _atom_site_fract_y
 _atom_site_fract_z
 _atom_site_occupancy
  Tb  Tb0  1  0.244109  0.244109  0.750000  1
  Tb  Tb1  1  0.755891  0.755891  0.250000  1
  Ce  Ce2  1  0.225231  0.998470  0.250000  1
  Ce  Ce3  1  0.774769  0.001530  0.750000  1
  Ce  Ce4  1  0.331873  0.668127  0.500000  1
  Ce  Ce5  1  0.668127  0.331873  0.500000  1
  Ce  Ce6  1  0.998470  0.225231  0.250000  1
  Ce  Ce7  1  0.001530  0.774769  0.750000  1
  Ce  Ce8  1  0.331873  0.668127  0.000000  1
  Ce  Ce9  1  0.668127  0.331873  0.000000  1
  Co  Co10  1  0.000000  0.000000  0.000000  1
  Co  Co11  1  0.000000  0.000000  0.500000  1
  Pb  Pb12  1  0.398195  0.398195  0.250000  1
  Pb  Pb13  1  0.601805  0.601805  0.750000  1
  Pb  Pb14  1  0.003054  0.399337  0.750000  1
  Pb  Pb15  1  0.600663  0.996946  0.250000  1
  Pb  Pb16  1  0.399337  0.003054  0.750000  1
  Pb  Pb17  1  0.996946  0.600663  0.250000  1
