# generated using pymatgen
data_Yb3Th(Ir2O7)2
_symmetry_space_group_name_H-M   'P 1'
_cell_length_a   7.26650869
_cell_length_b   7.26651006
_cell_length_c   7.27019799
_cell_angle_alpha   60.01679042
_cell_angle_beta   60.01678010
_cell_angle_gamma   60.00000550
_symmetry_Int_Tables_number   1
_chemical_formula_structural   Yb3Th(Ir2O7)2
_chemical_formula_sum   'Yb3 Th1 Ir4 O14'
_cell_volume   271.51452814
_cell_formula_units_Z   1
loop_
 _symmetry_equiv_pos_site_id
 _symmetry_equiv_pos_as_xyz
  1  'x, y, z'
loop_
 _atom_site_type_symbol
 _atom_site_label
 _atom_site_symmetry_multiplicity
 _atom_site_fract_x
 _atom_site_fract_y
 _atom_site_fract_z
 _atom_site_occupancy
  Yb  Yb0  1  0.625000  0.125000  0.125000  1
  Yb  Yb1  1  0.125000  0.625000  0.125000  1
  Yb  Yb2  1  0.125000  0.125000  0.125000  1
  Th  Th3  1  0.125000  0.125000  0.625000  1
  Ir  Ir4  1  0.125000  0.625000  0.625000  1
  Ir  Ir5  1  0.625000  0.125000  0.625000  1
  Ir  Ir6  1  0.625000  0.625000  0.125000  1
  Ir  Ir7  1  0.625000  0.625000  0.625000  1
  O  O8  1  0.703696  0.703696  0.296077  1
  O  O9  1  0.293440  0.293440  0.708569  1
  O  O10  1  0.704549  0.293440  0.708569  1
  O  O11  1  0.296530  0.703696  0.296077  1
  O  O12  1  0.293440  0.704549  0.708569  1
  O  O13  1  0.703696  0.296530  0.296077  1
  O  O14  1  0.546304  0.546304  0.953923  1
  O  O15  1  0.956560  0.956560  0.541431  1
  O  O16  1  0.545451  0.956560  0.541431  1
  O  O17  1  0.953470  0.546304  0.953923  1
  O  O18  1  0.956560  0.545451  0.541431  1
  O  O19  1  0.546304  0.953470  0.953923  1
  O  O20  1  0.246883  0.246883  0.259351  1
  O  O21  1  0.003117  0.003117  0.990649  1
