# generated using pymatgen
data_Ba3NaPdO6
_symmetry_space_group_name_H-M   'P 1'
_cell_length_a   7.15266818
_cell_length_b   7.15266949
_cell_length_c   7.15266846
_cell_angle_alpha   91.03485043
_cell_angle_beta   91.03484835
_cell_angle_gamma   91.03484796
_symmetry_Int_Tables_number   1
_chemical_formula_structural   Ba3NaPdO6
_chemical_formula_sum   'Ba6 Na2 Pd2 O12'
_cell_volume   365.75407750
_cell_formula_units_Z   2
loop_
 _symmetry_equiv_pos_site_id
 _symmetry_equiv_pos_as_xyz
  1  'x, y, z'
loop_
 _atom_site_type_symbol
 _atom_site_label
 _atom_site_symmetry_multiplicity
 _atom_site_fract_x
 _atom_site_fract_y
 _atom_site_fract_z
 _atom_site_occupancy
  Ba  Ba0  1  0.250000  0.889944  0.610056  1
  Ba  Ba1  1  0.610056  0.250000  0.889944  1
  Ba  Ba2  1  0.889944  0.610056  0.250000  1
  Ba  Ba3  1  0.750000  0.110056  0.389944  1
  Ba  Ba4  1  0.389944  0.750000  0.110056  1
  Ba  Ba5  1  0.110056  0.389944  0.750000  1
  Na  Na6  1  0.750000  0.750000  0.750000  1
  Na  Na7  1  0.250000  0.250000  0.250000  1
  Pd  Pd8  1  0.500000  0.500000  0.500000  1
  Pd  Pd9  1  0.000000  0.000000  0.000000  1
  O  O10  1  0.052884  0.729200  0.918868  1
  O  O11  1  0.918868  0.052884  0.729200  1
  O  O12  1  0.729200  0.918868  0.052884  1
  O  O13  1  0.447116  0.581132  0.770800  1
  O  O14  1  0.770800  0.447116  0.581132  1
  O  O15  1  0.581132  0.770800  0.447116  1
  O  O16  1  0.947116  0.270800  0.081132  1
  O  O17  1  0.081132  0.947116  0.270800  1
  O  O18  1  0.270800  0.081132  0.947116  1
  O  O19  1  0.552884  0.418868  0.229200  1
  O  O20  1  0.418868  0.229200  0.552884  1
  O  O21  1  0.229200  0.552884  0.418868  1
