# generated using pymatgen
data_HoLu2Co8TcP6
_symmetry_space_group_name_H-M   'P 1'
_cell_length_a   3.68676200
_cell_length_b   10.47781500
_cell_length_c   12.14867100
_cell_angle_alpha   90.00000000
_cell_angle_beta   90.00000000
_cell_angle_gamma   90.00000000
_symmetry_Int_Tables_number   1
_chemical_formula_structural   HoLu2Co8TcP6
_chemical_formula_sum   'Ho2 Lu4 Co16 Tc2 P12'
_cell_volume   469.29356553
_cell_formula_units_Z   2
loop_
 _symmetry_equiv_pos_site_id
 _symmetry_equiv_pos_as_xyz
  1  'x, y, z'
loop_
 _atom_site_type_symbol
 _atom_site_label
 _atom_site_symmetry_multiplicity
 _atom_site_fract_x
 _atom_site_fract_y
 _atom_site_fract_z
 _atom_site_occupancy
  Ho  Ho0  1  0.000000  0.500000  0.525834  1
  Ho  Ho1  1  0.500000  0.000000  0.474166  1
  Lu  Lu2  1  0.500000  0.818865  0.205930  1
  Lu  Lu3  1  0.500000  0.181135  0.205930  1
  Lu  Lu4  1  0.000000  0.681135  0.794070  1
  Lu  Lu5  1  0.000000  0.318865  0.794070  1
  Co  Co6  1  0.500000  0.500000  0.703277  1
  Co  Co7  1  0.000000  0.000000  0.296723  1
  Co  Co8  1  0.000000  0.500000  0.987537  1
  Co  Co9  1  0.500000  0.000000  0.012463  1
  Co  Co10  1  0.500000  0.332196  0.989536  1
  Co  Co11  1  0.500000  0.667804  0.989536  1
  Co  Co12  1  0.000000  0.167804  0.010464  1
  Co  Co13  1  0.000000  0.832196  0.010464  1
  Co  Co14  1  0.500000  0.296553  0.431282  1
  Co  Co15  1  0.500000  0.703447  0.431282  1
  Co  Co16  1  0.000000  0.203447  0.568718  1
  Co  Co17  1  0.000000  0.796553  0.568718  1
  Co  Co18  1  0.500000  0.877618  0.707300  1
  Co  Co19  1  0.500000  0.122382  0.707300  1
  Co  Co20  1  0.000000  0.622382  0.292700  1
  Co  Co21  1  0.000000  0.377618  0.292700  1
  Tc  Tc22  1  0.500000  0.500000  0.157548  1
  Tc  Tc23  1  0.000000  0.000000  0.842452  1
  P  P24  1  0.500000  0.500000  0.880203  1
  P  P25  1  0.000000  0.000000  0.119797  1
  P  P26  1  0.500000  0.500000  0.350338  1
  P  P27  1  0.000000  0.000000  0.649662  1
  P  P28  1  0.500000  0.312568  0.617236  1
  P  P29  1  0.500000  0.687432  0.617236  1
  P  P30  1  0.000000  0.187432  0.382764  1
  P  P31  1  0.000000  0.812568  0.382764  1
  P  P32  1  0.500000  0.845030  0.891277  1
  P  P33  1  0.500000  0.154970  0.891277  1
  P  P34  1  0.000000  0.654970  0.108723  1
  P  P35  1  0.000000  0.345030  0.108723  1
