# generated using pymatgen
data_ZnCu2Pd3
_symmetry_space_group_name_H-M   'P 1'
_cell_length_a   4.28861300
_cell_length_b   4.28861392
_cell_length_c   10.48350100
_cell_angle_alpha   90.00000000
_cell_angle_beta   90.00000000
_cell_angle_gamma   120.00001605
_symmetry_Int_Tables_number   1
_chemical_formula_structural   ZnCu2Pd3
_chemical_formula_sum   'Zn2 Cu4 Pd6'
_cell_volume   166.98240466
_cell_formula_units_Z   2
loop_
 _symmetry_equiv_pos_site_id
 _symmetry_equiv_pos_as_xyz
  1  'x, y, z'
loop_
 _atom_site_type_symbol
 _atom_site_label
 _atom_site_symmetry_multiplicity
 _atom_site_fract_x
 _atom_site_fract_y
 _atom_site_fract_z
 _atom_site_occupancy
  Zn  Zn0  1  0.333333  0.666667  0.668598  1
  Zn  Zn1  1  0.666667  0.333333  0.331402  1
  Cu  Cu2  1  0.000000  0.000000  0.500000  1
  Cu  Cu3  1  0.333333  0.666667  0.164363  1
  Cu  Cu4  1  0.666667  0.333333  0.835637  1
  Cu  Cu5  1  0.000000  0.000000  0.000000  1
  Pd  Pd6  1  0.333333  0.666667  0.417058  1
  Pd  Pd7  1  0.666667  0.333333  0.082795  1
  Pd  Pd8  1  0.000000  0.000000  0.750222  1
  Pd  Pd9  1  0.000000  0.000000  0.249778  1
  Pd  Pd10  1  0.333333  0.666667  0.917205  1
  Pd  Pd11  1  0.666667  0.333333  0.582942  1
