# generated using pymatgen
data_Eu2Cd2RhAu
_symmetry_space_group_name_H-M   'P 1'
_cell_length_a   4.39521400
_cell_length_b   7.53088300
_cell_length_c   8.86580000
_cell_angle_alpha   90.00000000
_cell_angle_beta   90.00000000
_cell_angle_gamma   90.00000000
_symmetry_Int_Tables_number   1
_chemical_formula_structural   Eu2Cd2RhAu
_chemical_formula_sum   'Eu4 Cd4 Rh2 Au2'
_cell_volume   293.45658270
_cell_formula_units_Z   2
loop_
 _symmetry_equiv_pos_site_id
 _symmetry_equiv_pos_as_xyz
  1  'x, y, z'
loop_
 _atom_site_type_symbol
 _atom_site_label
 _atom_site_symmetry_multiplicity
 _atom_site_fract_x
 _atom_site_fract_y
 _atom_site_fract_z
 _atom_site_occupancy
  Eu  Eu0  1  0.750000  0.466388  0.816277  1
  Eu  Eu1  1  0.250000  0.044674  0.324221  1
  Eu  Eu2  1  0.750000  0.966388  0.683723  1
  Eu  Eu3  1  0.250000  0.544674  0.175779  1
  Cd  Cd4  1  0.250000  0.634346  0.570920  1
  Cd  Cd5  1  0.250000  0.134346  0.929080  1
  Cd  Cd6  1  0.750000  0.352426  0.447672  1
  Cd  Cd7  1  0.750000  0.852426  0.052328  1
  Rh  Rh8  1  0.250000  0.756331  0.871653  1
  Rh  Rh9  1  0.250000  0.256331  0.628347  1
  Au  Au10  1  0.750000  0.745835  0.372057  1
  Au  Au11  1  0.750000  0.245835  0.127943  1
