# generated using pymatgen
data_Lu8Tc2B24MoRh
_symmetry_space_group_name_H-M   'P 1'
_cell_length_a   3.60921200
_cell_length_b   9.07452109
_cell_length_c   11.43423306
_cell_angle_alpha   90.08387140
_cell_angle_beta   90.00000000
_cell_angle_gamma   90.00000000
_symmetry_Int_Tables_number   1
_chemical_formula_structural   Lu8Tc2B24MoRh
_chemical_formula_sum   'Lu8 Tc2 B24 Mo1 Rh1'
_cell_volume   374.49211831
_cell_formula_units_Z   1
loop_
 _symmetry_equiv_pos_site_id
 _symmetry_equiv_pos_as_xyz
  1  'x, y, z'
loop_
 _atom_site_type_symbol
 _atom_site_label
 _atom_site_symmetry_multiplicity
 _atom_site_fract_x
 _atom_site_fract_y
 _atom_site_fract_z
 _atom_site_occupancy
  Lu  Lu0  1  0.500000  0.317372  0.413874  1
  Lu  Lu1  1  0.500000  0.680697  0.590441  1
  Lu  Lu2  1  0.500000  0.176068  0.914099  1
  Lu  Lu3  1  0.500000  0.826739  0.081108  1
  Lu  Lu4  1  0.500000  0.441031  0.128783  1
  Lu  Lu5  1  0.500000  0.558141  0.872984  1
  Lu  Lu6  1  0.500000  0.053364  0.628519  1
  Lu  Lu7  1  0.500000  0.943984  0.369945  1
  Tc  Tc8  1  0.500000  0.138727  0.180587  1
  Tc  Tc9  1  0.500000  0.861235  0.821173  1
  B  B10  1  0.000000  0.099536  0.471135  1
  B  B11  1  0.000000  0.895594  0.527680  1
  B  B12  1  0.000000  0.398096  0.972951  1
  B  B13  1  0.000000  0.603050  0.029501  1
  B  B14  1  0.000000  0.130584  0.315856  1
  B  B15  1  0.000000  0.868542  0.685230  1
  B  B16  1  0.000000  0.369322  0.817083  1
  B  B17  1  0.000000  0.632039  0.182839  1
  B  B18  1  0.000000  0.053510  0.066241  1
  B  B19  1  0.000000  0.947308  0.933488  1
  B  B20  1  0.000000  0.448861  0.563719  1
  B  B21  1  0.000000  0.554457  0.433615  1
  B  B22  1  0.000000  0.482402  0.287569  1
  B  B23  1  0.000000  0.522644  0.712893  1
  B  B24  1  0.000000  0.018073  0.787676  1
  B  B25  1  0.000000  0.981612  0.211941  1
  B  B26  1  0.000000  0.250062  0.080748  1
  B  B27  1  0.000000  0.750903  0.920012  1
  B  B28  1  0.000000  0.247012  0.578069  1
  B  B29  1  0.000000  0.750005  0.420622  1
  B  B30  1  0.000000  0.293001  0.236040  1
  B  B31  1  0.000000  0.707595  0.766092  1
  B  B32  1  0.000000  0.204494  0.735900  1
  B  B33  1  0.000000  0.792520  0.263965  1
  Mo  Mo34  1  0.500000  0.362147  0.677774  1
  Rh  Rh35  1  0.500000  0.639273  0.319847  1
