# generated using pymatgen
data_Ho2Tm10Co4CuBi
_symmetry_space_group_name_H-M   'P 1'
_cell_length_a   8.24430075
_cell_length_b   8.24429952
_cell_length_c   8.23697081
_cell_angle_alpha   110.09038491
_cell_angle_beta   111.23078660
_cell_angle_gamma   107.15750879
_symmetry_Int_Tables_number   1
_chemical_formula_structural   Ho2Tm10Co4CuBi
_chemical_formula_sum   'Ho2 Tm10 Co4 Cu1 Bi1'
_cell_volume   430.19857987
_cell_formula_units_Z   1
loop_
 _symmetry_equiv_pos_site_id
 _symmetry_equiv_pos_as_xyz
  1  'x, y, z'
loop_
 _atom_site_type_symbol
 _atom_site_label
 _atom_site_symmetry_multiplicity
 _atom_site_fract_x
 _atom_site_fract_y
 _atom_site_fract_z
 _atom_site_occupancy
  Ho  Ho0  1  0.286900  0.183015  0.469916  1
  Ho  Ho1  1  0.713100  0.816985  0.530084  1
  Tm  Tm2  1  0.286831  0.817126  0.103956  1
  Tm  Tm3  1  0.713169  0.182874  0.896044  1
  Tm  Tm4  1  0.621473  0.312676  0.307942  1
  Tm  Tm5  1  0.378527  0.687324  0.692058  1
  Tm  Tm6  1  0.004734  0.313531  0.692058  1
  Tm  Tm7  1  0.995266  0.686469  0.307942  1
  Tm  Tm8  1  0.213046  0.415416  0.201270  1
  Tm  Tm9  1  0.786954  0.584584  0.798730  1
  Tm  Tm10  1  0.214148  0.011776  0.798730  1
  Tm  Tm11  1  0.785852  0.988224  0.201270  1
  Co  Co12  1  0.999373  0.376050  0.375423  1
  Co  Co13  1  0.000627  0.623950  0.624577  1
  Co  Co14  1  0.386692  0.886692  0.500000  1
  Co  Co15  1  0.613308  0.113308  0.500000  1
  Cu  Cu16  1  0.000000  0.000000  0.000000  1
  Bi  Bi17  1  0.500000  0.500000  0.000000  1
