# generated using pymatgen
data_Ho16MgCd3PdRu3
_symmetry_space_group_name_H-M   'P 1'
_cell_length_a   9.63407094
_cell_length_b   9.67150300
_cell_length_c   9.67150348
_cell_angle_alpha   59.60752399
_cell_angle_beta   59.36529625
_cell_angle_gamma   59.36530410
_symmetry_Int_Tables_number   1
_chemical_formula_structural   Ho16MgCd3PdRu3
_chemical_formula_sum   'Ho16 Mg1 Cd3 Pd1 Ru3'
_cell_volume   629.17216974
_cell_formula_units_Z   1
loop_
 _symmetry_equiv_pos_site_id
 _symmetry_equiv_pos_as_xyz
  1  'x, y, z'
loop_
 _atom_site_type_symbol
 _atom_site_label
 _atom_site_symmetry_multiplicity
 _atom_site_fract_x
 _atom_site_fract_y
 _atom_site_fract_z
 _atom_site_occupancy
  Ho  Ho0  1  0.345169  0.351982  0.351982  1
  Ho  Ho1  1  0.344697  0.350831  0.954806  1
  Ho  Ho2  1  0.344697  0.954806  0.350831  1
  Ho  Ho3  1  0.965956  0.344391  0.344391  1
  Ho  Ho4  1  0.815584  0.189454  0.189454  1
  Ho  Ho5  1  0.184458  0.812445  0.812445  1
  Ho  Ho6  1  0.187074  0.811074  0.189120  1
  Ho  Ho7  1  0.816600  0.188716  0.805510  1
  Ho  Ho8  1  0.187074  0.189120  0.811074  1
  Ho  Ho9  1  0.816600  0.805510  0.188716  1
  Ho  Ho10  1  0.937417  0.562550  0.562550  1
  Ho  Ho11  1  0.557660  0.937873  0.937873  1
  Ho  Ho12  1  0.557518  0.939242  0.566835  1
  Ho  Ho13  1  0.936091  0.562492  0.938468  1
  Ho  Ho14  1  0.557518  0.566835  0.939242  1
  Ho  Ho15  1  0.936091  0.938468  0.562492  1
  Mg  Mg16  1  0.577061  0.576491  0.576491  1
  Cd  Cd17  1  0.581318  0.580434  0.257791  1
  Cd  Cd18  1  0.581318  0.257791  0.580434  1
  Cd  Cd19  1  0.255235  0.581662  0.581662  1
  Pd  Pd20  1  0.573666  0.142912  0.142912  1
  Ru  Ru21  1  0.146234  0.138265  0.138265  1
  Ru  Ru22  1  0.147484  0.139811  0.576844  1
  Ru  Ru23  1  0.147484  0.576844  0.139811  1
