# generated using pymatgen
data_Ce(Nd2Rh)3
_symmetry_space_group_name_H-M   'P 1'
_cell_length_a   6.45299700
_cell_length_b   10.05466555
_cell_length_c   10.05466582
_cell_angle_alpha   119.83250468
_cell_angle_beta   90.00000000
_cell_angle_gamma   90.00000000
_symmetry_Int_Tables_number   1
_chemical_formula_structural   Ce(Nd2Rh)3
_chemical_formula_sum   'Ce2 Nd12 Rh6'
_cell_volume   565.92371422
_cell_formula_units_Z   2
loop_
 _symmetry_equiv_pos_site_id
 _symmetry_equiv_pos_as_xyz
  1  'x, y, z'
loop_
 _atom_site_type_symbol
 _atom_site_label
 _atom_site_symmetry_multiplicity
 _atom_site_fract_x
 _atom_site_fract_y
 _atom_site_fract_z
 _atom_site_occupancy
  Ce  Ce0  1  0.482647  0.333334  0.666666  1
  Ce  Ce1  1  0.982647  0.666666  0.333334  1
  Nd  Nd2  1  0.251239  0.125159  0.874841  1
  Nd  Nd3  1  0.251377  0.749657  0.874877  1
  Nd  Nd4  1  0.251377  0.125123  0.250343  1
  Nd  Nd5  1  0.751239  0.874841  0.125159  1
  Nd  Nd6  1  0.751377  0.250343  0.125123  1
  Nd  Nd7  1  0.751377  0.874877  0.749657  1
  Nd  Nd8  1  0.446167  0.539630  0.460370  1
  Nd  Nd9  1  0.445574  0.920635  0.460413  1
  Nd  Nd10  1  0.445574  0.539587  0.079365  1
  Nd  Nd11  1  0.946167  0.460370  0.539630  1
  Nd  Nd12  1  0.945574  0.079365  0.539587  1
  Nd  Nd13  1  0.945574  0.460413  0.920635  1
  Rh  Rh14  1  0.173040  0.805774  0.194226  1
  Rh  Rh15  1  0.173002  0.388204  0.194181  1
  Rh  Rh16  1  0.173002  0.805819  0.611796  1
  Rh  Rh17  1  0.673040  0.194226  0.805774  1
  Rh  Rh18  1  0.673002  0.611796  0.805819  1
  Rh  Rh19  1  0.673002  0.194181  0.388204  1
