# generated using pymatgen
data_Ta9Zn2GePt2
_symmetry_space_group_name_H-M   'P 1'
_cell_length_a   5.17689017
_cell_length_b   9.88782392
_cell_length_c   9.88782340
_cell_angle_alpha   86.07047762
_cell_angle_beta   74.82423532
_cell_angle_gamma   74.82423734
_symmetry_Int_Tables_number   1
_chemical_formula_structural   Ta9Zn2GePt2
_chemical_formula_sum   'Ta18 Zn4 Ge2 Pt4'
_cell_volume   471.45428883
_cell_formula_units_Z   2
loop_
 _symmetry_equiv_pos_site_id
 _symmetry_equiv_pos_as_xyz
  1  'x, y, z'
loop_
 _atom_site_type_symbol
 _atom_site_label
 _atom_site_symmetry_multiplicity
 _atom_site_fract_x
 _atom_site_fract_y
 _atom_site_fract_z
 _atom_site_occupancy
  Ta  Ta0  1  0.750000  0.500000  0.500000  1
  Ta  Ta1  1  0.250000  0.500000  0.500000  1
  Ta  Ta2  1  0.791890  0.776030  0.640188  1
  Ta  Ta3  1  0.208110  0.223970  0.359812  1
  Ta  Ta4  1  0.708110  0.359812  0.223970  1
  Ta  Ta5  1  0.291890  0.640188  0.776030  1
  Ta  Ta6  1  0.567922  0.640188  0.223970  1
  Ta  Ta7  1  0.432078  0.359812  0.776030  1
  Ta  Ta8  1  0.067922  0.223970  0.640188  1
  Ta  Ta9  1  0.932078  0.776030  0.359812  1
  Ta  Ta10  1  0.583043  0.076539  0.757376  1
  Ta  Ta11  1  0.416957  0.923461  0.242624  1
  Ta  Ta12  1  0.916957  0.242624  0.923461  1
  Ta  Ta13  1  0.083043  0.757376  0.076539  1
  Ta  Ta14  1  0.659582  0.757376  0.923461  1
  Ta  Ta15  1  0.340418  0.242624  0.076539  1
  Ta  Ta16  1  0.159582  0.923461  0.757376  1
  Ta  Ta17  1  0.840418  0.076539  0.242624  1
  Zn  Zn18  1  0.500000  0.000000  0.500000  1
  Zn  Zn19  1  0.000000  0.000000  0.500000  1
  Zn  Zn20  1  0.500000  0.500000  0.000000  1
  Zn  Zn21  1  0.000000  0.500000  0.000000  1
  Ge  Ge22  1  0.250000  0.000000  0.000000  1
  Ge  Ge23  1  0.750000  0.000000  0.000000  1
  Pt  Pt24  1  0.127565  0.500000  0.244870  1
  Pt  Pt25  1  0.872435  0.500000  0.755130  1
  Pt  Pt26  1  0.372435  0.755130  0.500000  1
  Pt  Pt27  1  0.627565  0.244870  0.500000  1
