# generated using pymatgen
data_La5Pr11Cd4TcPd3
_symmetry_space_group_name_H-M   'P 1'
_cell_length_a   10.13933187
_cell_length_b   10.18792496
_cell_length_c   10.18792216
_cell_angle_alpha   59.28278830
_cell_angle_beta   59.40102413
_cell_angle_gamma   59.40102879
_symmetry_Int_Tables_number   1
_chemical_formula_structural   La5Pr11Cd4TcPd3
_chemical_formula_sum   'La5 Pr11 Cd4 Tc1 Pd3'
_cell_volume   733.34362036
_cell_formula_units_Z   1
loop_
 _symmetry_equiv_pos_site_id
 _symmetry_equiv_pos_as_xyz
  1  'x, y, z'
loop_
 _atom_site_type_symbol
 _atom_site_label
 _atom_site_symmetry_multiplicity
 _atom_site_fract_x
 _atom_site_fract_y
 _atom_site_fract_z
 _atom_site_occupancy
  La  La0  1  0.353398  0.353258  0.353258  1
  La  La1  1  0.345216  0.345418  0.955028  1
  La  La2  1  0.345216  0.955028  0.345418  1
  La  La3  1  0.953438  0.346732  0.346732  1
  La  La4  1  0.823114  0.186816  0.186816  1
  Pr  Pr5  1  0.189336  0.807701  0.807701  1
  Pr  Pr6  1  0.190186  0.815572  0.188336  1
  Pr  Pr7  1  0.807133  0.189405  0.806432  1
  Pr  Pr8  1  0.190186  0.188336  0.815572  1
  Pr  Pr9  1  0.807133  0.806432  0.189405  1
  Pr  Pr10  1  0.932519  0.565206  0.565206  1
  Pr  Pr11  1  0.558049  0.936104  0.936104  1
  Pr  Pr12  1  0.564584  0.932608  0.565006  1
  Pr  Pr13  1  0.937214  0.557826  0.936030  1
  Pr  Pr14  1  0.564584  0.565006  0.932608  1
  Pr  Pr15  1  0.937214  0.936030  0.557826  1
  Cd  Cd16  1  0.579081  0.579444  0.579444  1
  Cd  Cd17  1  0.579721  0.582160  0.258162  1
  Cd  Cd18  1  0.579721  0.258162  0.582160  1
  Cd  Cd19  1  0.258343  0.580409  0.580409  1
  Tc  Tc20  1  0.136441  0.147221  0.147221  1
  Pd  Pd21  1  0.147342  0.146048  0.571672  1
  Pd  Pd22  1  0.147342  0.571672  0.146048  1
  Pd  Pd23  1  0.573488  0.147407  0.147407  1
