# generated using pymatgen
data_Ca2Sc2B12OsRh
_symmetry_space_group_name_H-M   'P 1'
_cell_length_a   3.54737500
_cell_length_b   9.00855473
_cell_length_c   11.41204599
_cell_angle_alpha   89.91664255
_cell_angle_beta   90.00000000
_cell_angle_gamma   90.00000000
_symmetry_Int_Tables_number   1
_chemical_formula_structural   Ca2Sc2B12OsRh
_chemical_formula_sum   'Ca4 Sc4 B24 Os2 Rh2'
_cell_volume   364.69119303
_cell_formula_units_Z   2
loop_
 _symmetry_equiv_pos_site_id
 _symmetry_equiv_pos_as_xyz
  1  'x, y, z'
loop_
 _atom_site_type_symbol
 _atom_site_label
 _atom_site_symmetry_multiplicity
 _atom_site_fract_x
 _atom_site_fract_y
 _atom_site_fract_z
 _atom_site_occupancy
  Ca  Ca0  1  0.000000  0.324187  0.416338  1
  Ca  Ca1  1  0.000000  0.675813  0.583662  1
  Ca  Ca2  1  0.000000  0.820703  0.085701  1
  Ca  Ca3  1  0.000000  0.179297  0.914299  1
  Sc  Sc4  1  0.000000  0.941401  0.371747  1
  Sc  Sc5  1  0.000000  0.058599  0.628253  1
  Sc  Sc6  1  0.000000  0.448018  0.129636  1
  Sc  Sc7  1  0.000000  0.551982  0.870364  1
  B  B8  1  0.500000  0.555352  0.432045  1
  B  B9  1  0.500000  0.444648  0.567955  1
  B  B10  1  0.500000  0.056157  0.067503  1
  B  B11  1  0.500000  0.943843  0.932497  1
  B  B12  1  0.500000  0.753059  0.416954  1
  B  B13  1  0.500000  0.246941  0.583046  1
  B  B14  1  0.500000  0.253514  0.082446  1
  B  B15  1  0.500000  0.746486  0.917554  1
  B  B16  1  0.500000  0.795238  0.264000  1
  B  B17  1  0.500000  0.204762  0.736000  1
  B  B18  1  0.500000  0.294567  0.235691  1
  B  B19  1  0.500000  0.705433  0.764309  1
  B  B20  1  0.500000  0.630716  0.182787  1
  B  B21  1  0.500000  0.369284  0.817213  1
  B  B22  1  0.500000  0.130081  0.317589  1
  B  B23  1  0.500000  0.869919  0.682411  1
  B  B24  1  0.500000  0.984120  0.213766  1
  B  B25  1  0.500000  0.015880  0.786234  1
  B  B26  1  0.500000  0.483692  0.286024  1
  B  B27  1  0.500000  0.516308  0.713976  1
  B  B28  1  0.500000  0.596376  0.025332  1
  B  B29  1  0.500000  0.403624  0.974668  1
  B  B30  1  0.500000  0.095995  0.474278  1
  B  B31  1  0.500000  0.904005  0.525722  1
  Os  Os32  1  0.000000  0.641972  0.316971  1
  Os  Os33  1  0.000000  0.358028  0.683029  1
  Rh  Rh34  1  0.000000  0.141945  0.182558  1
  Rh  Rh35  1  0.000000  0.858055  0.817442  1
