# generated using pymatgen
data_Zr4Sn2(IrRh)5
_symmetry_space_group_name_H-M   'P 1'
_cell_length_a   5.69317744
_cell_length_b   5.70218890
_cell_length_c   8.24610500
_cell_angle_alpha   90.00000000
_cell_angle_beta   90.00000000
_cell_angle_gamma   96.23428421
_symmetry_Int_Tables_number   1
_chemical_formula_structural   Zr4Sn2(IrRh)5
_chemical_formula_sum   'Zr4 Sn2 Ir5 Rh5'
_cell_volume   266.11491087
_cell_formula_units_Z   1
loop_
 _symmetry_equiv_pos_site_id
 _symmetry_equiv_pos_as_xyz
  1  'x, y, z'
loop_
 _atom_site_type_symbol
 _atom_site_label
 _atom_site_symmetry_multiplicity
 _atom_site_fract_x
 _atom_site_fract_y
 _atom_site_fract_z
 _atom_site_occupancy
  Zr  Zr0  1  0.780679  0.219323  0.499910  1
  Zr  Zr1  1  0.219303  0.780676  0.000067  1
  Zr  Zr2  1  0.219303  0.780676  0.499933  1
  Zr  Zr3  1  0.780679  0.219323  0.000090  1
  Sn  Sn4  1  0.501655  0.501724  0.750000  1
  Sn  Sn5  1  0.498309  0.498355  0.250000  1
  Ir  Ir6  1  0.500022  0.000425  0.750000  1
  Ir  Ir7  1  0.500005  0.999548  0.250000  1
  Ir  Ir8  1  0.000281  0.000244  0.250000  1
  Ir  Ir9  1  0.999711  0.999735  0.750000  1
  Ir  Ir10  1  0.000422  0.499974  0.750000  1
  Rh  Rh11  1  0.730952  0.732297  0.000695  1
  Rh  Rh12  1  0.730952  0.732297  0.499305  1
  Rh  Rh13  1  0.269064  0.267709  0.999330  1
  Rh  Rh14  1  0.269064  0.267709  0.500670  1
  Rh  Rh15  1  0.999598  0.499984  0.250000  1
