# generated using pymatgen
data_NdDy3(AlRu)4
_symmetry_space_group_name_H-M   'P 1'
_cell_length_a   7.08481291
_cell_length_b   4.03098000
_cell_length_c   8.13487775
_cell_angle_alpha   90.00000000
_cell_angle_beta   89.81703418
_cell_angle_gamma   90.00000000
_symmetry_Int_Tables_number   1
_chemical_formula_structural   NdDy3(AlRu)4
_chemical_formula_sum   'Nd1 Dy3 Al4 Ru4'
_cell_volume   232.32066718
_cell_formula_units_Z   1
loop_
 _symmetry_equiv_pos_site_id
 _symmetry_equiv_pos_as_xyz
  1  'x, y, z'
loop_
 _atom_site_type_symbol
 _atom_site_label
 _atom_site_symmetry_multiplicity
 _atom_site_fract_x
 _atom_site_fract_y
 _atom_site_fract_z
 _atom_site_occupancy
  Nd  Nd0  1  0.530433  0.750000  0.680764  1
  Dy  Dy1  1  0.967742  0.250000  0.178090  1
  Dy  Dy2  1  0.468088  0.250000  0.318115  1
  Dy  Dy3  1  0.031876  0.750000  0.821151  1
  Al  Al4  1  0.865442  0.250000  0.556027  1
  Al  Al5  1  0.359656  0.250000  0.944410  1
  Al  Al6  1  0.135515  0.750000  0.439252  1
  Al  Al7  1  0.639280  0.750000  0.061688  1
  Ru  Ru8  1  0.733632  0.250000  0.878666  1
  Ru  Ru9  1  0.224743  0.250000  0.623786  1
  Ru  Ru10  1  0.271524  0.750000  0.126077  1
  Ru  Ru11  1  0.772070  0.750000  0.371972  1
