# generated using pymatgen
data_Ca4Pr8Ti3Ga16TcO48
_symmetry_space_group_name_H-M   'P 1'
_cell_length_a   10.91209144
_cell_length_b   10.95529374
_cell_length_c   10.95338900
_cell_angle_alpha   109.19578166
_cell_angle_beta   109.44171886
_cell_angle_gamma   109.43662022
_symmetry_Int_Tables_number   1
_chemical_formula_structural   Ca4Pr8Ti3Ga16TcO48
_chemical_formula_sum   'Ca4 Pr8 Ti3 Ga16 Tc1 O48'
_cell_volume   1012.19291043
_cell_formula_units_Z   1
loop_
 _symmetry_equiv_pos_site_id
 _symmetry_equiv_pos_as_xyz
  1  'x, y, z'
loop_
 _atom_site_type_symbol
 _atom_site_label
 _atom_site_symmetry_multiplicity
 _atom_site_fract_x
 _atom_site_fract_y
 _atom_site_fract_z
 _atom_site_occupancy
  Ca  Ca0  1  0.623091  0.239335  0.369887  1
  Ca  Ca1  1  0.871018  0.121792  0.245222  1
  Ca  Ca2  1  0.128987  0.878214  0.754787  1
  Ca  Ca3  1  0.376906  0.760661  0.630110  1
  Pr  Pr4  1  0.251448  0.627583  0.874482  1
  Pr  Pr5  1  0.626123  0.373242  0.748017  1
  Pr  Pr6  1  0.126209  0.248347  0.876630  1
  Pr  Pr7  1  0.250524  0.124530  0.372062  1
  Pr  Pr8  1  0.873791  0.751654  0.123369  1
  Pr  Pr9  1  0.749475  0.875469  0.627939  1
  Pr  Pr10  1  0.373876  0.626757  0.251980  1
  Pr  Pr11  1  0.748553  0.372417  0.125519  1
  Ti  Ti12  1  0.999999  0.999999  0.500000  1
  Ti  Ti13  1  0.500001  0.000000  0.000000  1
  Ti  Ti14  1  0.499999  0.499999  0.499998  1
  Ga  Ga15  1  0.879942  0.634425  0.755195  1
  Ga  Ga16  1  0.622052  0.749873  0.870851  1
  Ga  Ga17  1  0.870894  0.252419  0.625106  1
  Ga  Ga18  1  0.250410  0.873446  0.127676  1
  Ga  Ga19  1  0.250468  0.373016  0.627521  1
  Ga  Ga20  1  0.500001  0.500000  0.000000  1
  Ga  Ga21  1  0.000000  0.000000  0.000000  1
  Ga  Ga22  1  0.626877  0.876794  0.249369  1
  Ga  Ga23  1  0.373123  0.123207  0.750632  1
  Ga  Ga24  1  0.500000  0.000000  0.500000  1
  Ga  Ga25  1  0.749591  0.126554  0.872325  1
  Ga  Ga26  1  0.749532  0.626983  0.372478  1
  Ga  Ga27  1  0.129106  0.747581  0.374893  1
  Ga  Ga28  1  0.000000  0.500000  0.000000  1
  Ga  Ga29  1  0.377947  0.250128  0.129148  1
  Ga  Ga30  1  0.120058  0.365576  0.244806  1
  Tc  Tc31  1  0.000001  0.500000  0.500001  1
  O  O32  1  0.305658  0.885026  0.984867  1
  O  O33  1  0.425410  0.303219  0.327768  1
  O  O34  1  0.680450  0.491595  0.603496  1
  O  O35  1  0.025869  0.623019  0.704093  1
  O  O36  1  0.476965  0.802042  0.881127  1
  O  O37  1  0.201518  0.518570  0.617506  1
  O  O38  1  0.879340  0.298694  0.477437  1
  O  O39  1  0.021250  0.402446  0.820700  1
  O  O40  1  0.675047  0.202378  0.580724  1
  O  O41  1  0.401854  0.019106  0.321429  1
  O  O42  1  0.617208  0.017653  0.193048  1
  O  O43  1  0.616021  0.595848  0.914623  1
  O  O44  1  0.078549  0.172864  0.201228  1
  O  O45  1  0.404172  0.383613  0.581861  1
  O  O46  1  0.299469  0.417694  0.822891  1
  O  O47  1  0.101044  0.176963  0.485111  1
  O  O48  1  0.882648  0.584071  0.903846  1
  O  O49  1  0.817728  0.900015  0.015384  1
  O  O50  1  0.918075  0.097556  0.615043  1
  O  O51  1  0.200823  0.676463  0.081024  1
  O  O52  1  0.585942  0.881784  0.403569  1
  O  O53  1  0.825941  0.921439  0.302743  1
  O  O54  1  0.520858  0.320232  0.902693  1
  O  O55  1  0.095470  0.914925  0.119397  1
  O  O56  1  0.904532  0.085076  0.880603  1
  O  O57  1  0.479142  0.679769  0.097306  1
  O  O58  1  0.174059  0.078561  0.697259  1
  O  O59  1  0.414059  0.118216  0.596432  1
  O  O60  1  0.799177  0.323537  0.918977  1
  O  O61  1  0.081925  0.902445  0.384957  1
  O  O62  1  0.182273  0.099985  0.984615  1
  O  O63  1  0.117352  0.415929  0.096155  1
  O  O64  1  0.898954  0.823037  0.514889  1
  O  O65  1  0.700533  0.582305  0.177109  1
  O  O66  1  0.595826  0.616385  0.418136  1
  O  O67  1  0.921450  0.827135  0.798772  1
  O  O68  1  0.383980  0.404153  0.085378  1
  O  O69  1  0.382793  0.982348  0.806951  1
  O  O70  1  0.598148  0.980895  0.678571  1
  O  O71  1  0.324952  0.797622  0.419275  1
  O  O72  1  0.978749  0.597553  0.179299  1
  O  O73  1  0.120657  0.701307  0.522562  1
  O  O74  1  0.798481  0.481430  0.382494  1
  O  O75  1  0.523035  0.197958  0.118872  1
  O  O76  1  0.974130  0.376979  0.295908  1
  O  O77  1  0.319549  0.508405  0.396503  1
  O  O78  1  0.574589  0.696779  0.672232  1
  O  O79  1  0.694342  0.114973  0.015134  1
