# generated using pymatgen
data_Hf4Zr2PaPt10
_symmetry_space_group_name_H-M   'P 1'
_cell_length_a   8.24870824
_cell_length_b   8.24870915
_cell_length_c   9.72891792
_cell_angle_alpha   90.12618422
_cell_angle_beta   90.12618584
_cell_angle_gamma   107.52594269
_symmetry_Int_Tables_number   1
_chemical_formula_structural   Hf4Zr2PaPt10
_chemical_formula_sum   'Hf8 Zr4 Pa2 Pt20'
_cell_volume   631.23476587
_cell_formula_units_Z   2
loop_
 _symmetry_equiv_pos_site_id
 _symmetry_equiv_pos_as_xyz
  1  'x, y, z'
loop_
 _atom_site_type_symbol
 _atom_site_label
 _atom_site_symmetry_multiplicity
 _atom_site_fract_x
 _atom_site_fract_y
 _atom_site_fract_z
 _atom_site_occupancy
  Hf  Hf0  1  0.810675  0.189325  0.500000  1
  Hf  Hf1  1  0.189325  0.810675  0.500000  1
  Hf  Hf2  1  0.000000  0.000000  0.000000  1
  Hf  Hf3  1  0.500000  0.500000  0.500000  1
  Hf  Hf4  1  0.001679  0.501780  0.255787  1
  Hf  Hf5  1  0.998321  0.498220  0.744213  1
  Hf  Hf6  1  0.498220  0.998321  0.744213  1
  Hf  Hf7  1  0.501780  0.001679  0.255787  1
  Zr  Zr8  1  0.310922  0.310922  0.190869  1
  Zr  Zr9  1  0.689078  0.689078  0.809131  1
  Zr  Zr10  1  0.183271  0.183271  0.682129  1
  Zr  Zr11  1  0.816729  0.816729  0.317871  1
  Pa  Pa12  1  0.690109  0.309891  0.000000  1
  Pa  Pa13  1  0.309891  0.690109  0.000000  1
  Pt  Pt14  1  0.852896  0.143247  0.210795  1
  Pt  Pt15  1  0.147104  0.856753  0.789205  1
  Pt  Pt16  1  0.647856  0.353653  0.705600  1
  Pt  Pt17  1  0.646347  0.352144  0.294400  1
  Pt  Pt18  1  0.352144  0.646347  0.294400  1
  Pt  Pt19  1  0.353653  0.647856  0.705600  1
  Pt  Pt20  1  0.856753  0.147104  0.789205  1
  Pt  Pt21  1  0.143247  0.852896  0.210795  1
  Pt  Pt22  1  0.937791  0.647431  0.998537  1
  Pt  Pt23  1  0.062209  0.352569  0.001463  1
  Pt  Pt24  1  0.562756  0.854604  0.499183  1
  Pt  Pt25  1  0.145396  0.437244  0.500817  1
  Pt  Pt26  1  0.437244  0.145396  0.500817  1
  Pt  Pt27  1  0.854604  0.562756  0.499183  1
  Pt  Pt28  1  0.352569  0.062209  0.001463  1
  Pt  Pt29  1  0.647431  0.937791  0.998537  1
  Pt  Pt30  1  0.106445  0.106445  0.396089  1
  Pt  Pt31  1  0.893555  0.893555  0.603911  1
  Pt  Pt32  1  0.392894  0.392894  0.890974  1
  Pt  Pt33  1  0.607106  0.607106  0.109026  1
