# generated using pymatgen
data_LiV5(SnRu2)6
_symmetry_space_group_name_H-M   'P 1'
_cell_length_a   4.38836500
_cell_length_b   6.23350300
_cell_length_c   13.15115700
_cell_angle_alpha   90.00120410
_cell_angle_beta   90.00024807
_cell_angle_gamma   90.00001838
_symmetry_Int_Tables_number   1
_chemical_formula_structural   LiV5(SnRu2)6
_chemical_formula_sum   'Li1 V5 Sn6 Ru12'
_cell_volume   359.74840567
_cell_formula_units_Z   1
loop_
 _symmetry_equiv_pos_site_id
 _symmetry_equiv_pos_as_xyz
  1  'x, y, z'
loop_
 _atom_site_type_symbol
 _atom_site_label
 _atom_site_symmetry_multiplicity
 _atom_site_fract_x
 _atom_site_fract_y
 _atom_site_fract_z
 _atom_site_occupancy
  Li  Li0  1  0.000007  0.999994  0.000048  1
  V  V1  1  0.500016  0.499996  0.162825  1
  V  V2  1  0.000059  0.000005  0.328640  1
  V  V3  1  0.499977  0.500028  0.499968  1
  V  V4  1  0.999975  0.999995  0.671476  1
  V  V5  1  0.499998  0.499978  0.837138  1
  Sn  Sn6  1  0.000000  0.500017  0.000071  1
  Sn  Sn7  1  0.499993  0.999998  0.160741  1
  Sn  Sn8  1  0.000050  0.499995  0.334850  1
  Sn  Sn9  1  0.499993  0.000027  0.500022  1
  Sn  Sn10  1  0.999987  0.500000  0.665060  1
  Sn  Sn11  1  0.499986  0.999981  0.839277  1
  Ru  Ru12  1  0.499998  0.261825  0.000039  1
  Ru  Ru13  1  0.500002  0.738164  0.000041  1
  Ru  Ru14  1  0.999999  0.254257  0.171428  1
  Ru  Ru15  1  0.999986  0.745738  0.171430  1
  Ru  Ru16  1  0.500032  0.247187  0.333300  1
  Ru  Ru17  1  0.500019  0.752821  0.333302  1
  Ru  Ru18  1  0.999988  0.248313  0.499947  1
  Ru  Ru19  1  0.999992  0.751698  0.499946  1
  Ru  Ru20  1  0.499985  0.247034  0.666645  1
  Ru  Ru21  1  0.499987  0.752965  0.666634  1
  Ru  Ru22  1  0.999991  0.254404  0.828586  1
  Ru  Ru23  1  0.999982  0.745588  0.828588  1
