# generated using pymatgen
data_Th2Co17Si8Os
_symmetry_space_group_name_H-M   'P 1'
_cell_length_a   7.94198799
_cell_length_b   7.99768182
_cell_length_c   7.96783632
_cell_angle_alpha   121.81078581
_cell_angle_beta   121.58734151
_cell_angle_gamma   87.09672842
_symmetry_Int_Tables_number   1
_chemical_formula_structural   Th2Co17Si8Os
_chemical_formula_sum   'Th2 Co17 Si8 Os1'
_cell_volume   348.13756889
_cell_formula_units_Z   1
loop_
 _symmetry_equiv_pos_site_id
 _symmetry_equiv_pos_as_xyz
  1  'x, y, z'
loop_
 _atom_site_type_symbol
 _atom_site_label
 _atom_site_symmetry_multiplicity
 _atom_site_fract_x
 _atom_site_fract_y
 _atom_site_fract_z
 _atom_site_occupancy
  Th  Th0  1  0.749779  0.749874  0.000196  1
  Th  Th1  1  0.249583  0.249678  0.999804  1
  Co  Co2  1  0.448241  0.950189  0.761668  1
  Co  Co3  1  0.186573  0.688520  0.238332  1
  Co  Co4  1  0.547532  0.042390  0.232709  1
  Co  Co5  1  0.947050  0.189305  0.500000  1
  Co  Co6  1  0.198031  0.928853  0.128854  1
  Co  Co7  1  0.800258  0.068908  0.869482  1
  Co  Co8  1  0.430777  0.699426  0.130518  1
  Co  Co9  1  0.569178  0.300000  0.871146  1
  Co  Co10  1  0.702787  0.573892  0.265840  1
  Co  Co11  1  0.299234  0.429728  0.731050  1
  Co  Co12  1  0.936946  0.808051  0.734160  1
  Co  Co13  1  0.314009  0.548875  0.500000  1
  Co  Co14  1  0.814823  0.309682  0.767291  1
  Co  Co15  1  0.002550  0.502302  0.500000  1
  Co  Co16  1  0.499694  0.001003  0.500000  1
  Co  Co17  1  0.068185  0.198679  0.268950  1
  Co  Co18  1  0.051003  0.814799  0.500000  1
  Si  Si19  1  0.288943  0.787051  0.834143  1
  Si  Si20  1  0.054991  0.547338  0.841663  1
  Si  Si21  1  0.542555  0.718418  0.500000  1
  Si  Si22  1  0.788675  0.953075  0.500000  1
  Si  Si23  1  0.443210  0.282794  0.500000  1
  Si  Si24  1  0.954799  0.452907  0.165857  1
  Si  Si25  1  0.713328  0.205675  0.158337  1
  Si  Si26  1  0.210523  0.048495  0.500000  1
  Os  Os27  1  0.686744  0.450095  0.500000  1
