# generated using pymatgen
data_YbS27
_symmetry_space_group_name_H-M   'P 1'
_cell_length_a   15.13391029
_cell_length_b   15.13391050
_cell_length_c   15.13390814
_cell_angle_alpha   118.89396585
_cell_angle_beta   118.89397257
_cell_angle_gamma   118.89396603
_symmetry_Int_Tables_number   1
_chemical_formula_structural   YbS27
_chemical_formula_sum   'Yb1 S27'
_cell_volume   942.64101709
_cell_formula_units_Z   1
loop_
 _symmetry_equiv_pos_site_id
 _symmetry_equiv_pos_as_xyz
  1  'x, y, z'
loop_
 _atom_site_type_symbol
 _atom_site_label
 _atom_site_symmetry_multiplicity
 _atom_site_fract_x
 _atom_site_fract_y
 _atom_site_fract_z
 _atom_site_occupancy
  Yb  Yb0  1  0.545114  0.545114  0.545114  1
  S  S1  1  0.798002  0.522496  0.522496  1
  S  S2  1  0.522496  0.522496  0.798002  1
  S  S3  1  0.522496  0.798002  0.522496  1
  S  S4  1  0.235025  0.364335  0.619523  1
  S  S5  1  0.376573  0.969918  0.376573  1
  S  S6  1  0.376573  0.376573  0.969918  1
  S  S7  1  0.969918  0.376573  0.376573  1
  S  S8  1  0.132690  0.740305  0.261027  1
  S  S9  1  0.261027  0.132690  0.740305  1
  S  S10  1  0.740305  0.261027  0.132690  1
  S  S11  1  0.740305  0.132690  0.261027  1
  S  S12  1  0.261027  0.740305  0.132690  1
  S  S13  1  0.132690  0.261027  0.740305  1
  S  S14  1  0.360027  0.885156  0.541418  1
  S  S15  1  0.541418  0.360027  0.885156  1
  S  S16  1  0.885156  0.541418  0.360027  1
  S  S17  1  0.885156  0.360027  0.541418  1
  S  S18  1  0.541418  0.885156  0.360027  1
  S  S19  1  0.360027  0.541418  0.885156  1
  S  S20  1  0.235025  0.619523  0.364335  1
  S  S21  1  0.364335  0.235025  0.619523  1
  S  S22  1  0.619523  0.364335  0.235025  1
  S  S23  1  0.619523  0.235025  0.364335  1
  S  S24  1  0.364335  0.619523  0.235025  1
  S  S25  1  0.981713  0.076700  0.076700  1
  S  S26  1  0.076700  0.076700  0.981713  1
  S  S27  1  0.076700  0.981713  0.076700  1
