# generated using pymatgen
data_Y8Ga(Pd7Pt5)2
_symmetry_space_group_name_H-M   'P 1'
_cell_length_a   8.36839400
_cell_length_b   8.36746700
_cell_length_c   8.36746700
_cell_angle_alpha   90.00000000
_cell_angle_beta   90.00000000
_cell_angle_gamma   90.00000000
_symmetry_Int_Tables_number   1
_chemical_formula_structural   Y8Ga(Pd7Pt5)2
_chemical_formula_sum   'Y8 Ga1 Pd14 Pt10'
_cell_volume   585.90895515
_cell_formula_units_Z   1
loop_
 _symmetry_equiv_pos_site_id
 _symmetry_equiv_pos_as_xyz
  1  'x, y, z'
loop_
 _atom_site_type_symbol
 _atom_site_label
 _atom_site_symmetry_multiplicity
 _atom_site_fract_x
 _atom_site_fract_y
 _atom_site_fract_z
 _atom_site_occupancy
  Y  Y0  1  0.251549  0.251569  0.748431  1
  Y  Y1  1  0.251549  0.748431  0.251569  1
  Y  Y2  1  0.748457  0.251729  0.251729  1
  Y  Y3  1  0.748457  0.748271  0.748271  1
  Y  Y4  1  0.748457  0.748271  0.251729  1
  Y  Y5  1  0.748457  0.251729  0.748271  1
  Y  Y6  1  0.251549  0.748431  0.748431  1
  Y  Y7  1  0.251549  0.251569  0.251569  1
  Ga  Ga8  1  0.000262  0.000000  0.000000  1
  Pd  Pd9  1  0.500019  0.500000  0.746929  1
  Pd  Pd10  1  0.500019  0.253071  0.500000  1
  Pd  Pd11  1  0.253296  0.500000  0.500000  1
  Pd  Pd12  1  0.500019  0.500000  0.253071  1
  Pd  Pd13  1  0.500019  0.746929  0.500000  1
  Pd  Pd14  1  0.746858  0.500000  0.500000  1
  Pd  Pd15  1  0.999852  0.000000  0.707257  1
  Pd  Pd16  1  0.999852  0.292743  0.000000  1
  Pd  Pd17  1  0.292298  0.000000  0.000000  1
  Pd  Pd18  1  0.999852  0.000000  0.292743  1
  Pd  Pd19  1  0.999852  0.707257  0.000000  1
  Pd  Pd20  1  0.707433  0.000000  0.000000  1
  Pd  Pd21  1  0.739667  0.000000  0.500000  1
  Pd  Pd22  1  0.739667  0.500000  0.000000  1
  Pt  Pt23  1  0.000016  0.500000  0.739639  1
  Pt  Pt24  1  0.499995  0.260529  0.000000  1
  Pt  Pt25  1  0.260484  0.000000  0.500000  1
  Pt  Pt26  1  0.000016  0.260361  0.500000  1
  Pt  Pt27  1  0.499995  0.000000  0.739471  1
  Pt  Pt28  1  0.260484  0.500000  0.000000  1
  Pt  Pt29  1  0.000016  0.500000  0.260361  1
  Pt  Pt30  1  0.499995  0.739471  0.000000  1
  Pt  Pt31  1  0.000016  0.739639  0.500000  1
  Pt  Pt32  1  0.499995  0.000000  0.260529  1
