# generated using pymatgen
data_TbFe2GeP
_symmetry_space_group_name_H-M   'P 1'
_cell_length_a   5.60661029
_cell_length_b   5.60661061
_cell_length_c   5.60661038
_cell_angle_alpha   139.06447095
_cell_angle_beta   139.06447969
_cell_angle_gamma   59.27655882
_symmetry_Int_Tables_number   1
_chemical_formula_structural   TbFe2GeP
_chemical_formula_sum   'Tb1 Fe2 Ge1 P1'
_cell_volume   74.92134601
_cell_formula_units_Z   1
loop_
 _symmetry_equiv_pos_site_id
 _symmetry_equiv_pos_as_xyz
  1  'x, y, z'
loop_
 _atom_site_type_symbol
 _atom_site_label
 _atom_site_symmetry_multiplicity
 _atom_site_fract_x
 _atom_site_fract_y
 _atom_site_fract_z
 _atom_site_occupancy
  Tb  Tb0  1  0.003363  0.003363  0.000000  1
  Fe  Fe1  1  0.741976  0.241976  0.500000  1
  Fe  Fe2  1  0.241976  0.741976  0.500000  1
  Ge  Ge3  1  0.373237  0.373237  0.000000  1
  P  P4  1  0.639447  0.639447  0.000000  1
