# generated using pymatgen
data_CaLa2Pr2Ir3
_symmetry_space_group_name_H-M   'P 1'
_cell_length_a   11.39696700
_cell_length_b   11.39696700
_cell_length_c   6.53449700
_cell_angle_alpha   90.00000000
_cell_angle_beta   90.00000000
_cell_angle_gamma   90.00000000
_symmetry_Int_Tables_number   1
_chemical_formula_structural   CaLa2Pr2Ir3
_chemical_formula_sum   'Ca4 La8 Pr8 Ir12'
_cell_volume   848.77141408
_cell_formula_units_Z   4
loop_
 _symmetry_equiv_pos_site_id
 _symmetry_equiv_pos_as_xyz
  1  'x, y, z'
loop_
 _atom_site_type_symbol
 _atom_site_label
 _atom_site_symmetry_multiplicity
 _atom_site_fract_x
 _atom_site_fract_y
 _atom_site_fract_z
 _atom_site_occupancy
  Ca  Ca0  1  0.000000  0.000000  0.500089  1
  Ca  Ca1  1  0.000000  0.000000  0.000089  1
  Ca  Ca2  1  0.500000  0.500000  0.000089  1
  Ca  Ca3  1  0.500000  0.500000  0.500089  1
  La  La4  1  0.211583  0.408878  0.609874  1
  La  La5  1  0.211583  0.591122  0.109874  1
  La  La6  1  0.788417  0.408878  0.109874  1
  La  La7  1  0.788417  0.591122  0.609874  1
  La  La8  1  0.908878  0.711583  0.109874  1
  La  La9  1  0.908878  0.288417  0.609874  1
  La  La10  1  0.091122  0.711583  0.609874  1
  La  La11  1  0.091122  0.288417  0.109874  1
  Pr  Pr12  1  0.290452  0.088812  0.387901  1
  Pr  Pr13  1  0.290452  0.911188  0.887901  1
  Pr  Pr14  1  0.709548  0.088812  0.887901  1
  Pr  Pr15  1  0.709548  0.911188  0.387901  1
  Pr  Pr16  1  0.588812  0.790452  0.887901  1
  Pr  Pr17  1  0.588812  0.209548  0.387901  1
  Pr  Pr18  1  0.411188  0.790452  0.387901  1
  Pr  Pr19  1  0.411188  0.209548  0.887901  1
  Ir  Ir20  1  0.842819  0.158884  0.252277  1
  Ir  Ir21  1  0.842819  0.841116  0.752277  1
  Ir  Ir22  1  0.157181  0.158884  0.752277  1
  Ir  Ir23  1  0.157181  0.841116  0.252277  1
  Ir  Ir24  1  0.658884  0.342819  0.752277  1
  Ir  Ir25  1  0.658884  0.657181  0.252277  1
  Ir  Ir26  1  0.341116  0.342819  0.252277  1
  Ir  Ir27  1  0.341116  0.657181  0.752277  1
  Ir  Ir28  1  0.500000  0.000000  0.114474  1
  Ir  Ir29  1  0.500000  0.000000  0.614474  1
  Ir  Ir30  1  0.000000  0.500000  0.885136  1
  Ir  Ir31  1  0.000000  0.500000  0.385136  1
