# generated using pymatgen
data_Cd4Ga6SO16
_symmetry_space_group_name_H-M   'P 1'
_cell_length_a   8.23151824
_cell_length_b   8.23151713
_cell_length_c   8.23151626
_cell_angle_alpha   109.61831343
_cell_angle_beta   109.61830993
_cell_angle_gamma   109.17743196
_symmetry_Int_Tables_number   1
_chemical_formula_structural   Cd4Ga6SO16
_chemical_formula_sum   'Cd4 Ga6 S1 O16'
_cell_volume   429.34780937
_cell_formula_units_Z   1
loop_
 _symmetry_equiv_pos_site_id
 _symmetry_equiv_pos_as_xyz
  1  'x, y, z'
loop_
 _atom_site_type_symbol
 _atom_site_label
 _atom_site_symmetry_multiplicity
 _atom_site_fract_x
 _atom_site_fract_y
 _atom_site_fract_z
 _atom_site_occupancy
  Cd  Cd0  1  0.411841  0.004203  0.008136  1
  Cd  Cd1  1  0.995797  0.003933  0.407638  1
  Cd  Cd2  1  0.996067  0.403705  0.991864  1
  Cd  Cd3  1  0.596295  0.588159  0.592362  1
  Ga  Ga4  1  0.503611  0.749209  0.255178  1
  Ga  Ga5  1  0.250000  0.750000  0.500000  1
  Ga  Ga6  1  0.751566  0.496389  0.245597  1
  Ga  Ga7  1  0.750000  0.250000  0.500000  1
  Ga  Ga8  1  0.494031  0.248434  0.744822  1
  Ga  Ga9  1  0.250791  0.505969  0.754403  1
  S  S10  1  0.000000  0.000000  0.000000  1
  O  O11  1  0.577795  0.997631  0.278938  1
  O  O12  1  0.293590  0.730899  0.728613  1
  O  O13  1  0.569245  0.272101  0.994666  1
  O  O14  1  0.269101  0.997715  0.562692  1
  O  O15  1  0.002369  0.281307  0.580163  1
  O  O16  1  0.727899  0.722566  0.297146  1
  O  O17  1  0.718693  0.298857  0.721062  1
  O  O18  1  0.002285  0.564976  0.271387  1
  O  O19  1  0.277434  0.574580  0.005334  1
  O  O20  1  0.435024  0.706410  0.437308  1
  O  O21  1  0.701143  0.422205  0.419837  1
  O  O22  1  0.425420  0.430755  0.702854  1
  O  O23  1  0.920977  0.041104  0.138849  1
  O  O24  1  0.958896  0.097746  0.879872  1
  O  O25  1  0.902254  0.782126  0.861151  1
  O  O26  1  0.217874  0.079023  0.120128  1
