# generated using pymatgen
data_La7Tb(NdPt)6
_symmetry_space_group_name_H-M   'P 1'
_cell_length_a   6.56464400
_cell_length_b   10.25100297
_cell_length_c   10.25123000
_cell_angle_alpha   119.99254285
_cell_angle_beta   89.99782674
_cell_angle_gamma   90.00220424
_symmetry_Int_Tables_number   1
_chemical_formula_structural   La7Tb(NdPt)6
_chemical_formula_sum   'La7 Tb1 Nd6 Pt6'
_cell_volume   597.47092672
_cell_formula_units_Z   1
loop_
 _symmetry_equiv_pos_site_id
 _symmetry_equiv_pos_as_xyz
  1  'x, y, z'
loop_
 _atom_site_type_symbol
 _atom_site_label
 _atom_site_symmetry_multiplicity
 _atom_site_fract_x
 _atom_site_fract_y
 _atom_site_fract_z
 _atom_site_occupancy
  La  La0  1  0.960130  0.666735  0.333241  1
  La  La1  1  0.246449  0.130123  0.869922  1
  La  La2  1  0.246490  0.739662  0.869903  1
  La  La3  1  0.246482  0.130098  0.260289  1
  La  La4  1  0.743345  0.871310  0.128543  1
  La  La5  1  0.743394  0.257414  0.128723  1
  La  La6  1  0.743396  0.871211  0.742646  1
  Tb  Tb7  1  0.468502  0.333308  0.666663  1
  Nd  Nd8  1  0.439985  0.537180  0.462823  1
  Nd  Nd9  1  0.440019  0.925768  0.462855  1
  Nd  Nd10  1  0.440032  0.537161  0.074266  1
  Nd  Nd11  1  0.942731  0.460567  0.539437  1
  Nd  Nd12  1  0.942788  0.078800  0.539470  1
  Nd  Nd13  1  0.942808  0.460523  0.921213  1
  Pt  Pt14  1  0.191274  0.811644  0.188505  1
  Pt  Pt15  1  0.191311  0.376925  0.188400  1
  Pt  Pt16  1  0.191318  0.811667  0.623051  1
  Pt  Pt17  1  0.688431  0.190381  0.809578  1
  Pt  Pt18  1  0.688554  0.619106  0.809565  1
  Pt  Pt19  1  0.688561  0.190418  0.380903  1
