# generated using pymatgen
data_Nd2Dy3Sc5(Si5Ir2)4
_symmetry_space_group_name_H-M   'P 1'
_cell_length_a   12.50638355
_cell_length_b   12.58381524
_cell_length_c   4.19773200
_cell_angle_alpha   90.00000000
_cell_angle_beta   90.00000000
_cell_angle_gamma   90.19625089
_symmetry_Int_Tables_number   1
_chemical_formula_structural   Nd2Dy3Sc5(Si5Ir2)4
_chemical_formula_sum   'Nd2 Dy3 Sc5 Si20 Ir8'
_cell_volume   660.62687525
_cell_formula_units_Z   1
loop_
 _symmetry_equiv_pos_site_id
 _symmetry_equiv_pos_as_xyz
  1  'x, y, z'
loop_
 _atom_site_type_symbol
 _atom_site_label
 _atom_site_symmetry_multiplicity
 _atom_site_fract_x
 _atom_site_fract_y
 _atom_site_fract_z
 _atom_site_occupancy
  Nd  Nd0  1  0.883956  0.383827  0.500000  1
  Nd  Nd1  1  0.116044  0.616173  0.500000  1
  Dy  Dy2  1  0.000000  0.000000  0.000000  1
  Dy  Dy3  1  0.385571  0.117245  0.500000  1
  Dy  Dy4  1  0.614429  0.882755  0.500000  1
  Sc  Sc5  1  0.500000  0.500000  0.000000  1
  Sc  Sc6  1  0.672700  0.174363  0.500000  1
  Sc  Sc7  1  0.327300  0.825637  0.500000  1
  Sc  Sc8  1  0.176244  0.325898  0.500000  1
  Sc  Sc9  1  0.823756  0.674102  0.500000  1
  Si  Si10  1  0.565495  0.068307  0.000000  1
  Si  Si11  1  0.434505  0.931693  0.000000  1
  Si  Si12  1  0.068601  0.432132  0.000000  1
  Si  Si13  1  0.931399  0.567868  0.000000  1
  Si  Si14  1  0.664408  0.700808  0.000000  1
  Si  Si15  1  0.335592  0.299192  0.000000  1
  Si  Si16  1  0.165486  0.800505  0.000000  1
  Si  Si17  1  0.834514  0.199495  0.000000  1
  Si  Si18  1  0.302358  0.665626  0.000000  1
  Si  Si19  1  0.697642  0.334374  0.000000  1
  Si  Si20  1  0.200013  0.165204  0.000000  1
  Si  Si21  1  0.799987  0.834796  0.000000  1
  Si  Si22  1  0.649367  0.507248  0.500000  1
  Si  Si23  1  0.350633  0.492752  0.500000  1
  Si  Si24  1  0.157471  0.994060  0.500000  1
  Si  Si25  1  0.842529  0.005940  0.500000  1
  Si  Si26  1  0.492822  0.651876  0.500000  1
  Si  Si27  1  0.507178  0.348124  0.500000  1
  Si  Si28  1  0.007641  0.156800  0.500000  1
  Si  Si29  1  0.992359  0.843200  0.500000  1
  Ir  Ir30  1  0.741162  0.522151  0.000000  1
  Ir  Ir31  1  0.258838  0.477849  0.000000  1
  Ir  Ir32  1  0.247682  0.979002  0.000000  1
  Ir  Ir33  1  0.752318  0.020998  0.000000  1
  Ir  Ir34  1  0.478836  0.744476  0.000000  1
  Ir  Ir35  1  0.521164  0.255524  0.000000  1
  Ir  Ir36  1  0.023332  0.244880  0.000000  1
  Ir  Ir37  1  0.976668  0.755120  0.000000  1
