# generated using pymatgen
data_Tb16Cd4Os3Pt
_symmetry_space_group_name_H-M   'P 1'
_cell_length_a   9.64095935
_cell_length_b   9.77019156
_cell_length_c   9.77019300
_cell_angle_alpha   59.99999852
_cell_angle_beta   59.55558175
_cell_angle_gamma   59.55558318
_symmetry_Int_Tables_number   1
_chemical_formula_structural   Tb16Cd4Os3Pt
_chemical_formula_sum   'Tb16 Cd4 Os3 Pt1'
_cell_volume   646.34033192
_cell_formula_units_Z   1
loop_
 _symmetry_equiv_pos_site_id
 _symmetry_equiv_pos_as_xyz
  1  'x, y, z'
loop_
 _atom_site_type_symbol
 _atom_site_label
 _atom_site_symmetry_multiplicity
 _atom_site_fract_x
 _atom_site_fract_y
 _atom_site_fract_z
 _atom_site_occupancy
  Tb  Tb0  1  0.345351  0.350630  0.350630  1
  Tb  Tb1  1  0.345351  0.350630  0.953388  1
  Tb  Tb2  1  0.345351  0.953388  0.350630  1
  Tb  Tb3  1  0.968593  0.343802  0.343802  1
  Tb  Tb4  1  0.814884  0.189690  0.189690  1
  Tb  Tb5  1  0.187050  0.810598  0.810598  1
  Tb  Tb6  1  0.187050  0.810598  0.191754  1
  Tb  Tb7  1  0.814884  0.189690  0.805737  1
  Tb  Tb8  1  0.187050  0.191754  0.810598  1
  Tb  Tb9  1  0.814884  0.805737  0.189690  1
  Tb  Tb10  1  0.934796  0.562859  0.562859  1
  Tb  Tb11  1  0.555474  0.939171  0.939171  1
  Tb  Tb12  1  0.555474  0.939171  0.566185  1
  Tb  Tb13  1  0.934796  0.562859  0.939486  1
  Tb  Tb14  1  0.555474  0.566185  0.939171  1
  Tb  Tb15  1  0.934796  0.939486  0.562859  1
  Cd  Cd16  1  0.580530  0.579212  0.579212  1
  Cd  Cd17  1  0.580530  0.579212  0.261046  1
  Cd  Cd18  1  0.580530  0.261046  0.579212  1
  Cd  Cd19  1  0.256929  0.581023  0.581023  1
  Os  Os20  1  0.148120  0.136376  0.136376  1
  Os  Os21  1  0.148120  0.136376  0.579129  1
  Os  Os22  1  0.148120  0.579129  0.136376  1
  Pt  Pt23  1  0.575865  0.141379  0.141379  1
