# generated using pymatgen
data_Li4EuN2
_symmetry_space_group_name_H-M   'P 1'
_cell_length_a   3.80131168
_cell_length_b   3.80131261
_cell_length_c   13.39794078
_cell_angle_alpha   98.15559492
_cell_angle_beta   98.15559560
_cell_angle_gamma   89.99998811
_symmetry_Int_Tables_number   1
_chemical_formula_structural   Li4EuN2
_chemical_formula_sum   'Li8 Eu2 N4'
_cell_volume   189.66372926
_cell_formula_units_Z   2
loop_
 _symmetry_equiv_pos_site_id
 _symmetry_equiv_pos_as_xyz
  1  'x, y, z'
loop_
 _atom_site_type_symbol
 _atom_site_label
 _atom_site_symmetry_multiplicity
 _atom_site_fract_x
 _atom_site_fract_y
 _atom_site_fract_z
 _atom_site_occupancy
  Li  Li0  1  0.021103  0.771105  0.042207  1
  Li  Li1  1  0.555149  0.305150  0.110301  1
  Li  Li2  1  0.694849  0.444849  0.389700  1
  Li  Li3  1  0.228897  0.978898  0.457794  1
  Li  Li4  1  0.771102  0.021104  0.542207  1
  Li  Li5  1  0.305150  0.555150  0.610301  1
  Li  Li6  1  0.444850  0.694849  0.889700  1
  Li  Li7  1  0.978896  0.228897  0.957793  1
  Eu  Eu8  1  0.125000  0.875001  0.250000  1
  Eu  Eu9  1  0.874999  0.125000  0.750000  1
  N  N10  1  0.059481  0.309480  0.118962  1
  N  N11  1  0.690518  0.940521  0.381039  1
  N  N12  1  0.309481  0.059481  0.618961  1
  N  N13  1  0.940518  0.690519  0.881039  1
