# generated using pymatgen
data_YbLuZr2(Al3Ir)6
_symmetry_space_group_name_H-M   'P 1'
_cell_length_a   7.51614700
_cell_length_b   7.50794596
_cell_length_c   9.35365500
_cell_angle_alpha   90.00000000
_cell_angle_beta   90.00000000
_cell_angle_gamma   119.67302005
_symmetry_Int_Tables_number   1
_chemical_formula_structural   YbLuZr2(Al3Ir)6
_chemical_formula_sum   'Yb1 Lu1 Zr2 Al18 Ir6'
_cell_volume   458.61675403
_cell_formula_units_Z   1
loop_
 _symmetry_equiv_pos_site_id
 _symmetry_equiv_pos_as_xyz
  1  'x, y, z'
loop_
 _atom_site_type_symbol
 _atom_site_label
 _atom_site_symmetry_multiplicity
 _atom_site_fract_x
 _atom_site_fract_y
 _atom_site_fract_z
 _atom_site_occupancy
  Yb  Yb0  1  0.670805  0.993954  0.250000  1
  Lu  Lu1  1  0.330414  0.006308  0.750000  1
  Zr  Zr2  1  0.995100  0.671716  0.250000  1
  Zr  Zr3  1  0.004878  0.326558  0.750000  1
  Al  Al4  1  0.127243  0.124273  0.250000  1
  Al  Al5  1  0.873724  0.875156  0.750000  1
  Al  Al6  1  0.999123  0.336296  0.075214  1
  Al  Al7  1  0.000376  0.663713  0.924313  1
  Al  Al8  1  0.000376  0.663713  0.575687  1
  Al  Al9  1  0.333626  0.998674  0.422190  1
  Al  Al10  1  0.999123  0.336296  0.424786  1
  Al  Al11  1  0.666322  0.000521  0.577302  1
  Al  Al12  1  0.666322  0.000521  0.922698  1
  Al  Al13  1  0.333626  0.998674  0.077810  1
  Al  Al14  1  0.331461  0.333200  0.556382  1
  Al  Al15  1  0.668785  0.667454  0.444236  1
  Al  Al16  1  0.668785  0.667454  0.055764  1
  Al  Al17  1  0.331461  0.333200  0.943618  1
  Al  Al18  1  0.333372  0.548463  0.250000  1
  Al  Al19  1  0.664344  0.451178  0.750000  1
  Al  Al20  1  0.555890  0.346300  0.250000  1
  Al  Al21  1  0.445198  0.656589  0.750000  1
  Ir  Ir22  1  0.671659  0.327561  0.997679  1
  Ir  Ir23  1  0.326464  0.671571  0.999404  1
  Ir  Ir24  1  0.326464  0.671571  0.500596  1
  Ir  Ir25  1  0.671659  0.327561  0.502321  1
  Ir  Ir26  1  0.001699  0.000765  0.998652  1
  Ir  Ir27  1  0.001699  0.000765  0.501348  1
