# generated using pymatgen
data_Sc4Co16Si3P9Ru4
_symmetry_space_group_name_H-M   'P 1'
_cell_length_a   3.65478600
_cell_length_b   10.27746605
_cell_length_c   11.70592506
_cell_angle_alpha   89.98870591
_cell_angle_beta   90.00000000
_cell_angle_gamma   90.00000000
_symmetry_Int_Tables_number   1
_chemical_formula_structural   Sc4Co16Si3P9Ru4
_chemical_formula_sum   'Sc4 Co16 Si3 P9 Ru4'
_cell_volume   439.69723479
_cell_formula_units_Z   1
loop_
 _symmetry_equiv_pos_site_id
 _symmetry_equiv_pos_as_xyz
  1  'x, y, z'
loop_
 _atom_site_type_symbol
 _atom_site_label
 _atom_site_symmetry_multiplicity
 _atom_site_fract_x
 _atom_site_fract_y
 _atom_site_fract_z
 _atom_site_occupancy
  Sc  Sc0  1  0.250000  0.584926  0.701196  1
  Sc  Sc1  1  0.250000  0.913981  0.202880  1
  Sc  Sc2  1  0.750000  0.414988  0.298842  1
  Sc  Sc3  1  0.750000  0.085220  0.798420  1
  Co  Co4  1  0.250000  0.409515  0.486738  1
  Co  Co5  1  0.250000  0.090428  0.987058  1
  Co  Co6  1  0.750000  0.589987  0.512660  1
  Co  Co7  1  0.750000  0.909208  0.013726  1
  Co  Co8  1  0.250000  0.212830  0.178000  1
  Co  Co9  1  0.250000  0.286480  0.677004  1
  Co  Co10  1  0.750000  0.786916  0.822590  1
  Co  Co11  1  0.750000  0.721452  0.324406  1
  Co  Co12  1  0.250000  0.887163  0.702672  1
  Co  Co13  1  0.250000  0.616226  0.204033  1
  Co  Co14  1  0.750000  0.111495  0.297183  1
  Co  Co15  1  0.750000  0.385606  0.797179  1
  Co  Co16  1  0.250000  0.462763  0.929417  1
  Co  Co17  1  0.250000  0.033100  0.425859  1
  Co  Co18  1  0.750000  0.537300  0.071750  1
  Co  Co19  1  0.750000  0.961276  0.566220  1
  Si  Si20  1  0.250000  0.416564  0.115721  1
  Si  Si21  1  0.250000  0.083544  0.613386  1
  Si  Si22  1  0.750000  0.583632  0.885167  1
  P  P23  1  0.750000  0.919687  0.383838  1
  P  P24  1  0.250000  0.267014  0.864409  1
  P  P25  1  0.250000  0.232403  0.365409  1
  P  P26  1  0.750000  0.733237  0.135642  1
  P  P27  1  0.750000  0.767104  0.635468  1
  P  P28  1  0.250000  0.592839  0.388052  1
  P  P29  1  0.250000  0.906968  0.887951  1
  P  P30  1  0.750000  0.406704  0.612228  1
  P  P31  1  0.750000  0.092845  0.111651  1
  Ru  Ru32  1  0.250000  0.716062  0.990702  1
  Ru  Ru33  1  0.250000  0.779602  0.494177  1
  Ru  Ru34  1  0.750000  0.283760  0.009646  1
  Ru  Ru35  1  0.750000  0.217178  0.508722  1
