# generated using pymatgen
data_LiMgTi2(B4Ru5)2
_symmetry_space_group_name_H-M   'P 1'
_cell_length_a   2.95999400
_cell_length_b   8.32444025
_cell_length_c   10.02445560
_cell_angle_alpha   90.95282590
_cell_angle_beta   90.00000000
_cell_angle_gamma   90.00000000
_symmetry_Int_Tables_number   1
_chemical_formula_structural   LiMgTi2(B4Ru5)2
_chemical_formula_sum   'Li1 Mg1 Ti2 B8 Ru10'
_cell_volume   246.97137072
_cell_formula_units_Z   1
loop_
 _symmetry_equiv_pos_site_id
 _symmetry_equiv_pos_as_xyz
  1  'x, y, z'
loop_
 _atom_site_type_symbol
 _atom_site_label
 _atom_site_symmetry_multiplicity
 _atom_site_fract_x
 _atom_site_fract_y
 _atom_site_fract_z
 _atom_site_occupancy
  Li  Li0  1  0.500000  0.149756  0.680818  1
  Mg  Mg1  1  0.500000  0.848948  0.324385  1
  Ti  Ti2  1  0.500000  0.649655  0.811640  1
  Ti  Ti3  1  0.500000  0.348023  0.183297  1
  B  B4  1  0.500000  0.858945  0.601681  1
  B  B5  1  0.500000  0.146472  0.403214  1
  B  B6  1  0.500000  0.346133  0.892306  1
  B  B7  1  0.500000  0.650593  0.102010  1
  B  B8  1  0.500000  0.963005  0.909805  1
  B  B9  1  0.500000  0.039015  0.090455  1
  B  B10  1  0.500000  0.457737  0.588316  1
  B  B11  1  0.500000  0.539762  0.410980  1
  Ru  Ru12  1  0.000000  0.397991  0.737278  1
  Ru  Ru13  1  0.000000  0.597024  0.259497  1
  Ru  Ru14  1  0.000000  0.894356  0.763568  1
  Ru  Ru15  1  0.000000  0.106814  0.238126  1
  Ru  Ru16  1  0.000000  0.004658  0.503850  1
  Ru  Ru17  1  0.000000  0.498925  0.998290  1
  Ru  Ru18  1  0.000000  0.657548  0.550881  1
  Ru  Ru19  1  0.000000  0.344980  0.447785  1
  Ru  Ru20  1  0.000000  0.159230  0.956286  1
  Ru  Ru21  1  0.000000  0.840428  0.045533  1
