# generated using pymatgen
data_Sc8Ti2Nb9Si16Ag
_symmetry_space_group_name_H-M   'P 1'
_cell_length_a   6.70435476
_cell_length_b   6.90644808
_cell_length_c   13.15193868
_cell_angle_alpha   90.05699798
_cell_angle_beta   89.98907211
_cell_angle_gamma   90.42220477
_symmetry_Int_Tables_number   1
_chemical_formula_structural   Sc8Ti2Nb9Si16Ag
_chemical_formula_sum   'Sc8 Ti2 Nb9 Si16 Ag1'
_cell_volume   608.96102853
_cell_formula_units_Z   1
loop_
 _symmetry_equiv_pos_site_id
 _symmetry_equiv_pos_as_xyz
  1  'x, y, z'
loop_
 _atom_site_type_symbol
 _atom_site_label
 _atom_site_symmetry_multiplicity
 _atom_site_fract_x
 _atom_site_fract_y
 _atom_site_fract_z
 _atom_site_occupancy
  Sc  Sc0  1  0.499044  0.675225  0.592789  1
  Sc  Sc1  1  0.003775  0.828225  0.907052  1
  Sc  Sc2  1  0.496919  0.326041  0.096060  1
  Sc  Sc3  1  0.000728  0.172776  0.402287  1
  Sc  Sc4  1  0.497015  0.326367  0.404375  1
  Sc  Sc5  1  0.999861  0.171856  0.097904  1
  Sc  Sc6  1  0.501768  0.675379  0.906417  1
  Sc  Sc7  1  0.003006  0.824739  0.593122  1
  Ti  Ti8  1  0.668499  0.174894  0.626892  1
  Ti  Ti9  1  0.157684  0.322151  0.873347  1
  Nb  Nb10  1  0.336040  0.824412  0.123948  1
  Nb  Nb11  1  0.836471  0.676524  0.376282  1
  Nb  Nb12  1  0.337318  0.825700  0.375534  1
  Nb  Nb13  1  0.837442  0.675685  0.123985  1
  Nb  Nb14  1  0.667645  0.174971  0.873888  1
  Nb  Nb15  1  0.159195  0.322717  0.625964  1
  Nb  Nb16  1  0.335796  0.001204  0.750230  1
  Nb  Nb17  1  0.162965  0.507005  0.249754  1
  Nb  Nb18  1  0.663041  0.995615  0.250323  1
  Si  Si19  1  0.669516  0.970401  0.461938  1
  Si  Si20  1  0.168228  0.530149  0.036617  1
  Si  Si21  1  0.333144  0.036983  0.959497  1
  Si  Si22  1  0.829298  0.456094  0.532869  1
  Si  Si23  1  0.335002  0.034790  0.540785  1
  Si  Si24  1  0.830799  0.458041  0.967764  1
  Si  Si25  1  0.668464  0.968093  0.039460  1
  Si  Si26  1  0.167547  0.533291  0.461505  1
  Si  Si27  1  0.457176  0.378001  0.750564  1
  Si  Si28  1  0.962327  0.105728  0.749716  1
  Si  Si29  1  0.539813  0.614837  0.249977  1
  Si  Si30  1  0.040477  0.886785  0.250116  1
  Si  Si31  1  0.701118  0.872269  0.747992  1
  Si  Si32  1  0.213963  0.632128  0.750847  1
  Si  Si33  1  0.296205  0.137337  0.250221  1
  Si  Si34  1  0.792905  0.365020  0.249885  1
  Ag  Ag35  1  0.829804  0.518570  0.750092  1
