# generated using pymatgen
data_YZrTa3Si4
_symmetry_space_group_name_H-M   'P 1'
_cell_length_a   6.95947192
_cell_length_b   6.95982450
_cell_length_c   12.88104345
_cell_angle_alpha   89.97354670
_cell_angle_beta   90.04760819
_cell_angle_gamma   89.87240895
_symmetry_Int_Tables_number   1
_chemical_formula_structural   YZrTa3Si4
_chemical_formula_sum   'Y4 Zr4 Ta12 Si16'
_cell_volume   623.91344870
_cell_formula_units_Z   4
loop_
 _symmetry_equiv_pos_site_id
 _symmetry_equiv_pos_as_xyz
  1  'x, y, z'
loop_
 _atom_site_type_symbol
 _atom_site_label
 _atom_site_symmetry_multiplicity
 _atom_site_fract_x
 _atom_site_fract_y
 _atom_site_fract_z
 _atom_site_occupancy
  Y  Y0  1  0.997778  0.659034  0.032157  1
  Y  Y1  1  0.003223  0.338430  0.530672  1
  Y  Y2  1  0.660513  0.997778  0.969954  1
  Y  Y3  1  0.161636  0.502888  0.780449  1
  Zr  Zr4  1  0.841904  0.502110  0.282739  1
  Zr  Zr5  1  0.497842  0.159755  0.219518  1
  Zr  Zr6  1  0.504289  0.844883  0.717131  1
  Zr  Zr7  1  0.344212  0.996530  0.467699  1
  Ta  Ta8  1  0.347889  0.507024  0.374826  1
  Ta  Ta9  1  0.845268  0.996192  0.373428  1
  Ta  Ta10  1  0.005774  0.154298  0.128823  1
  Ta  Ta11  1  0.992182  0.847605  0.623377  1
  Ta  Ta12  1  0.651582  0.492297  0.875136  1
  Ta  Ta13  1  0.503700  0.345258  0.621544  1
  Ta  Ta14  1  0.494258  0.651554  0.127222  1
  Ta  Ta15  1  0.154940  0.004322  0.873080  1
  Ta  Ta16  1  0.667600  0.671950  0.498858  1
  Ta  Ta17  1  0.828324  0.166949  0.748782  1
  Ta  Ta18  1  0.169333  0.831373  0.251409  1
  Ta  Ta19  1  0.330837  0.329865  0.001525  1
  Si  Si20  1  0.044155  0.705270  0.435830  1
  Si  Si21  1  0.956256  0.293951  0.936972  1
  Si  Si22  1  0.700473  0.044563  0.562620  1
  Si  Si23  1  0.203071  0.454581  0.187830  1
  Si  Si24  1  0.792630  0.543896  0.685930  1
  Si  Si25  1  0.456150  0.201398  0.812940  1
  Si  Si26  1  0.544036  0.799167  0.313900  1
  Si  Si27  1  0.296627  0.957637  0.064959  1
  Si  Si28  1  0.863567  0.794855  0.817142  1
  Si  Si29  1  0.136490  0.205931  0.321416  1
  Si  Si30  1  0.791776  0.867311  0.182326  1
  Si  Si31  1  0.297287  0.639212  0.569835  1
  Si  Si32  1  0.704518  0.364591  0.073596  1
  Si  Si33  1  0.631983  0.293121  0.426513  1
  Si  Si34  1  0.367873  0.705825  0.930949  1
  Si  Si35  1  0.210022  0.128594  0.678918  1
