# generated using pymatgen
data_NdEr4(Tl2Pd)2
_symmetry_space_group_name_H-M   'P 1'
_cell_length_a   3.62783800
_cell_length_b   8.18040900
_cell_length_c   18.29247100
_cell_angle_alpha   90.00000000
_cell_angle_beta   90.00000000
_cell_angle_gamma   90.00000000
_symmetry_Int_Tables_number   1
_chemical_formula_structural   NdEr4(Tl2Pd)2
_chemical_formula_sum   'Nd2 Er8 Tl8 Pd4'
_cell_volume   542.86929522
_cell_formula_units_Z   2
loop_
 _symmetry_equiv_pos_site_id
 _symmetry_equiv_pos_as_xyz
  1  'x, y, z'
loop_
 _atom_site_type_symbol
 _atom_site_label
 _atom_site_symmetry_multiplicity
 _atom_site_fract_x
 _atom_site_fract_y
 _atom_site_fract_z
 _atom_site_occupancy
  Nd  Nd0  1  0.000000  0.500000  0.500000  1
  Nd  Nd1  1  0.000000  0.000000  0.000000  1
  Er  Er2  1  0.000000  0.739157  0.282840  1
  Er  Er3  1  0.000000  0.260843  0.717160  1
  Er  Er4  1  0.000000  0.760843  0.782840  1
  Er  Er5  1  0.000000  0.239157  0.217160  1
  Er  Er6  1  0.000000  0.620277  0.085906  1
  Er  Er7  1  0.000000  0.379723  0.914094  1
  Er  Er8  1  0.000000  0.879723  0.585906  1
  Er  Er9  1  0.000000  0.120277  0.414094  1
  Tl  Tl10  1  0.500000  0.698681  0.933490  1
  Tl  Tl11  1  0.500000  0.301319  0.066510  1
  Tl  Tl12  1  0.500000  0.801319  0.433490  1
  Tl  Tl13  1  0.500000  0.198681  0.566510  1
  Tl  Tl14  1  0.500000  0.585522  0.652572  1
  Tl  Tl15  1  0.500000  0.414478  0.347428  1
  Tl  Tl16  1  0.500000  0.914478  0.152572  1
  Tl  Tl17  1  0.500000  0.085522  0.847428  1
  Pd  Pd18  1  0.500000  0.526420  0.196242  1
  Pd  Pd19  1  0.500000  0.473580  0.803758  1
  Pd  Pd20  1  0.500000  0.973580  0.696242  1
  Pd  Pd21  1  0.500000  0.026420  0.303758  1
