# generated using pymatgen
data_DyCu3AgRh
_symmetry_space_group_name_H-M   'P 1'
_cell_length_a   5.00324725
_cell_length_b   5.00324719
_cell_length_c   5.20723185
_cell_angle_alpha   61.28759074
_cell_angle_beta   61.28759342
_cell_angle_gamma   59.99999633
_symmetry_Int_Tables_number   1
_chemical_formula_structural   DyCu3AgRh
_chemical_formula_sum   'Dy1 Cu3 Ag1 Rh1'
_cell_volume   93.92460856
_cell_formula_units_Z   1
loop_
 _symmetry_equiv_pos_site_id
 _symmetry_equiv_pos_as_xyz
  1  'x, y, z'
loop_
 _atom_site_type_symbol
 _atom_site_label
 _atom_site_symmetry_multiplicity
 _atom_site_fract_x
 _atom_site_fract_y
 _atom_site_fract_z
 _atom_site_occupancy
  Dy  Dy0  1  0.997976  0.997976  0.006071  1
  Cu  Cu1  1  0.626115  0.129423  0.618348  1
  Cu  Cu2  1  0.129423  0.626115  0.618348  1
  Cu  Cu3  1  0.626115  0.626115  0.618348  1
  Ag  Ag4  1  0.243351  0.243351  0.269946  1
  Rh  Rh5  1  0.627020  0.627020  0.118940  1
