# generated using pymatgen
data_Tb4Dy8ZnCo4Bi
_symmetry_space_group_name_H-M   'P 1'
_cell_length_a   8.37884411
_cell_length_b   8.37884382
_cell_length_c   8.37884312
_cell_angle_alpha   111.55665339
_cell_angle_beta   109.61830170
_cell_angle_gamma   107.26709116
_symmetry_Int_Tables_number   1
_chemical_formula_structural   Tb4Dy8ZnCo4Bi
_chemical_formula_sum   'Tb4 Dy8 Zn1 Co4 Bi1'
_cell_volume   452.18991950
_cell_formula_units_Z   1
loop_
 _symmetry_equiv_pos_site_id
 _symmetry_equiv_pos_as_xyz
  1  'x, y, z'
loop_
 _atom_site_type_symbol
 _atom_site_label
 _atom_site_symmetry_multiplicity
 _atom_site_fract_x
 _atom_site_fract_y
 _atom_site_fract_z
 _atom_site_occupancy
  Tb  Tb0  1  0.816719  0.713520  0.530238  1
  Tb  Tb1  1  0.183281  0.286480  0.469762  1
  Tb  Tb2  1  0.183281  0.713520  0.896801  1
  Tb  Tb3  1  0.816719  0.286480  0.103199  1
  Dy  Dy4  1  0.686111  0.377924  0.691813  1
  Dy  Dy5  1  0.313889  0.622076  0.308187  1
  Dy  Dy6  1  0.686111  0.994298  0.308187  1
  Dy  Dy7  1  0.313889  0.005702  0.691813  1
  Dy  Dy8  1  0.576254  0.781962  0.794292  1
  Dy  Dy9  1  0.423746  0.218038  0.205708  1
  Dy  Dy10  1  0.987671  0.781962  0.205708  1
  Dy  Dy11  1  0.012329  0.218038  0.794292  1
  Zn  Zn12  1  0.000000  0.000000  0.000000  1
  Co  Co13  1  0.624199  0.000000  0.624199  1
  Co  Co14  1  0.375801  0.000000  0.375801  1
  Co  Co15  1  0.112207  0.612207  0.500000  1
  Co  Co16  1  0.887793  0.387793  0.500000  1
  Bi  Bi17  1  0.500000  0.500000  0.000000  1
