# generated using pymatgen
data_Th5BiPb3
_symmetry_space_group_name_H-M   'P 1'
_cell_length_a   9.83367503
_cell_length_b   9.82587940
_cell_length_c   6.64295700
_cell_angle_alpha   90.00000000
_cell_angle_beta   90.00000000
_cell_angle_gamma   119.97378283
_symmetry_Int_Tables_number   1
_chemical_formula_structural   Th5BiPb3
_chemical_formula_sum   'Th10 Bi2 Pb6'
_cell_volume   556.02462580
_cell_formula_units_Z   2
loop_
 _symmetry_equiv_pos_site_id
 _symmetry_equiv_pos_as_xyz
  1  'x, y, z'
loop_
 _atom_site_type_symbol
 _atom_site_label
 _atom_site_symmetry_multiplicity
 _atom_site_fract_x
 _atom_site_fract_y
 _atom_site_fract_z
 _atom_site_occupancy
  Th  Th0  1  0.666876  0.333718  0.500581  1
  Th  Th1  1  0.333124  0.666843  0.500581  1
  Th  Th2  1  0.333124  0.666843  0.999419  1
  Th  Th3  1  0.666876  0.333718  0.999419  1
  Th  Th4  1  0.715009  0.714216  0.250000  1
  Th  Th5  1  0.284991  0.999207  0.250000  1
  Th  Th6  1  0.000000  0.285129  0.250000  1
  Th  Th7  1  0.285045  0.285297  0.750000  1
  Th  Th8  1  0.714955  0.000252  0.750000  1
  Th  Th9  1  0.000000  0.714652  0.750000  1
  Bi  Bi10  1  0.378469  0.378394  0.250000  1
  Bi  Bi11  1  0.621531  0.999924  0.250000  1
  Pb  Pb12  1  0.000000  0.999785  0.500298  1
  Pb  Pb13  1  0.000000  0.999785  0.999702  1
  Pb  Pb14  1  0.000000  0.622578  0.250000  1
  Pb  Pb15  1  0.622368  0.621960  0.750000  1
  Pb  Pb16  1  0.377632  0.999592  0.750000  1
  Pb  Pb17  1  0.000000  0.378108  0.750000  1
