# generated using pymatgen
data_Ca3FeSi4Ir3
_symmetry_space_group_name_H-M   'P 1'
_cell_length_a   6.44879489
_cell_length_b   6.29553997
_cell_length_c   6.44879496
_cell_angle_alpha   108.99051599
_cell_angle_beta   109.94761338
_cell_angle_gamma   108.99052254
_symmetry_Int_Tables_number   1
_chemical_formula_structural   Ca3FeSi4Ir3
_chemical_formula_sum   'Ca3 Fe1 Si4 Ir3'
_cell_volume   202.72642581
_cell_formula_units_Z   1
loop_
 _symmetry_equiv_pos_site_id
 _symmetry_equiv_pos_as_xyz
  1  'x, y, z'
loop_
 _atom_site_type_symbol
 _atom_site_label
 _atom_site_symmetry_multiplicity
 _atom_site_fract_x
 _atom_site_fract_y
 _atom_site_fract_z
 _atom_site_occupancy
  Ca  Ca0  1  0.488409  0.978463  0.488409  1
  Ca  Ca1  1  0.511591  0.490054  0.000000  1
  Ca  Ca2  1  0.000000  0.490054  0.511591  1
  Fe  Fe3  1  0.000000  0.746366  0.000000  1
  Si  Si4  1  0.000000  0.389101  0.000000  1
  Si  Si5  1  0.642275  0.630182  0.642275  1
  Si  Si6  1  0.000000  0.987907  0.357725  1
  Si  Si7  1  0.357725  0.987907  0.000000  1
  Ir  Ir8  1  0.000000  0.007697  0.723124  1
  Ir  Ir9  1  0.276876  0.284573  0.276876  1
  Ir  Ir10  1  0.723124  0.007697  0.000000  1
