# generated using pymatgen
data_Y3CdHgRu
_symmetry_space_group_name_H-M   'P 1'
_cell_length_a   3.55511800
_cell_length_b   3.55511800
_cell_length_c   11.49633200
_cell_angle_alpha   90.00000000
_cell_angle_beta   90.00000000
_cell_angle_gamma   90.00000000
_symmetry_Int_Tables_number   1
_chemical_formula_structural   Y3CdHgRu
_chemical_formula_sum   'Y3 Cd1 Hg1 Ru1'
_cell_volume   145.30057658
_cell_formula_units_Z   1
loop_
 _symmetry_equiv_pos_site_id
 _symmetry_equiv_pos_as_xyz
  1  'x, y, z'
loop_
 _atom_site_type_symbol
 _atom_site_label
 _atom_site_symmetry_multiplicity
 _atom_site_fract_x
 _atom_site_fract_y
 _atom_site_fract_z
 _atom_site_occupancy
  Y  Y0  1  0.000000  0.000000  0.976245  1
  Y  Y1  1  0.000000  0.000000  0.329004  1
  Y  Y2  1  0.000000  0.000000  0.694172  1
  Cd  Cd3  1  0.500000  0.500000  0.507616  1
  Hg  Hg4  1  0.500000  0.500000  0.158394  1
  Ru  Ru5  1  0.500000  0.500000  0.834568  1
