# generated using pymatgen
data_LiLa6Yb2MgRu2
_symmetry_space_group_name_H-M   'P 1'
_cell_length_a   10.07920884
_cell_length_b   10.15118074
_cell_length_c   10.10865571
_cell_angle_alpha   59.99317745
_cell_angle_beta   60.37536997
_cell_angle_gamma   59.95598423
_symmetry_Int_Tables_number   1
_chemical_formula_structural   LiLa6Yb2MgRu2
_chemical_formula_sum   'Li2 La12 Yb4 Mg2 Ru4'
_cell_volume   733.11195576
_cell_formula_units_Z   2
loop_
 _symmetry_equiv_pos_site_id
 _symmetry_equiv_pos_as_xyz
  1  'x, y, z'
loop_
 _atom_site_type_symbol
 _atom_site_label
 _atom_site_symmetry_multiplicity
 _atom_site_fract_x
 _atom_site_fract_y
 _atom_site_fract_z
 _atom_site_occupancy
  Li  Li0  1  0.826105  0.827157  0.826383  1
  Li  Li1  1  0.520355  0.826383  0.827157  1
  La  La2  1  0.592455  0.591190  0.221921  1
  La  La3  1  0.434682  0.065318  0.065318  1
  La  La4  1  0.062093  0.436512  0.061640  1
  La  La5  1  0.439755  0.061640  0.436512  1
  La  La6  1  0.220656  0.592702  0.591613  1
  La  La7  1  0.062026  0.437974  0.437974  1
  La  La8  1  0.594434  0.221921  0.591190  1
  La  La9  1  0.595029  0.591613  0.592702  1
  La  La10  1  0.188448  0.808476  0.192915  1
  La  La11  1  0.810161  0.192915  0.808476  1
  La  La12  1  0.064081  0.063293  0.435351  1
  La  La13  1  0.437275  0.435351  0.063293  1
  Yb  Yb14  1  0.809819  0.190181  0.190181  1
  Yb  Yb15  1  0.190614  0.190221  0.808957  1
  Yb  Yb16  1  0.810208  0.808957  0.190221  1
  Yb  Yb17  1  0.190664  0.809336  0.809336  1
  Mg  Mg18  1  0.826466  0.518023  0.828089  1
  Mg  Mg19  1  0.827422  0.828089  0.518023  1
  Ru  Ru20  1  0.841205  0.384947  0.389581  1
  Ru  Ru21  1  0.384266  0.389581  0.384947  1
  Ru  Ru22  1  0.383988  0.843144  0.385077  1
  Ru  Ru23  1  0.387790  0.385077  0.843144  1
