# generated using pymatgen
data_CsPaGeS5
_symmetry_space_group_name_H-M   'P 1'
_cell_length_a   7.90376774
_cell_length_b   7.73088295
_cell_length_c   9.73402956
_cell_angle_alpha   67.21325935
_cell_angle_beta   77.01716184
_cell_angle_gamma   73.21093236
_symmetry_Int_Tables_number   1
_chemical_formula_structural   CsPaGeS5
_chemical_formula_sum   'Cs2 Pa2 Ge2 S10'
_cell_volume   520.68088872
_cell_formula_units_Z   2
loop_
 _symmetry_equiv_pos_site_id
 _symmetry_equiv_pos_as_xyz
  1  'x, y, z'
loop_
 _atom_site_type_symbol
 _atom_site_label
 _atom_site_symmetry_multiplicity
 _atom_site_fract_x
 _atom_site_fract_y
 _atom_site_fract_z
 _atom_site_occupancy
  Cs  Cs0  1  0.605581  0.349444  0.312992  1
  Cs  Cs1  1  0.394419  0.650556  0.687008  1
  Pa  Pa2  1  0.244504  0.007685  0.005868  1
  Pa  Pa3  1  0.755496  0.992315  0.994132  1
  Ge  Ge4  1  0.977445  0.698169  0.380278  1
  Ge  Ge5  1  0.022555  0.301831  0.619722  1
  S  S6  1  0.073654  0.768120  0.999439  1
  S  S7  1  0.440278  0.218391  0.024207  1
  S  S8  1  0.711551  0.846771  0.301102  1
  S  S9  1  0.191699  0.860707  0.310128  1
  S  S10  1  0.073738  0.400906  0.362296  1
  S  S11  1  0.926262  0.599094  0.637704  1
  S  S12  1  0.808301  0.139293  0.689872  1
  S  S13  1  0.288449  0.153229  0.698898  1
  S  S14  1  0.559722  0.781609  0.975793  1
  S  S15  1  0.926346  0.231880  0.000561  1
