# generated using pymatgen
data_Ca12Si11HgAu12
_symmetry_space_group_name_H-M   'P 1'
_cell_length_a   4.45727200
_cell_length_b   7.66988960
_cell_length_c   22.03149100
_cell_angle_alpha   89.87047371
_cell_angle_beta   90.00000000
_cell_angle_gamma   90.00000000
_symmetry_Int_Tables_number   1
_chemical_formula_structural   Ca12Si11HgAu12
_chemical_formula_sum   'Ca12 Si11 Hg1 Au12'
_cell_volume   753.18390275
_cell_formula_units_Z   1
loop_
 _symmetry_equiv_pos_site_id
 _symmetry_equiv_pos_as_xyz
  1  'x, y, z'
loop_
 _atom_site_type_symbol
 _atom_site_label
 _atom_site_symmetry_multiplicity
 _atom_site_fract_x
 _atom_site_fract_y
 _atom_site_fract_z
 _atom_site_occupancy
  Ca  Ca0  1  0.750000  0.209132  0.496608  1
  Ca  Ca1  1  0.250000  0.798062  0.166671  1
  Ca  Ca2  1  0.250000  0.788150  0.498027  1
  Ca  Ca3  1  0.250000  0.800816  0.833558  1
  Ca  Ca4  1  0.250000  0.702273  0.331919  1
  Ca  Ca5  1  0.750000  0.200630  0.838771  1
  Ca  Ca6  1  0.750000  0.287387  0.001024  1
  Ca  Ca7  1  0.750000  0.292634  0.662888  1
  Ca  Ca8  1  0.750000  0.296280  0.332937  1
  Ca  Ca9  1  0.250000  0.700405  0.662837  1
  Ca  Ca10  1  0.250000  0.712421  0.002131  1
  Ca  Ca11  1  0.750000  0.203177  0.167781  1
  Si  Si12  1  0.250000  0.407062  0.564172  1
  Si  Si13  1  0.250000  0.083629  0.390986  1
  Si  Si14  1  0.250000  0.091817  0.069571  1
  Si  Si15  1  0.250000  0.417734  0.896502  1
  Si  Si16  1  0.750000  0.585342  0.108368  1
  Si  Si17  1  0.250000  0.427465  0.782144  1
  Si  Si18  1  0.750000  0.582133  0.224200  1
  Si  Si19  1  0.750000  0.588776  0.430062  1
  Si  Si20  1  0.750000  0.909753  0.936217  1
  Si  Si21  1  0.250000  0.081862  0.275383  1
  Si  Si22  1  0.750000  0.912355  0.596834  1
  Hg  Hg23  1  0.750000  0.911014  0.725073  1
  Au  Au24  1  0.250000  0.082341  0.592644  1
  Au  Au25  1  0.250000  0.127011  0.741841  1
  Au  Au26  1  0.750000  0.586124  0.907945  1
  Au  Au27  1  0.750000  0.914721  0.402908  1
  Au  Au28  1  0.750000  0.580382  0.564520  1
  Au  Au29  1  0.750000  0.562707  0.766475  1
  Au  Au30  1  0.250000  0.415791  0.432162  1
  Au  Au31  1  0.250000  0.412148  0.237727  1
  Au  Au32  1  0.750000  0.916711  0.067366  1
  Au  Au33  1  0.250000  0.416407  0.095521  1
  Au  Au34  1  0.250000  0.083229  0.934455  1
  Au  Au35  1  0.750000  0.912116  0.261768  1
