# generated using pymatgen
data_Dy9Th3Tc3Rh
_symmetry_space_group_name_H-M   'P 1'
_cell_length_a   6.39256358
_cell_length_b   7.29476033
_cell_length_c   9.46310300
_cell_angle_alpha   90.00000000
_cell_angle_beta   90.00000000
_cell_angle_gamma   90.30211692
_symmetry_Int_Tables_number   1
_chemical_formula_structural   Dy9Th3Tc3Rh
_chemical_formula_sum   'Dy9 Th3 Tc3 Rh1'
_cell_volume   441.27935893
_cell_formula_units_Z   1
loop_
 _symmetry_equiv_pos_site_id
 _symmetry_equiv_pos_as_xyz
  1  'x, y, z'
loop_
 _atom_site_type_symbol
 _atom_site_label
 _atom_site_symmetry_multiplicity
 _atom_site_fract_x
 _atom_site_fract_y
 _atom_site_fract_z
 _atom_site_occupancy
  Dy  Dy0  1  0.329165  0.677083  0.067013  1
  Dy  Dy1  1  0.166130  0.175808  0.435668  1
  Dy  Dy2  1  0.664316  0.322124  0.565569  1
  Dy  Dy3  1  0.834216  0.824434  0.933086  1
  Dy  Dy4  1  0.664316  0.322124  0.934431  1
  Dy  Dy5  1  0.834216  0.824434  0.566914  1
  Dy  Dy6  1  0.329165  0.677083  0.432987  1
  Dy  Dy7  1  0.166130  0.175808  0.064332  1
  Dy  Dy8  1  0.366243  0.961200  0.750000  1
  Th  Th9  1  0.854062  0.550035  0.250000  1
  Th  Th10  1  0.637918  0.046620  0.250000  1
  Th  Th11  1  0.142427  0.449821  0.750000  1
  Tc  Tc12  1  0.017206  0.873520  0.250000  1
  Tc  Tc13  1  0.481886  0.371783  0.250000  1
  Tc  Tc14  1  0.971539  0.131618  0.750000  1
  Rh  Rh15  1  0.541066  0.616500  0.750000  1
