# generated using pymatgen
data_Tb10Tl7In(PdRh)2
_symmetry_space_group_name_H-M   'P 1'
_cell_length_a   8.20495084
_cell_length_b   18.57296822
_cell_length_c   3.64533600
_cell_angle_alpha   90.00000000
_cell_angle_beta   90.00000000
_cell_angle_gamma   89.88071174
_symmetry_Int_Tables_number   1
_chemical_formula_structural   Tb10Tl7In(PdRh)2
_chemical_formula_sum   'Tb10 Tl7 In1 Pd2 Rh2'
_cell_volume   555.51261022
_cell_formula_units_Z   1
loop_
 _symmetry_equiv_pos_site_id
 _symmetry_equiv_pos_as_xyz
  1  'x, y, z'
loop_
 _atom_site_type_symbol
 _atom_site_label
 _atom_site_symmetry_multiplicity
 _atom_site_fract_x
 _atom_site_fract_y
 _atom_site_fract_z
 _atom_site_occupancy
  Tb  Tb0  1  0.499682  0.500217  0.000000  1
  Tb  Tb1  1  0.000928  0.999012  0.000000  1
  Tb  Tb2  1  0.733439  0.278968  0.000000  1
  Tb  Tb3  1  0.266430  0.721160  0.000000  1
  Tb  Tb4  1  0.744673  0.780837  0.000000  1
  Tb  Tb5  1  0.255184  0.219297  0.000000  1
  Tb  Tb6  1  0.615221  0.088971  0.000000  1
  Tb  Tb7  1  0.384785  0.911305  0.000000  1
  Tb  Tb8  1  0.882639  0.587122  0.000000  1
  Tb  Tb9  1  0.117028  0.413324  0.000000  1
  Tl  Tl10  1  0.708691  0.932753  0.500000  1
  Tl  Tl11  1  0.293467  0.066263  0.500000  1
  Tl  Tl12  1  0.793762  0.434191  0.500000  1
  Tl  Tl13  1  0.205467  0.566068  0.500000  1
  Tl  Tl14  1  0.578672  0.649400  0.500000  1
  Tl  Tl15  1  0.421368  0.350886  0.500000  1
  Tl  Tl16  1  0.921556  0.149837  0.500000  1
  In  In17  1  0.080222  0.848646  0.500000  1
  Pd  Pd18  1  0.977321  0.697718  0.500000  1
  Pd  Pd19  1  0.022583  0.303897  0.500000  1
  Rh  Rh20  1  0.523914  0.195367  0.500000  1
  Rh  Rh21  1  0.472967  0.804761  0.500000  1
