# generated using pymatgen
data_NpH5Ru
_symmetry_space_group_name_H-M   'P 1'
_cell_length_a   4.42587100
_cell_length_b   4.76037200
_cell_length_c   11.77799600
_cell_angle_alpha   90.00000000
_cell_angle_beta   90.00000000
_cell_angle_gamma   90.00000000
_symmetry_Int_Tables_number   1
_chemical_formula_structural   NpH5Ru
_chemical_formula_sum   'Np4 H20 Ru4'
_cell_volume   248.14815242
_cell_formula_units_Z   4
loop_
 _symmetry_equiv_pos_site_id
 _symmetry_equiv_pos_as_xyz
  1  'x, y, z'
loop_
 _atom_site_type_symbol
 _atom_site_label
 _atom_site_symmetry_multiplicity
 _atom_site_fract_x
 _atom_site_fract_y
 _atom_site_fract_z
 _atom_site_occupancy
  Np  Np0  1  0.277660  0.176790  0.650838  1
  Np  Np1  1  0.777660  0.323210  0.349162  1
  Np  Np2  1  0.222340  0.823210  0.150838  1
  Np  Np3  1  0.722340  0.676790  0.849162  1
  H  H4  1  0.524250  0.409319  0.510026  1
  H  H5  1  0.024250  0.090681  0.489974  1
  H  H6  1  0.975750  0.590681  0.010026  1
  H  H7  1  0.475750  0.909319  0.989974  1
  H  H8  1  0.173038  0.925588  0.821707  1
  H  H9  1  0.673038  0.574412  0.178293  1
  H  H10  1  0.326962  0.074412  0.321707  1
  H  H11  1  0.826962  0.425588  0.678293  1
  H  H12  1  0.196163  0.446647  0.826806  1
  H  H13  1  0.696163  0.053353  0.173194  1
  H  H14  1  0.303837  0.553353  0.326806  1
  H  H15  1  0.803837  0.946647  0.673194  1
  H  H16  1  0.621693  0.174911  0.825654  1
  H  H17  1  0.121693  0.325089  0.174346  1
  H  H18  1  0.878307  0.825089  0.325654  1
  H  H19  1  0.378307  0.674911  0.674346  1
  H  H20  1  0.983884  0.072139  0.994773  1
  H  H21  1  0.483884  0.427861  0.005227  1
  H  H22  1  0.516116  0.927861  0.494773  1
  H  H23  1  0.016116  0.572139  0.505227  1
  Ru  Ru24  1  0.319902  0.169665  0.912544  1
  Ru  Ru25  1  0.819902  0.330335  0.087456  1
  Ru  Ru26  1  0.180098  0.830335  0.412544  1
  Ru  Ru27  1  0.680098  0.669665  0.587456  1
