# generated using pymatgen
data_Er3Tm5(Sc3Pt4)4
_symmetry_space_group_name_H-M   'P 1'
_cell_length_a   7.30023078
_cell_length_b   7.31647583
_cell_length_c   13.95765800
_cell_angle_alpha   90.03368923
_cell_angle_beta   90.29806340
_cell_angle_gamma   89.96232229
_symmetry_Int_Tables_number   1
_chemical_formula_structural   Er3Tm5(Sc3Pt4)4
_chemical_formula_sum   'Er3 Tm5 Sc12 Pt16'
_cell_volume   745.49552362
_cell_formula_units_Z   1
loop_
 _symmetry_equiv_pos_site_id
 _symmetry_equiv_pos_as_xyz
  1  'x, y, z'
loop_
 _atom_site_type_symbol
 _atom_site_label
 _atom_site_symmetry_multiplicity
 _atom_site_fract_x
 _atom_site_fract_y
 _atom_site_fract_z
 _atom_site_occupancy
  Er  Er0  1  0.003399  0.178406  0.094501  1
  Er  Er1  1  0.995276  0.822082  0.905749  1
  Er  Er2  1  0.495651  0.676619  0.906508  1
  Tm  Tm3  1  0.995241  0.822665  0.593032  1
  Tm  Tm4  1  0.503460  0.321347  0.094764  1
  Tm  Tm5  1  0.004963  0.177812  0.406358  1
  Tm  Tm6  1  0.505120  0.321996  0.407181  1
  Tm  Tm7  1  0.495001  0.677817  0.593059  1
  Sc  Sc8  1  0.169952  0.498564  0.748525  1
  Sc  Sc9  1  0.830099  0.501554  0.251294  1
  Sc  Sc10  1  0.329775  0.997875  0.251163  1
  Sc  Sc11  1  0.670007  0.001523  0.748606  1
  Sc  Sc12  1  0.335910  0.162057  0.622988  1
  Sc  Sc13  1  0.663993  0.837554  0.376975  1
  Sc  Sc14  1  0.164440  0.661961  0.376700  1
  Sc  Sc15  1  0.662705  0.837375  0.124615  1
  Sc  Sc16  1  0.836577  0.337407  0.622630  1
  Sc  Sc17  1  0.338471  0.163695  0.875732  1
  Sc  Sc18  1  0.837021  0.337828  0.875033  1
  Sc  Sc19  1  0.163267  0.662243  0.124504  1
  Pt  Pt20  1  0.033748  0.123097  0.748649  1
  Pt  Pt21  1  0.966048  0.877451  0.251544  1
  Pt  Pt22  1  0.467561  0.622023  0.250973  1
  Pt  Pt23  1  0.533422  0.377377  0.748038  1
  Pt  Pt24  1  0.299671  0.852777  0.747740  1
  Pt  Pt25  1  0.698939  0.147979  0.252016  1
  Pt  Pt26  1  0.201993  0.352392  0.252170  1
  Pt  Pt27  1  0.799091  0.647228  0.747092  1
  Pt  Pt28  1  0.178639  0.456261  0.541445  1
  Pt  Pt29  1  0.822494  0.543604  0.457811  1
  Pt  Pt30  1  0.321965  0.956473  0.457652  1
  Pt  Pt31  1  0.820414  0.543039  0.042636  1
  Pt  Pt32  1  0.678468  0.043727  0.541643  1
  Pt  Pt33  1  0.176953  0.455071  0.958857  1
  Pt  Pt34  1  0.677527  0.045939  0.958553  1
  Pt  Pt35  1  0.322739  0.957182  0.043262  1
