# generated using pymatgen
data_Zr6Ta2NbAl13Ir7
_symmetry_space_group_name_H-M   'P 1'
_cell_length_a   8.83769464
_cell_length_b   8.83769607
_cell_length_c   8.83499018
_cell_angle_alpha   59.88668690
_cell_angle_beta   59.88668479
_cell_angle_gamma   59.89480971
_symmetry_Int_Tables_number   1
_chemical_formula_structural   Zr6Ta2NbAl13Ir7
_chemical_formula_sum   'Zr6 Ta2 Nb1 Al13 Ir7'
_cell_volume   486.71855988
_cell_formula_units_Z   1
loop_
 _symmetry_equiv_pos_site_id
 _symmetry_equiv_pos_as_xyz
  1  'x, y, z'
loop_
 _atom_site_type_symbol
 _atom_site_label
 _atom_site_symmetry_multiplicity
 _atom_site_fract_x
 _atom_site_fract_y
 _atom_site_fract_z
 _atom_site_occupancy
  Zr  Zr0  1  0.690177  0.690177  0.307076  1
  Zr  Zr1  1  0.312369  0.686215  0.312408  1
  Zr  Zr2  1  0.686215  0.312369  0.312408  1
  Zr  Zr3  1  0.312335  0.312335  0.686249  1
  Zr  Zr4  1  0.690301  0.306985  0.690332  1
  Zr  Zr5  1  0.306985  0.690301  0.690332  1
  Ta  Ta6  1  0.878417  0.362580  0.878192  1
  Ta  Ta7  1  0.362580  0.878417  0.878192  1
  Nb  Nb8  1  0.878326  0.878326  0.362381  1
  Al  Al9  1  0.880811  0.880811  0.880770  1
  Al  Al10  1  0.119402  0.119402  0.636391  1
  Al  Al11  1  0.119440  0.636250  0.119450  1
  Al  Al12  1  0.636250  0.119440  0.119450  1
  Al  Al13  1  0.122410  0.122410  0.122371  1
  Al  Al14  1  0.664323  0.664323  0.015660  1
  Al  Al15  1  0.664666  0.015274  0.664197  1
  Al  Al16  1  0.015274  0.664666  0.664197  1
  Al  Al17  1  0.657804  0.657804  0.657452  1
  Al  Al18  1  0.338354  0.338354  0.987099  1
  Al  Al19  1  0.338372  0.987031  0.338389  1
  Al  Al20  1  0.987031  0.338372  0.338389  1
  Al  Al21  1  0.337150  0.337150  0.337128  1
  Ir  Ir22  1  0.002815  0.002815  0.000902  1
  Ir  Ir23  1  0.999507  0.999507  0.496558  1
  Ir  Ir24  1  0.502212  0.997581  0.504665  1
  Ir  Ir25  1  0.997581  0.502212  0.504665  1
  Ir  Ir26  1  0.503913  0.503913  0.997008  1
  Ir  Ir27  1  0.999032  0.495947  0.998843  1
  Ir  Ir28  1  0.495947  0.999032  0.998843  1
