# generated using pymatgen
data_TbY3Al18(NiIr)3
_symmetry_space_group_name_H-M   'P 1'
_cell_length_a   7.49478655
_cell_length_b   7.49479026
_cell_length_c   9.37379200
_cell_angle_alpha   89.93027998
_cell_angle_beta   89.93026761
_cell_angle_gamma   119.26479873
_symmetry_Int_Tables_number   1
_chemical_formula_structural   TbY3Al18(NiIr)3
_chemical_formula_sum   'Tb1 Y3 Al18 Ni3 Ir3'
_cell_volume   459.33910163
_cell_formula_units_Z   1
loop_
 _symmetry_equiv_pos_site_id
 _symmetry_equiv_pos_as_xyz
  1  'x, y, z'
loop_
 _atom_site_type_symbol
 _atom_site_label
 _atom_site_symmetry_multiplicity
 _atom_site_fract_x
 _atom_site_fract_y
 _atom_site_fract_z
 _atom_site_occupancy
  Tb  Tb0  1  0.994259  0.673020  0.249846  1
  Y  Y1  1  0.003133  0.324905  0.750171  1
  Y  Y2  1  0.675095  0.996867  0.249829  1
  Y  Y3  1  0.326981  0.005740  0.750154  1
  Al  Al4  1  0.132780  0.132775  0.249593  1
  Al  Al5  1  0.867224  0.867220  0.750407  1
  Al  Al6  1  0.999008  0.338625  0.073320  1
  Al  Al7  1  0.002669  0.663231  0.926000  1
  Al  Al8  1  0.003377  0.663140  0.573803  1
  Al  Al9  1  0.336859  0.996623  0.426196  1
  Al  Al10  1  0.003657  0.338271  0.426097  1
  Al  Al11  1  0.661729  0.996343  0.573903  1
  Al  Al12  1  0.661375  0.000992  0.926680  1
  Al  Al13  1  0.336769  0.997330  0.074000  1
  Al  Al14  1  0.333807  0.335112  0.549650  1
  Al  Al15  1  0.664888  0.666193  0.450350  1
  Al  Al16  1  0.663942  0.664898  0.050119  1
  Al  Al17  1  0.335102  0.336058  0.949881  1
  Al  Al18  1  0.340843  0.556040  0.249659  1
  Al  Al19  1  0.658867  0.448717  0.753251  1
  Al  Al20  1  0.551284  0.341133  0.246749  1
  Al  Al21  1  0.443960  0.659157  0.750341  1
  Ni  Ni22  1  0.670949  0.329051  0.000000  1
  Ni  Ni23  1  0.329170  0.670830  0.000000  1
  Ni  Ni24  1  0.329358  0.670642  0.500000  1
  Ir  Ir25  1  0.672150  0.327850  0.500000  1
  Ir  Ir26  1  0.999749  0.000251  0.000000  1
  Ir  Ir27  1  0.001015  0.998985  0.500000  1
