# generated using pymatgen
data_Pm2H2PdPtO2
_symmetry_space_group_name_H-M   'P 1'
_cell_length_a   3.99060800
_cell_length_b   3.99060800
_cell_length_c   7.39300900
_cell_angle_alpha   90.00000000
_cell_angle_beta   90.00000000
_cell_angle_gamma   90.00000000
_symmetry_Int_Tables_number   1
_chemical_formula_structural   Pm2H2PdPtO2
_chemical_formula_sum   'Pm2 H2 Pd1 Pt1 O2'
_cell_volume   117.73331501
_cell_formula_units_Z   1
loop_
 _symmetry_equiv_pos_site_id
 _symmetry_equiv_pos_as_xyz
  1  'x, y, z'
loop_
 _atom_site_type_symbol
 _atom_site_label
 _atom_site_symmetry_multiplicity
 _atom_site_fract_x
 _atom_site_fract_y
 _atom_site_fract_z
 _atom_site_occupancy
  Pm  Pm0  1  0.000000  0.500000  0.159058  1
  Pm  Pm1  1  0.500000  0.000000  0.840941  1
  H  H2  1  0.000000  0.500000  0.537355  1
  H  H3  1  0.500000  0.000000  0.462644  1
  Pd  Pd4  1  0.500000  0.500000  0.500000  1
  Pt  Pt5  1  0.000000  0.000000  0.500000  1
  O  O6  1  0.000000  0.000000  0.000000  1
  O  O7  1  0.500000  0.500000  0.000000  1
