# generated using pymatgen
data_NdSmSc3Si7Pt9
_symmetry_space_group_name_H-M   'P 1'
_cell_length_a   10.08414600
_cell_length_b   10.08414634
_cell_length_c   4.01359400
_cell_angle_alpha   90.00000000
_cell_angle_beta   90.00000000
_cell_angle_gamma   119.99999890
_symmetry_Int_Tables_number   1
_chemical_formula_structural   NdSmSc3Si7Pt9
_chemical_formula_sum   'Nd1 Sm1 Sc3 Si7 Pt9'
_cell_volume   353.46168176
_cell_formula_units_Z   1
loop_
 _symmetry_equiv_pos_site_id
 _symmetry_equiv_pos_as_xyz
  1  'x, y, z'
loop_
 _atom_site_type_symbol
 _atom_site_label
 _atom_site_symmetry_multiplicity
 _atom_site_fract_x
 _atom_site_fract_y
 _atom_site_fract_z
 _atom_site_occupancy
  Nd  Nd0  1  0.000000  0.000000  0.000000  1
  Sm  Sm1  1  0.333333  0.666667  0.500000  1
  Sc  Sc2  1  0.894092  0.454133  0.500000  1
  Sc  Sc3  1  0.560041  0.105908  0.500000  1
  Sc  Sc4  1  0.545867  0.439959  0.500000  1
  Si  Si5  1  0.249063  0.198234  0.500000  1
  Si  Si6  1  0.801766  0.050831  0.500000  1
  Si  Si7  1  0.949169  0.750937  0.500000  1
  Si  Si8  1  0.557941  0.647222  0.000000  1
  Si  Si9  1  0.352778  0.910717  0.000000  1
  Si  Si10  1  0.089283  0.442059  0.000000  1
  Si  Si11  1  0.666667  0.333333  0.000000  1
  Pt  Pt12  1  0.221084  0.936112  0.500000  1
  Pt  Pt13  1  0.063888  0.284972  0.500000  1
  Pt  Pt14  1  0.715028  0.778916  0.500000  1
  Pt  Pt15  1  0.313736  0.411274  0.000000  1
  Pt  Pt16  1  0.588726  0.902462  0.000000  1
  Pt  Pt17  1  0.097538  0.686264  0.000000  1
  Pt  Pt18  1  0.385079  0.171822  0.000000  1
  Pt  Pt19  1  0.828178  0.213258  0.000000  1
  Pt  Pt20  1  0.786742  0.614921  0.000000  1
