# generated using pymatgen
data_Pr8Zn(Si4Rh)3
_symmetry_space_group_name_H-M   'P 1'
_cell_length_a   8.27559500
_cell_length_b   8.27559618
_cell_length_c   8.59381300
_cell_angle_alpha   90.00000000
_cell_angle_beta   90.00000000
_cell_angle_gamma   120.00000727
_symmetry_Int_Tables_number   1
_chemical_formula_structural   Pr8Zn(Si4Rh)3
_chemical_formula_sum   'Pr8 Zn1 Si12 Rh3'
_cell_volume   509.70045146
_cell_formula_units_Z   1
loop_
 _symmetry_equiv_pos_site_id
 _symmetry_equiv_pos_as_xyz
  1  'x, y, z'
loop_
 _atom_site_type_symbol
 _atom_site_label
 _atom_site_symmetry_multiplicity
 _atom_site_fract_x
 _atom_site_fract_y
 _atom_site_fract_z
 _atom_site_occupancy
  Pr  Pr0  1  0.497808  0.502192  0.745956  1
  Pr  Pr1  1  0.498734  0.501266  0.253849  1
  Pr  Pr2  1  0.004384  0.502192  0.745956  1
  Pr  Pr3  1  0.002533  0.501266  0.253849  1
  Pr  Pr4  1  0.497808  0.995616  0.745956  1
  Pr  Pr5  1  0.498734  0.997467  0.253849  1
  Pr  Pr6  1  0.000000  0.000000  0.748983  1
  Pr  Pr7  1  0.000000  0.000000  0.251625  1
  Zn  Zn8  1  0.666667  0.333333  0.996821  1
  Si  Si9  1  0.836780  0.163220  0.000951  1
  Si  Si10  1  0.168482  0.831518  0.999279  1
  Si  Si11  1  0.326440  0.163220  0.000951  1
  Si  Si12  1  0.166685  0.833315  0.500074  1
  Si  Si13  1  0.663036  0.831518  0.999279  1
  Si  Si14  1  0.833016  0.166984  0.500117  1
  Si  Si15  1  0.836780  0.673560  0.000951  1
  Si  Si16  1  0.666630  0.833315  0.500074  1
  Si  Si17  1  0.168482  0.336964  0.999279  1
  Si  Si18  1  0.333969  0.166984  0.500117  1
  Si  Si19  1  0.166685  0.333370  0.500074  1
  Si  Si20  1  0.833016  0.666031  0.500117  1
  Rh  Rh21  1  0.333333  0.666667  0.001976  1
  Rh  Rh22  1  0.333333  0.666667  0.498437  1
  Rh  Rh23  1  0.666667  0.333333  0.501480  1
