# generated using pymatgen
data_Ti2Hg2C
_symmetry_space_group_name_H-M   'P 1'
_cell_length_a   3.16480900
_cell_length_b   3.16481012
_cell_length_c   9.55401800
_cell_angle_alpha   90.00000000
_cell_angle_beta   90.00000000
_cell_angle_gamma   119.99999872
_symmetry_Int_Tables_number   1
_chemical_formula_structural   Ti2Hg2C
_chemical_formula_sum   'Ti2 Hg2 C1'
_cell_volume   82.87277023
_cell_formula_units_Z   1
loop_
 _symmetry_equiv_pos_site_id
 _symmetry_equiv_pos_as_xyz
  1  'x, y, z'
loop_
 _atom_site_type_symbol
 _atom_site_label
 _atom_site_symmetry_multiplicity
 _atom_site_fract_x
 _atom_site_fract_y
 _atom_site_fract_z
 _atom_site_occupancy
  Ti  Ti0  1  0.333333  0.666666  0.384487  1
  Ti  Ti1  1  0.666665  0.333333  0.615514  1
  Hg  Hg2  1  0.666665  0.333333  0.139254  1
  Hg  Hg3  1  0.333333  0.666666  0.860746  1
  C  C4  1  0.000000  0.000000  0.500000  1
