# generated using pymatgen
data_Ho2Er10In2Fe2Os
_symmetry_space_group_name_H-M   'P 1'
_cell_length_a   8.30968814
_cell_length_b   8.30969621
_cell_length_c   8.31086571
_cell_angle_alpha   108.70822176
_cell_angle_beta   108.70660915
_cell_angle_gamma   111.00313523
_symmetry_Int_Tables_number   1
_chemical_formula_structural   Ho2Er10In2Fe2Os
_chemical_formula_sum   'Ho2 Er10 In2 Fe2 Os1'
_cell_volume   441.56610834
_cell_formula_units_Z   1
loop_
 _symmetry_equiv_pos_site_id
 _symmetry_equiv_pos_as_xyz
  1  'x, y, z'
loop_
 _atom_site_type_symbol
 _atom_site_label
 _atom_site_symmetry_multiplicity
 _atom_site_fract_x
 _atom_site_fract_y
 _atom_site_fract_z
 _atom_site_occupancy
  Ho  Ho0  1  0.307566  0.307565  0.615134  1
  Ho  Ho1  1  0.692434  0.692435  0.384866  1
  Er  Er2  1  0.307631  0.692368  0.999999  1
  Er  Er3  1  0.692369  0.307632  0.000001  1
  Er  Er4  1  0.430182  0.191946  0.237943  1
  Er  Er5  1  0.569818  0.808054  0.762057  1
  Er  Er6  1  0.954005  0.192260  0.762076  1
  Er  Er7  1  0.192267  0.954004  0.762080  1
  Er  Er8  1  0.045995  0.807740  0.237924  1
  Er  Er9  1  0.807733  0.045996  0.237920  1
  Er  Er10  1  0.191944  0.430191  0.237938  1
  Er  Er11  1  0.808056  0.569809  0.762062  1
  In  In12  1  0.500000  0.000000  0.500000  1
  In  In13  1  0.000000  0.500000  0.500000  1
  Fe  Fe14  1  0.385408  0.385409  0.999999  1
  Fe  Fe15  1  0.614592  0.614591  0.000001  1
  Os  Os16  1  0.000000  0.000000  0.000000  1
