# generated using pymatgen
data_Li6Co3N4
_symmetry_space_group_name_H-M   'P 1'
_cell_length_a   4.95504991
_cell_length_b   4.93569068
_cell_length_c   7.75591640
_cell_angle_alpha   103.51203732
_cell_angle_beta   103.60720087
_cell_angle_gamma   120.13988032
_symmetry_Int_Tables_number   1
_chemical_formula_structural   Li6Co3N4
_chemical_formula_sum   'Li6 Co3 N4'
_cell_volume   144.79926527
_cell_formula_units_Z   1
loop_
 _symmetry_equiv_pos_site_id
 _symmetry_equiv_pos_as_xyz
  1  'x, y, z'
loop_
 _atom_site_type_symbol
 _atom_site_label
 _atom_site_symmetry_multiplicity
 _atom_site_fract_x
 _atom_site_fract_y
 _atom_site_fract_z
 _atom_site_occupancy
  Li  Li0  1  0.498798  0.309306  0.117763  1
  Li  Li1  1  0.820168  0.991521  0.116889  1
  Li  Li2  1  0.330886  0.509864  0.436966  1
  Li  Li3  1  0.010559  0.827046  0.437967  1
  Li  Li4  1  0.770726  0.541303  0.772494  1
  Li  Li5  1  0.057995  0.277975  0.781134  1
  Co  Co6  1  0.653093  0.145275  0.411927  1
  Co  Co7  1  0.178400  0.674753  0.143233  1
  Co  Co8  1  0.415829  0.910407  0.777624  1
  N  N9  1  0.039810  0.532277  0.600554  1
  N  N10  1  0.257238  0.073184  0.280844  1
  N  N11  1  0.574593  0.747165  0.274784  1
  N  N12  1  0.791549  0.288242  0.954563  1
