# generated using pymatgen
data_Sc12Hg(PtI8)2
_symmetry_space_group_name_H-M   'P 1'
_cell_length_a   9.55285244
_cell_length_b   11.96758293
_cell_length_c   12.59466922
_cell_angle_alpha   117.01328887
_cell_angle_beta   101.69470336
_cell_angle_gamma   101.14893744
_symmetry_Int_Tables_number   1
_chemical_formula_structural   Sc12Hg(PtI8)2
_chemical_formula_sum   'Sc12 Hg1 Pt2 I16'
_cell_volume   1187.03038510
_cell_formula_units_Z   1
loop_
 _symmetry_equiv_pos_site_id
 _symmetry_equiv_pos_as_xyz
  1  'x, y, z'
loop_
 _atom_site_type_symbol
 _atom_site_label
 _atom_site_symmetry_multiplicity
 _atom_site_fract_x
 _atom_site_fract_y
 _atom_site_fract_z
 _atom_site_occupancy
  Sc  Sc0  1  0.095941  0.267945  0.357099  1
  Sc  Sc1  1  0.904059  0.732055  0.642901  1
  Sc  Sc2  1  0.770419  0.535465  0.327470  1
  Sc  Sc3  1  0.229581  0.464535  0.672530  1
  Sc  Sc4  1  0.285881  0.732834  0.642397  1
  Sc  Sc5  1  0.714119  0.267166  0.357603  1
  Sc  Sc6  1  0.152282  0.535627  0.327854  1
  Sc  Sc7  1  0.847718  0.464373  0.672146  1
  Sc  Sc8  1  0.407077  0.360617  0.276851  1
  Sc  Sc9  1  0.592923  0.639383  0.723149  1
  Sc  Sc10  1  0.459183  0.310838  0.520975  1
  Sc  Sc11  1  0.540817  0.689162  0.479025  1
  Hg  Hg12  1  0.000000  0.500000  0.500000  1
  Pt  Pt13  1  0.348627  0.500156  0.499268  1
  Pt  Pt14  1  0.651374  0.499844  0.500732  1
  I  I15  1  0.397619  0.740431  0.883330  1
  I  I16  1  0.602381  0.259569  0.116670  1
  I  I17  1  0.185399  0.957074  0.778698  1
  I  I18  1  0.814601  0.042926  0.221302  1
  I  I19  1  0.337859  0.094208  0.250457  1
  I  I20  1  0.662141  0.905792  0.749543  1
  I  I21  1  0.556671  0.438360  0.801225  1
  I  I22  1  0.443329  0.561640  0.198775  1
  I  I23  1  0.309236  0.825083  0.461558  1
  I  I24  1  0.690764  0.174917  0.538442  1
  I  I25  1  0.169153  0.173399  0.534403  1
  I  I26  1  0.830847  0.826601  0.465597  1
  I  I27  1  0.926137  0.572668  0.163755  1
  I  I28  1  0.073863  0.427332  0.836245  1
  I  I29  1  0.921419  0.738487  0.883606  1
  I  I30  1  0.078581  0.261513  0.116394  1
