# generated using pymatgen
data_YbY(Be12Cu)2
_symmetry_space_group_name_H-M   'P 1'
_cell_length_a   7.28741947
_cell_length_b   7.34468908
_cell_length_c   7.26011089
_cell_angle_alpha   59.86099560
_cell_angle_beta   59.83539170
_cell_angle_gamma   59.49320306
_symmetry_Int_Tables_number   1
_chemical_formula_structural   YbY(Be12Cu)2
_chemical_formula_sum   'Yb1 Y1 Be24 Cu2'
_cell_volume   273.08108298
_cell_formula_units_Z   1
loop_
 _symmetry_equiv_pos_site_id
 _symmetry_equiv_pos_as_xyz
  1  'x, y, z'
loop_
 _atom_site_type_symbol
 _atom_site_label
 _atom_site_symmetry_multiplicity
 _atom_site_fract_x
 _atom_site_fract_y
 _atom_site_fract_z
 _atom_site_occupancy
  Yb  Yb0  1  0.249233  0.250767  0.249233  1
  Y  Y1  1  0.746228  0.753772  0.746228  1
  Be  Be2  1  0.500107  0.499893  0.500107  1
  Be  Be3  1  0.999925  0.000075  0.999925  1
  Be  Be4  1  0.567293  0.790130  0.434660  1
  Be  Be5  1  0.434660  0.207917  0.567293  1
  Be  Be6  1  0.290554  0.934199  0.711458  1
  Be  Be7  1  0.711458  0.063789  0.290554  1
  Be  Be8  1  0.928555  0.278256  0.069222  1
  Be  Be9  1  0.069222  0.723967  0.928555  1
  Be  Be10  1  0.208868  0.796912  0.560051  1
  Be  Be11  1  0.789592  0.200977  0.441111  1
  Be  Be12  1  0.441111  0.568321  0.789592  1
  Be  Be13  1  0.560051  0.434169  0.208868  1
  Be  Be14  1  0.712848  0.285658  0.934362  1
  Be  Be15  1  0.288992  0.717091  0.063350  1
  Be  Be16  1  0.063350  0.930567  0.288992  1
  Be  Be17  1  0.934362  0.067133  0.712848  1
  Be  Be18  1  0.568622  0.207506  0.788685  1
  Be  Be19  1  0.433528  0.789832  0.209891  1
  Be  Be20  1  0.788685  0.435188  0.568622  1
  Be  Be21  1  0.209891  0.566748  0.433528  1
  Be  Be22  1  0.934551  0.715084  0.290347  1
  Be  Be23  1  0.063067  0.287442  0.712162  1
  Be  Be24  1  0.290347  0.060018  0.934551  1
  Be  Be25  1  0.712162  0.937329  0.063067  1
  Cu  Cu26  1  0.805839  0.556564  0.196901  1
  Cu  Cu27  1  0.196901  0.440696  0.805839  1
