# generated using pymatgen
data_Zr3Sc(Al3Ir)6
_symmetry_space_group_name_H-M   'P 1'
_cell_length_a   7.45923300
_cell_length_b   7.45694173
_cell_length_c   9.27903100
_cell_angle_alpha   90.00000000
_cell_angle_beta   90.00000000
_cell_angle_gamma   119.77105142
_symmetry_Int_Tables_number   1
_chemical_formula_structural   Zr3Sc(Al3Ir)6
_chemical_formula_sum   'Zr3 Sc1 Al18 Ir6'
_cell_volume   448.00772027
_cell_formula_units_Z   1
loop_
 _symmetry_equiv_pos_site_id
 _symmetry_equiv_pos_as_xyz
  1  'x, y, z'
loop_
 _atom_site_type_symbol
 _atom_site_label
 _atom_site_symmetry_multiplicity
 _atom_site_fract_x
 _atom_site_fract_y
 _atom_site_fract_z
 _atom_site_occupancy
  Zr  Zr0  1  0.994951  0.671878  0.250000  1
  Zr  Zr1  1  0.006213  0.329645  0.750000  1
  Zr  Zr2  1  0.670289  0.993773  0.250000  1
  Sc  Sc3  1  0.328365  0.005854  0.750000  1
  Al  Al4  1  0.123600  0.124180  0.250000  1
  Al  Al5  1  0.875463  0.876634  0.750000  1
  Al  Al6  1  0.997971  0.334378  0.075991  1
  Al  Al7  1  0.002747  0.665944  0.922782  1
  Al  Al8  1  0.002747  0.665944  0.577218  1
  Al  Al9  1  0.334620  0.998612  0.423700  1
  Al  Al10  1  0.997971  0.334378  0.424009  1
  Al  Al11  1  0.665072  0.001997  0.577436  1
  Al  Al12  1  0.665072  0.001997  0.922564  1
  Al  Al13  1  0.334620  0.998612  0.076300  1
  Al  Al14  1  0.331854  0.331440  0.558864  1
  Al  Al15  1  0.667994  0.667814  0.441816  1
  Al  Al16  1  0.667994  0.667814  0.058184  1
  Al  Al17  1  0.331854  0.331440  0.941136  1
  Al  Al18  1  0.337957  0.551458  0.250000  1
  Al  Al19  1  0.663107  0.447959  0.750000  1
  Al  Al20  1  0.552757  0.338654  0.250000  1
  Al  Al21  1  0.446516  0.659440  0.750000  1
  Ir  Ir22  1  0.672690  0.327964  0.000572  1
  Ir  Ir23  1  0.328054  0.672722  0.000977  1
  Ir  Ir24  1  0.328054  0.672722  0.499023  1
  Ir  Ir25  1  0.672690  0.327964  0.499428  1
  Ir  Ir26  1  0.999391  0.999395  0.000677  1
  Ir  Ir27  1  0.999391  0.999395  0.499323  1
