# generated using pymatgen
data_La8Zn4Si11Sn
_symmetry_space_group_name_H-M   'P 1'
_cell_length_a   8.35942703
_cell_length_b   8.35942748
_cell_length_c   8.84496600
_cell_angle_alpha   89.99900670
_cell_angle_beta   90.00099111
_cell_angle_gamma   119.84120031
_symmetry_Int_Tables_number   1
_chemical_formula_structural   La8Zn4Si11Sn
_chemical_formula_sum   'La8 Zn4 Si11 Sn1'
_cell_volume   536.13303554
_cell_formula_units_Z   1
loop_
 _symmetry_equiv_pos_site_id
 _symmetry_equiv_pos_as_xyz
  1  'x, y, z'
loop_
 _atom_site_type_symbol
 _atom_site_label
 _atom_site_symmetry_multiplicity
 _atom_site_fract_x
 _atom_site_fract_y
 _atom_site_fract_z
 _atom_site_occupancy
  La  La0  1  0.997367  0.002633  0.246627  1
  La  La1  1  0.997251  0.002749  0.753515  1
  La  La2  1  0.500454  0.499546  0.247984  1
  La  La3  1  0.505864  0.003244  0.246514  1
  La  La4  1  0.996756  0.494136  0.246514  1
  La  La5  1  0.499610  0.500390  0.751725  1
  La  La6  1  0.505424  0.001876  0.753742  1
  La  La7  1  0.998124  0.494576  0.753742  1
  Zn  Zn8  1  0.343317  0.656683  0.496405  1
  Zn  Zn9  1  0.668337  0.331663  0.503183  1
  Zn  Zn10  1  0.666084  0.333916  0.997055  1
  Zn  Zn11  1  0.333120  0.666880  0.002941  1
  Si  Si12  1  0.162765  0.330698  0.500758  1
  Si  Si13  1  0.669302  0.837235  0.500758  1
  Si  Si14  1  0.834316  0.165684  0.499348  1
  Si  Si15  1  0.814272  0.659122  0.499112  1
  Si  Si16  1  0.340878  0.185728  0.499112  1
  Si  Si17  1  0.834330  0.165670  0.000646  1
  Si  Si18  1  0.834996  0.669544  0.000620  1
  Si  Si19  1  0.330456  0.165004  0.000620  1
  Si  Si20  1  0.165291  0.834709  0.999376  1
  Si  Si21  1  0.165450  0.331149  0.999436  1
  Si  Si22  1  0.668851  0.834550  0.999436  1
  Sn  Sn23  1  0.167385  0.832615  0.500829  1
