# generated using pymatgen
data_Y3ErLuSn3
_symmetry_space_group_name_H-M   'P 1'
_cell_length_a   8.93217400
_cell_length_b   8.93217572
_cell_length_c   6.49315100
_cell_angle_alpha   90.00000000
_cell_angle_beta   90.00000000
_cell_angle_gamma   120.00000105
_symmetry_Int_Tables_number   1
_chemical_formula_structural   Y3ErLuSn3
_chemical_formula_sum   'Y6 Er2 Lu2 Sn6'
_cell_volume   448.64265536
_cell_formula_units_Z   2
loop_
 _symmetry_equiv_pos_site_id
 _symmetry_equiv_pos_as_xyz
  1  'x, y, z'
loop_
 _atom_site_type_symbol
 _atom_site_label
 _atom_site_symmetry_multiplicity
 _atom_site_fract_x
 _atom_site_fract_y
 _atom_site_fract_z
 _atom_site_occupancy
  Y  Y0  1  0.759906  0.759906  0.749634  1
  Y  Y1  1  0.240094  0.000000  0.749634  1
  Y  Y2  1  0.000000  0.240094  0.749634  1
  Y  Y3  1  0.240094  0.240094  0.250366  1
  Y  Y4  1  0.759906  0.000000  0.250366  1
  Y  Y5  1  0.000000  0.759906  0.250366  1
  Er  Er6  1  0.666667  0.333333  0.000000  1
  Er  Er7  1  0.333333  0.666667  0.000000  1
  Lu  Lu8  1  0.333333  0.666667  0.500000  1
  Lu  Lu9  1  0.666667  0.333333  0.500000  1
  Sn  Sn10  1  0.396281  0.396281  0.748501  1
  Sn  Sn11  1  0.603719  0.000000  0.748501  1
  Sn  Sn12  1  0.000000  0.603719  0.748501  1
  Sn  Sn13  1  0.603719  0.603719  0.251499  1
  Sn  Sn14  1  0.396281  0.000000  0.251499  1
  Sn  Sn15  1  0.000000  0.396281  0.251499  1
