# generated using pymatgen
data_TbYbEr2(B6Ru)2
_symmetry_space_group_name_H-M   'P 1'
_cell_length_a   3.64447000
_cell_length_b   9.12709302
_cell_length_c   11.52372001
_cell_angle_alpha   89.82584273
_cell_angle_beta   90.00000000
_cell_angle_gamma   90.00000000
_symmetry_Int_Tables_number   1
_chemical_formula_structural   TbYbEr2(B6Ru)2
_chemical_formula_sum   'Tb2 Yb2 Er4 B24 Ru4'
_cell_volume   383.31652979
_cell_formula_units_Z   2
loop_
 _symmetry_equiv_pos_site_id
 _symmetry_equiv_pos_as_xyz
  1  'x, y, z'
loop_
 _atom_site_type_symbol
 _atom_site_label
 _atom_site_symmetry_multiplicity
 _atom_site_fract_x
 _atom_site_fract_y
 _atom_site_fract_z
 _atom_site_occupancy
  Tb  Tb0  1  0.000000  0.822510  0.086212  1
  Tb  Tb1  1  0.000000  0.177490  0.913788  1
  Yb  Yb2  1  0.000000  0.325007  0.414885  1
  Yb  Yb3  1  0.000000  0.674993  0.585115  1
  Er  Er4  1  0.000000  0.942101  0.370126  1
  Er  Er5  1  0.000000  0.057899  0.629874  1
  Er  Er6  1  0.000000  0.442731  0.131031  1
  Er  Er7  1  0.000000  0.557269  0.868969  1
  B  B8  1  0.500000  0.554407  0.432355  1
  B  B9  1  0.500000  0.445593  0.567645  1
  B  B10  1  0.500000  0.054188  0.067210  1
  B  B11  1  0.500000  0.945812  0.932790  1
  B  B12  1  0.500000  0.748217  0.417917  1
  B  B13  1  0.500000  0.251783  0.582083  1
  B  B14  1  0.500000  0.248641  0.081623  1
  B  B15  1  0.500000  0.751359  0.918377  1
  B  B16  1  0.500000  0.791115  0.265087  1
  B  B17  1  0.500000  0.208885  0.734913  1
  B  B18  1  0.500000  0.290196  0.234523  1
  B  B19  1  0.500000  0.709804  0.765477  1
  B  B20  1  0.500000  0.631175  0.185365  1
  B  B21  1  0.500000  0.368825  0.814635  1
  B  B22  1  0.500000  0.130843  0.314127  1
  B  B23  1  0.500000  0.869157  0.685873  1
  B  B24  1  0.500000  0.983700  0.211935  1
  B  B25  1  0.500000  0.016300  0.788065  1
  B  B26  1  0.500000  0.484001  0.288169  1
  B  B27  1  0.500000  0.515999  0.711831  1
  B  B28  1  0.500000  0.602699  0.028200  1
  B  B29  1  0.500000  0.397301  0.971800  1
  B  B30  1  0.500000  0.099500  0.472510  1
  B  B31  1  0.500000  0.900500  0.527490  1
  Ru  Ru32  1  0.000000  0.639968  0.318929  1
  Ru  Ru33  1  0.000000  0.360032  0.681071  1
  Ru  Ru34  1  0.000000  0.137543  0.178639  1
  Ru  Ru35  1  0.000000  0.862457  0.821361  1
