# generated using pymatgen
data_Zr4Fe7Ni13P12
_symmetry_space_group_name_H-M   'P 1'
_cell_length_a   3.63664800
_cell_length_b   10.14964664
_cell_length_c   11.81267503
_cell_angle_alpha   89.59471395
_cell_angle_beta   90.00000000
_cell_angle_gamma   90.00000000
_symmetry_Int_Tables_number   1
_chemical_formula_structural   Zr4Fe7Ni13P12
_chemical_formula_sum   'Zr4 Fe7 Ni13 P12'
_cell_volume   436.00310358
_cell_formula_units_Z   1
loop_
 _symmetry_equiv_pos_site_id
 _symmetry_equiv_pos_as_xyz
  1  'x, y, z'
loop_
 _atom_site_type_symbol
 _atom_site_label
 _atom_site_symmetry_multiplicity
 _atom_site_fract_x
 _atom_site_fract_y
 _atom_site_fract_z
 _atom_site_occupancy
  Zr  Zr0  1  0.250000  0.570765  0.707312  1
  Zr  Zr1  1  0.250000  0.924791  0.208141  1
  Zr  Zr2  1  0.750000  0.424661  0.290389  1
  Zr  Zr3  1  0.750000  0.076985  0.791607  1
  Fe  Fe4  1  0.250000  0.631232  0.201860  1
  Fe  Fe5  1  0.750000  0.129905  0.298072  1
  Fe  Fe6  1  0.750000  0.370163  0.798075  1
  Fe  Fe7  1  0.250000  0.462419  0.930375  1
  Fe  Fe8  1  0.250000  0.037295  0.431475  1
  Fe  Fe9  1  0.750000  0.541122  0.068521  1
  Fe  Fe10  1  0.750000  0.958691  0.570790  1
  Ni  Ni11  1  0.250000  0.716734  0.992517  1
  Ni  Ni12  1  0.250000  0.779697  0.495239  1
  Ni  Ni13  1  0.750000  0.287614  0.008805  1
  Ni  Ni14  1  0.750000  0.213345  0.508577  1
  Ni  Ni15  1  0.250000  0.408636  0.482074  1
  Ni  Ni16  1  0.250000  0.091573  0.985970  1
  Ni  Ni17  1  0.750000  0.586919  0.515017  1
  Ni  Ni18  1  0.750000  0.912143  0.015383  1
  Ni  Ni19  1  0.250000  0.231819  0.172684  1
  Ni  Ni20  1  0.250000  0.271081  0.673093  1
  Ni  Ni21  1  0.750000  0.769312  0.823782  1
  Ni  Ni22  1  0.750000  0.729769  0.327668  1
  Ni  Ni23  1  0.250000  0.870229  0.704085  1
  P  P24  1  0.250000  0.436733  0.115120  1
  P  P25  1  0.250000  0.068348  0.614447  1
  P  P26  1  0.750000  0.566189  0.884122  1
  P  P27  1  0.750000  0.933543  0.384716  1
  P  P28  1  0.250000  0.265059  0.865415  1
  P  P29  1  0.250000  0.234804  0.363302  1
  P  P30  1  0.750000  0.737233  0.136068  1
  P  P31  1  0.750000  0.758957  0.632383  1
  P  P32  1  0.250000  0.602419  0.386587  1
  P  P33  1  0.250000  0.900150  0.891601  1
  P  P34  1  0.750000  0.394520  0.611819  1
  P  P35  1  0.750000  0.105145  0.112908  1
