# generated using pymatgen
data_Hf5(Re7Tc5)2
_symmetry_space_group_name_H-M   'P 1'
_cell_length_a   8.46338391
_cell_length_b   8.46338281
_cell_length_c   8.45678416
_cell_angle_alpha   109.49586563
_cell_angle_beta   109.49587569
_cell_angle_gamma   109.53044813
_symmetry_Int_Tables_number   1
_chemical_formula_structural   Hf5(Re7Tc5)2
_chemical_formula_sum   'Hf5 Re14 Tc10'
_cell_volume   465.68075715
_cell_formula_units_Z   1
loop_
 _symmetry_equiv_pos_site_id
 _symmetry_equiv_pos_as_xyz
  1  'x, y, z'
loop_
 _atom_site_type_symbol
 _atom_site_label
 _atom_site_symmetry_multiplicity
 _atom_site_fract_x
 _atom_site_fract_y
 _atom_site_fract_z
 _atom_site_occupancy
  Hf  Hf0  1  0.999293  0.999293  0.999706  1
  Hf  Hf1  1  0.625546  0.000090  0.000333  1
  Hf  Hf2  1  0.000090  0.625546  0.000333  1
  Hf  Hf3  1  0.999097  0.999097  0.624788  1
  Hf  Hf4  1  0.374041  0.374041  0.372237  1
  Re  Re5  1  0.278951  0.603822  0.604153  1
  Re  Re6  1  0.603822  0.278951  0.604153  1
  Re  Re7  1  0.375741  0.194546  0.999798  1
  Re  Re8  1  0.180225  0.806412  0.805988  1
  Re  Re9  1  0.375854  0.001057  0.194733  1
  Re  Re10  1  0.194546  0.375741  0.999798  1
  Re  Re11  1  0.001057  0.375854  0.194733  1
  Re  Re12  1  0.806412  0.180225  0.805988  1
  Re  Re13  1  0.805595  0.805595  0.181696  1
  Re  Re14  1  0.001083  0.194535  0.376274  1
  Re  Re15  1  0.194535  0.001083  0.376274  1
  Re  Re16  1  0.623735  0.623735  0.818485  1
  Re  Re17  1  0.816408  0.623472  0.623509  1
  Re  Re18  1  0.623472  0.816408  0.623509  1
  Tc  Tc19  1  0.396013  0.677702  0.000273  1
  Tc  Tc20  1  0.720251  0.323989  0.322747  1
  Tc  Tc21  1  0.396897  0.000425  0.676761  1
  Tc  Tc22  1  0.677702  0.396013  0.000273  1
  Tc  Tc23  1  0.000425  0.396897  0.676761  1
  Tc  Tc24  1  0.323989  0.720251  0.322747  1
  Tc  Tc25  1  0.323513  0.323513  0.721151  1
  Tc  Tc26  1  0.001384  0.676589  0.396599  1
  Tc  Tc27  1  0.676589  0.001384  0.396599  1
  Tc  Tc28  1  0.603735  0.603735  0.279600  1
