# generated using pymatgen
data_HfZrNb2SiP
_symmetry_space_group_name_H-M   'P 1'
_cell_length_a   3.58910100
_cell_length_b   6.95679300
_cell_length_c   8.42759400
_cell_angle_alpha   90.00000000
_cell_angle_beta   90.00000000
_cell_angle_gamma   90.00000000
_symmetry_Int_Tables_number   1
_chemical_formula_structural   HfZrNb2SiP
_chemical_formula_sum   'Hf2 Zr2 Nb4 Si2 P2'
_cell_volume   210.42549924
_cell_formula_units_Z   2
loop_
 _symmetry_equiv_pos_site_id
 _symmetry_equiv_pos_as_xyz
  1  'x, y, z'
loop_
 _atom_site_type_symbol
 _atom_site_label
 _atom_site_symmetry_multiplicity
 _atom_site_fract_x
 _atom_site_fract_y
 _atom_site_fract_z
 _atom_site_occupancy
  Hf  Hf0  1  0.250000  0.536702  0.833900  1
  Hf  Hf1  1  0.750000  0.963298  0.333900  1
  Zr  Zr2  1  0.250000  0.039256  0.668909  1
  Zr  Zr3  1  0.750000  0.460744  0.168909  1
  Nb  Nb4  1  0.250000  0.140213  0.059779  1
  Nb  Nb5  1  0.750000  0.868305  0.938685  1
  Nb  Nb6  1  0.250000  0.631695  0.438685  1
  Nb  Nb7  1  0.750000  0.359787  0.559779  1
  Si  Si8  1  0.750000  0.738810  0.640087  1
  Si  Si9  1  0.250000  0.761190  0.140087  1
  P  P10  1  0.750000  0.244547  0.858639  1
  P  P11  1  0.250000  0.255453  0.358639  1
