# generated using pymatgen
data_Lu3MgCo8
_symmetry_space_group_name_H-M   'P 1'
_cell_length_a   8.61597328
_cell_length_b   8.61597406
_cell_length_c   8.61597313
_cell_angle_alpha   33.43944293
_cell_angle_beta   33.43943802
_cell_angle_gamma   33.43943802
_symmetry_Int_Tables_number   1
_chemical_formula_structural   Lu3MgCo8
_chemical_formula_sum   'Lu3 Mg1 Co8'
_cell_volume   172.96661280
_cell_formula_units_Z   1
loop_
 _symmetry_equiv_pos_site_id
 _symmetry_equiv_pos_as_xyz
  1  'x, y, z'
loop_
 _atom_site_type_symbol
 _atom_site_label
 _atom_site_symmetry_multiplicity
 _atom_site_fract_x
 _atom_site_fract_y
 _atom_site_fract_z
 _atom_site_occupancy
  Lu  Lu0  1  0.624149  0.624149  0.624149  1
  Lu  Lu1  1  0.003446  0.003446  0.003446  1
  Lu  Lu2  1  0.496917  0.496917  0.496917  1
  Mg  Mg3  1  0.126207  0.126207  0.126207  1
  Co  Co4  1  0.563037  0.062972  0.563037  1
  Co  Co5  1  0.062152  0.561151  0.062152  1
  Co  Co6  1  0.062972  0.563037  0.563037  1
  Co  Co7  1  0.561151  0.062152  0.062152  1
  Co  Co8  1  0.812398  0.812398  0.812398  1
  Co  Co9  1  0.312384  0.312384  0.312384  1
  Co  Co10  1  0.563037  0.563037  0.062972  1
  Co  Co11  1  0.062152  0.062152  0.561151  1
