# generated using pymatgen
data_Lu6ScZn22Se
_symmetry_space_group_name_H-M   'P 1'
_cell_length_a   9.09373789
_cell_length_b   9.09373800
_cell_length_c   9.09373800
_cell_angle_alpha   60.00000000
_cell_angle_beta   59.99999961
_cell_angle_gamma   60.00000013
_symmetry_Int_Tables_number   1
_chemical_formula_structural   Lu6ScZn22Se
_chemical_formula_sum   'Lu6 Sc1 Zn22 Se1'
_cell_volume   531.75588989
_cell_formula_units_Z   1
loop_
 _symmetry_equiv_pos_site_id
 _symmetry_equiv_pos_as_xyz
  1  'x, y, z'
loop_
 _atom_site_type_symbol
 _atom_site_label
 _atom_site_symmetry_multiplicity
 _atom_site_fract_x
 _atom_site_fract_y
 _atom_site_fract_z
 _atom_site_occupancy
  Lu  Lu0  1  0.716782  0.283218  0.283218  1
  Lu  Lu1  1  0.716782  0.283218  0.716782  1
  Lu  Lu2  1  0.716782  0.716782  0.283218  1
  Lu  Lu3  1  0.283218  0.716782  0.716782  1
  Lu  Lu4  1  0.283218  0.716782  0.283218  1
  Lu  Lu5  1  0.283218  0.283218  0.716782  1
  Sc  Sc6  1  0.000000  0.000000  0.000000  1
  Zn  Zn7  1  0.621312  0.126229  0.126229  1
  Zn  Zn8  1  0.126229  0.621312  0.126229  1
  Zn  Zn9  1  0.126229  0.126229  0.621312  1
  Zn  Zn10  1  0.126229  0.126229  0.126229  1
  Zn  Zn11  1  0.378688  0.873771  0.873771  1
  Zn  Zn12  1  0.873771  0.378688  0.873771  1
  Zn  Zn13  1  0.873771  0.873771  0.378688  1
  Zn  Zn14  1  0.873771  0.873771  0.873771  1
  Zn  Zn15  1  0.500000  0.000000  0.000000  1
  Zn  Zn16  1  0.500000  0.000000  0.500000  1
  Zn  Zn17  1  0.500000  0.500000  0.000000  1
  Zn  Zn18  1  0.000000  0.500000  0.500000  1
  Zn  Zn19  1  0.000000  0.500000  0.000000  1
  Zn  Zn20  1  0.000000  0.000000  0.500000  1
  Zn  Zn21  1  0.010778  0.329740  0.329740  1
  Zn  Zn22  1  0.329740  0.010778  0.329740  1
  Zn  Zn23  1  0.329740  0.329740  0.010778  1
  Zn  Zn24  1  0.329740  0.329740  0.329740  1
  Zn  Zn25  1  0.989222  0.670260  0.670260  1
  Zn  Zn26  1  0.670260  0.989222  0.670260  1
  Zn  Zn27  1  0.670260  0.670260  0.989222  1
  Zn  Zn28  1  0.670260  0.670260  0.670260  1
  Se  Se29  1  0.500000  0.500000  0.500000  1
