# generated using pymatgen
data_Tb2Al9OsRh2
_symmetry_space_group_name_H-M   'P 1'
_cell_length_a   7.54458177
_cell_length_b   7.54458241
_cell_length_c   9.52794600
_cell_angle_alpha   90.00000000
_cell_angle_beta   90.00000000
_cell_angle_gamma   118.47371404
_symmetry_Int_Tables_number   1
_chemical_formula_structural   Tb2Al9OsRh2
_chemical_formula_sum   'Tb4 Al18 Os2 Rh4'
_cell_volume   476.73418058
_cell_formula_units_Z   2
loop_
 _symmetry_equiv_pos_site_id
 _symmetry_equiv_pos_as_xyz
  1  'x, y, z'
loop_
 _atom_site_type_symbol
 _atom_site_label
 _atom_site_symmetry_multiplicity
 _atom_site_fract_x
 _atom_site_fract_y
 _atom_site_fract_z
 _atom_site_occupancy
  Tb  Tb0  1  0.993359  0.680545  0.750000  1
  Tb  Tb1  1  0.006641  0.319455  0.250000  1
  Tb  Tb2  1  0.680545  0.993359  0.750000  1
  Tb  Tb3  1  0.319455  0.006641  0.250000  1
  Al  Al4  1  0.134875  0.134875  0.750000  1
  Al  Al5  1  0.865125  0.865125  0.250000  1
  Al  Al6  1  0.002818  0.338185  0.574073  1
  Al  Al7  1  0.997182  0.661815  0.425927  1
  Al  Al8  1  0.997182  0.661815  0.074073  1
  Al  Al9  1  0.338185  0.002818  0.925927  1
  Al  Al10  1  0.002818  0.338185  0.925927  1
  Al  Al11  1  0.661815  0.997182  0.074073  1
  Al  Al12  1  0.661815  0.997182  0.425927  1
  Al  Al13  1  0.338185  0.002818  0.574073  1
  Al  Al14  1  0.331748  0.331748  0.043681  1
  Al  Al15  1  0.668252  0.668252  0.956319  1
  Al  Al16  1  0.668252  0.668252  0.543681  1
  Al  Al17  1  0.331748  0.331748  0.456319  1
  Al  Al18  1  0.341058  0.553638  0.750000  1
  Al  Al19  1  0.658942  0.446362  0.250000  1
  Al  Al20  1  0.553638  0.341058  0.750000  1
  Al  Al21  1  0.446362  0.658942  0.250000  1
  Os  Os22  1  0.000000  0.000000  0.500000  1
  Os  Os23  1  0.000000  0.000000  0.000000  1
  Rh  Rh24  1  0.671457  0.328543  0.500000  1
  Rh  Rh25  1  0.328543  0.671457  0.500000  1
  Rh  Rh26  1  0.328543  0.671457  0.000000  1
  Rh  Rh27  1  0.671457  0.328543  0.000000  1
