# generated using pymatgen
data_UBr4O
_symmetry_space_group_name_H-M   'P 1'
_cell_length_a   7.78941105
_cell_length_b   7.78941180
_cell_length_c   7.78941138
_cell_angle_alpha   94.01182311
_cell_angle_beta   94.01182309
_cell_angle_gamma   149.32505351
_symmetry_Int_Tables_number   1
_chemical_formula_structural   UBr4O
_chemical_formula_sum   'U1 Br4 O1'
_cell_volume   232.52864173
_cell_formula_units_Z   1
loop_
 _symmetry_equiv_pos_site_id
 _symmetry_equiv_pos_as_xyz
  1  'x, y, z'
loop_
 _atom_site_type_symbol
 _atom_site_label
 _atom_site_symmetry_multiplicity
 _atom_site_fract_x
 _atom_site_fract_y
 _atom_site_fract_z
 _atom_site_occupancy
  U  U0  1  0.000000  0.000000  0.000000  1
  Br  Br1  1  0.939008  0.241835  0.180844  1
  Br  Br2  1  0.060992  0.758165  0.819156  1
  Br  Br3  1  0.241835  0.060992  0.302827  1
  Br  Br4  1  0.758165  0.939008  0.697173  1
  O  O5  1  0.500000  0.500000  0.000000  1
