# generated using pymatgen
data_SmTm5(Ni3P2)6
_symmetry_space_group_name_H-M   'P 1'
_cell_length_a   3.77095300
_cell_length_b   10.41693100
_cell_length_c   12.27690700
_cell_angle_alpha   90.00000000
_cell_angle_beta   90.00000000
_cell_angle_gamma   90.00000000
_symmetry_Int_Tables_number   1
_chemical_formula_structural   SmTm5(Ni3P2)6
_chemical_formula_sum   'Sm1 Tm5 Ni18 P12'
_cell_volume   482.25848001
_cell_formula_units_Z   1
loop_
 _symmetry_equiv_pos_site_id
 _symmetry_equiv_pos_as_xyz
  1  'x, y, z'
loop_
 _atom_site_type_symbol
 _atom_site_label
 _atom_site_symmetry_multiplicity
 _atom_site_fract_x
 _atom_site_fract_y
 _atom_site_fract_z
 _atom_site_occupancy
  Sm  Sm0  1  0.000000  0.500000  0.520745  1
  Tm  Tm1  1  0.500000  0.000000  0.478757  1
  Tm  Tm2  1  0.500000  0.817391  0.205969  1
  Tm  Tm3  1  0.500000  0.182609  0.205969  1
  Tm  Tm4  1  0.000000  0.683404  0.794918  1
  Tm  Tm5  1  0.000000  0.316596  0.794918  1
  Ni  Ni6  1  0.500000  0.500000  0.156857  1
  Ni  Ni7  1  0.000000  0.000000  0.840900  1
  Ni  Ni8  1  0.500000  0.500000  0.701939  1
  Ni  Ni9  1  0.000000  0.000000  0.300653  1
  Ni  Ni10  1  0.000000  0.500000  0.983825  1
  Ni  Ni11  1  0.500000  0.000000  0.017400  1
  Ni  Ni12  1  0.500000  0.331970  0.996047  1
  Ni  Ni13  1  0.500000  0.668030  0.996047  1
  Ni  Ni14  1  0.000000  0.166643  0.003914  1
  Ni  Ni15  1  0.000000  0.833357  0.003914  1
  Ni  Ni16  1  0.500000  0.297882  0.427917  1
  Ni  Ni17  1  0.500000  0.702118  0.427917  1
  Ni  Ni18  1  0.000000  0.197689  0.571460  1
  Ni  Ni19  1  0.000000  0.802311  0.571460  1
  Ni  Ni20  1  0.500000  0.879127  0.711801  1
  Ni  Ni21  1  0.500000  0.120873  0.711801  1
  Ni  Ni22  1  0.000000  0.621893  0.287301  1
  Ni  Ni23  1  0.000000  0.378107  0.287301  1
  P  P24  1  0.500000  0.500000  0.877140  1
  P  P25  1  0.000000  0.000000  0.124341  1
  P  P26  1  0.500000  0.500000  0.341050  1
  P  P27  1  0.000000  0.000000  0.655103  1
  P  P28  1  0.500000  0.311407  0.616158  1
  P  P29  1  0.500000  0.688593  0.616158  1
  P  P30  1  0.000000  0.186077  0.385535  1
  P  P31  1  0.000000  0.813923  0.385535  1
  P  P32  1  0.500000  0.847780  0.892281  1
  P  P33  1  0.500000  0.152220  0.892281  1
  P  P34  1  0.000000  0.653643  0.107344  1
  P  P35  1  0.000000  0.346357  0.107344  1
