# generated using pymatgen
data_Cs12VMo3Se16
_symmetry_space_group_name_H-M   'P 1'
_cell_length_a   10.33632152
_cell_length_b   10.39324944
_cell_length_c   12.21087700
_cell_angle_alpha   90.00000000
_cell_angle_beta   90.00000000
_cell_angle_gamma   89.83214295
_symmetry_Int_Tables_number   1
_chemical_formula_structural   Cs12VMo3Se16
_chemical_formula_sum   'Cs12 V1 Mo3 Se16'
_cell_volume   1311.78407175
_cell_formula_units_Z   1
loop_
 _symmetry_equiv_pos_site_id
 _symmetry_equiv_pos_as_xyz
  1  'x, y, z'
loop_
 _atom_site_type_symbol
 _atom_site_label
 _atom_site_symmetry_multiplicity
 _atom_site_fract_x
 _atom_site_fract_y
 _atom_site_fract_z
 _atom_site_occupancy
  Cs  Cs0  1  0.548475  0.211016  0.044288  1
  Cs  Cs1  1  0.043817  0.293182  0.455972  1
  Cs  Cs2  1  0.454855  0.790260  0.541864  1
  Cs  Cs3  1  0.952669  0.706977  0.958949  1
  Cs  Cs4  1  0.454855  0.790260  0.958136  1
  Cs  Cs5  1  0.952669  0.706977  0.541051  1
  Cs  Cs6  1  0.548475  0.211016  0.455712  1
  Cs  Cs7  1  0.043817  0.293182  0.044028  1
  Cs  Cs8  1  0.646977  0.412211  0.750000  1
  Cs  Cs9  1  0.146650  0.087728  0.750000  1
  Cs  Cs10  1  0.354553  0.586251  0.250000  1
  Cs  Cs11  1  0.852117  0.912292  0.250000  1
  V  V12  1  0.778000  0.482700  0.250000  1
  Mo  Mo13  1  0.722742  0.982887  0.750000  1
  Mo  Mo14  1  0.222750  0.517076  0.750000  1
  Mo  Mo15  1  0.276876  0.016838  0.250000  1
  Se  Se16  1  0.833153  0.049046  0.589204  1
  Se  Se17  1  0.333289  0.450735  0.910936  1
  Se  Se18  1  0.166828  0.950877  0.088888  1
  Se  Se19  1  0.670143  0.547702  0.405499  1
  Se  Se20  1  0.166828  0.950877  0.411112  1
  Se  Se21  1  0.670143  0.547702  0.094501  1
  Se  Se22  1  0.833153  0.049046  0.910796  1
  Se  Se23  1  0.333289  0.450735  0.589064  1
  Se  Se24  1  0.509723  0.070860  0.750000  1
  Se  Se25  1  0.009742  0.429512  0.750000  1
  Se  Se26  1  0.489948  0.928685  0.250000  1
  Se  Se27  1  0.984416  0.567433  0.250000  1
  Se  Se28  1  0.708676  0.754479  0.750000  1
  Se  Se29  1  0.208685  0.745425  0.750000  1
  Se  Se30  1  0.290723  0.245087  0.250000  1
  Se  Se31  1  0.790961  0.260942  0.250000  1
