# generated using pymatgen
data_Pr2HoHf(Al3Ir)6
_symmetry_space_group_name_H-M   'P 1'
_cell_length_a   7.57357116
_cell_length_b   7.56491565
_cell_length_c   9.48563100
_cell_angle_alpha   90.00000000
_cell_angle_beta   90.00000000
_cell_angle_gamma   119.51253890
_symmetry_Int_Tables_number   1
_chemical_formula_structural   Pr2HoHf(Al3Ir)6
_chemical_formula_sum   'Pr2 Ho1 Hf1 Al18 Ir6'
_cell_volume   472.94867763
_cell_formula_units_Z   1
loop_
 _symmetry_equiv_pos_site_id
 _symmetry_equiv_pos_as_xyz
  1  'x, y, z'
loop_
 _atom_site_type_symbol
 _atom_site_label
 _atom_site_symmetry_multiplicity
 _atom_site_fract_x
 _atom_site_fract_y
 _atom_site_fract_z
 _atom_site_occupancy
  Pr  Pr0  1  0.004852  0.327521  0.750000  1
  Pr  Pr1  1  0.329722  0.006315  0.750000  1
  Ho  Ho2  1  0.671542  0.995923  0.250000  1
  Hf  Hf3  1  0.997981  0.674554  0.250000  1
  Al  Al4  1  0.124972  0.123012  0.250000  1
  Al  Al5  1  0.867216  0.865921  0.750000  1
  Al  Al6  1  0.999837  0.338724  0.082627  1
  Al  Al7  1  0.997367  0.664895  0.935392  1
  Al  Al8  1  0.997367  0.664895  0.564608  1
  Al  Al9  1  0.332791  0.997798  0.417358  1
  Al  Al10  1  0.999837  0.338724  0.417373  1
  Al  Al11  1  0.664528  0.995746  0.568585  1
  Al  Al12  1  0.664528  0.995746  0.931415  1
  Al  Al13  1  0.332791  0.997798  0.082642  1
  Al  Al14  1  0.334779  0.334991  0.541327  1
  Al  Al15  1  0.669284  0.667085  0.440407  1
  Al  Al16  1  0.669284  0.667085  0.059593  1
  Al  Al17  1  0.334779  0.334991  0.958673  1
  Al  Al18  1  0.337080  0.550834  0.250000  1
  Al  Al19  1  0.660996  0.455395  0.750000  1
  Al  Al20  1  0.556648  0.344978  0.250000  1
  Al  Al21  1  0.453988  0.659685  0.750000  1
  Ir  Ir22  1  0.672942  0.329249  0.003518  1
  Ir  Ir23  1  0.328336  0.672515  0.004391  1
  Ir  Ir24  1  0.328336  0.672515  0.495609  1
  Ir  Ir25  1  0.672942  0.329249  0.496482  1
  Ir  Ir26  1  0.997637  0.996927  0.004368  1
  Ir  Ir27  1  0.997637  0.996927  0.495632  1
