# generated using pymatgen
data_Pr2ErIn5
_symmetry_space_group_name_H-M   'P 1'
_cell_length_a   6.56590344
_cell_length_b   6.56590457
_cell_length_c   10.53075600
_cell_angle_alpha   90.00000000
_cell_angle_beta   90.00000000
_cell_angle_gamma   102.81021385
_symmetry_Int_Tables_number   1
_chemical_formula_structural   Pr2ErIn5
_chemical_formula_sum   'Pr4 Er2 In10'
_cell_volume   442.69248469
_cell_formula_units_Z   2
loop_
 _symmetry_equiv_pos_site_id
 _symmetry_equiv_pos_as_xyz
  1  'x, y, z'
loop_
 _atom_site_type_symbol
 _atom_site_label
 _atom_site_symmetry_multiplicity
 _atom_site_fract_x
 _atom_site_fract_y
 _atom_site_fract_z
 _atom_site_occupancy
  Pr  Pr0  1  0.203422  0.796578  0.500000  1
  Pr  Pr1  1  0.203422  0.796578  0.000000  1
  Pr  Pr2  1  0.796578  0.203422  0.500000  1
  Pr  Pr3  1  0.796578  0.203422  0.000000  1
  Er  Er4  1  0.628471  0.628471  0.250000  1
  Er  Er5  1  0.371529  0.371529  0.750000  1
  In  In6  1  0.011045  0.011045  0.250000  1
  In  In7  1  0.988955  0.988955  0.750000  1
  In  In8  1  0.314601  0.314601  0.047105  1
  In  In9  1  0.685399  0.685399  0.952895  1
  In  In10  1  0.314601  0.314601  0.452895  1
  In  In11  1  0.685399  0.685399  0.547105  1
  In  In12  1  0.500275  0.067722  0.250000  1
  In  In13  1  0.932278  0.499725  0.750000  1
  In  In14  1  0.499725  0.932278  0.750000  1
  In  In15  1  0.067722  0.500275  0.250000  1
