# generated using pymatgen
data_Dy6LuSc3(Si3H)2
_symmetry_space_group_name_H-M   'P 1'
_cell_length_a   8.32031000
_cell_length_b   8.32031288
_cell_length_c   5.99681600
_cell_angle_alpha   90.00000000
_cell_angle_beta   90.00000000
_cell_angle_gamma   120.00000445
_symmetry_Int_Tables_number   1
_chemical_formula_structural   Dy6LuSc3(Si3H)2
_chemical_formula_sum   'Dy6 Lu1 Sc3 Si6 H2'
_cell_volume   359.52616441
_cell_formula_units_Z   1
loop_
 _symmetry_equiv_pos_site_id
 _symmetry_equiv_pos_as_xyz
  1  'x, y, z'
loop_
 _atom_site_type_symbol
 _atom_site_label
 _atom_site_symmetry_multiplicity
 _atom_site_fract_x
 _atom_site_fract_y
 _atom_site_fract_z
 _atom_site_occupancy
  Dy  Dy0  1  0.747474  0.748138  0.751131  1
  Dy  Dy1  1  0.251862  0.999336  0.751131  1
  Dy  Dy2  1  0.000664  0.252526  0.751131  1
  Dy  Dy3  1  0.251862  0.252526  0.248869  1
  Dy  Dy4  1  0.747474  0.999336  0.248869  1
  Dy  Dy5  1  0.000664  0.748138  0.248869  1
  Lu  Lu6  1  0.666667  0.333333  0.500000  1
  Sc  Sc7  1  0.666667  0.333333  0.000000  1
  Sc  Sc8  1  0.333333  0.666667  0.000000  1
  Sc  Sc9  1  0.333333  0.666667  0.500000  1
  Si  Si10  1  0.392584  0.394630  0.752478  1
  Si  Si11  1  0.605370  0.997955  0.752478  1
  Si  Si12  1  0.002045  0.607416  0.752478  1
  Si  Si13  1  0.605370  0.607416  0.247522  1
  Si  Si14  1  0.392584  0.997955  0.247522  1
  Si  Si15  1  0.002045  0.394630  0.247522  1
  H  H16  1  0.000000  0.000000  0.500000  1
  H  H17  1  0.000000  0.000000  0.000000  1
