# generated using pymatgen
data_Er10In8NiRu3
_symmetry_space_group_name_H-M   'P 1'
_cell_length_a   3.58081500
_cell_length_b   7.95050328
_cell_length_c   18.16570448
_cell_angle_alpha   89.86399723
_cell_angle_beta   90.00000000
_cell_angle_gamma   90.00000000
_symmetry_Int_Tables_number   1
_chemical_formula_structural   Er10In8NiRu3
_chemical_formula_sum   'Er10 In8 Ni1 Ru3'
_cell_volume   517.16309543
_cell_formula_units_Z   1
loop_
 _symmetry_equiv_pos_site_id
 _symmetry_equiv_pos_as_xyz
  1  'x, y, z'
loop_
 _atom_site_type_symbol
 _atom_site_label
 _atom_site_symmetry_multiplicity
 _atom_site_fract_x
 _atom_site_fract_y
 _atom_site_fract_z
 _atom_site_occupancy
  Er  Er0  1  0.000000  0.116162  0.412702  1
  Er  Er1  1  0.000000  0.882837  0.588905  1
  Er  Er2  1  0.000000  0.381631  0.911002  1
  Er  Er3  1  0.000000  0.615317  0.089410  1
  Er  Er4  1  0.000000  0.242587  0.222341  1
  Er  Er5  1  0.000000  0.755679  0.778812  1
  Er  Er6  1  0.000000  0.256348  0.721041  1
  Er  Er7  1  0.000000  0.750622  0.277912  1
  Er  Er8  1  0.000000  0.999152  0.999944  1
  Er  Er9  1  0.000000  0.500270  0.499583  1
  In  In10  1  0.500000  0.428558  0.349010  1
  In  In11  1  0.500000  0.568573  0.649514  1
  In  In12  1  0.500000  0.068500  0.849618  1
  In  In13  1  0.500000  0.932187  0.149595  1
  In  In14  1  0.500000  0.292119  0.068092  1
  In  In15  1  0.500000  0.704747  0.932875  1
  In  In16  1  0.500000  0.207647  0.568638  1
  In  In17  1  0.500000  0.791573  0.430759  1
  Ni  Ni18  1  0.500000  0.522442  0.195974  1
  Ru  Ru19  1  0.500000  0.022480  0.303844  1
  Ru  Ru20  1  0.500000  0.979866  0.697009  1
  Ru  Ru21  1  0.500000  0.480706  0.803420  1
