# generated using pymatgen
data_Dy5Si9P3Ir16Rh3
_symmetry_space_group_name_H-M   'P 1'
_cell_length_a   12.82612600
_cell_length_b   12.82612691
_cell_length_c   3.95510900
_cell_angle_alpha   90.00000000
_cell_angle_beta   90.00000000
_cell_angle_gamma   119.99999765
_symmetry_Int_Tables_number   1
_chemical_formula_structural   Dy5Si9P3Ir16Rh3
_chemical_formula_sum   'Dy5 Si9 P3 Ir16 Rh3'
_cell_volume   563.48211188
_cell_formula_units_Z   1
loop_
 _symmetry_equiv_pos_site_id
 _symmetry_equiv_pos_as_xyz
  1  'x, y, z'
loop_
 _atom_site_type_symbol
 _atom_site_label
 _atom_site_symmetry_multiplicity
 _atom_site_fract_x
 _atom_site_fract_y
 _atom_site_fract_z
 _atom_site_occupancy
  Dy  Dy0  1  0.333333  0.666667  0.500000  1
  Dy  Dy1  1  0.666667  0.333333  0.500000  1
  Dy  Dy2  1  0.000000  0.815246  0.000000  1
  Dy  Dy3  1  0.184754  0.184754  0.000000  1
  Dy  Dy4  1  0.815246  0.000000  0.000000  1
  Si  Si5  1  0.000000  0.632092  0.500000  1
  Si  Si6  1  0.367908  0.367908  0.500000  1
  Si  Si7  1  0.632092  0.000000  0.500000  1
  Si  Si8  1  0.518777  0.685998  0.000000  1
  Si  Si9  1  0.314002  0.832779  0.000000  1
  Si  Si10  1  0.167221  0.481223  0.000000  1
  Si  Si11  1  0.481223  0.167221  0.000000  1
  Si  Si12  1  0.685998  0.518777  0.000000  1
  Si  Si13  1  0.832779  0.314002  0.000000  1
  P  P14  1  0.000000  0.179430  0.500000  1
  P  P15  1  0.820570  0.820570  0.500000  1
  P  P16  1  0.179430  0.000000  0.500000  1
  Ir  Ir17  1  0.513785  0.872882  0.000000  1
  Ir  Ir18  1  0.127118  0.640903  0.000000  1
  Ir  Ir19  1  0.359097  0.486215  0.000000  1
  Ir  Ir20  1  0.486215  0.359097  0.000000  1
  Ir  Ir21  1  0.872882  0.513785  0.000000  1
  Ir  Ir22  1  0.640903  0.127118  0.000000  1
  Ir  Ir23  1  0.000000  0.277925  0.000000  1
  Ir  Ir24  1  0.722075  0.722075  0.000000  1
  Ir  Ir25  1  0.277925  0.000000  0.000000  1
  Ir  Ir26  1  0.627350  0.807093  0.500000  1
  Ir  Ir27  1  0.192907  0.820257  0.500000  1
  Ir  Ir28  1  0.179743  0.372650  0.500000  1
  Ir  Ir29  1  0.372650  0.179743  0.500000  1
  Ir  Ir30  1  0.807093  0.627350  0.500000  1
  Ir  Ir31  1  0.820257  0.192907  0.500000  1
  Ir  Ir32  1  0.000000  0.000000  0.500000  1
  Rh  Rh33  1  0.000000  0.447306  0.500000  1
  Rh  Rh34  1  0.552694  0.552694  0.500000  1
  Rh  Rh35  1  0.447306  0.000000  0.500000  1
