# generated using pymatgen
data_Er4CuAs5Rh7
_symmetry_space_group_name_H-M   'P 1'
_cell_length_a   7.23053389
_cell_length_b   7.23053439
_cell_length_c   7.23053407
_cell_angle_alpha   108.33922708
_cell_angle_beta   110.04016886
_cell_angle_gamma   110.04016295
_symmetry_Int_Tables_number   1
_chemical_formula_structural   Er4CuAs5Rh7
_chemical_formula_sum   'Er4 Cu1 As5 Rh7'
_cell_volume   290.91250319
_cell_formula_units_Z   1
loop_
 _symmetry_equiv_pos_site_id
 _symmetry_equiv_pos_as_xyz
  1  'x, y, z'
loop_
 _atom_site_type_symbol
 _atom_site_label
 _atom_site_symmetry_multiplicity
 _atom_site_fract_x
 _atom_site_fract_y
 _atom_site_fract_z
 _atom_site_occupancy
  Er  Er0  1  0.000000  0.989998  0.497007  1
  Er  Er1  1  0.000000  0.497007  0.989998  1
  Er  Er2  1  0.492992  0.989998  0.989998  1
  Er  Er3  1  0.507008  0.497007  0.497007  1
  Cu  Cu4  1  0.000000  0.699330  0.699330  1
  As  As5  1  0.685467  0.681293  0.995827  1
  As  As6  1  0.314533  0.995827  0.310360  1
  As  As7  1  0.000000  0.335854  0.335854  1
  As  As8  1  0.314533  0.310360  0.995827  1
  As  As9  1  0.685467  0.995827  0.681293  1
  Rh  Rh10  1  0.747966  0.245809  0.497843  1
  Rh  Rh11  1  0.747966  0.497843  0.245809  1
  Rh  Rh12  1  0.500000  0.246575  0.746575  1
  Rh  Rh13  1  0.252034  0.497843  0.749877  1
  Rh  Rh14  1  0.252034  0.749877  0.497843  1
  Rh  Rh15  1  0.500000  0.746575  0.246575  1
  Rh  Rh16  1  0.000000  0.022978  0.022978  1
