# generated using pymatgen
data_Nd6Dy5Ho5(CdIr)4
_symmetry_space_group_name_H-M   'P 1'
_cell_length_a   9.74400314
_cell_length_b   9.74092964
_cell_length_c   9.74092917
_cell_angle_alpha   59.98790680
_cell_angle_beta   59.98956250
_cell_angle_gamma   59.98956523
_symmetry_Int_Tables_number   1
_chemical_formula_structural   Nd6Dy5Ho5(CdIr)4
_chemical_formula_sum   'Nd6 Dy5 Ho5 Cd4 Ir4'
_cell_volume   653.60443349
_cell_formula_units_Z   1
loop_
 _symmetry_equiv_pos_site_id
 _symmetry_equiv_pos_as_xyz
  1  'x, y, z'
loop_
 _atom_site_type_symbol
 _atom_site_label
 _atom_site_symmetry_multiplicity
 _atom_site_fract_x
 _atom_site_fract_y
 _atom_site_fract_z
 _atom_site_occupancy
  Nd  Nd0  1  0.940487  0.559513  0.559513  1
  Nd  Nd1  1  0.559062  0.940938  0.940938  1
  Nd  Nd2  1  0.559234  0.940637  0.559228  1
  Nd  Nd3  1  0.940901  0.559228  0.940637  1
  Nd  Nd4  1  0.559234  0.559228  0.940637  1
  Nd  Nd5  1  0.940901  0.940637  0.559228  1
  Dy  Dy6  1  0.346957  0.347849  0.347849  1
  Dy  Dy7  1  0.347618  0.348203  0.956561  1
  Dy  Dy8  1  0.347618  0.956561  0.348203  1
  Dy  Dy9  1  0.957345  0.347849  0.347849  1
  Dy  Dy10  1  0.812610  0.187390  0.187390  1
  Ho  Ho11  1  0.187263  0.812737  0.812737  1
  Ho  Ho12  1  0.188050  0.812146  0.186758  1
  Ho  Ho13  1  0.813045  0.186758  0.812146  1
  Ho  Ho14  1  0.188050  0.186758  0.812146  1
  Ho  Ho15  1  0.813045  0.812146  0.186758  1
  Cd  Cd16  1  0.579542  0.579486  0.579486  1
  Cd  Cd17  1  0.579612  0.579726  0.261050  1
  Cd  Cd18  1  0.579612  0.261050  0.579726  1
  Cd  Cd19  1  0.261487  0.579486  0.579486  1
  Ir  Ir20  1  0.140728  0.141469  0.141469  1
  Ir  Ir21  1  0.140632  0.141872  0.576862  1
  Ir  Ir22  1  0.140632  0.576862  0.141872  1
  Ir  Ir23  1  0.576333  0.141469  0.141469  1
