# generated using pymatgen
data_Ho2Al16IrPt8
_symmetry_space_group_name_H-M   'P 1'
_cell_length_a   11.12602820
_cell_length_b   11.12602967
_cell_length_c   11.12602924
_cell_angle_alpha   158.52438679
_cell_angle_beta   115.71076032
_cell_angle_gamma   68.62923249
_symmetry_Int_Tables_number   1
_chemical_formula_structural   Ho2Al16IrPt8
_chemical_formula_sum   'Ho2 Al16 Ir1 Pt8'
_cell_volume   451.06951471
_cell_formula_units_Z   1
loop_
 _symmetry_equiv_pos_site_id
 _symmetry_equiv_pos_as_xyz
  1  'x, y, z'
loop_
 _atom_site_type_symbol
 _atom_site_label
 _atom_site_symmetry_multiplicity
 _atom_site_fract_x
 _atom_site_fract_y
 _atom_site_fract_z
 _atom_site_occupancy
  Ho  Ho0  1  0.228611  0.228716  0.999895  1
  Ho  Ho1  1  0.771179  0.771284  0.999895  1
  Al  Al2  1  0.271605  0.390598  0.881007  1
  Al  Al3  1  0.091343  0.921143  0.170200  1
  Al  Al4  1  0.511241  0.204086  0.307155  1
  Al  Al5  1  0.249056  0.078857  0.170200  1
  Al  Al6  1  0.911742  0.414184  0.497558  1
  Al  Al7  1  0.726513  0.605472  0.121040  1
  Al  Al8  1  0.897141  0.205494  0.691647  1
  Al  Al9  1  0.486153  0.794506  0.691647  1
  Al  Al10  1  0.388225  0.000000  0.388225  1
  Al  Al11  1  0.620963  0.000000  0.620963  1
  Al  Al12  1  0.490409  0.609402  0.881007  1
  Al  Al13  1  0.103069  0.795914  0.307155  1
  Al  Al14  1  0.904740  0.080484  0.824257  1
  Al  Al15  1  0.743773  0.919516  0.824257  1
  Al  Al16  1  0.515568  0.394528  0.121040  1
  Al  Al17  1  0.083374  0.585816  0.497558  1
  Ir  Ir18  1  0.759324  0.500000  0.259324  1
  Pt  Pt19  1  0.022109  0.340228  0.681881  1
  Pt  Pt20  1  0.628338  0.127464  0.500874  1
  Pt  Pt21  1  0.253537  0.500000  0.753537  1
  Pt  Pt22  1  0.373410  0.872536  0.500874  1
  Pt  Pt23  1  0.995311  0.000000  0.995311  1
  Pt  Pt24  1  0.654158  0.338350  0.315807  1
  Pt  Pt25  1  0.341652  0.659772  0.681881  1
  Pt  Pt26  1  0.977457  0.661650  0.315807  1
