# generated using pymatgen
data_La4CuGe2Pd27
_symmetry_space_group_name_H-M   'P 1'
_cell_length_a   9.03296417
_cell_length_b   9.03296417
_cell_length_c   7.20759550
_cell_angle_alpha   90.08089947
_cell_angle_beta   90.08089947
_cell_angle_gamma   89.31391200
_symmetry_Int_Tables_number   1
_chemical_formula_structural   La4CuGe2Pd27
_chemical_formula_sum   'La4 Cu1 Ge2 Pd27'
_cell_volume   588.05640965
_cell_formula_units_Z   1
loop_
 _symmetry_equiv_pos_site_id
 _symmetry_equiv_pos_as_xyz
  1  'x, y, z'
loop_
 _atom_site_type_symbol
 _atom_site_label
 _atom_site_symmetry_multiplicity
 _atom_site_fract_x
 _atom_site_fract_y
 _atom_site_fract_z
 _atom_site_occupancy
  La  La0  1  0.502334  0.002334  0.937058  1
  La  La1  1  0.997666  0.497666  0.062942  1
  La  La2  1  0.000447  0.999553  0.500000  1
  La  La3  1  0.499553  0.500447  0.500000  1
  Cu  Cu4  1  0.250000  0.750000  0.000000  1
  Ge  Ge5  1  0.499928  0.999928  0.449268  1
  Ge  Ge6  1  0.000072  0.500072  0.550732  1
  Pd  Pd7  1  0.330325  0.830325  0.620792  1
  Pd  Pd8  1  0.330071  0.169167  0.622997  1
  Pd  Pd9  1  0.669167  0.830071  0.622997  1
  Pd  Pd10  1  0.668791  0.168791  0.620635  1
  Pd  Pd11  1  0.169675  0.669675  0.379208  1
  Pd  Pd12  1  0.169929  0.330833  0.377003  1
  Pd  Pd13  1  0.830833  0.669929  0.377003  1
  Pd  Pd14  1  0.831209  0.331209  0.379365  1
  Pd  Pd15  1  0.497661  0.766996  0.251785  1
  Pd  Pd16  1  0.498387  0.234140  0.253547  1
  Pd  Pd17  1  0.266996  0.997661  0.251785  1
  Pd  Pd18  1  0.734140  0.998387  0.253547  1
  Pd  Pd19  1  0.002339  0.733004  0.748215  1
  Pd  Pd20  1  0.001613  0.265860  0.746453  1
  Pd  Pd21  1  0.233004  0.502339  0.748215  1
  Pd  Pd22  1  0.765860  0.501613  0.746453  1
  Pd  Pd23  1  0.498827  0.351405  0.856564  1
  Pd  Pd24  1  0.493995  0.656034  0.862043  1
  Pd  Pd25  1  0.851405  0.998827  0.856564  1
  Pd  Pd26  1  0.156034  0.993995  0.862043  1
  Pd  Pd27  1  0.001173  0.148595  0.143436  1
  Pd  Pd28  1  0.006005  0.843966  0.137957  1
  Pd  Pd29  1  0.648595  0.501173  0.143436  1
  Pd  Pd30  1  0.343966  0.506005  0.137957  1
  Pd  Pd31  1  0.250000  0.250000  0.000000  1
  Pd  Pd32  1  0.750000  0.750000  0.000000  1
  Pd  Pd33  1  0.750000  0.250000  0.000000  1
