# generated using pymatgen
data_Be4Co2Mo6C
_symmetry_space_group_name_H-M   'P 1'
_cell_length_a   7.53168478
_cell_length_b   7.53168516
_cell_length_c   7.53168500
_cell_angle_alpha   59.99999629
_cell_angle_beta   59.99999464
_cell_angle_gamma   59.99999808
_symmetry_Int_Tables_number   1
_chemical_formula_structural   Be4Co2Mo6C
_chemical_formula_sum   'Be8 Co4 Mo12 C2'
_cell_volume   302.10743018
_cell_formula_units_Z   2
loop_
 _symmetry_equiv_pos_site_id
 _symmetry_equiv_pos_as_xyz
  1  'x, y, z'
loop_
 _atom_site_type_symbol
 _atom_site_label
 _atom_site_symmetry_multiplicity
 _atom_site_fract_x
 _atom_site_fract_y
 _atom_site_fract_z
 _atom_site_occupancy
  Be  Be0  1  0.422137  0.422137  0.733589  1
  Be  Be1  1  0.422137  0.733589  0.422137  1
  Be  Be2  1  0.733589  0.422137  0.422137  1
  Be  Be3  1  0.422137  0.422137  0.422137  1
  Be  Be4  1  0.827863  0.827863  0.516411  1
  Be  Be5  1  0.827863  0.516411  0.827863  1
  Be  Be6  1  0.516411  0.827863  0.827863  1
  Be  Be7  1  0.827863  0.827863  0.827863  1
  Co  Co8  1  0.625000  0.625000  0.125000  1
  Co  Co9  1  0.625000  0.125000  0.625000  1
  Co  Co10  1  0.125000  0.625000  0.625000  1
  Co  Co11  1  0.625000  0.625000  0.625000  1
  Mo  Mo12  1  0.049520  0.049520  0.450480  1
  Mo  Mo13  1  0.450480  0.049520  0.450480  1
  Mo  Mo14  1  0.049520  0.450480  0.450480  1
  Mo  Mo15  1  0.450480  0.450480  0.049520  1
  Mo  Mo16  1  0.049520  0.450480  0.049520  1
  Mo  Mo17  1  0.450480  0.049520  0.049520  1
  Mo  Mo18  1  0.200480  0.200480  0.799520  1
  Mo  Mo19  1  0.799520  0.200480  0.799520  1
  Mo  Mo20  1  0.200480  0.799520  0.799520  1
  Mo  Mo21  1  0.799520  0.799520  0.200480  1
  Mo  Mo22  1  0.200480  0.799520  0.200480  1
  Mo  Mo23  1  0.799520  0.200480  0.200480  1
  C  C24  1  0.250000  0.250000  0.250000  1
  C  C25  1  0.000000  0.000000  0.000000  1
