# generated using pymatgen
data_Y6Zn15Ag8As
_symmetry_space_group_name_H-M   'P 1'
_cell_length_a   9.18370403
_cell_length_b   9.18370326
_cell_length_c   9.18370400
_cell_angle_alpha   59.99999732
_cell_angle_beta   60.00000011
_cell_angle_gamma   59.99999728
_symmetry_Int_Tables_number   1
_chemical_formula_structural   Y6Zn15Ag8As
_chemical_formula_sum   'Y6 Zn15 Ag8 As1'
_cell_volume   547.69475713
_cell_formula_units_Z   1
loop_
 _symmetry_equiv_pos_site_id
 _symmetry_equiv_pos_as_xyz
  1  'x, y, z'
loop_
 _atom_site_type_symbol
 _atom_site_label
 _atom_site_symmetry_multiplicity
 _atom_site_fract_x
 _atom_site_fract_y
 _atom_site_fract_z
 _atom_site_occupancy
  Y  Y0  1  0.714080  0.285920  0.285920  1
  Y  Y1  1  0.285920  0.714080  0.714080  1
  Y  Y2  1  0.285920  0.714080  0.285920  1
  Y  Y3  1  0.714080  0.285920  0.714080  1
  Y  Y4  1  0.285920  0.285920  0.714080  1
  Y  Y5  1  0.714080  0.714080  0.285920  1
  Zn  Zn6  1  0.500000  0.000000  0.000000  1
  Zn  Zn7  1  0.000000  0.500000  0.500000  1
  Zn  Zn8  1  0.000000  0.500000  0.000000  1
  Zn  Zn9  1  0.500000  0.000000  0.500000  1
  Zn  Zn10  1  0.000000  0.000000  0.500000  1
  Zn  Zn11  1  0.500000  0.500000  0.000000  1
  Zn  Zn12  1  0.328741  0.328741  0.328741  1
  Zn  Zn13  1  0.671259  0.671259  0.671259  1
  Zn  Zn14  1  0.328741  0.328741  0.013779  1
  Zn  Zn15  1  0.328741  0.013779  0.328741  1
  Zn  Zn16  1  0.671259  0.671259  0.986221  1
  Zn  Zn17  1  0.671259  0.986221  0.671259  1
  Zn  Zn18  1  0.013779  0.328741  0.328741  1
  Zn  Zn19  1  0.986221  0.671259  0.671259  1
  Zn  Zn20  1  0.000000  0.000000  0.000000  1
  Ag  Ag21  1  0.121186  0.121186  0.121186  1
  Ag  Ag22  1  0.878814  0.878814  0.878814  1
  Ag  Ag23  1  0.121186  0.121186  0.636443  1
  Ag  Ag24  1  0.121186  0.636443  0.121186  1
  Ag  Ag25  1  0.878814  0.878814  0.363557  1
  Ag  Ag26  1  0.878814  0.363557  0.878814  1
  Ag  Ag27  1  0.636443  0.121186  0.121186  1
  Ag  Ag28  1  0.363557  0.878814  0.878814  1
  As  As29  1  0.500000  0.500000  0.500000  1
