# generated using pymatgen
data_CeLu4Fe3(P3Ru4)4
_symmetry_space_group_name_H-M   'P 1'
_cell_length_a   12.46055800
_cell_length_b   12.46055883
_cell_length_c   3.88612400
_cell_angle_alpha   90.00000000
_cell_angle_beta   90.00000000
_cell_angle_gamma   119.99999533
_symmetry_Int_Tables_number   1
_chemical_formula_structural   CeLu4Fe3(P3Ru4)4
_chemical_formula_sum   'Ce1 Lu4 Fe3 P12 Ru16'
_cell_volume   522.54334046
_cell_formula_units_Z   1
loop_
 _symmetry_equiv_pos_site_id
 _symmetry_equiv_pos_as_xyz
  1  'x, y, z'
loop_
 _atom_site_type_symbol
 _atom_site_label
 _atom_site_symmetry_multiplicity
 _atom_site_fract_x
 _atom_site_fract_y
 _atom_site_fract_z
 _atom_site_occupancy
  Ce  Ce0  1  0.666667  0.333333  0.000000  1
  Lu  Lu1  1  0.181243  0.181071  0.500000  1
  Lu  Lu2  1  0.818929  0.000173  0.500000  1
  Lu  Lu3  1  0.999827  0.818757  0.500000  1
  Lu  Lu4  1  0.333333  0.666667  0.000000  1
  Fe  Fe5  1  0.717683  0.719610  0.500000  1
  Fe  Fe6  1  0.280390  0.998073  0.500000  1
  Fe  Fe7  1  0.001927  0.282317  0.500000  1
  P  P8  1  0.814014  0.816187  0.000000  1
  P  P9  1  0.183813  0.997827  0.000000  1
  P  P10  1  0.002173  0.185986  0.000000  1
  P  P11  1  0.164080  0.473251  0.500000  1
  P  P12  1  0.526749  0.690829  0.500000  1
  P  P13  1  0.309171  0.835920  0.500000  1
  P  P14  1  0.689681  0.530727  0.500000  1
  P  P15  1  0.841046  0.310319  0.500000  1
  P  P16  1  0.469273  0.158954  0.500000  1
  P  P17  1  0.372157  0.372415  0.000000  1
  P  P18  1  0.627585  0.999742  0.000000  1
  P  P19  1  0.000258  0.627843  0.000000  1
  Ru  Ru20  1  0.558371  0.557332  0.000000  1
  Ru  Ru21  1  0.442668  0.001039  0.000000  1
  Ru  Ru22  1  0.998961  0.441629  0.000000  1
  Ru  Ru23  1  0.182712  0.374402  0.000000  1
  Ru  Ru24  1  0.625598  0.808309  0.000000  1
  Ru  Ru25  1  0.191691  0.817288  0.000000  1
  Ru  Ru26  1  0.809295  0.628809  0.000000  1
  Ru  Ru27  1  0.819514  0.190705  0.000000  1
  Ru  Ru28  1  0.371191  0.180486  0.000000  1
  Ru  Ru29  1  0.363858  0.491570  0.500000  1
  Ru  Ru30  1  0.508430  0.872287  0.500000  1
  Ru  Ru31  1  0.127713  0.636142  0.500000  1
  Ru  Ru32  1  0.872560  0.510662  0.500000  1
  Ru  Ru33  1  0.638103  0.127440  0.500000  1
  Ru  Ru34  1  0.489338  0.361897  0.500000  1
  Ru  Ru35  1  0.000000  0.000000  0.000000  1
