# generated using pymatgen
data_Y4MgB4Ir9
_symmetry_space_group_name_H-M   'P 1'
_cell_length_a   10.92052752
_cell_length_b   10.92052610
_cell_length_c   10.92052587
_cell_angle_alpha   29.33142255
_cell_angle_beta   29.33142526
_cell_angle_gamma   29.33143140
_symmetry_Int_Tables_number   1
_chemical_formula_structural   Y4MgB4Ir9
_chemical_formula_sum   'Y4 Mg1 B4 Ir9'
_cell_volume   276.55201998
_cell_formula_units_Z   1
loop_
 _symmetry_equiv_pos_site_id
 _symmetry_equiv_pos_as_xyz
  1  'x, y, z'
loop_
 _atom_site_type_symbol
 _atom_site_label
 _atom_site_symmetry_multiplicity
 _atom_site_fract_x
 _atom_site_fract_y
 _atom_site_fract_z
 _atom_site_occupancy
  Y  Y0  1  0.149731  0.149731  0.149731  1
  Y  Y1  1  0.950452  0.950452  0.950452  1
  Y  Y2  1  0.850269  0.850269  0.850269  1
  Y  Y3  1  0.049548  0.049548  0.049548  1
  Mg  Mg4  1  0.500000  0.500000  0.500000  1
  B  B5  1  0.615912  0.615912  0.615912  1
  B  B6  1  0.717305  0.717305  0.717305  1
  B  B7  1  0.384088  0.384088  0.384088  1
  B  B8  1  0.282695  0.282695  0.282695  1
  Ir  Ir9  1  0.401896  0.905460  0.401896  1
  Ir  Ir10  1  0.905460  0.401896  0.401896  1
  Ir  Ir11  1  0.500000  0.500000  0.000000  1
  Ir  Ir12  1  0.500000  0.000000  0.500000  1
  Ir  Ir13  1  0.000000  0.500000  0.500000  1
  Ir  Ir14  1  0.598104  0.094540  0.598104  1
  Ir  Ir15  1  0.598104  0.598104  0.094540  1
  Ir  Ir16  1  0.094540  0.598104  0.598104  1
  Ir  Ir17  1  0.401896  0.401896  0.905460  1
