# generated using pymatgen
data_SmHo2PtO7
_symmetry_space_group_name_H-M   'P 1'
_cell_length_a   6.47111715
_cell_length_b   6.47111752
_cell_length_c   7.48293900
_cell_angle_alpha   90.00000000
_cell_angle_beta   90.00000000
_cell_angle_gamma   109.31176796
_symmetry_Int_Tables_number   1
_chemical_formula_structural   SmHo2PtO7
_chemical_formula_sum   'Sm2 Ho4 Pt2 O14'
_cell_volume   295.71946871
_cell_formula_units_Z   2
loop_
 _symmetry_equiv_pos_site_id
 _symmetry_equiv_pos_as_xyz
  1  'x, y, z'
loop_
 _atom_site_type_symbol
 _atom_site_label
 _atom_site_symmetry_multiplicity
 _atom_site_fract_x
 _atom_site_fract_y
 _atom_site_fract_z
 _atom_site_occupancy
  Sm  Sm0  1  0.500000  0.500000  0.500000  1
  Sm  Sm1  1  0.500000  0.500000  0.000000  1
  Ho  Ho2  1  0.532203  0.999513  0.750000  1
  Ho  Ho3  1  0.999513  0.532203  0.250000  1
  Ho  Ho4  1  0.467797  0.000487  0.250000  1
  Ho  Ho5  1  0.000487  0.467797  0.750000  1
  Pt  Pt6  1  0.000000  0.000000  0.500000  1
  Pt  Pt7  1  0.000000  0.000000  0.000000  1
  O  O8  1  0.674442  0.925177  0.473504  1
  O  O9  1  0.925177  0.674442  0.526496  1
  O  O10  1  0.674442  0.925177  0.026496  1
  O  O11  1  0.925177  0.674442  0.973504  1
  O  O12  1  0.325558  0.074823  0.526496  1
  O  O13  1  0.074823  0.325558  0.473504  1
  O  O14  1  0.325558  0.074823  0.973504  1
  O  O15  1  0.074823  0.325558  0.026496  1
  O  O16  1  0.924671  0.075329  0.750000  1
  O  O17  1  0.075329  0.924671  0.250000  1
  O  O18  1  0.363638  0.636362  0.750000  1
  O  O19  1  0.636362  0.363638  0.250000  1
  O  O20  1  0.640351  0.359649  0.750000  1
  O  O21  1  0.359649  0.640351  0.250000  1
