# generated using pymatgen
data_SrSmTaMnO6
_symmetry_space_group_name_H-M   'P 1'
_cell_length_a   8.12539332
_cell_length_b   8.12539280
_cell_length_c   9.81353926
_cell_angle_alpha   66.67170868
_cell_angle_beta   66.67173071
_cell_angle_gamma   92.13988417
_symmetry_Int_Tables_number   1
_chemical_formula_structural   SrSmTaMnO6
_chemical_formula_sum   'Sr4 Sm4 Ta4 Mn4 O24'
_cell_volume   531.62748705
_cell_formula_units_Z   4
loop_
 _symmetry_equiv_pos_site_id
 _symmetry_equiv_pos_as_xyz
  1  'x, y, z'
loop_
 _atom_site_type_symbol
 _atom_site_label
 _atom_site_symmetry_multiplicity
 _atom_site_fract_x
 _atom_site_fract_y
 _atom_site_fract_z
 _atom_site_occupancy
  Sr  Sr0  1  0.398376  0.858262  0.251653  1
  Sr  Sr1  1  0.898385  0.358263  0.251630  1
  Sr  Sr2  1  0.108264  0.148372  0.751652  1
  Sr  Sr3  1  0.608268  0.648379  0.751634  1
  Sm  Sm4  1  0.081216  0.644717  0.755304  1
  Sm  Sm5  1  0.581234  0.144724  0.755289  1
  Sm  Sm6  1  0.394729  0.331221  0.255299  1
  Sm  Sm7  1  0.894722  0.831219  0.255296  1
  Ta  Ta8  1  0.751752  0.247124  0.000101  1
  Ta  Ta9  1  0.251733  0.747124  0.000100  1
  Ta  Ta10  1  0.497139  0.501744  0.500099  1
  Ta  Ta11  1  0.997132  0.001732  0.500096  1
  Mn  Mn12  1  0.501788  0.994511  0.501810  1
  Mn  Mn13  1  0.744511  0.751894  0.001779  1
  Mn  Mn14  1  0.001880  0.494543  0.501694  1
  Mn  Mn15  1  0.244513  0.251929  0.001821  1
  O  O16  1  0.263511  0.995985  0.445106  1
  O  O17  1  0.763511  0.495982  0.445101  1
  O  O18  1  0.745985  0.513508  0.945103  1
  O  O19  1  0.245993  0.013509  0.945106  1
  O  O20  1  0.237501  0.534455  0.558349  1
  O  O21  1  0.737508  0.034459  0.558345  1
  O  O22  1  0.784458  0.987498  0.058350  1
  O  O23  1  0.284469  0.487503  0.058346  1
  O  O24  1  0.583296  0.766393  0.445253  1
  O  O25  1  0.083304  0.266383  0.445245  1
  O  O26  1  0.016401  0.333287  0.945254  1
  O  O27  1  0.516387  0.833301  0.945243  1
  O  O28  1  0.942158  0.739701  0.541495  1
  O  O29  1  0.442154  0.239709  0.541505  1
  O  O30  1  0.489715  0.192145  0.041506  1
  O  O31  1  0.989704  0.692158  0.041494  1
  O  O32  1  0.941508  0.899425  0.738246  1
  O  O33  1  0.441518  0.399427  0.738248  1
  O  O34  1  0.149432  0.691507  0.238244  1
  O  O35  1  0.649431  0.191508  0.238248  1
  O  O36  1  0.543220  0.574978  0.262743  1
  O  O37  1  0.043231  0.074977  0.262736  1
  O  O38  1  0.324980  0.793222  0.762738  1
  O  O39  1  0.824982  0.293215  0.762742  1
