# generated using pymatgen
data_Ba3Yb5(Si3Pt)4
_symmetry_space_group_name_H-M   'P 1'
_cell_length_a   8.28913800
_cell_length_b   8.28913829
_cell_length_c   8.74518700
_cell_angle_alpha   90.00000000
_cell_angle_beta   90.00000000
_cell_angle_gamma   119.99999085
_symmetry_Int_Tables_number   1
_chemical_formula_structural   Ba3Yb5(Si3Pt)4
_chemical_formula_sum   'Ba3 Yb5 Si12 Pt4'
_cell_volume   520.37752065
_cell_formula_units_Z   1
loop_
 _symmetry_equiv_pos_site_id
 _symmetry_equiv_pos_as_xyz
  1  'x, y, z'
loop_
 _atom_site_type_symbol
 _atom_site_label
 _atom_site_symmetry_multiplicity
 _atom_site_fract_x
 _atom_site_fract_y
 _atom_site_fract_z
 _atom_site_occupancy
  Ba  Ba0  1  0.499933  0.500067  0.750000  1
  Ba  Ba1  1  0.000135  0.500067  0.750000  1
  Ba  Ba2  1  0.499933  0.999865  0.750000  1
  Yb  Yb3  1  0.500042  0.499958  0.250000  1
  Yb  Yb4  1  0.999915  0.499958  0.250000  1
  Yb  Yb5  1  0.500042  0.000085  0.250000  1
  Yb  Yb6  1  0.000000  0.000000  0.750000  1
  Yb  Yb7  1  0.000000  0.000000  0.250000  1
  Si  Si8  1  0.835992  0.164008  0.022744  1
  Si  Si9  1  0.164026  0.835974  0.022938  1
  Si  Si10  1  0.328017  0.164008  0.022744  1
  Si  Si11  1  0.164026  0.835974  0.477062  1
  Si  Si12  1  0.671948  0.835974  0.022938  1
  Si  Si13  1  0.835992  0.164008  0.477256  1
  Si  Si14  1  0.835992  0.671983  0.022744  1
  Si  Si15  1  0.671948  0.835974  0.477062  1
  Si  Si16  1  0.164026  0.328052  0.022938  1
  Si  Si17  1  0.328017  0.164008  0.477256  1
  Si  Si18  1  0.164026  0.328052  0.477062  1
  Si  Si19  1  0.835992  0.671983  0.477256  1
  Pt  Pt20  1  0.666667  0.333333  0.032339  1
  Pt  Pt21  1  0.333333  0.666667  0.032558  1
  Pt  Pt22  1  0.333333  0.666667  0.467442  1
  Pt  Pt23  1  0.666667  0.333333  0.467661  1
