# generated using pymatgen
data_TbDy2Al3Ge2Pd
_symmetry_space_group_name_H-M   'P 1'
_cell_length_a   7.01873082
_cell_length_b   7.01872999
_cell_length_c   4.25328700
_cell_angle_alpha   90.00000000
_cell_angle_beta   90.00000000
_cell_angle_gamma   120.08271645
_symmetry_Int_Tables_number   1
_chemical_formula_structural   TbDy2Al3Ge2Pd
_chemical_formula_sum   'Tb1 Dy2 Al3 Ge2 Pd1'
_cell_volume   181.30502947
_cell_formula_units_Z   1
loop_
 _symmetry_equiv_pos_site_id
 _symmetry_equiv_pos_as_xyz
  1  'x, y, z'
loop_
 _atom_site_type_symbol
 _atom_site_label
 _atom_site_symmetry_multiplicity
 _atom_site_fract_x
 _atom_site_fract_y
 _atom_site_fract_z
 _atom_site_occupancy
  Tb  Tb0  1  0.585229  0.585228  0.000000  1
  Dy  Dy1  1  0.414120  0.999528  0.000000  1
  Dy  Dy2  1  0.999528  0.414120  0.000000  1
  Al  Al3  1  0.767200  0.999638  0.500000  1
  Al  Al4  1  0.232646  0.232646  0.500000  1
  Al  Al5  1  0.999638  0.767200  0.500000  1
  Ge  Ge6  1  0.666910  0.332733  0.500000  1
  Ge  Ge7  1  0.332733  0.666910  0.500000  1
  Pd  Pd8  1  0.001996  0.001996  0.000000  1
