# generated using pymatgen
data_GdGe4(HRh)3
_symmetry_space_group_name_H-M   'P 1'
_cell_length_a   19.04742784
_cell_length_b   19.66860807
_cell_length_c   10.17134700
_cell_angle_alpha   90.00000000
_cell_angle_beta   90.00000000
_cell_angle_gamma   121.08478460
_symmetry_Int_Tables_number   1
_chemical_formula_structural   GdGe4(HRh)3
_chemical_formula_sum   'Gd1 Ge4 H3 Rh3'
_cell_volume   3263.37689954
_cell_formula_units_Z   1
loop_
 _symmetry_equiv_pos_site_id
 _symmetry_equiv_pos_as_xyz
  1  'x, y, z'
loop_
 _atom_site_type_symbol
 _atom_site_label
 _atom_site_symmetry_multiplicity
 _atom_site_fract_x
 _atom_site_fract_y
 _atom_site_fract_z
 _atom_site_occupancy
  Gd  Gd0  1  0.000401  0.000201  0.000000  1
  Ge  Ge1  1  0.332960  0.666481  0.000000  1
  Ge  Ge2  1  0.809542  0.618762  0.500000  1
  Ge  Ge3  1  0.380484  0.190242  0.500000  1
  Ge  Ge4  1  0.809542  0.190779  0.500000  1
  H  H5  1  0.100324  0.200478  0.500000  1
  H  H6  1  0.799184  0.899591  0.500000  1
  H  H7  1  0.100324  0.899845  0.500000  1
  Rh  Rh8  1  0.529316  0.058299  0.000000  1
  Rh  Rh9  1  0.941942  0.470971  0.000000  1
  Rh  Rh10  1  0.529316  0.471017  0.000000  1
