# generated using pymatgen
data_Sr2AlCrH10
_symmetry_space_group_name_H-M   'P 1'
_cell_length_a   4.52691500
_cell_length_b   5.11020503
_cell_length_c   12.53412615
_cell_angle_alpha   94.73145609
_cell_angle_beta   90.00000000
_cell_angle_gamma   90.00000000
_symmetry_Int_Tables_number   1
_chemical_formula_structural   Sr2AlCrH10
_chemical_formula_sum   'Sr4 Al2 Cr2 H20'
_cell_volume   288.96965030
_cell_formula_units_Z   2
loop_
 _symmetry_equiv_pos_site_id
 _symmetry_equiv_pos_as_xyz
  1  'x, y, z'
loop_
 _atom_site_type_symbol
 _atom_site_label
 _atom_site_symmetry_multiplicity
 _atom_site_fract_x
 _atom_site_fract_y
 _atom_site_fract_z
 _atom_site_occupancy
  Sr  Sr0  1  0.281255  0.173329  0.659090  1
  Sr  Sr1  1  0.781255  0.326671  0.340910  1
  Sr  Sr2  1  0.229151  0.789860  0.150548  1
  Sr  Sr3  1  0.729151  0.710140  0.849452  1
  Al  Al4  1  0.175624  0.852710  0.413043  1
  Al  Al5  1  0.675624  0.647290  0.586957  1
  Cr  Cr6  1  0.285898  0.227468  0.926019  1
  Cr  Cr7  1  0.785898  0.272532  0.073981  1
  H  H8  1  0.523834  0.390933  0.512502  1
  H  H9  1  0.023834  0.109067  0.487498  1
  H  H10  1  0.020571  0.458387  0.995595  1
  H  H11  1  0.520571  0.041613  0.004405  1
  H  H12  1  0.203570  0.961423  0.837899  1
  H  H13  1  0.703570  0.538577  0.162101  1
  H  H14  1  0.321751  0.060242  0.324419  1
  H  H15  1  0.821751  0.439758  0.675581  1
  H  H16  1  0.208195  0.450418  0.834729  1
  H  H17  1  0.708195  0.049582  0.165271  1
  H  H18  1  0.299694  0.577963  0.337713  1
  H  H19  1  0.799694  0.922037  0.662287  1
  H  H20  1  0.582454  0.205809  0.844995  1
  H  H21  1  0.082454  0.294191  0.155005  1
  H  H22  1  0.871660  0.831348  0.327691  1
  H  H23  1  0.371660  0.668652  0.672309  1
  H  H24  1  0.014060  0.042056  0.998302  1
  H  H25  1  0.514060  0.457944  0.001698  1
  H  H26  1  0.482283  0.867966  0.502607  1
  H  H27  1  0.982283  0.632034  0.497393  1
