# generated using pymatgen
data_Sc22Tc4Ir3Os
_symmetry_space_group_name_H-M   'P 1'
_cell_length_a   9.45936193
_cell_length_b   9.49205222
_cell_length_c   9.50330921
_cell_angle_alpha   60.23854646
_cell_angle_beta   60.07491687
_cell_angle_gamma   60.19254767
_symmetry_Int_Tables_number   1
_chemical_formula_structural   Sc22Tc4Ir3Os
_chemical_formula_sum   'Sc22 Tc4 Ir3 Os1'
_cell_volume   605.66968087
_cell_formula_units_Z   1
loop_
 _symmetry_equiv_pos_site_id
 _symmetry_equiv_pos_as_xyz
  1  'x, y, z'
loop_
 _atom_site_type_symbol
 _atom_site_label
 _atom_site_symmetry_multiplicity
 _atom_site_fract_x
 _atom_site_fract_y
 _atom_site_fract_z
 _atom_site_occupancy
  Sc  Sc0  1  0.802725  0.801473  0.198525  1
  Sc  Sc1  1  0.197044  0.802265  0.197737  1
  Sc  Sc2  1  0.802032  0.197969  0.197969  1
  Sc  Sc3  1  0.197275  0.198527  0.801475  1
  Sc  Sc4  1  0.802956  0.197735  0.802263  1
  Sc  Sc5  1  0.197968  0.802031  0.802031  1
  Sc  Sc6  1  0.616265  0.614807  0.151529  1
  Sc  Sc7  1  0.617398  0.151532  0.614807  1
  Sc  Sc8  1  0.148853  0.616821  0.616008  1
  Sc  Sc9  1  0.618317  0.616005  0.616825  1
  Sc  Sc10  1  0.383735  0.385193  0.848471  1
  Sc  Sc11  1  0.382602  0.848468  0.385193  1
  Sc  Sc12  1  0.851147  0.383179  0.383992  1
  Sc  Sc13  1  0.381683  0.383995  0.383175  1
  Sc  Sc14  1  0.842498  0.845454  0.468809  1
  Sc  Sc15  1  0.843241  0.468810  0.845451  1
  Sc  Sc16  1  0.470011  0.844482  0.843413  1
  Sc  Sc17  1  0.842094  0.843416  0.844475  1
  Sc  Sc18  1  0.157502  0.154546  0.531191  1
  Sc  Sc19  1  0.156759  0.531190  0.154549  1
  Sc  Sc20  1  0.529989  0.155518  0.156587  1
  Sc  Sc21  1  0.157906  0.156584  0.155525  1
  Tc  Tc22  1  0.000000  0.000000  0.000000  1
  Tc  Tc23  1  0.000000  0.000000  0.500000  1
  Tc  Tc24  1  0.000000  0.500000  0.500000  1
  Tc  Tc25  1  0.500000  0.500000  0.000000  1
  Ir  Ir26  1  0.500000  0.000000  0.500000  1
  Ir  Ir27  1  0.000000  0.500000  0.000000  1
  Ir  Ir28  1  0.500000  0.000000  0.000000  1
  Os  Os29  1  0.500000  0.500000  0.500000  1
