# generated using pymatgen
data_CsMnSn3O8
_symmetry_space_group_name_H-M   'P 1'
_cell_length_a   6.53049897
_cell_length_b   7.71608193
_cell_length_c   7.69023260
_cell_angle_alpha   92.07887453
_cell_angle_beta   76.68436570
_cell_angle_gamma   100.29624478
_symmetry_Int_Tables_number   1
_chemical_formula_structural   CsMnSn3O8
_chemical_formula_sum   'Cs2 Mn2 Sn6 O16'
_cell_volume   371.01474897
_cell_formula_units_Z   2
loop_
 _symmetry_equiv_pos_site_id
 _symmetry_equiv_pos_as_xyz
  1  'x, y, z'
loop_
 _atom_site_type_symbol
 _atom_site_label
 _atom_site_symmetry_multiplicity
 _atom_site_fract_x
 _atom_site_fract_y
 _atom_site_fract_z
 _atom_site_occupancy
  Cs  Cs0  1  0.257132  0.999251  0.992492  1
  Cs  Cs1  1  0.757160  0.999217  0.992357  1
  Mn  Mn2  1  0.323272  0.816291  0.509928  1
  Mn  Mn3  1  0.823271  0.816285  0.509894  1
  Sn  Sn4  1  0.176520  0.172390  0.488347  1
  Sn  Sn5  1  0.676529  0.172389  0.488336  1
  Sn  Sn6  1  0.920263  0.495293  0.809505  1
  Sn  Sn7  1  0.420212  0.495292  0.809496  1
  Sn  Sn8  1  0.571190  0.518374  0.193700  1
  Sn  Sn9  1  0.071188  0.518383  0.193706  1
  O  O10  1  0.228111  0.628059  0.701773  1
  O  O11  1  0.728110  0.628058  0.701779  1
  O  O12  1  0.264326  0.369985  0.293685  1
  O  O13  1  0.764337  0.369992  0.293682  1
  O  O14  1  0.919079  0.291907  0.625362  1
  O  O15  1  0.419085  0.291916  0.625352  1
  O  O16  1  0.562688  0.706863  0.381464  1
  O  O17  1  0.062697  0.706869  0.381464  1
  O  O18  1  0.932706  0.046100  0.360341  1
  O  O19  1  0.432703  0.046109  0.360334  1
  O  O20  1  0.605079  0.946033  0.640574  1
  O  O21  1  0.105099  0.946040  0.640596  1
  O  O22  1  0.385141  0.641503  0.052493  1
  O  O23  1  0.885148  0.641502  0.052496  1
  O  O24  1  0.104476  0.367946  0.950423  1
  O  O25  1  0.604478  0.367950  0.950421  1
