# generated using pymatgen
data_Tb2Ho2Ga3SiRu4
_symmetry_space_group_name_H-M   'P 1'
_cell_length_a   4.46285600
_cell_length_b   7.14508553
_cell_length_c   7.14244106
_cell_angle_alpha   90.20370202
_cell_angle_beta   90.00000000
_cell_angle_gamma   90.00000000
_symmetry_Int_Tables_number   1
_chemical_formula_structural   Tb2Ho2Ga3SiRu4
_chemical_formula_sum   'Tb2 Ho2 Ga3 Si1 Ru4'
_cell_volume   227.75306306
_cell_formula_units_Z   1
loop_
 _symmetry_equiv_pos_site_id
 _symmetry_equiv_pos_as_xyz
  1  'x, y, z'
loop_
 _atom_site_type_symbol
 _atom_site_label
 _atom_site_symmetry_multiplicity
 _atom_site_fract_x
 _atom_site_fract_y
 _atom_site_fract_z
 _atom_site_occupancy
  Tb  Tb0  1  0.750000  0.016432  0.195935  1
  Tb  Tb1  1  0.750000  0.515253  0.306268  1
  Ho  Ho2  1  0.250000  0.985034  0.806171  1
  Ho  Ho3  1  0.250000  0.476659  0.695206  1
  Ga  Ga4  1  0.250000  0.302679  0.106183  1
  Ga  Ga5  1  0.750000  0.694254  0.891553  1
  Ga  Ga6  1  0.250000  0.801200  0.397693  1
  Si  Si7  1  0.750000  0.196122  0.602737  1
  Ru  Ru8  1  0.750000  0.857890  0.566472  1
  Ru  Ru9  1  0.250000  0.162612  0.447865  1
  Ru  Ru10  1  0.750000  0.331763  0.920065  1
  Ru  Ru11  1  0.250000  0.660100  0.063851  1
