# generated using pymatgen
data_Yb3PrAl18GaIr5
_symmetry_space_group_name_H-M   'P 1'
_cell_length_a   7.61614266
_cell_length_b   7.61798410
_cell_length_c   9.59232527
_cell_angle_alpha   89.97363192
_cell_angle_beta   90.10755923
_cell_angle_gamma   119.42368825
_symmetry_Int_Tables_number   1
_chemical_formula_structural   Yb3PrAl18GaIr5
_chemical_formula_sum   'Yb3 Pr1 Al18 Ga1 Ir5'
_cell_volume   484.75436942
_cell_formula_units_Z   1
loop_
 _symmetry_equiv_pos_site_id
 _symmetry_equiv_pos_as_xyz
  1  'x, y, z'
loop_
 _atom_site_type_symbol
 _atom_site_label
 _atom_site_symmetry_multiplicity
 _atom_site_fract_x
 _atom_site_fract_y
 _atom_site_fract_z
 _atom_site_occupancy
  Yb  Yb0  1  0.001705  0.320106  0.749670  1
  Yb  Yb1  1  0.677194  0.997878  0.250088  1
  Yb  Yb2  1  0.323373  0.003645  0.750269  1
  Pr  Pr3  1  0.998587  0.677683  0.247992  1
  Al  Al4  1  0.140842  0.141600  0.261386  1
  Al  Al5  1  0.858070  0.859916  0.739945  1
  Al  Al6  1  0.003256  0.344255  0.076145  1
  Al  Al7  1  0.997560  0.649553  0.915689  1
  Al  Al8  1  0.001735  0.663536  0.573952  1
  Al  Al9  1  0.339082  0.001960  0.433428  1
  Al  Al10  1  0.998554  0.335110  0.432739  1
  Al  Al11  1  0.663716  0.001602  0.569927  1
  Al  Al12  1  0.652205  0.997453  0.920623  1
  Al  Al13  1  0.351431  0.005921  0.076760  1
  Al  Al14  1  0.332060  0.333025  0.550496  1
  Al  Al15  1  0.665971  0.667569  0.454405  1
  Al  Al16  1  0.651829  0.654324  0.057455  1
  Al  Al17  1  0.345972  0.346075  0.938982  1
  Al  Al18  1  0.338990  0.550405  0.251840  1
  Al  Al19  1  0.659162  0.447574  0.747974  1
  Al  Al20  1  0.549830  0.338762  0.251821  1
  Al  Al21  1  0.447032  0.660718  0.747984  1
  Ga  Ga22  1  0.000403  0.998715  0.000302  1
  Ir  Ir23  1  0.671654  0.329743  0.999407  1
  Ir  Ir24  1  0.329042  0.671437  0.999516  1
  Ir  Ir25  1  0.329313  0.670936  0.499866  1
  Ir  Ir26  1  0.670873  0.330369  0.500384  1
  Ir  Ir27  1  0.000559  0.000130  0.500954  1
