# generated using pymatgen
data_La3Sm4P12Pd17
_symmetry_space_group_name_H-M   'P 1'
_cell_length_a   12.43488387
_cell_length_b   12.43488334
_cell_length_c   13.67414400
_cell_angle_alpha   68.17182274
_cell_angle_beta   68.17182398
_cell_angle_gamma   18.93558451
_symmetry_Int_Tables_number   1
_chemical_formula_structural   La3Sm4P12Pd17
_chemical_formula_sum   'La3 Sm4 P12 Pd17'
_cell_volume   635.51188635
_cell_formula_units_Z   1
loop_
 _symmetry_equiv_pos_site_id
 _symmetry_equiv_pos_as_xyz
  1  'x, y, z'
loop_
 _atom_site_type_symbol
 _atom_site_label
 _atom_site_symmetry_multiplicity
 _atom_site_fract_x
 _atom_site_fract_y
 _atom_site_fract_z
 _atom_site_occupancy
  La  La0  1  0.500000  0.500000  0.500000  1
  La  La1  1  0.417432  0.417432  0.261572  1
  La  La2  1  0.582568  0.582568  0.738428  1
  Sm  Sm3  1  0.364846  0.364846  0.999907  1
  Sm  Sm4  1  0.635154  0.635154  0.000093  1
  Sm  Sm5  1  0.233131  0.233131  0.314343  1
  Sm  Sm6  1  0.766869  0.766869  0.685657  1
  P  P7  1  0.061364  0.061364  0.926855  1
  P  P8  1  0.938636  0.938636  0.073145  1
  P  P9  1  0.886499  0.886499  0.829289  1
  P  P10  1  0.113501  0.113501  0.170711  1
  P  P11  1  0.189109  0.189109  0.620074  1
  P  P12  1  0.810891  0.810891  0.379926  1
  P  P13  1  0.363401  0.363401  0.580988  1
  P  P14  1  0.636599  0.636599  0.419012  1
  P  P15  1  0.010562  0.010562  0.671006  1
  P  P16  1  0.989438  0.989438  0.328994  1
  P  P17  1  0.232479  0.232479  0.882609  1
  P  P18  1  0.767521  0.767521  0.117391  1
  Pd  Pd19  1  0.838191  0.838191  0.192878  1
  Pd  Pd20  1  0.161809  0.161809  0.807122  1
  Pd  Pd21  1  0.026813  0.026813  0.123801  1
  Pd  Pd22  1  0.973187  0.973187  0.876199  1
  Pd  Pd23  1  0.889576  0.889576  0.458744  1
  Pd  Pd24  1  0.110424  0.110424  0.541256  1
  Pd  Pd25  1  0.500000  0.500000  0.000000  1
  Pd  Pd26  1  0.547754  0.547754  0.252334  1
  Pd  Pd27  1  0.452246  0.452246  0.747666  1
  Pd  Pd28  1  0.296021  0.296021  0.488550  1
  Pd  Pd29  1  0.703979  0.703979  0.511450  1
  Pd  Pd30  1  0.667225  0.667225  0.222662  1
  Pd  Pd31  1  0.332775  0.332775  0.777338  1
  Pd  Pd32  1  0.906416  0.906416  0.645463  1
  Pd  Pd33  1  0.093584  0.093584  0.354537  1
  Pd  Pd34  1  0.217539  0.217539  0.069729  1
  Pd  Pd35  1  0.782461  0.782461  0.930271  1
