# generated using pymatgen
data_Zr5Te8
_symmetry_space_group_name_H-M   'P 1'
_cell_length_a   7.95147899
_cell_length_b   7.95147972
_cell_length_c   9.72721117
_cell_angle_alpha   53.09395486
_cell_angle_beta   53.09394972
_cell_angle_gamma   61.00063581
_symmetry_Int_Tables_number   1
_chemical_formula_structural   Zr5Te8
_chemical_formula_sum   'Zr5 Te8'
_cell_volume   385.74633553
_cell_formula_units_Z   1
loop_
 _symmetry_equiv_pos_site_id
 _symmetry_equiv_pos_as_xyz
  1  'x, y, z'
loop_
 _atom_site_type_symbol
 _atom_site_label
 _atom_site_symmetry_multiplicity
 _atom_site_fract_x
 _atom_site_fract_y
 _atom_site_fract_z
 _atom_site_occupancy
  Zr  Zr0  1  0.729808  0.270192  0.500000  1
  Zr  Zr1  1  0.270192  0.729808  0.500000  1
  Zr  Zr2  1  0.750840  0.750840  0.012981  1
  Zr  Zr3  1  0.249160  0.249160  0.987019  1
  Zr  Zr4  1  0.000000  0.000000  0.000000  1
  Te  Te5  1  0.454296  0.454296  0.324330  1
  Te  Te6  1  0.545704  0.545704  0.675670  1
  Te  Te7  1  0.535018  0.056183  0.173433  1
  Te  Te8  1  0.464982  0.943817  0.826567  1
  Te  Te9  1  0.943817  0.464982  0.826567  1
  Te  Te10  1  0.056183  0.535018  0.173433  1
  Te  Te11  1  0.952620  0.952620  0.341382  1
  Te  Te12  1  0.047380  0.047380  0.658618  1
