# generated using pymatgen
data_Rb4Pa2Si8O23
_symmetry_space_group_name_H-M   'P 1'
_cell_length_a   7.01733776
_cell_length_b   8.10472230
_cell_length_c   11.64702506
_cell_angle_alpha   104.35589961
_cell_angle_beta   89.62050308
_cell_angle_gamma   106.36116304
_symmetry_Int_Tables_number   1
_chemical_formula_structural   Rb4Pa2Si8O23
_chemical_formula_sum   'Rb4 Pa2 Si8 O23'
_cell_volume   614.31151909
_cell_formula_units_Z   1
loop_
 _symmetry_equiv_pos_site_id
 _symmetry_equiv_pos_as_xyz
  1  'x, y, z'
loop_
 _atom_site_type_symbol
 _atom_site_label
 _atom_site_symmetry_multiplicity
 _atom_site_fract_x
 _atom_site_fract_y
 _atom_site_fract_z
 _atom_site_occupancy
  Rb  Rb0  1  0.322002  0.281827  0.646298  1
  Rb  Rb1  1  0.677998  0.718173  0.353702  1
  Rb  Rb2  1  0.302386  0.235049  0.996588  1
  Rb  Rb3  1  0.697614  0.764951  0.003412  1
  Pa  Pa4  1  0.789626  0.252286  0.815828  1
  Pa  Pa5  1  0.210374  0.747714  0.184172  1
  Si  Si6  1  0.506141  0.198715  0.304067  1
  Si  Si7  1  0.493859  0.801285  0.695933  1
  Si  Si8  1  0.945805  0.857942  0.712720  1
  Si  Si9  1  0.054195  0.142058  0.287280  1
  Si  Si10  1  0.846043  0.305902  0.497159  1
  Si  Si11  1  0.153957  0.694098  0.502841  1
  Si  Si12  1  0.176141  0.679655  0.865183  1
  Si  Si13  1  0.823859  0.320345  0.134817  1
  O  O14  1  0.478260  0.988516  0.256675  1
  O  O15  1  0.521740  0.011484  0.743325  1
  O  O16  1  0.620409  0.308526  0.210039  1
  O  O17  1  0.379591  0.691474  0.789961  1
  O  O18  1  0.628702  0.290837  0.435375  1
  O  O19  1  0.371298  0.709163  0.564625  1
  O  O20  1  0.292129  0.244532  0.323007  1
  O  O21  1  0.707871  0.755468  0.676993  1
  O  O22  1  0.979915  0.066406  0.778843  1
  O  O23  1  0.020085  0.933594  0.221157  1
  O  O24  1  0.024262  0.756113  0.798521  1
  O  O25  1  0.975738  0.243887  0.201479  1
  O  O26  1  0.061734  0.844401  0.588865  1
  O  O27  1  0.938266  0.155599  0.411135  1
  O  O28  1  0.000000  0.500000  0.500000  1
  O  O29  1  0.818735  0.271698  0.626494  1
  O  O30  1  0.181265  0.728302  0.373506  1
  O  O31  1  0.075113  0.470731  0.858644  1
  O  O32  1  0.924887  0.529269  0.141356  1
  O  O33  1  0.230634  0.801532  0.000393  1
  O  O34  1  0.769366  0.198468  0.999607  1
  O  O35  1  0.609685  0.398132  0.853455  1
  O  O36  1  0.390315  0.601868  0.146545  1
