# generated using pymatgen
data_Sm4Ga4PdRu3
_symmetry_space_group_name_H-M   'P 1'
_cell_length_a   4.57844200
_cell_length_b   7.29996028
_cell_length_c   7.23976370
_cell_angle_alpha   90.49640553
_cell_angle_beta   90.00000000
_cell_angle_gamma   90.00000000
_symmetry_Int_Tables_number   1
_chemical_formula_structural   Sm4Ga4PdRu3
_chemical_formula_sum   'Sm4 Ga4 Pd1 Ru3'
_cell_volume   241.96152066
_cell_formula_units_Z   1
loop_
 _symmetry_equiv_pos_site_id
 _symmetry_equiv_pos_as_xyz
  1  'x, y, z'
loop_
 _atom_site_type_symbol
 _atom_site_label
 _atom_site_symmetry_multiplicity
 _atom_site_fract_x
 _atom_site_fract_y
 _atom_site_fract_z
 _atom_site_occupancy
  Sm  Sm0  1  0.250000  0.019694  0.308859  1
  Sm  Sm1  1  0.250000  0.519702  0.196040  1
  Sm  Sm2  1  0.750000  0.971787  0.691770  1
  Sm  Sm3  1  0.750000  0.485741  0.799937  1
  Ga  Ga4  1  0.250000  0.696984  0.600824  1
  Ga  Ga5  1  0.250000  0.185884  0.881722  1
  Ga  Ga6  1  0.750000  0.303273  0.408700  1
  Ga  Ga7  1  0.750000  0.804851  0.104154  1
  Pd  Pd8  1  0.750000  0.170207  0.070903  1
  Ru  Ru9  1  0.250000  0.344910  0.566540  1
  Ru  Ru10  1  0.250000  0.837260  0.936996  1
  Ru  Ru11  1  0.750000  0.659707  0.433554  1
