# generated using pymatgen
data_Li2Er3Si3Pd
_symmetry_space_group_name_H-M   'P 1'
_cell_length_a   6.85937300
_cell_length_b   7.02050514
_cell_length_c   4.09944900
_cell_angle_alpha   90.00000000
_cell_angle_beta   90.00000000
_cell_angle_gamma   119.24363079
_symmetry_Int_Tables_number   1
_chemical_formula_structural   Li2Er3Si3Pd
_chemical_formula_sum   'Li2 Er3 Si3 Pd1'
_cell_volume   172.25377596
_cell_formula_units_Z   1
loop_
 _symmetry_equiv_pos_site_id
 _symmetry_equiv_pos_as_xyz
  1  'x, y, z'
loop_
 _atom_site_type_symbol
 _atom_site_label
 _atom_site_symmetry_multiplicity
 _atom_site_fract_x
 _atom_site_fract_y
 _atom_site_fract_z
 _atom_site_occupancy
  Li  Li0  1  0.772535  0.763178  0.500000  1
  Li  Li1  1  0.009357  0.236822  0.500000  1
  Er  Er2  1  0.991741  0.575691  0.000000  1
  Er  Er3  1  0.573202  0.000000  0.000000  1
  Er  Er4  1  0.416050  0.424309  0.000000  1
  Si  Si5  1  0.328299  0.675933  0.500000  1
  Si  Si6  1  0.652368  0.324067  0.500000  1
  Si  Si7  1  0.018686  0.000000  0.000000  1
  Pd  Pd8  1  0.237760  0.000000  0.500000  1
