# generated using pymatgen
data_Sm13Tm(Pa3Rh8)2
_symmetry_space_group_name_H-M   'P 1'
_cell_length_a   7.53748201
_cell_length_b   7.59606936
_cell_length_c   14.46761172
_cell_angle_alpha   90.00579916
_cell_angle_beta   89.51192119
_cell_angle_gamma   90.07948102
_symmetry_Int_Tables_number   1
_chemical_formula_structural   Sm13Tm(Pa3Rh8)2
_chemical_formula_sum   'Sm13 Tm1 Pa6 Rh16'
_cell_volume   828.31567078
_cell_formula_units_Z   1
loop_
 _symmetry_equiv_pos_site_id
 _symmetry_equiv_pos_as_xyz
  1  'x, y, z'
loop_
 _atom_site_type_symbol
 _atom_site_label
 _atom_site_symmetry_multiplicity
 _atom_site_fract_x
 _atom_site_fract_y
 _atom_site_fract_z
 _atom_site_occupancy
  Sm  Sm0  1  0.165632  0.339831  0.621167  1
  Sm  Sm1  1  0.511702  0.682010  0.592300  1
  Sm  Sm2  1  0.009111  0.822965  0.905830  1
  Sm  Sm3  1  0.493934  0.322202  0.092024  1
  Sm  Sm4  1  0.989098  0.180746  0.409091  1
  Sm  Sm5  1  0.489900  0.318583  0.410868  1
  Sm  Sm6  1  0.993228  0.179714  0.092186  1
  Sm  Sm7  1  0.509352  0.678360  0.906005  1
  Sm  Sm8  1  0.007532  0.821711  0.591749  1
  Sm  Sm9  1  0.816948  0.515881  0.748064  1
  Sm  Sm10  1  0.316100  0.982527  0.748121  1
  Sm  Sm11  1  0.187397  0.478106  0.249029  1
  Sm  Sm12  1  0.687437  0.022969  0.249387  1
  Tm  Tm13  1  0.664129  0.157192  0.622383  1
  Pa  Pa14  1  0.159280  0.345991  0.879809  1
  Pa  Pa15  1  0.341956  0.845399  0.119373  1
  Pa  Pa16  1  0.836981  0.655958  0.376902  1
  Pa  Pa17  1  0.337721  0.843448  0.376207  1
  Pa  Pa18  1  0.841685  0.657356  0.119349  1
  Pa  Pa19  1  0.658682  0.153598  0.879285  1
  Rh  Rh20  1  0.684395  0.938756  0.455385  1
  Rh  Rh21  1  0.182138  0.549995  0.038518  1
  Rh  Rh22  1  0.319962  0.048880  0.964583  1
  Rh  Rh23  1  0.810000  0.467993  0.528429  1
  Rh  Rh24  1  0.318267  0.025069  0.528147  1
  Rh  Rh25  1  0.820786  0.453978  0.966121  1
  Rh  Rh26  1  0.680641  0.953644  0.038439  1
  Rh  Rh27  1  0.177095  0.562114  0.452224  1
  Rh  Rh28  1  0.460832  0.355365  0.766298  1
  Rh  Rh29  1  0.954528  0.140856  0.765962  1
  Rh  Rh30  1  0.538387  0.651207  0.247089  1
  Rh  Rh31  1  0.038749  0.850285  0.245023  1
  Rh  Rh32  1  0.691374  0.879424  0.755395  1
  Rh  Rh33  1  0.197371  0.616644  0.758808  1
  Rh  Rh34  1  0.305283  0.106977  0.250029  1
  Rh  Rh35  1  0.802390  0.394267  0.250423  1
