# generated using pymatgen
data_Sc2Co12Si4P3
_symmetry_space_group_name_H-M   'P 1'
_cell_length_a   9.00548400
_cell_length_b   9.00548321
_cell_length_c   3.53441200
_cell_angle_alpha   90.00000000
_cell_angle_beta   90.00000000
_cell_angle_gamma   120.00000292
_symmetry_Int_Tables_number   1
_chemical_formula_structural   Sc2Co12Si4P3
_chemical_formula_sum   'Sc2 Co12 Si4 P3'
_cell_volume   248.23434642
_cell_formula_units_Z   1
loop_
 _symmetry_equiv_pos_site_id
 _symmetry_equiv_pos_as_xyz
  1  'x, y, z'
loop_
 _atom_site_type_symbol
 _atom_site_label
 _atom_site_symmetry_multiplicity
 _atom_site_fract_x
 _atom_site_fract_y
 _atom_site_fract_z
 _atom_site_occupancy
  Sc  Sc0  1  0.666667  0.333333  0.000000  1
  Sc  Sc1  1  0.000000  0.000000  0.500000  1
  Co  Co2  1  0.768824  0.047089  0.000000  1
  Co  Co3  1  0.952911  0.721735  0.000000  1
  Co  Co4  1  0.278265  0.231176  0.000000  1
  Co  Co5  1  0.487458  0.538804  0.000000  1
  Co  Co6  1  0.461196  0.948654  0.000000  1
  Co  Co7  1  0.051346  0.512542  0.000000  1
  Co  Co8  1  0.714627  0.605697  0.500000  1
  Co  Co9  1  0.394303  0.108930  0.500000  1
  Co  Co10  1  0.891070  0.285373  0.500000  1
  Co  Co11  1  0.569367  0.798710  0.500000  1
  Co  Co12  1  0.201290  0.770659  0.500000  1
  Co  Co13  1  0.229341  0.430633  0.500000  1
  Si  Si14  1  0.738978  0.783970  0.000000  1
  Si  Si15  1  0.216030  0.955008  0.000000  1
  Si  Si16  1  0.044992  0.261022  0.000000  1
  Si  Si17  1  0.333333  0.666667  0.000000  1
  P  P18  1  0.448028  0.375330  0.500000  1
  P  P19  1  0.624670  0.072698  0.500000  1
  P  P20  1  0.927302  0.551972  0.500000  1
