# generated using pymatgen
data_SrLaSi3Ni18P7
_symmetry_space_group_name_H-M   'P 1'
_cell_length_a   6.63663300
_cell_length_b   6.63663345
_cell_length_c   10.48460200
_cell_angle_alpha   90.00000000
_cell_angle_beta   90.00000000
_cell_angle_gamma   120.00000276
_symmetry_Int_Tables_number   1
_chemical_formula_structural   SrLaSi3Ni18P7
_chemical_formula_sum   'Sr1 La1 Si3 Ni18 P7'
_cell_volume   399.92467663
_cell_formula_units_Z   1
loop_
 _symmetry_equiv_pos_site_id
 _symmetry_equiv_pos_as_xyz
  1  'x, y, z'
loop_
 _atom_site_type_symbol
 _atom_site_label
 _atom_site_symmetry_multiplicity
 _atom_site_fract_x
 _atom_site_fract_y
 _atom_site_fract_z
 _atom_site_occupancy
  Sr  Sr0  1  0.000000  0.000000  0.500292  1
  La  La1  1  0.000000  0.000000  0.000386  1
  Si  Si2  1  0.333333  0.666667  0.064865  1
  Si  Si3  1  0.666667  0.333333  0.565460  1
  Si  Si4  1  0.666667  0.333333  0.934904  1
  Ni  Ni5  1  0.538454  0.076908  0.110360  1
  Ni  Ni6  1  0.461144  0.538856  0.610678  1
  Ni  Ni7  1  0.077711  0.538856  0.610678  1
  Ni  Ni8  1  0.923092  0.461546  0.110360  1
  Ni  Ni9  1  0.538454  0.461546  0.110360  1
  Ni  Ni10  1  0.461677  0.923354  0.889047  1
  Ni  Ni11  1  0.461677  0.538323  0.889047  1
  Ni  Ni12  1  0.461144  0.922289  0.610678  1
  Ni  Ni13  1  0.076646  0.538323  0.889047  1
  Ni  Ni14  1  0.928141  0.464071  0.389489  1
  Ni  Ni15  1  0.535929  0.071859  0.389489  1
  Ni  Ni16  1  0.535929  0.464071  0.389489  1
  Ni  Ni17  1  0.201087  0.402174  0.248425  1
  Ni  Ni18  1  0.798652  0.201348  0.750414  1
  Ni  Ni19  1  0.402695  0.201348  0.750414  1
  Ni  Ni20  1  0.597826  0.798913  0.248425  1
  Ni  Ni21  1  0.201087  0.798913  0.248425  1
  Ni  Ni22  1  0.798652  0.597305  0.750414  1
  P  P23  1  0.827568  0.655136  0.249281  1
  P  P24  1  0.171299  0.828701  0.751204  1
  P  P25  1  0.657402  0.828701  0.751204  1
  P  P26  1  0.344864  0.172432  0.249281  1
  P  P27  1  0.827568  0.172432  0.249281  1
  P  P28  1  0.171299  0.342598  0.751204  1
  P  P29  1  0.333333  0.666667  0.437399  1
