# generated using pymatgen
data_SrSi7As5Pt4
_symmetry_space_group_name_H-M   'P 1'
_cell_length_a   7.39687723
_cell_length_b   7.38790018
_cell_length_c   7.37902657
_cell_angle_alpha   109.61380939
_cell_angle_beta   109.22193249
_cell_angle_gamma   109.27621671
_symmetry_Int_Tables_number   1
_chemical_formula_structural   SrSi7As5Pt4
_chemical_formula_sum   'Sr1 Si7 As5 Pt4'
_cell_volume   311.56503793
_cell_formula_units_Z   1
loop_
 _symmetry_equiv_pos_site_id
 _symmetry_equiv_pos_as_xyz
  1  'x, y, z'
loop_
 _atom_site_type_symbol
 _atom_site_label
 _atom_site_symmetry_multiplicity
 _atom_site_fract_x
 _atom_site_fract_y
 _atom_site_fract_z
 _atom_site_occupancy
  Sr  Sr0  1  0.001539  0.993192  0.994202  1
  Si  Si1  1  0.502120  0.859987  0.649585  1
  Si  Si2  1  0.144362  0.351869  0.497971  1
  Si  Si3  1  0.517024  0.157162  0.367538  1
  Si  Si4  1  0.848080  0.347169  0.200918  1
  Si  Si5  1  0.635885  0.481302  0.843565  1
  Si  Si6  1  0.360187  0.208837  0.847887  1
  Si  Si7  1  0.789583  0.150690  0.647592  1
  As  As8  1  0.849081  0.638414  0.490783  1
  As  As9  1  0.350494  0.493322  0.142485  1
  As  As10  1  0.222952  0.864773  0.363935  1
  As  As11  1  0.144235  0.638896  0.783679  1
  As  As12  1  0.648161  0.792621  0.144851  1
  Pt  Pt13  1  0.006388  0.015344  0.515519  1
  Pt  Pt14  1  0.495485  0.501196  0.509914  1
  Pt  Pt15  1  0.987337  0.495458  0.997975  1
  Pt  Pt16  1  0.497088  0.009766  0.001603  1
