# generated using pymatgen
data_TbHo11TcRu3
_symmetry_space_group_name_H-M   'P 1'
_cell_length_a   6.27819206
_cell_length_b   7.32646633
_cell_length_c   9.11283900
_cell_angle_alpha   90.00000000
_cell_angle_beta   90.00000000
_cell_angle_gamma   89.99047546
_symmetry_Int_Tables_number   1
_chemical_formula_structural   TbHo11TcRu3
_chemical_formula_sum   'Tb1 Ho11 Tc1 Ru3'
_cell_volume   419.16290986
_cell_formula_units_Z   1
loop_
 _symmetry_equiv_pos_site_id
 _symmetry_equiv_pos_as_xyz
  1  'x, y, z'
loop_
 _atom_site_type_symbol
 _atom_site_label
 _atom_site_symmetry_multiplicity
 _atom_site_fract_x
 _atom_site_fract_y
 _atom_site_fract_z
 _atom_site_occupancy
  Tb  Tb0  1  0.868303  0.540061  0.250000  1
  Ho  Ho1  1  0.333418  0.676270  0.064207  1
  Ho  Ho2  1  0.167726  0.175831  0.435931  1
  Ho  Ho3  1  0.667955  0.323419  0.564483  1
  Ho  Ho4  1  0.834225  0.824986  0.936814  1
  Ho  Ho5  1  0.667955  0.323419  0.935517  1
  Ho  Ho6  1  0.834225  0.824986  0.563186  1
  Ho  Ho7  1  0.333418  0.676270  0.435793  1
  Ho  Ho8  1  0.167726  0.175831  0.064069  1
  Ho  Ho9  1  0.627793  0.041704  0.250000  1
  Ho  Ho10  1  0.134451  0.457667  0.750000  1
  Ho  Ho11  1  0.365839  0.958020  0.750000  1
  Tc  Tc12  1  0.037101  0.885010  0.250000  1
  Ru  Ru13  1  0.460830  0.383756  0.250000  1
  Ru  Ru14  1  0.960650  0.117236  0.750000  1
  Ru  Ru15  1  0.538387  0.615537  0.750000  1
