# generated using pymatgen
data_HoZnCo2NiB
_symmetry_space_group_name_H-M   'P 1'
_cell_length_a   5.07584800
_cell_length_b   5.11056086
_cell_length_c   6.80142900
_cell_angle_alpha   90.00000000
_cell_angle_beta   90.00000000
_cell_angle_gamma   119.77556316
_symmetry_Int_Tables_number   1
_chemical_formula_structural   HoZnCo2NiB
_chemical_formula_sum   'Ho2 Zn2 Co4 Ni2 B2'
_cell_volume   153.13897184
_cell_formula_units_Z   2
loop_
 _symmetry_equiv_pos_site_id
 _symmetry_equiv_pos_as_xyz
  1  'x, y, z'
loop_
 _atom_site_type_symbol
 _atom_site_label
 _atom_site_symmetry_multiplicity
 _atom_site_fract_x
 _atom_site_fract_y
 _atom_site_fract_z
 _atom_site_occupancy
  Ho  Ho0  1  0.000000  0.000000  0.486884  1
  Ho  Ho1  1  0.000000  0.000000  0.998988  1
  Zn  Zn2  1  0.665276  0.330551  0.500761  1
  Zn  Zn3  1  0.334724  0.669449  0.500761  1
  Co  Co4  1  0.500000  0.000000  0.799800  1
  Co  Co5  1  0.500000  0.500000  0.203435  1
  Co  Co6  1  0.500000  0.000000  0.205152  1
  Co  Co7  1  0.000000  0.500000  0.203435  1
  Ni  Ni8  1  0.500000  0.500000  0.796493  1
  Ni  Ni9  1  0.000000  0.500000  0.796493  1
  B  B10  1  0.663686  0.327371  0.003900  1
  B  B11  1  0.336314  0.672629  0.003900  1
