# generated using pymatgen
data_Dy2Ho3Bi2As
_symmetry_space_group_name_H-M   'P 1'
_cell_length_a   8.03572600
_cell_length_b   9.10254000
_cell_length_c   12.12331100
_cell_angle_alpha   90.00000000
_cell_angle_beta   90.00000000
_cell_angle_gamma   90.00000000
_symmetry_Int_Tables_number   1
_chemical_formula_structural   Dy2Ho3Bi2As
_chemical_formula_sum   'Dy8 Ho12 Bi8 As4'
_cell_volume   886.76585502
_cell_formula_units_Z   4
loop_
 _symmetry_equiv_pos_site_id
 _symmetry_equiv_pos_as_xyz
  1  'x, y, z'
loop_
 _atom_site_type_symbol
 _atom_site_label
 _atom_site_symmetry_multiplicity
 _atom_site_fract_x
 _atom_site_fract_y
 _atom_site_fract_z
 _atom_site_occupancy
  Dy  Dy0  1  0.347275  0.750000  0.711788  1
  Dy  Dy1  1  0.652725  0.250000  0.288212  1
  Dy  Dy2  1  0.847275  0.250000  0.788212  1
  Dy  Dy3  1  0.152725  0.750000  0.211788  1
  Dy  Dy4  1  0.868605  0.750000  0.794698  1
  Dy  Dy5  1  0.131395  0.250000  0.205302  1
  Dy  Dy6  1  0.368605  0.250000  0.705302  1
  Dy  Dy7  1  0.631395  0.750000  0.294698  1
  Ho  Ho8  1  0.684249  0.554746  0.564558  1
  Ho  Ho9  1  0.315751  0.445254  0.435442  1
  Ho  Ho10  1  0.184249  0.445254  0.935442  1
  Ho  Ho11  1  0.315751  0.054746  0.435442  1
  Ho  Ho12  1  0.815751  0.554746  0.064558  1
  Ho  Ho13  1  0.684249  0.945254  0.564558  1
  Ho  Ho14  1  0.815751  0.945254  0.064558  1
  Ho  Ho15  1  0.184249  0.054746  0.935442  1
  Ho  Ho16  1  0.037307  0.750000  0.499331  1
  Ho  Ho17  1  0.962693  0.250000  0.500669  1
  Ho  Ho18  1  0.537307  0.250000  0.000669  1
  Ho  Ho19  1  0.462693  0.750000  0.999331  1
  Bi  Bi20  1  0.576424  0.509122  0.827858  1
  Bi  Bi21  1  0.423576  0.490878  0.172142  1
  Bi  Bi22  1  0.076424  0.490878  0.672142  1
  Bi  Bi23  1  0.423576  0.009122  0.172142  1
  Bi  Bi24  1  0.923576  0.509122  0.327858  1
  Bi  Bi25  1  0.576424  0.990878  0.827858  1
  Bi  Bi26  1  0.923576  0.990878  0.327858  1
  Bi  Bi27  1  0.076424  0.009122  0.672142  1
  As  As28  1  0.083393  0.750000  0.982329  1
  As  As29  1  0.916607  0.250000  0.017671  1
  As  As30  1  0.583393  0.250000  0.517671  1
  As  As31  1  0.416607  0.750000  0.482329  1
