# generated using pymatgen
data_Ca3Yb(Al3Pd)6
_symmetry_space_group_name_H-M   'P 1'
_cell_length_a   7.66220957
_cell_length_b   7.66321139
_cell_length_c   9.52806600
_cell_angle_alpha   90.00000000
_cell_angle_beta   90.00000000
_cell_angle_gamma   119.47889237
_symmetry_Int_Tables_number   1
_chemical_formula_structural   Ca3Yb(Al3Pd)6
_chemical_formula_sum   'Ca3 Yb1 Al18 Pd6'
_cell_volume   487.03126937
_cell_formula_units_Z   1
loop_
 _symmetry_equiv_pos_site_id
 _symmetry_equiv_pos_as_xyz
  1  'x, y, z'
loop_
 _atom_site_type_symbol
 _atom_site_label
 _atom_site_symmetry_multiplicity
 _atom_site_fract_x
 _atom_site_fract_y
 _atom_site_fract_z
 _atom_site_occupancy
  Ca  Ca0  1  0.995933  0.671266  0.250000  1
  Ca  Ca1  1  0.004066  0.328737  0.750000  1
  Ca  Ca2  1  0.670981  0.995742  0.250000  1
  Yb  Yb3  1  0.328683  0.003836  0.750000  1
  Al  Al4  1  0.131973  0.131835  0.250000  1
  Al  Al5  1  0.868527  0.867956  0.750000  1
  Al  Al6  1  0.000578  0.335068  0.076102  1
  Al  Al7  1  0.999793  0.664902  0.922536  1
  Al  Al8  1  0.999793  0.664902  0.577464  1
  Al  Al9  1  0.335121  0.000737  0.424241  1
  Al  Al10  1  0.000578  0.335068  0.423898  1
  Al  Al11  1  0.664724  0.999652  0.577435  1
  Al  Al12  1  0.664724  0.999652  0.922565  1
  Al  Al13  1  0.335121  0.000737  0.075759  1
  Al  Al14  1  0.332883  0.332762  0.554012  1
  Al  Al15  1  0.667197  0.667211  0.447552  1
  Al  Al16  1  0.667197  0.667211  0.052448  1
  Al  Al17  1  0.332883  0.332762  0.945988  1
  Al  Al18  1  0.339819  0.544962  0.250000  1
  Al  Al19  1  0.659030  0.454330  0.750000  1
  Al  Al20  1  0.544881  0.339670  0.250000  1
  Al  Al21  1  0.454803  0.660493  0.750000  1
  Pd  Pd22  1  0.671022  0.328365  0.999684  1
  Pd  Pd23  1  0.328729  0.671781  0.999719  1
  Pd  Pd24  1  0.328729  0.671781  0.500281  1
  Pd  Pd25  1  0.671022  0.328365  0.500316  1
  Pd  Pd26  1  0.000606  0.000109  0.999521  1
  Pd  Pd27  1  0.000606  0.000109  0.500479  1
