# generated using pymatgen
data_Yb3Er5(Si4Mo3)4
_symmetry_space_group_name_H-M   'P 1'
_cell_length_a   6.73074315
_cell_length_b   6.93528688
_cell_length_c   12.93776949
_cell_angle_alpha   90.06853855
_cell_angle_beta   90.03440394
_cell_angle_gamma   90.04463489
_symmetry_Int_Tables_number   1
_chemical_formula_structural   Yb3Er5(Si4Mo3)4
_chemical_formula_sum   'Yb3 Er5 Si16 Mo12'
_cell_volume   603.92962904
_cell_formula_units_Z   1
loop_
 _symmetry_equiv_pos_site_id
 _symmetry_equiv_pos_as_xyz
  1  'x, y, z'
loop_
 _atom_site_type_symbol
 _atom_site_label
 _atom_site_symmetry_multiplicity
 _atom_site_fract_x
 _atom_site_fract_y
 _atom_site_fract_z
 _atom_site_occupancy
  Yb  Yb0  1  0.002861  0.833490  0.591709  1
  Yb  Yb1  1  0.497574  0.332879  0.408246  1
  Yb  Yb2  1  0.997588  0.167161  0.092214  1
  Er  Er3  1  0.498609  0.330543  0.094387  1
  Er  Er4  1  0.998897  0.168527  0.406607  1
  Er  Er5  1  0.502331  0.667607  0.593298  1
  Er  Er6  1  0.002807  0.832623  0.906662  1
  Er  Er7  1  0.502789  0.668148  0.905837  1
  Si  Si8  1  0.660038  0.041681  0.546381  1
  Si  Si9  1  0.160725  0.457790  0.954180  1
  Si  Si10  1  0.339228  0.958145  0.045332  1
  Si  Si11  1  0.840203  0.542038  0.454273  1
  Si  Si12  1  0.340591  0.958339  0.454280  1
  Si  Si13  1  0.839239  0.541685  0.045691  1
  Si  Si14  1  0.660156  0.042488  0.954225  1
  Si  Si15  1  0.159111  0.458491  0.546405  1
  Si  Si16  1  0.533918  0.368070  0.749555  1
  Si  Si17  1  0.033721  0.131731  0.750168  1
  Si  Si18  1  0.465682  0.630049  0.250326  1
  Si  Si19  1  0.965724  0.868971  0.250066  1
  Si  Si20  1  0.804119  0.631747  0.749299  1
  Si  Si21  1  0.301744  0.869404  0.748944  1
  Si  Si22  1  0.196955  0.369504  0.250269  1
  Si  Si23  1  0.697717  0.130148  0.250091  1
  Mo  Mo24  1  0.830886  0.334837  0.625922  1
  Mo  Mo25  1  0.331233  0.164072  0.874752  1
  Mo  Mo26  1  0.169330  0.666090  0.125850  1
  Mo  Mo27  1  0.667882  0.833491  0.373618  1
  Mo  Mo28  1  0.169346  0.666115  0.374266  1
  Mo  Mo29  1  0.667534  0.833035  0.125102  1
  Mo  Mo30  1  0.829184  0.337159  0.874793  1
  Mo  Mo31  1  0.331141  0.165213  0.625999  1
  Mo  Mo32  1  0.664221  0.001154  0.750548  1
  Mo  Mo33  1  0.165129  0.497978  0.751054  1
  Mo  Mo34  1  0.336231  0.996088  0.249563  1
  Mo  Mo35  1  0.835551  0.503512  0.250087  1
