# generated using pymatgen
data_CaLa2(Zn3Ni2)3
_symmetry_space_group_name_H-M   'P 1'
_cell_length_a   9.01763200
_cell_length_b   9.01763116
_cell_length_c   4.16812400
_cell_angle_alpha   90.00000000
_cell_angle_beta   90.00000000
_cell_angle_gamma   119.99999575
_symmetry_Int_Tables_number   1
_chemical_formula_structural   CaLa2(Zn3Ni2)3
_chemical_formula_sum   'Ca1 La2 Zn9 Ni6'
_cell_volume   293.53254283
_cell_formula_units_Z   1
loop_
 _symmetry_equiv_pos_site_id
 _symmetry_equiv_pos_as_xyz
  1  'x, y, z'
loop_
 _atom_site_type_symbol
 _atom_site_label
 _atom_site_symmetry_multiplicity
 _atom_site_fract_x
 _atom_site_fract_y
 _atom_site_fract_z
 _atom_site_occupancy
  Ca  Ca0  1  0.666667  0.333333  0.000000  1
  La  La1  1  0.000000  0.000000  0.500000  1
  La  La2  1  0.333333  0.666667  0.000000  1
  Zn  Zn3  1  0.502015  0.004029  0.500000  1
  Zn  Zn4  1  0.502015  0.497985  0.500000  1
  Zn  Zn5  1  0.995971  0.497985  0.500000  1
  Zn  Zn6  1  0.295611  0.001581  0.000000  1
  Zn  Zn7  1  0.295611  0.294030  0.000000  1
  Zn  Zn8  1  0.998419  0.704389  0.000000  1
  Zn  Zn9  1  0.998419  0.294030  0.000000  1
  Zn  Zn10  1  0.705970  0.704389  0.000000  1
  Zn  Zn11  1  0.705970  0.001581  0.000000  1
  Ni  Ni12  1  0.181314  0.362628  0.500000  1
  Ni  Ni13  1  0.819314  0.180686  0.500000  1
  Ni  Ni14  1  0.361372  0.180686  0.500000  1
  Ni  Ni15  1  0.637372  0.818686  0.500000  1
  Ni  Ni16  1  0.181314  0.818686  0.500000  1
  Ni  Ni17  1  0.819314  0.638628  0.500000  1
