# generated using pymatgen
data_YTh3Co9Ni5B6
_symmetry_space_group_name_H-M   'P 1'
_cell_length_a   5.03797457
_cell_length_b   5.04354050
_cell_length_c   13.19482800
_cell_angle_alpha   90.00024302
_cell_angle_beta   90.00179579
_cell_angle_gamma   119.79326022
_symmetry_Int_Tables_number   1
_chemical_formula_structural   YTh3Co9Ni5B6
_chemical_formula_sum   'Y1 Th3 Co9 Ni5 B6'
_cell_volume   290.95567095
_cell_formula_units_Z   1
loop_
 _symmetry_equiv_pos_site_id
 _symmetry_equiv_pos_as_xyz
  1  'x, y, z'
loop_
 _atom_site_type_symbol
 _atom_site_label
 _atom_site_symmetry_multiplicity
 _atom_site_fract_x
 _atom_site_fract_y
 _atom_site_fract_z
 _atom_site_occupancy
  Y  Y0  1  0.999988  0.000024  0.500381  1
  Th  Th1  1  0.000022  0.000017  0.997003  1
  Th  Th2  1  0.999978  0.000017  0.262408  1
  Th  Th3  1  0.999995  0.000029  0.737889  1
  Co  Co4  1  0.499944  0.999968  0.160635  1
  Co  Co5  1  0.499996  0.999970  0.840731  1
  Co  Co6  1  0.000047  0.500016  0.840870  1
  Co  Co7  1  0.499987  0.000024  0.384271  1
  Co  Co8  1  0.499986  0.500025  0.386266  1
  Co  Co9  1  0.999988  0.500026  0.385584  1
  Co  Co10  1  0.499988  0.000021  0.615567  1
  Co  Co11  1  0.499990  0.500024  0.613644  1
  Co  Co12  1  0.999991  0.500023  0.614721  1
  Ni  Ni13  1  0.334317  0.677641  0.000181  1
  Ni  Ni14  1  0.665812  0.322342  0.000100  1
  Ni  Ni15  1  0.500013  0.499940  0.155214  1
  Ni  Ni16  1  0.999729  0.499901  0.155711  1
  Ni  Ni17  1  0.500114  0.499915  0.845570  1
  B  B18  1  0.333560  0.668371  0.500459  1
  B  B19  1  0.666416  0.331671  0.500460  1
  B  B20  1  0.334118  0.667057  0.270526  1
  B  B21  1  0.665810  0.332961  0.270544  1
  B  B22  1  0.667159  0.333554  0.730628  1
  B  B23  1  0.332852  0.666465  0.730636  1
