# generated using pymatgen
data_K2TbY(SbAu)4
_symmetry_space_group_name_H-M   'P 1'
_cell_length_a   4.62775600
_cell_length_b   4.62775628
_cell_length_c   18.99396100
_cell_angle_alpha   90.00000000
_cell_angle_beta   90.00000000
_cell_angle_gamma   120.00001232
_symmetry_Int_Tables_number   1
_chemical_formula_structural   K2TbY(SbAu)4
_chemical_formula_sum   'K2 Tb1 Y1 Sb4 Au4'
_cell_volume   352.27924001
_cell_formula_units_Z   1
loop_
 _symmetry_equiv_pos_site_id
 _symmetry_equiv_pos_as_xyz
  1  'x, y, z'
loop_
 _atom_site_type_symbol
 _atom_site_label
 _atom_site_symmetry_multiplicity
 _atom_site_fract_x
 _atom_site_fract_y
 _atom_site_fract_z
 _atom_site_occupancy
  K  K0  1  0.000000  0.000000  0.499994  1
  K  K1  1  0.000000  0.000000  0.000006  1
  Tb  Tb2  1  0.000000  0.000000  0.250000  1
  Y  Y3  1  0.000000  0.000000  0.750000  1
  Sb  Sb4  1  0.333333  0.666667  0.366833  1
  Sb  Sb5  1  0.666667  0.333333  0.633182  1
  Sb  Sb6  1  0.666667  0.333333  0.866818  1
  Sb  Sb7  1  0.333333  0.666667  0.133167  1
  Au  Au8  1  0.666667  0.333333  0.334182  1
  Au  Au9  1  0.333333  0.666667  0.665864  1
  Au  Au10  1  0.333333  0.666667  0.834136  1
  Au  Au11  1  0.666667  0.333333  0.165818  1
