# generated using pymatgen
data_Co20Re2NiB6
_symmetry_space_group_name_H-M   'P 1'
_cell_length_a   7.38918422
_cell_length_b   7.38896937
_cell_length_c   7.38952700
_cell_angle_alpha   59.99749903
_cell_angle_beta   59.99846095
_cell_angle_gamma   59.99647087
_symmetry_Int_Tables_number   1
_chemical_formula_structural   Co20Re2NiB6
_chemical_formula_sum   'Co20 Re2 Ni1 B6'
_cell_volume   285.27069350
_cell_formula_units_Z   1
loop_
 _symmetry_equiv_pos_site_id
 _symmetry_equiv_pos_as_xyz
  1  'x, y, z'
loop_
 _atom_site_type_symbol
 _atom_site_label
 _atom_site_symmetry_multiplicity
 _atom_site_fract_x
 _atom_site_fract_y
 _atom_site_fract_z
 _atom_site_occupancy
  Co  Co0  1  0.618433  0.618453  0.144640  1
  Co  Co1  1  0.618403  0.144632  0.618483  1
  Co  Co2  1  0.144714  0.618386  0.618450  1
  Co  Co3  1  0.618433  0.618453  0.618474  1
  Co  Co4  1  0.381567  0.381547  0.855360  1
  Co  Co5  1  0.381597  0.855368  0.381517  1
  Co  Co6  1  0.855286  0.381614  0.381550  1
  Co  Co7  1  0.381567  0.381547  0.381526  1
  Co  Co8  1  0.000000  0.000000  0.340187  1
  Co  Co9  1  0.659740  0.000020  0.340202  1
  Co  Co10  1  0.000013  0.659769  0.340188  1
  Co  Co11  1  0.659763  0.340225  0.000006  1
  Co  Co12  1  0.999987  0.340231  0.999969  1
  Co  Co13  1  0.999987  0.340231  0.659812  1
  Co  Co14  1  0.340237  0.659775  0.999994  1
  Co  Co15  1  0.340260  0.999980  0.659798  1
  Co  Co16  1  0.340260  0.999980  0.999962  1
  Co  Co17  1  0.000000  0.000000  0.659813  1
  Co  Co18  1  0.000013  0.659769  0.000031  1
  Co  Co19  1  0.659740  0.000020  0.000038  1
  Re  Re20  1  0.749924  0.750082  0.749997  1
  Re  Re21  1  0.250076  0.249918  0.250003  1
  Ni  Ni22  1  0.000000  0.000000  0.000000  1
  B  B23  1  0.725096  0.725125  0.274890  1
  B  B24  1  0.274962  0.725052  0.274833  1
  B  B25  1  0.725038  0.274948  0.274848  1
  B  B26  1  0.274904  0.274875  0.725110  1
  B  B27  1  0.725038  0.274948  0.725167  1
  B  B28  1  0.274962  0.725052  0.725152  1
