# generated using pymatgen
data_Sc6Zn23As
_symmetry_space_group_name_H-M   'P 1'
_cell_length_a   8.82274428
_cell_length_b   8.82272504
_cell_length_c   8.82272500
_cell_angle_alpha   60.00010139
_cell_angle_beta   60.00012104
_cell_angle_gamma   60.00012572
_symmetry_Int_Tables_number   1
_chemical_formula_structural   Sc6Zn23As
_chemical_formula_sum   'Sc6 Zn23 As1'
_cell_volume   485.61861309
_cell_formula_units_Z   1
loop_
 _symmetry_equiv_pos_site_id
 _symmetry_equiv_pos_as_xyz
  1  'x, y, z'
loop_
 _atom_site_type_symbol
 _atom_site_label
 _atom_site_symmetry_multiplicity
 _atom_site_fract_x
 _atom_site_fract_y
 _atom_site_fract_z
 _atom_site_occupancy
  Sc  Sc0  1  0.711797  0.288203  0.288203  1
  Sc  Sc1  1  0.288203  0.711797  0.711797  1
  Sc  Sc2  1  0.288204  0.711797  0.288201  1
  Sc  Sc3  1  0.711796  0.288203  0.711799  1
  Sc  Sc4  1  0.288204  0.288201  0.711797  1
  Sc  Sc5  1  0.711796  0.711799  0.288203  1
  Zn  Zn6  1  0.123688  0.123688  0.123688  1
  Zn  Zn7  1  0.876312  0.876312  0.876312  1
  Zn  Zn8  1  0.123687  0.123687  0.628941  1
  Zn  Zn9  1  0.123687  0.628941  0.123687  1
  Zn  Zn10  1  0.876313  0.876313  0.371059  1
  Zn  Zn11  1  0.876313  0.371059  0.876313  1
  Zn  Zn12  1  0.628940  0.123687  0.123687  1
  Zn  Zn13  1  0.371060  0.876313  0.876313  1
  Zn  Zn14  1  0.500000  0.000000  0.000000  1
  Zn  Zn15  1  0.000000  0.500000  0.500000  1
  Zn  Zn16  1  0.000000  0.500000  0.000000  1
  Zn  Zn17  1  0.500000  0.000000  0.500000  1
  Zn  Zn18  1  0.000000  0.000000  0.500000  1
  Zn  Zn19  1  0.500000  0.500000  0.000000  1
  Zn  Zn20  1  0.331821  0.331821  0.331821  1
  Zn  Zn21  1  0.668179  0.668179  0.668179  1
  Zn  Zn22  1  0.331819  0.331819  0.004540  1
  Zn  Zn23  1  0.331819  0.004540  0.331819  1
  Zn  Zn24  1  0.668181  0.668181  0.995460  1
  Zn  Zn25  1  0.668181  0.995460  0.668181  1
  Zn  Zn26  1  0.004540  0.331819  0.331819  1
  Zn  Zn27  1  0.995460  0.668181  0.668181  1
  Zn  Zn28  1  0.000000  0.000000  0.000000  1
  As  As29  1  0.500000  0.500000  0.500000  1
