# generated using pymatgen
data_Na8Ca4TiGeAs8
_symmetry_space_group_name_H-M   'P 1'
_cell_length_a   9.49328850
_cell_length_b   9.52401994
_cell_length_c   7.28603350
_cell_angle_alpha   88.78612678
_cell_angle_beta   88.83618800
_cell_angle_gamma   119.83196258
_symmetry_Int_Tables_number   1
_chemical_formula_structural   Na8Ca4TiGeAs8
_chemical_formula_sum   'Na8 Ca4 Ti1 Ge1 As8'
_cell_volume   570.97786486
_cell_formula_units_Z   1
loop_
 _symmetry_equiv_pos_site_id
 _symmetry_equiv_pos_as_xyz
  1  'x, y, z'
loop_
 _atom_site_type_symbol
 _atom_site_label
 _atom_site_symmetry_multiplicity
 _atom_site_fract_x
 _atom_site_fract_y
 _atom_site_fract_z
 _atom_site_occupancy
  Na  Na0  1  0.472798  0.938191  0.377961  1
  Na  Na1  1  0.942202  0.474288  0.883475  1
  Na  Na2  1  0.866438  0.725935  0.181167  1
  Na  Na3  1  0.278107  0.131681  0.226690  1
  Na  Na4  1  0.854855  0.136901  0.205005  1
  Na  Na5  1  0.137153  0.291538  0.729505  1
  Na  Na6  1  0.711380  0.859462  0.681950  1
  Na  Na7  1  0.142633  0.847518  0.705837  1
  Ca  Ca8  1  0.051235  0.526332  0.386550  1
  Ca  Ca9  1  0.480601  0.527604  0.376931  1
  Ca  Ca10  1  0.530169  0.058084  0.883446  1
  Ca  Ca11  1  0.531026  0.479270  0.877673  1
  Ti  Ti12  1  0.331221  0.664583  0.993934  1
  Ge  Ge13  1  0.661273  0.329182  0.496335  1
  As  As14  1  0.199646  0.384853  0.123400  1
  As  As15  1  0.619316  0.806589  0.083601  1
  As  As16  1  0.197718  0.811960  0.102063  1
  As  As17  1  0.806644  0.619130  0.584979  1
  As  As18  1  0.380850  0.197704  0.628570  1
  As  As19  1  0.811922  0.197869  0.604014  1
  As  As20  1  0.658299  0.335065  0.154511  1
  As  As21  1  0.334359  0.656107  0.652364  1
