# generated using pymatgen
data_Ce3MgZn2Ir2Pd
_symmetry_space_group_name_H-M   'P 1'
_cell_length_a   7.39693487
_cell_length_b   7.35536033
_cell_length_c   3.92860600
_cell_angle_alpha   90.00000000
_cell_angle_beta   90.00000000
_cell_angle_gamma   119.81425194
_symmetry_Int_Tables_number   1
_chemical_formula_structural   Ce3MgZn2Ir2Pd
_chemical_formula_sum   'Ce3 Mg1 Zn2 Ir2 Pd1'
_cell_volume   185.45335489
_cell_formula_units_Z   1
loop_
 _symmetry_equiv_pos_site_id
 _symmetry_equiv_pos_as_xyz
  1  'x, y, z'
loop_
 _atom_site_type_symbol
 _atom_site_label
 _atom_site_symmetry_multiplicity
 _atom_site_fract_x
 _atom_site_fract_y
 _atom_site_fract_z
 _atom_site_occupancy
  Ce  Ce0  1  0.000000  0.409220  0.000000  1
  Ce  Ce1  1  0.571272  0.576240  0.000000  1
  Ce  Ce2  1  0.428728  0.004969  0.000000  1
  Mg  Mg3  1  0.000000  0.761287  0.500000  1
  Zn  Zn4  1  0.246799  0.244466  0.500000  1
  Zn  Zn5  1  0.753201  0.997667  0.500000  1
  Ir  Ir6  1  0.666182  0.332436  0.500000  1
  Ir  Ir7  1  0.333818  0.666255  0.500000  1
  Pd  Pd8  1  0.000000  0.007459  0.000000  1
