# generated using pymatgen
data_TbPa3(VB4)4
_symmetry_space_group_name_H-M   'P 1'
_cell_length_a   3.57770500
_cell_length_b   5.96534417
_cell_length_c   11.54565726
_cell_angle_alpha   90.07163085
_cell_angle_beta   90.00000000
_cell_angle_gamma   90.00000000
_symmetry_Int_Tables_number   1
_chemical_formula_structural   TbPa3(VB4)4
_chemical_formula_sum   'Tb1 Pa3 V4 B16'
_cell_volume   246.41001456
_cell_formula_units_Z   1
loop_
 _symmetry_equiv_pos_site_id
 _symmetry_equiv_pos_as_xyz
  1  'x, y, z'
loop_
 _atom_site_type_symbol
 _atom_site_label
 _atom_site_symmetry_multiplicity
 _atom_site_fract_x
 _atom_site_fract_y
 _atom_site_fract_z
 _atom_site_occupancy
  Tb  Tb0  1  0.000000  0.375336  0.650969  1
  Pa  Pa1  1  0.000000  0.124394  0.150963  1
  Pa  Pa2  1  0.000000  0.874736  0.848541  1
  Pa  Pa3  1  0.000000  0.624653  0.349495  1
  V  V4  1  0.000000  0.126225  0.415919  1
  V  V5  1  0.000000  0.874309  0.582064  1
  V  V6  1  0.000000  0.626554  0.083341  1
  V  V7  1  0.000000  0.373099  0.918359  1
  B  B8  1  0.500000  0.473618  0.191681  1
  B  B9  1  0.500000  0.526299  0.808881  1
  B  B10  1  0.500000  0.973461  0.308211  1
  B  B11  1  0.500000  0.022734  0.691584  1
  B  B12  1  0.500000  0.284310  0.314985  1
  B  B13  1  0.500000  0.717861  0.685459  1
  B  B14  1  0.500000  0.783352  0.185330  1
  B  B15  1  0.500000  0.216361  0.815630  1
  B  B16  1  0.500000  0.364350  0.466508  1
  B  B17  1  0.500000  0.636905  0.532255  1
  B  B18  1  0.500000  0.863846  0.032847  1
  B  B19  1  0.500000  0.136156  0.967030  1
  B  B20  1  0.500000  0.386892  0.046251  1
  B  B21  1  0.500000  0.612902  0.953576  1
  B  B22  1  0.500000  0.887219  0.453937  1
  B  B23  1  0.500000  0.114428  0.546185  1
