# generated using pymatgen
data_ScInNi3P7Ru9
_symmetry_space_group_name_H-M   'P 1'
_cell_length_a   9.43507800
_cell_length_b   9.43507693
_cell_length_c   3.69635300
_cell_angle_alpha   90.00000000
_cell_angle_beta   90.00000000
_cell_angle_gamma   119.99999768
_symmetry_Int_Tables_number   1
_chemical_formula_structural   ScInNi3P7Ru9
_chemical_formula_sum   'Sc1 In1 Ni3 P7 Ru9'
_cell_volume   284.96729619
_cell_formula_units_Z   1
loop_
 _symmetry_equiv_pos_site_id
 _symmetry_equiv_pos_as_xyz
  1  'x, y, z'
loop_
 _atom_site_type_symbol
 _atom_site_label
 _atom_site_symmetry_multiplicity
 _atom_site_fract_x
 _atom_site_fract_y
 _atom_site_fract_z
 _atom_site_occupancy
  Sc  Sc0  1  0.333333  0.666667  0.000000  1
  In  In1  1  0.666667  0.333333  0.500000  1
  Ni  Ni2  1  0.721427  0.869437  0.000000  1
  Ni  Ni3  1  0.130563  0.851989  0.000000  1
  Ni  Ni4  1  0.148011  0.278573  0.000000  1
  P  P5  1  0.591042  0.700468  0.500000  1
  P  P6  1  0.000000  0.000000  0.000000  1
  P  P7  1  0.299532  0.890574  0.500000  1
  P  P8  1  0.109426  0.408958  0.500000  1
  P  P9  1  0.899357  0.612271  0.000000  1
  P  P10  1  0.387729  0.287087  0.000000  1
  P  P11  1  0.712913  0.100643  0.000000  1
  Ru  Ru12  1  0.563900  0.934937  0.500000  1
  Ru  Ru13  1  0.371040  0.436100  0.500000  1
  Ru  Ru14  1  0.911222  0.121778  0.500000  1
  Ru  Ru15  1  0.210556  0.088778  0.500000  1
  Ru  Ru16  1  0.878222  0.789444  0.500000  1
  Ru  Ru17  1  0.451720  0.079781  0.000000  1
  Ru  Ru18  1  0.920219  0.371941  0.000000  1
  Ru  Ru19  1  0.628059  0.548280  0.000000  1
  Ru  Ru20  1  0.065063  0.628960  0.500000  1
