# generated using pymatgen
data_Cs3RbSrBr6
_symmetry_space_group_name_H-M   'P 1'
_cell_length_a   9.92377448
_cell_length_b   9.92377519
_cell_length_c   9.92377500
_cell_angle_alpha   90.39722264
_cell_angle_beta   90.39722625
_cell_angle_gamma   90.39722227
_symmetry_Int_Tables_number   1
_chemical_formula_structural   Cs3RbSrBr6
_chemical_formula_sum   'Cs6 Rb2 Sr2 Br12'
_cell_volume   977.23554351
_cell_formula_units_Z   2
loop_
 _symmetry_equiv_pos_site_id
 _symmetry_equiv_pos_as_xyz
  1  'x, y, z'
loop_
 _atom_site_type_symbol
 _atom_site_label
 _atom_site_symmetry_multiplicity
 _atom_site_fract_x
 _atom_site_fract_y
 _atom_site_fract_z
 _atom_site_occupancy
  Cs  Cs0  1  0.250000  0.626931  0.873069  1
  Cs  Cs1  1  0.873069  0.250000  0.626931  1
  Cs  Cs2  1  0.626931  0.873069  0.250000  1
  Cs  Cs3  1  0.750000  0.373069  0.126931  1
  Cs  Cs4  1  0.126931  0.750000  0.373069  1
  Cs  Cs5  1  0.373069  0.126931  0.750000  1
  Rb  Rb6  1  0.250000  0.250000  0.250000  1
  Rb  Rb7  1  0.750000  0.750000  0.750000  1
  Sr  Sr8  1  0.000000  0.000000  0.000000  1
  Sr  Sr9  1  0.500000  0.500000  0.500000  1
  Br  Br10  1  0.553867  0.205681  0.423395  1
  Br  Br11  1  0.423395  0.553867  0.205681  1
  Br  Br12  1  0.205681  0.423395  0.553867  1
  Br  Br13  1  0.946133  0.076605  0.294319  1
  Br  Br14  1  0.294319  0.946133  0.076605  1
  Br  Br15  1  0.076605  0.294319  0.946133  1
  Br  Br16  1  0.446133  0.794319  0.576605  1
  Br  Br17  1  0.576605  0.446133  0.794319  1
  Br  Br18  1  0.794319  0.576605  0.446133  1
  Br  Br19  1  0.053867  0.923395  0.705681  1
  Br  Br20  1  0.923395  0.705681  0.053867  1
  Br  Br21  1  0.705681  0.053867  0.923395  1
