# generated using pymatgen
data_Dy3Y2(CoTe)2
_symmetry_space_group_name_H-M   'P 1'
_cell_length_a   7.80100632
_cell_length_b   7.80100651
_cell_length_c   15.00270885
_cell_angle_alpha   90.03743131
_cell_angle_beta   89.96256802
_cell_angle_gamma   150.36504010
_symmetry_Int_Tables_number   1
_chemical_formula_structural   Dy3Y2(CoTe)2
_chemical_formula_sum   'Dy6 Y4 Co4 Te4'
_cell_volume   451.45329667
_cell_formula_units_Z   2
loop_
 _symmetry_equiv_pos_site_id
 _symmetry_equiv_pos_as_xyz
  1  'x, y, z'
loop_
 _atom_site_type_symbol
 _atom_site_label
 _atom_site_symmetry_multiplicity
 _atom_site_fract_x
 _atom_site_fract_y
 _atom_site_fract_z
 _atom_site_occupancy
  Dy  Dy0  1  0.959747  0.040253  0.126703  1
  Dy  Dy1  1  0.040253  0.959747  0.873297  1
  Dy  Dy2  1  0.040297  0.959703  0.626081  1
  Dy  Dy3  1  0.959703  0.040297  0.373919  1
  Dy  Dy4  1  0.741192  0.258808  0.630884  1
  Dy  Dy5  1  0.258808  0.741192  0.369116  1
  Y  Y6  1  0.257767  0.742233  0.129526  1
  Y  Y7  1  0.742233  0.257767  0.870474  1
  Y  Y8  1  0.605155  0.394845  0.250213  1
  Y  Y9  1  0.394845  0.605155  0.749787  1
  Co  Co10  1  0.410921  0.589079  0.250257  1
  Co  Co11  1  0.589079  0.410921  0.749743  1
  Co  Co12  1  0.820532  0.179468  0.250598  1
  Co  Co13  1  0.179468  0.820532  0.749402  1
  Te  Te14  1  0.617285  0.382715  0.038666  1
  Te  Te15  1  0.382715  0.617285  0.961334  1
  Te  Te16  1  0.382365  0.617635  0.538596  1
  Te  Te17  1  0.617635  0.382365  0.461404  1
