# generated using pymatgen
data_Tb2Y18Cd3Ru2Au3
_symmetry_space_group_name_H-M   'P 1'
_cell_length_a   9.63863600
_cell_length_b   9.63863545
_cell_length_c   9.64100200
_cell_angle_alpha   90.00000000
_cell_angle_beta   90.00000000
_cell_angle_gamma   120.00000188
_symmetry_Int_Tables_number   1
_chemical_formula_structural   Tb2Y18Cd3Ru2Au3
_chemical_formula_sum   'Tb2 Y18 Cd3 Ru2 Au3'
_cell_volume   775.68238804
_cell_formula_units_Z   1
loop_
 _symmetry_equiv_pos_site_id
 _symmetry_equiv_pos_as_xyz
  1  'x, y, z'
loop_
 _atom_site_type_symbol
 _atom_site_label
 _atom_site_symmetry_multiplicity
 _atom_site_fract_x
 _atom_site_fract_y
 _atom_site_fract_z
 _atom_site_occupancy
  Tb  Tb0  1  0.000000  0.000000  0.460653  1
  Tb  Tb1  1  0.000000  0.000000  0.039347  1
  Y  Y2  1  0.209466  0.790534  0.439717  1
  Y  Y3  1  0.209466  0.418933  0.439717  1
  Y  Y4  1  0.581067  0.790534  0.439717  1
  Y  Y5  1  0.791608  0.208392  0.558643  1
  Y  Y6  1  0.791608  0.583214  0.558643  1
  Y  Y7  1  0.416786  0.208392  0.558643  1
  Y  Y8  1  0.791608  0.208392  0.941357  1
  Y  Y9  1  0.791608  0.583214  0.941357  1
  Y  Y10  1  0.416786  0.208392  0.941357  1
  Y  Y11  1  0.209466  0.790534  0.060283  1
  Y  Y12  1  0.209466  0.418933  0.060283  1
  Y  Y13  1  0.581067  0.790534  0.060283  1
  Y  Y14  1  0.539896  0.460104  0.250000  1
  Y  Y15  1  0.539896  0.079791  0.250000  1
  Y  Y16  1  0.920209  0.460104  0.250000  1
  Y  Y17  1  0.458512  0.541488  0.750000  1
  Y  Y18  1  0.458512  0.917025  0.750000  1
  Y  Y19  1  0.082975  0.541488  0.750000  1
  Cd  Cd20  1  0.110119  0.889881  0.750000  1
  Cd  Cd21  1  0.110119  0.220238  0.750000  1
  Cd  Cd22  1  0.779762  0.889881  0.750000  1
  Ru  Ru23  1  0.333333  0.666667  0.250000  1
  Ru  Ru24  1  0.666667  0.333333  0.750000  1
  Au  Au25  1  0.869680  0.130320  0.250000  1
  Au  Au26  1  0.869680  0.739360  0.250000  1
  Au  Au27  1  0.260640  0.130320  0.250000  1
