# generated using pymatgen
data_Tm9LuSi5Sb
_symmetry_space_group_name_H-M   'P 1'
_cell_length_a   8.40967960
_cell_length_b   8.41079916
_cell_length_c   6.22630401
_cell_angle_alpha   89.99547265
_cell_angle_beta   90.00075291
_cell_angle_gamma   120.21347459
_symmetry_Int_Tables_number   1
_chemical_formula_structural   Tm9LuSi5Sb
_chemical_formula_sum   'Tm9 Lu1 Si5 Sb1'
_cell_volume   380.57427046
_cell_formula_units_Z   1
loop_
 _symmetry_equiv_pos_site_id
 _symmetry_equiv_pos_as_xyz
  1  'x, y, z'
loop_
 _atom_site_type_symbol
 _atom_site_label
 _atom_site_symmetry_multiplicity
 _atom_site_fract_x
 _atom_site_fract_y
 _atom_site_fract_z
 _atom_site_occupancy
  Tm  Tm0  1  0.331459  0.674682  0.503528  1
  Tm  Tm1  1  0.331395  0.674738  0.996465  1
  Tm  Tm2  1  0.674720  0.331412  0.996486  1
  Tm  Tm3  1  0.765744  0.765678  0.250089  1
  Tm  Tm4  1  0.239871  0.987439  0.250108  1
  Tm  Tm5  1  0.987313  0.239853  0.250093  1
  Tm  Tm6  1  0.240807  0.240749  0.749952  1
  Tm  Tm7  1  0.755971  0.999219  0.749906  1
  Tm  Tm8  1  0.999026  0.755879  0.749849  1
  Lu  Lu9  1  0.674865  0.331400  0.503538  1
  Si  Si10  1  0.604343  0.999248  0.250349  1
  Si  Si11  1  0.998551  0.604035  0.250355  1
  Si  Si12  1  0.606946  0.606651  0.749792  1
  Si  Si13  1  0.393888  0.002680  0.749640  1
  Si  Si14  1  0.001966  0.393545  0.749614  1
  Sb  Sb15  1  0.393135  0.392790  0.250236  1
