# generated using pymatgen
data_Lu5Cu2Bi
_symmetry_space_group_name_H-M   'P 1'
_cell_length_a   8.44697670
_cell_length_b   8.44697697
_cell_length_c   8.44697697
_cell_angle_alpha   125.10275080
_cell_angle_beta   125.10275267
_cell_angle_gamma   81.36790803
_symmetry_Int_Tables_number   1
_chemical_formula_structural   Lu5Cu2Bi
_chemical_formula_sum   'Lu10 Cu4 Bi2'
_cell_volume   388.44369183
_cell_formula_units_Z   2
loop_
 _symmetry_equiv_pos_site_id
 _symmetry_equiv_pos_as_xyz
  1  'x, y, z'
loop_
 _atom_site_type_symbol
 _atom_site_label
 _atom_site_symmetry_multiplicity
 _atom_site_fract_x
 _atom_site_fract_y
 _atom_site_fract_z
 _atom_site_occupancy
  Lu  Lu0  1  0.000000  0.000000  0.000000  1
  Lu  Lu1  1  0.500000  0.500000  0.000000  1
  Lu  Lu2  1  0.791749  0.291749  0.805600  1
  Lu  Lu3  1  0.208251  0.708251  0.194400  1
  Lu  Lu4  1  0.486149  0.986149  0.194400  1
  Lu  Lu5  1  0.291749  0.486149  0.500000  1
  Lu  Lu6  1  0.013851  0.208251  0.500000  1
  Lu  Lu7  1  0.513851  0.013851  0.805600  1
  Lu  Lu8  1  0.708251  0.513851  0.500000  1
  Lu  Lu9  1  0.986149  0.791749  0.500000  1
  Cu  Cu10  1  0.132647  0.632647  0.765296  1
  Cu  Cu11  1  0.867353  0.367353  0.234704  1
  Cu  Cu12  1  0.632647  0.867353  0.500000  1
  Cu  Cu13  1  0.367353  0.132647  0.500000  1
  Bi  Bi14  1  0.250000  0.250000  0.000000  1
  Bi  Bi15  1  0.750000  0.750000  0.000000  1
