# generated using pymatgen
data_CeNpTcB6
_symmetry_space_group_name_H-M   'P 1'
_cell_length_a   3.68846400
_cell_length_b   9.29489900
_cell_length_c   11.38320400
_cell_angle_alpha   90.00000000
_cell_angle_beta   90.00000000
_cell_angle_gamma   90.00000000
_symmetry_Int_Tables_number   1
_chemical_formula_structural   CeNpTcB6
_chemical_formula_sum   'Ce4 Np4 Tc4 B24'
_cell_volume   390.26063154
_cell_formula_units_Z   4
loop_
 _symmetry_equiv_pos_site_id
 _symmetry_equiv_pos_as_xyz
  1  'x, y, z'
loop_
 _atom_site_type_symbol
 _atom_site_label
 _atom_site_symmetry_multiplicity
 _atom_site_fract_x
 _atom_site_fract_y
 _atom_site_fract_z
 _atom_site_occupancy
  Ce  Ce0  1  0.000000  0.336429  0.407354  1
  Ce  Ce1  1  0.000000  0.663571  0.592646  1
  Ce  Ce2  1  0.000000  0.836429  0.092646  1
  Ce  Ce3  1  0.000000  0.163571  0.907354  1
  Np  Np4  1  0.000000  0.959102  0.400550  1
  Np  Np5  1  0.000000  0.040898  0.599450  1
  Np  Np6  1  0.000000  0.459102  0.099450  1
  Np  Np7  1  0.000000  0.540898  0.900550  1
  Tc  Tc8  1  0.000000  0.646936  0.318156  1
  Tc  Tc9  1  0.000000  0.353064  0.681844  1
  Tc  Tc10  1  0.000000  0.146936  0.181844  1
  Tc  Tc11  1  0.000000  0.853064  0.818156  1
  B  B12  1  0.500000  0.553883  0.429402  1
  B  B13  1  0.500000  0.446117  0.570598  1
  B  B14  1  0.500000  0.053883  0.070598  1
  B  B15  1  0.500000  0.946117  0.929402  1
  B  B16  1  0.500000  0.744959  0.422031  1
  B  B17  1  0.500000  0.255041  0.577969  1
  B  B18  1  0.500000  0.244959  0.077969  1
  B  B19  1  0.500000  0.755041  0.922031  1
  B  B20  1  0.500000  0.804167  0.274253  1
  B  B21  1  0.500000  0.195833  0.725747  1
  B  B22  1  0.500000  0.304167  0.225747  1
  B  B23  1  0.500000  0.695833  0.774253  1
  B  B24  1  0.500000  0.644408  0.188012  1
  B  B25  1  0.500000  0.355592  0.811988  1
  B  B26  1  0.500000  0.144408  0.311988  1
  B  B27  1  0.500000  0.855592  0.688012  1
  B  B28  1  0.500000  0.989239  0.220920  1
  B  B29  1  0.500000  0.010761  0.779080  1
  B  B30  1  0.500000  0.489239  0.279080  1
  B  B31  1  0.500000  0.510761  0.720920  1
  B  B32  1  0.500000  0.638965  0.038176  1
  B  B33  1  0.500000  0.361035  0.961824  1
  B  B34  1  0.500000  0.138965  0.461824  1
  B  B35  1  0.500000  0.861035  0.538176  1
