# generated using pymatgen
data_MgZr5Co16(MoP6)2
_symmetry_space_group_name_H-M   'P 1'
_cell_length_a   11.95184831
_cell_length_b   11.92464828
_cell_length_c   3.66348700
_cell_angle_alpha   90.00000000
_cell_angle_beta   90.00000000
_cell_angle_gamma   119.92473926
_symmetry_Int_Tables_number   1
_chemical_formula_structural   MgZr5Co16(MoP6)2
_chemical_formula_sum   'Mg1 Zr5 Co16 Mo2 P12'
_cell_volume   452.51689343
_cell_formula_units_Z   1
loop_
 _symmetry_equiv_pos_site_id
 _symmetry_equiv_pos_as_xyz
  1  'x, y, z'
loop_
 _atom_site_type_symbol
 _atom_site_label
 _atom_site_symmetry_multiplicity
 _atom_site_fract_x
 _atom_site_fract_y
 _atom_site_fract_z
 _atom_site_occupancy
  Mg  Mg0  1  0.000000  0.557631  0.000000  1
  Zr  Zr1  1  0.664692  0.333631  0.000000  1
  Zr  Zr2  1  0.335308  0.668939  0.000000  1
  Zr  Zr3  1  0.821155  0.818847  0.500000  1
  Zr  Zr4  1  0.178845  0.997692  0.500000  1
  Zr  Zr5  1  0.000000  0.181180  0.500000  1
  Co  Co6  1  0.195835  0.370881  0.000000  1
  Co  Co7  1  0.181370  0.805245  0.000000  1
  Co  Co8  1  0.818630  0.623874  0.000000  1
  Co  Co9  1  0.804165  0.175046  0.000000  1
  Co  Co10  1  0.373787  0.196472  0.000000  1
  Co  Co11  1  0.130023  0.481098  0.500000  1
  Co  Co12  1  0.356571  0.875355  0.500000  1
  Co  Co13  1  0.516299  0.646577  0.500000  1
  Co  Co14  1  0.643429  0.518783  0.500000  1
  Co  Co15  1  0.869977  0.351075  0.500000  1
  Co  Co16  1  0.483701  0.130278  0.500000  1
  Co  Co17  1  0.000000  0.999899  0.000000  1
  Co  Co18  1  0.719245  0.998946  0.500000  1
  Co  Co19  1  0.000000  0.717732  0.500000  1
  Co  Co20  1  0.626213  0.822686  0.000000  1
  Co  Co21  1  0.280755  0.279701  0.500000  1
  Mo  Mo22  1  0.448272  0.449715  0.000000  1
  Mo  Mo23  1  0.551728  0.001443  0.000000  1
  P  P24  1  0.643157  0.644465  0.000000  1
  P  P25  1  0.356843  0.001308  0.000000  1
  P  P26  1  0.000000  0.354375  0.000000  1
  P  P27  1  0.481621  0.315382  0.500000  1
  P  P28  1  0.685972  0.166913  0.500000  1
  P  P29  1  0.828191  0.516129  0.500000  1
  P  P30  1  0.518379  0.833761  0.500000  1
  P  P31  1  0.171809  0.687938  0.500000  1
  P  P32  1  0.824128  0.998857  0.000000  1
  P  P33  1  0.000000  0.822471  0.000000  1
  P  P34  1  0.314028  0.480942  0.500000  1
  P  P35  1  0.175872  0.174729  0.000000  1
