# generated using pymatgen
data_Er2Pa2Ga6Ir7
_symmetry_space_group_name_H-M   'P 1'
_cell_length_a   7.33718492
_cell_length_b   7.33718437
_cell_length_c   7.25760717
_cell_angle_alpha   109.45068998
_cell_angle_beta   109.45068055
_cell_angle_gamma   109.95197239
_symmetry_Int_Tables_number   1
_chemical_formula_structural   Er2Pa2Ga6Ir7
_chemical_formula_sum   'Er2 Pa2 Ga6 Ir7'
_cell_volume   299.11830397
_cell_formula_units_Z   1
loop_
 _symmetry_equiv_pos_site_id
 _symmetry_equiv_pos_as_xyz
  1  'x, y, z'
loop_
 _atom_site_type_symbol
 _atom_site_label
 _atom_site_symmetry_multiplicity
 _atom_site_fract_x
 _atom_site_fract_y
 _atom_site_fract_z
 _atom_site_occupancy
  Er  Er0  1  0.000000  0.000000  0.500000  1
  Er  Er1  1  0.500000  0.500000  0.500000  1
  Pa  Pa2  1  0.000000  0.500000  0.000000  1
  Pa  Pa3  1  0.500000  0.000000  0.000000  1
  Ga  Ga4  1  0.685988  0.685988  0.000000  1
  Ga  Ga5  1  0.312304  0.005723  0.318027  1
  Ga  Ga6  1  0.005723  0.312304  0.318027  1
  Ga  Ga7  1  0.314012  0.314012  0.000000  1
  Ga  Ga8  1  0.687696  0.994277  0.681973  1
  Ga  Ga9  1  0.994277  0.687696  0.681973  1
  Ir  Ir10  1  0.750000  0.250000  0.500000  1
  Ir  Ir11  1  0.751653  0.492467  0.244121  1
  Ir  Ir12  1  0.507533  0.248347  0.755879  1
  Ir  Ir13  1  0.248347  0.507533  0.755879  1
  Ir  Ir14  1  0.250000  0.750000  0.500000  1
  Ir  Ir15  1  0.492467  0.751653  0.244121  1
  Ir  Ir16  1  0.000000  0.000000  0.000000  1
