# generated using pymatgen
data_Tm8SnPd17Pt7
_symmetry_space_group_name_H-M   'P 1'
_cell_length_a   8.39772900
_cell_length_b   8.38977300
_cell_length_c   8.37521300
_cell_angle_alpha   90.00000000
_cell_angle_beta   90.00000000
_cell_angle_gamma   90.00000000
_symmetry_Int_Tables_number   1
_chemical_formula_structural   Tm8SnPd17Pt7
_chemical_formula_sum   'Tm8 Sn1 Pd17 Pt7'
_cell_volume   590.07596714
_cell_formula_units_Z   1
loop_
 _symmetry_equiv_pos_site_id
 _symmetry_equiv_pos_as_xyz
  1  'x, y, z'
loop_
 _atom_site_type_symbol
 _atom_site_label
 _atom_site_symmetry_multiplicity
 _atom_site_fract_x
 _atom_site_fract_y
 _atom_site_fract_z
 _atom_site_occupancy
  Tm  Tm0  1  0.252863  0.254486  0.254024  1
  Tm  Tm1  1  0.746188  0.745449  0.746421  1
  Tm  Tm2  1  0.746188  0.745449  0.253579  1
  Tm  Tm3  1  0.747137  0.254486  0.745976  1
  Tm  Tm4  1  0.252863  0.254486  0.745976  1
  Tm  Tm5  1  0.253812  0.745449  0.253579  1
  Tm  Tm6  1  0.253812  0.745449  0.746421  1
  Tm  Tm7  1  0.747137  0.254486  0.254024  1
  Sn  Sn8  1  0.000000  0.000451  0.000000  1
  Pd  Pd9  1  0.500000  0.264523  0.000000  1
  Pd  Pd10  1  0.000000  0.734715  0.500000  1
  Pd  Pd11  1  0.500000  0.735743  0.000000  1
  Pd  Pd12  1  0.500000  0.999870  0.265100  1
  Pd  Pd13  1  0.265656  0.000028  0.500000  1
  Pd  Pd14  1  0.500000  0.999870  0.734900  1
  Pd  Pd15  1  0.734344  0.000028  0.500000  1
  Pd  Pd16  1  0.000000  0.500475  0.264871  1
  Pd  Pd17  1  0.000000  0.500475  0.735129  1
  Pd  Pd18  1  0.500000  0.500064  0.253603  1
  Pd  Pd19  1  0.500000  0.500064  0.746397  1
  Pd  Pd20  1  0.307183  0.999933  0.000000  1
  Pd  Pd21  1  0.692817  0.999933  0.000000  1
  Pd  Pd22  1  0.000000  0.306882  0.000000  1
  Pd  Pd23  1  0.000000  0.693836  0.000000  1
  Pd  Pd24  1  0.000000  0.999527  0.308164  1
  Pd  Pd25  1  0.000000  0.999527  0.691836  1
  Pt  Pt26  1  0.264590  0.499997  0.000000  1
  Pt  Pt27  1  0.735410  0.499997  0.000000  1
  Pt  Pt28  1  0.000000  0.264851  0.500000  1
  Pt  Pt29  1  0.254242  0.499823  0.500000  1
  Pt  Pt30  1  0.745758  0.499823  0.500000  1
  Pt  Pt31  1  0.500000  0.254124  0.500000  1
  Pt  Pt32  1  0.500000  0.745703  0.500000  1
