# generated using pymatgen
data_Sc12Ni6Os5Rh
_symmetry_space_group_name_H-M   'P 1'
_cell_length_a   4.51447400
_cell_length_b   6.44944700
_cell_length_c   13.50839700
_cell_angle_alpha   90.00000000
_cell_angle_beta   90.00052950
_cell_angle_gamma   90.00000000
_symmetry_Int_Tables_number   1
_chemical_formula_structural   Sc12Ni6Os5Rh
_chemical_formula_sum   'Sc12 Ni6 Os5 Rh1'
_cell_volume   393.30860662
_cell_formula_units_Z   1
loop_
 _symmetry_equiv_pos_site_id
 _symmetry_equiv_pos_as_xyz
  1  'x, y, z'
loop_
 _atom_site_type_symbol
 _atom_site_label
 _atom_site_symmetry_multiplicity
 _atom_site_fract_x
 _atom_site_fract_y
 _atom_site_fract_z
 _atom_site_occupancy
  Sc  Sc0  1  0.499999  0.253256  0.000000  1
  Sc  Sc1  1  0.499999  0.746743  0.000000  1
  Sc  Sc2  1  0.999973  0.251321  0.167802  1
  Sc  Sc3  1  0.999973  0.748680  0.167802  1
  Sc  Sc4  1  0.499986  0.250184  0.333576  1
  Sc  Sc5  1  0.499986  0.749816  0.333576  1
  Sc  Sc6  1  0.000000  0.249815  0.500000  1
  Sc  Sc7  1  0.000000  0.750186  0.500000  1
  Sc  Sc8  1  0.500014  0.250184  0.666424  1
  Sc  Sc9  1  0.500014  0.749816  0.666424  1
  Sc  Sc10  1  0.000027  0.251321  0.832198  1
  Sc  Sc11  1  0.000027  0.748680  0.832198  1
  Ni  Ni12  1  0.000000  0.500000  0.000000  1
  Ni  Ni13  1  0.499946  0.000000  0.167331  1
  Ni  Ni14  1  0.999983  0.500000  0.332894  1
  Ni  Ni15  1  0.499999  0.000000  0.500000  1
  Ni  Ni16  1  0.000017  0.500000  0.667106  1
  Ni  Ni17  1  0.500053  0.000000  0.832669  1
  Os  Os18  1  0.499978  0.500000  0.165365  1
  Os  Os19  1  0.999976  0.000000  0.332677  1
  Os  Os20  1  0.499999  0.500000  0.500000  1
  Os  Os21  1  0.000024  0.000000  0.667323  1
  Os  Os22  1  0.500022  0.500000  0.834635  1
  Rh  Rh23  1  0.000000  0.000000  0.000000  1
