# generated using pymatgen
data_Tb5Cd13
_symmetry_space_group_name_H-M   'P 1'
_cell_length_a   16.92867540
_cell_length_b   16.92867615
_cell_length_c   6.76218000
_cell_angle_alpha   96.23094698
_cell_angle_beta   96.23094726
_cell_angle_gamma   12.94572251
_symmetry_Int_Tables_number   1
_chemical_formula_structural   Tb5Cd13
_chemical_formula_sum   'Tb5 Cd13'
_cell_volume   431.54719874
_cell_formula_units_Z   1
loop_
 _symmetry_equiv_pos_site_id
 _symmetry_equiv_pos_as_xyz
  1  'x, y, z'
loop_
 _atom_site_type_symbol
 _atom_site_label
 _atom_site_symmetry_multiplicity
 _atom_site_fract_x
 _atom_site_fract_y
 _atom_site_fract_z
 _atom_site_occupancy
  Tb  Tb0  1  0.000000  0.000000  0.000000  1
  Tb  Tb1  1  0.667909  0.667909  0.306951  1
  Tb  Tb2  1  0.888632  0.888632  0.417043  1
  Tb  Tb3  1  0.111368  0.111368  0.582958  1
  Tb  Tb4  1  0.332091  0.332091  0.693049  1
  Cd  Cd5  1  0.103482  0.103482  0.062255  1
  Cd  Cd6  1  0.226984  0.226984  0.105456  1
  Cd  Cd7  1  0.327223  0.327223  0.166100  1
  Cd  Cd8  1  0.446784  0.446784  0.217336  1
  Cd  Cd9  1  0.554321  0.554321  0.298758  1
  Cd  Cd10  1  0.776747  0.776747  0.393975  1
  Cd  Cd11  1  0.000000  0.000000  0.500000  1
  Cd  Cd12  1  0.223253  0.223253  0.606026  1
  Cd  Cd13  1  0.445679  0.445679  0.701242  1
  Cd  Cd14  1  0.553216  0.553216  0.782663  1
  Cd  Cd15  1  0.672776  0.672776  0.833900  1
  Cd  Cd16  1  0.773015  0.773015  0.894543  1
  Cd  Cd17  1  0.896519  0.896519  0.937746  1
