# generated using pymatgen
data_Tb2Fe3Co(SiC)2
_symmetry_space_group_name_H-M   'P 1'
_cell_length_a   5.55094634
_cell_length_b   5.55094678
_cell_length_c   6.74664231
_cell_angle_alpha   89.96694142
_cell_angle_beta   90.03305938
_cell_angle_gamma   140.57871568
_symmetry_Int_Tables_number   1
_chemical_formula_structural   Tb2Fe3Co(SiC)2
_chemical_formula_sum   'Tb2 Fe3 Co1 Si2 C2'
_cell_volume   132.01017531
_cell_formula_units_Z   1
loop_
 _symmetry_equiv_pos_site_id
 _symmetry_equiv_pos_as_xyz
  1  'x, y, z'
loop_
 _atom_site_type_symbol
 _atom_site_label
 _atom_site_symmetry_multiplicity
 _atom_site_fract_x
 _atom_site_fract_y
 _atom_site_fract_z
 _atom_site_occupancy
  Tb  Tb0  1  0.551059  0.448941  0.250161  1
  Tb  Tb1  1  0.448302  0.551698  0.749611  1
  Fe  Fe2  1  0.163984  0.836016  0.938488  1
  Fe  Fe3  1  0.165287  0.834713  0.562192  1
  Fe  Fe4  1  0.835166  0.164834  0.440230  1
  Co  Co5  1  0.834758  0.165242  0.059701  1
  Si  Si6  1  0.270542  0.729458  0.250840  1
  Si  Si7  1  0.728850  0.271150  0.749654  1
  C  C8  1  0.001663  0.998337  0.999279  1
  C  C9  1  0.000388  0.999612  0.499845  1
