# generated using pymatgen
data_La3Pr4Y3Si8O3
_symmetry_space_group_name_H-M   'P 1'
_cell_length_a   10.75493300
_cell_length_b   10.73445723
_cell_length_c   4.51976600
_cell_angle_alpha   90.00000000
_cell_angle_beta   90.00000000
_cell_angle_gamma   120.06312212
_symmetry_Int_Tables_number   1
_chemical_formula_structural   La3Pr4Y3Si8O3
_chemical_formula_sum   'La3 Pr4 Y3 Si8 O3'
_cell_volume   451.60401315
_cell_formula_units_Z   1
loop_
 _symmetry_equiv_pos_site_id
 _symmetry_equiv_pos_as_xyz
  1  'x, y, z'
loop_
 _atom_site_type_symbol
 _atom_site_label
 _atom_site_symmetry_multiplicity
 _atom_site_fract_x
 _atom_site_fract_y
 _atom_site_fract_z
 _atom_site_occupancy
  La  La0  1  0.999826  0.999652  0.000000  1
  La  La1  1  0.424146  0.212411  0.000000  1
  La  La2  1  0.788263  0.212411  0.000000  1
  Pr  Pr3  1  0.211382  0.787992  0.000000  1
  Pr  Pr4  1  0.576613  0.787992  0.000000  1
  Pr  Pr5  1  0.788439  0.576880  0.000000  1
  Pr  Pr6  1  0.211699  0.423396  0.000000  1
  Y  Y7  1  0.000615  0.500874  0.500000  1
  Y  Y8  1  0.500260  0.500874  0.500000  1
  Y  Y9  1  0.499319  0.998638  0.500000  1
  Si  Si10  1  0.999830  0.775970  0.500000  1
  Si  Si11  1  0.000162  0.223392  0.500000  1
  Si  Si12  1  0.223230  0.223392  0.500000  1
  Si  Si13  1  0.776441  0.999700  0.500000  1
  Si  Si14  1  0.333391  0.666782  0.500000  1
  Si  Si15  1  0.223259  0.999700  0.500000  1
  Si  Si16  1  0.666983  0.333965  0.500000  1
  Si  Si17  1  0.776140  0.775970  0.500000  1
  O  O18  1  0.000211  0.500013  0.000000  1
  O  O19  1  0.499802  0.500013  0.000000  1
  O  O20  1  0.499993  0.999986  0.000000  1
