# generated using pymatgen
data_Hf8Fe7Si14Au
_symmetry_space_group_name_H-M   'P 1'
_cell_length_a   9.46442969
_cell_length_b   9.46443010
_cell_length_c   9.47184900
_cell_angle_alpha   94.13173375
_cell_angle_beta   94.13172786
_cell_angle_gamma   148.45943331
_symmetry_Int_Tables_number   1
_chemical_formula_structural   Hf8Fe7Si14Au
_chemical_formula_sum   'Hf8 Fe7 Si14 Au1'
_cell_volume   427.94349135
_cell_formula_units_Z   1
loop_
 _symmetry_equiv_pos_site_id
 _symmetry_equiv_pos_as_xyz
  1  'x, y, z'
loop_
 _atom_site_type_symbol
 _atom_site_label
 _atom_site_symmetry_multiplicity
 _atom_site_fract_x
 _atom_site_fract_y
 _atom_site_fract_z
 _atom_site_occupancy
  Hf  Hf0  1  0.697999  0.502135  0.193361  1
  Hf  Hf1  1  0.493953  0.692269  0.195501  1
  Hf  Hf2  1  0.497865  0.302001  0.806639  1
  Hf  Hf3  1  0.307731  0.506047  0.804499  1
  Hf  Hf4  1  0.864485  0.866408  0.726053  1
  Hf  Hf5  1  0.138582  0.861418  0.000000  1
  Hf  Hf6  1  0.861889  0.138111  0.000000  1
  Hf  Hf7  1  0.133592  0.135515  0.273947  1
  Fe  Fe8  1  0.908930  0.401721  0.806402  1
  Fe  Fe9  1  0.598279  0.091070  0.193598  1
  Fe  Fe10  1  0.101653  0.605595  0.211365  1
  Fe  Fe11  1  0.601091  0.398909  0.500000  1
  Fe  Fe12  1  0.394405  0.898347  0.788635  1
  Fe  Fe13  1  0.903366  0.096634  0.500000  1
  Fe  Fe14  1  0.389804  0.610196  0.500000  1
  Si  Si15  1  0.749703  0.750392  0.000523  1
  Si  Si16  1  0.249608  0.250297  0.999477  1
  Si  Si17  1  0.079884  0.491111  0.593613  1
  Si  Si18  1  0.560526  0.140915  0.600857  1
  Si  Si19  1  0.508889  0.920116  0.406387  1
  Si  Si20  1  0.859085  0.439474  0.399143  1
  Si  Si21  1  0.709270  0.008433  0.700598  1
  Si  Si22  1  0.981809  0.677897  0.710309  1
  Si  Si23  1  0.673671  0.684030  0.417205  1
  Si  Si24  1  0.290266  0.709734  0.000000  1
  Si  Si25  1  0.322103  0.018191  0.289691  1
  Si  Si26  1  0.710551  0.289449  0.000000  1
  Si  Si27  1  0.315970  0.326329  0.582795  1
  Si  Si28  1  0.991567  0.290730  0.299402  1
  Au  Au29  1  0.103476  0.896524  0.500000  1
