# generated using pymatgen
data_Sm7Y5Al12(FeO6)8
_symmetry_space_group_name_H-M   'P 1'
_cell_length_a   10.82313076
_cell_length_b   10.82975136
_cell_length_c   10.82313100
_cell_angle_alpha   109.08100720
_cell_angle_beta   109.39918976
_cell_angle_gamma   109.90974010
_symmetry_Int_Tables_number   1
_chemical_formula_structural   Sm7Y5Al12(FeO6)8
_chemical_formula_sum   'Sm7 Y5 Al12 Fe8 O48'
_cell_volume   976.81462378
_cell_formula_units_Z   1
loop_
 _symmetry_equiv_pos_site_id
 _symmetry_equiv_pos_as_xyz
  1  'x, y, z'
loop_
 _atom_site_type_symbol
 _atom_site_label
 _atom_site_symmetry_multiplicity
 _atom_site_fract_x
 _atom_site_fract_y
 _atom_site_fract_z
 _atom_site_occupancy
  Sm  Sm0  1  0.249460  0.374558  0.124524  1
  Sm  Sm1  1  0.750259  0.624866  0.875673  1
  Sm  Sm2  1  0.749966  0.125442  0.374902  1
  Sm  Sm3  1  0.125223  0.250000  0.375223  1
  Sm  Sm4  1  0.374698  0.750000  0.124698  1
  Sm  Sm5  1  0.250807  0.875134  0.625394  1
  Sm  Sm6  1  0.874869  0.750000  0.624869  1
  Y  Y7  1  0.625166  0.250000  0.875166  1
  Y  Y8  1  0.375409  0.125516  0.250914  1
  Y  Y9  1  0.624505  0.874979  0.749382  1
  Y  Y10  1  0.125399  0.374484  0.749893  1
  Y  Y11  1  0.874403  0.625021  0.249526  1
  Al  Al12  1  0.249806  0.624684  0.374904  1
  Al  Al13  1  0.749706  0.374439  0.625199  1
  Al  Al14  1  0.750219  0.875316  0.125122  1
  Al  Al15  1  0.376689  0.250000  0.626689  1
  Al  Al16  1  0.624989  0.750000  0.374989  1
  Al  Al17  1  0.250760  0.125561  0.875266  1
  Al  Al18  1  0.124735  0.750000  0.874735  1
  Al  Al19  1  0.873508  0.250000  0.123508  1
  Al  Al20  1  0.624647  0.374516  0.249509  1
  Al  Al21  1  0.374926  0.624739  0.749724  1
  Al  Al22  1  0.874992  0.125484  0.750131  1
  Al  Al23  1  0.124986  0.875261  0.250187  1
  Fe  Fe24  1  0.999739  0.000194  0.999699  1
  Fe  Fe25  1  0.500929  0.000624  0.501026  1
  Fe  Fe26  1  0.999505  0.499806  0.499546  1
  Fe  Fe27  1  0.499830  0.000720  0.999569  1
  Fe  Fe28  1  0.500403  0.499376  0.000306  1
  Fe  Fe29  1  0.500284  0.499809  0.500336  1
  Fe  Fe30  1  0.000526  0.000191  0.500475  1
  Fe  Fe31  1  0.998849  0.499280  0.999110  1
  O  O32  1  0.479053  0.376142  0.294998  1
  O  O33  1  0.521091  0.623309  0.705468  1
  O  O34  1  0.580893  0.183945  0.205257  1
  O  O35  1  0.918856  0.123858  0.602911  1
  O  O36  1  0.293700  0.479233  0.378951  1
  O  O37  1  0.316115  0.919187  0.295556  1
  O  O38  1  0.418452  0.815401  0.794377  1
  O  O39  1  0.082160  0.876691  0.397782  1
  O  O40  1  0.706557  0.520397  0.621553  1
  O  O41  1  0.684484  0.082768  0.706491  1
  O  O42  1  0.021312  0.316055  0.896949  1
  O  O43  1  0.205220  0.584457  0.185382  1
  O  O44  1  0.123911  0.021514  0.205437  1
  O  O45  1  0.978976  0.684599  0.103051  1
  O  O46  1  0.791931  0.412826  0.813908  1
  O  O47  1  0.875805  0.978890  0.794322  1
  O  O48  1  0.600924  0.915543  0.120763  1
  O  O49  1  0.183924  0.478486  0.602396  1
  O  O50  1  0.401083  0.087174  0.879105  1
  O  O51  1  0.815432  0.521110  0.396915  1
  O  O52  1  0.899719  0.020767  0.314467  1
  O  O53  1  0.376369  0.580813  0.896928  1
  O  O54  1  0.101156  0.979603  0.686160  1
  O  O55  1  0.623722  0.417232  0.101715  1
  O  O56  1  0.379823  0.293104  0.479895  1
  O  O57  1  0.585050  0.899271  0.379128  1
  O  O58  1  0.620893  0.706657  0.521243  1
  O  O59  1  0.418971  0.102358  0.624976  1
  O  O60  1  0.120572  0.599968  0.914353  1
  O  O61  1  0.019114  0.205936  0.120128  1
  O  O62  1  0.874951  0.398509  0.081928  1
  O  O63  1  0.979704  0.794296  0.879173  1
  O  O64  1  0.314385  0.900032  0.020604  1
  O  O65  1  0.914191  0.294064  0.313178  1
  O  O66  1  0.683420  0.101491  0.976442  1
  O  O67  1  0.084876  0.705704  0.685409  1
  O  O68  1  0.186791  0.206896  0.586719  1
  O  O69  1  0.479856  0.600729  0.185779  1
  O  O70  1  0.814586  0.793343  0.414236  1
  O  O71  1  0.522618  0.397642  0.816613  1
  O  O72  1  0.292876  0.314623  0.914245  1
  O  O73  1  0.707290  0.686102  0.086452  1
  O  O74  1  0.207021  0.121282  0.021276  1
  O  O75  1  0.792643  0.879112  0.978478  1
  O  O76  1  0.899994  0.378718  0.585739  1
  O  O77  1  0.099366  0.620888  0.413531  1
  O  O78  1  0.599622  0.185377  0.478253  1
  O  O79  1  0.400350  0.813898  0.521188  1
