# generated using pymatgen
data_YbDy7(TmIr3)2
_symmetry_space_group_name_H-M   'P 1'
_cell_length_a   10.83793886
_cell_length_b   10.87175600
_cell_length_c   6.34445103
_cell_angle_alpha   90.00000000
_cell_angle_beta   90.23529008
_cell_angle_gamma   90.00000000
_symmetry_Int_Tables_number   1
_chemical_formula_structural   YbDy7(TmIr3)2
_chemical_formula_sum   'Yb2 Dy14 Tm4 Ir12'
_cell_volume   747.54403620
_cell_formula_units_Z   2
loop_
 _symmetry_equiv_pos_site_id
 _symmetry_equiv_pos_as_xyz
  1  'x, y, z'
loop_
 _atom_site_type_symbol
 _atom_site_label
 _atom_site_symmetry_multiplicity
 _atom_site_fract_x
 _atom_site_fract_y
 _atom_site_fract_z
 _atom_site_occupancy
  Yb  Yb0  1  0.288953  0.087661  0.374677  1
  Yb  Yb1  1  0.288953  0.912339  0.874677  1
  Dy  Dy2  1  0.709460  0.086275  0.878409  1
  Dy  Dy3  1  0.709460  0.913725  0.378409  1
  Dy  Dy4  1  0.586645  0.791975  0.876930  1
  Dy  Dy5  1  0.586645  0.208025  0.376930  1
  Dy  Dy6  1  0.412338  0.792674  0.378268  1
  Dy  Dy7  1  0.412338  0.207326  0.878268  1
  Dy  Dy8  1  0.210229  0.413406  0.623325  1
  Dy  Dy9  1  0.210229  0.586594  0.123325  1
  Dy  Dy10  1  0.790688  0.412627  0.121327  1
  Dy  Dy11  1  0.790688  0.587373  0.621327  1
  Dy  Dy12  1  0.912766  0.709972  0.123664  1
  Dy  Dy13  1  0.912766  0.290028  0.623664  1
  Dy  Dy14  1  0.087447  0.709256  0.622299  1
  Dy  Dy15  1  0.087447  0.290744  0.122299  1
  Tm  Tm16  1  0.000878  0.999617  0.499862  1
  Tm  Tm17  1  0.000878  0.000383  0.999862  1
  Tm  Tm18  1  0.500176  0.499906  0.998649  1
  Tm  Tm19  1  0.500176  0.500094  0.498649  1
  Ir  Ir20  1  0.849493  0.152772  0.250198  1
  Ir  Ir21  1  0.849493  0.847228  0.750198  1
  Ir  Ir22  1  0.147183  0.158453  0.753283  1
  Ir  Ir23  1  0.147183  0.841547  0.253283  1
  Ir  Ir24  1  0.651122  0.346565  0.750469  1
  Ir  Ir25  1  0.651122  0.653435  0.250469  1
  Ir  Ir26  1  0.348265  0.351938  0.246324  1
  Ir  Ir27  1  0.348265  0.648062  0.746324  1
  Ir  Ir28  1  0.504266  0.000317  0.123114  1
  Ir  Ir29  1  0.504266  0.999683  0.623114  1
  Ir  Ir30  1  0.000092  0.500291  0.879202  1
  Ir  Ir31  1  0.000092  0.499709  0.379202  1
