# generated using pymatgen
data_Mn2In3MoO8
_symmetry_space_group_name_H-M   'P 1'
_cell_length_a   6.48126686
_cell_length_b   6.48126629
_cell_length_c   6.47944013
_cell_angle_alpha   59.99067556
_cell_angle_beta   59.99068441
_cell_angle_gamma   60.00000590
_symmetry_Int_Tables_number   1
_chemical_formula_structural   Mn2In3MoO8
_chemical_formula_sum   'Mn2 In3 Mo1 O8'
_cell_volume   192.43367649
_cell_formula_units_Z   1
loop_
 _symmetry_equiv_pos_site_id
 _symmetry_equiv_pos_as_xyz
  1  'x, y, z'
loop_
 _atom_site_type_symbol
 _atom_site_label
 _atom_site_symmetry_multiplicity
 _atom_site_fract_x
 _atom_site_fract_y
 _atom_site_fract_z
 _atom_site_occupancy
  Mn  Mn0  1  0.999903  0.999903  0.000291  1
  Mn  Mn1  1  0.250097  0.250097  0.249709  1
  In  In2  1  0.625000  0.125000  0.625000  1
  In  In3  1  0.125000  0.625000  0.625000  1
  In  In4  1  0.625000  0.625000  0.625000  1
  Mo  Mo5  1  0.625000  0.625000  0.125000  1
  O  O6  1  0.386140  0.846891  0.380830  1
  O  O7  1  0.863860  0.863860  0.869170  1
  O  O8  1  0.846891  0.386140  0.380830  1
  O  O9  1  0.383771  0.383771  0.848687  1
  O  O10  1  0.866229  0.866229  0.401313  1
  O  O11  1  0.403109  0.863860  0.869170  1
  O  O12  1  0.386140  0.386140  0.380830  1
  O  O13  1  0.863860  0.403109  0.869170  1
