# generated using pymatgen
data_TbEr2AuO7
_symmetry_space_group_name_H-M   'P 1'
_cell_length_a   6.46025519
_cell_length_b   6.46025637
_cell_length_c   7.42034700
_cell_angle_alpha   90.00000000
_cell_angle_beta   90.00000000
_cell_angle_gamma   108.77736383
_symmetry_Int_Tables_number   1
_chemical_formula_structural   TbEr2AuO7
_chemical_formula_sum   'Tb2 Er4 Au2 O14'
_cell_volume   293.20482543
_cell_formula_units_Z   2
loop_
 _symmetry_equiv_pos_site_id
 _symmetry_equiv_pos_as_xyz
  1  'x, y, z'
loop_
 _atom_site_type_symbol
 _atom_site_label
 _atom_site_symmetry_multiplicity
 _atom_site_fract_x
 _atom_site_fract_y
 _atom_site_fract_z
 _atom_site_occupancy
  Tb  Tb0  1  0.500000  0.500000  0.500000  1
  Tb  Tb1  1  0.500000  0.500000  0.000000  1
  Er  Er2  1  0.528810  0.998038  0.750000  1
  Er  Er3  1  0.998038  0.528810  0.250000  1
  Er  Er4  1  0.471190  0.001962  0.250000  1
  Er  Er5  1  0.001962  0.471190  0.750000  1
  Au  Au6  1  0.000000  0.000000  0.500000  1
  Au  Au7  1  0.000000  0.000000  0.000000  1
  O  O8  1  0.668842  0.920133  0.475337  1
  O  O9  1  0.920133  0.668842  0.524663  1
  O  O10  1  0.668842  0.920133  0.024663  1
  O  O11  1  0.920133  0.668842  0.975337  1
  O  O12  1  0.331158  0.079867  0.524663  1
  O  O13  1  0.079867  0.331158  0.475337  1
  O  O14  1  0.331158  0.079867  0.975337  1
  O  O15  1  0.079867  0.331158  0.024663  1
  O  O16  1  0.919612  0.080388  0.750000  1
  O  O17  1  0.080388  0.919612  0.250000  1
  O  O18  1  0.365909  0.634091  0.750000  1
  O  O19  1  0.634091  0.365909  0.250000  1
  O  O20  1  0.640945  0.359055  0.750000  1
  O  O21  1  0.359055  0.640945  0.250000  1
