# generated using pymatgen
data_Sc2TaBe7BRu10W
_symmetry_space_group_name_H-M   'P 1'
_cell_length_a   3.11525100
_cell_length_b   8.61560798
_cell_length_c   10.07428800
_cell_angle_alpha   90.43820791
_cell_angle_beta   90.00000000
_cell_angle_gamma   90.00000000
_symmetry_Int_Tables_number   1
_chemical_formula_structural   Sc2TaBe7BRu10W
_chemical_formula_sum   'Sc2 Ta1 Be7 B1 Ru10 W1'
_cell_volume   270.38377931
_cell_formula_units_Z   1
loop_
 _symmetry_equiv_pos_site_id
 _symmetry_equiv_pos_as_xyz
  1  'x, y, z'
loop_
 _atom_site_type_symbol
 _atom_site_label
 _atom_site_symmetry_multiplicity
 _atom_site_fract_x
 _atom_site_fract_y
 _atom_site_fract_z
 _atom_site_occupancy
  Sc  Sc0  1  0.500000  0.652790  0.678894  1
  Sc  Sc1  1  0.500000  0.344747  0.319901  1
  Ta  Ta2  1  0.500000  0.847613  0.184435  1
  Be  Be3  1  0.500000  0.954919  0.590825  1
  Be  Be4  1  0.500000  0.040467  0.407280  1
  Be  Be5  1  0.500000  0.846110  0.903378  1
  Be  Be6  1  0.500000  0.158840  0.097005  1
  Be  Be7  1  0.500000  0.654919  0.403915  1
  Be  Be8  1  0.500000  0.343062  0.596397  1
  Be  Be9  1  0.500000  0.463431  0.910676  1
  B  B10  1  0.500000  0.538302  0.093402  1
  Ru  Ru11  1  0.000000  0.660585  0.959839  1
  Ru  Ru12  1  0.000000  0.349780  0.052157  1
  Ru  Ru13  1  0.000000  0.842129  0.443823  1
  Ru  Ru14  1  0.000000  0.153924  0.557345  1
  Ru  Ru15  1  0.000000  0.009892  0.994625  1
  Ru  Ru16  1  0.000000  0.385827  0.764466  1
  Ru  Ru17  1  0.000000  0.604317  0.233842  1
  Ru  Ru18  1  0.000000  0.498725  0.500417  1
  Ru  Ru19  1  0.000000  0.907672  0.742824  1
  Ru  Ru20  1  0.000000  0.090680  0.256262  1
  W  W21  1  0.500000  0.151268  0.808293  1
