# generated using pymatgen
data_Ho4NiB16Ir3
_symmetry_space_group_name_H-M   'P 1'
_cell_length_a   6.95564141
_cell_length_b   6.95565580
_cell_length_c   6.95564837
_cell_angle_alpha   111.27323494
_cell_angle_beta   112.28357893
_cell_angle_gamma   104.95104793
_symmetry_Int_Tables_number   1
_chemical_formula_structural   Ho4NiB16Ir3
_chemical_formula_sum   'Ho4 Ni1 B16 Ir3'
_cell_volume   257.83575239
_cell_formula_units_Z   1
loop_
 _symmetry_equiv_pos_site_id
 _symmetry_equiv_pos_as_xyz
  1  'x, y, z'
loop_
 _atom_site_type_symbol
 _atom_site_label
 _atom_site_symmetry_multiplicity
 _atom_site_fract_x
 _atom_site_fract_y
 _atom_site_fract_z
 _atom_site_occupancy
  Ho  Ho0  1  0.786536  0.789549  0.003012  1
  Ho  Ho1  1  0.213464  0.216476  0.003013  1
  Ho  Ho2  1  0.751581  0.252223  0.500642  1
  Ho  Ho3  1  0.248420  0.749062  0.500644  1
  Ni  Ni4  1  0.500000  0.256244  0.756244  1
  B  B5  1  0.269909  0.108367  0.378276  1
  B  B6  1  0.735768  0.894092  0.629860  1
  B  B7  1  0.264231  0.894092  0.158324  1
  B  B8  1  0.730091  0.108367  0.838458  1
  B  B9  1  0.107924  0.731994  0.839918  1
  B  B10  1  0.891246  0.264284  0.155529  1
  B  B11  1  0.108754  0.264284  0.373038  1
  B  B12  1  0.892076  0.731994  0.624071  1
  B  B13  1  0.118193  0.112697  0.532020  1
  B  B14  1  0.584609  0.584060  0.474893  1
  B  B15  1  0.109168  0.584060  0.999451  1
  B  B16  1  0.580676  0.112697  0.994503  1
  B  B17  1  0.890832  0.890284  0.474893  1
  B  B18  1  0.419324  0.413827  0.532021  1
  B  B19  1  0.881806  0.413828  0.994504  1
  B  B20  1  0.415391  0.890284  0.999451  1
  Ir  Ir21  1  0.266541  0.496823  0.763363  1
  Ir  Ir22  1  0.733459  0.496823  0.230283  1
  Ir  Ir23  1  0.500000  0.743589  0.243589  1
