# generated using pymatgen
data_Y3In3GaCu2
_symmetry_space_group_name_H-M   'P 1'
_cell_length_a   7.31096300
_cell_length_b   7.31096389
_cell_length_c   4.26340200
_cell_angle_alpha   90.00000000
_cell_angle_beta   90.00000000
_cell_angle_gamma   119.99999145
_symmetry_Int_Tables_number   1
_chemical_formula_structural   Y3In3GaCu2
_chemical_formula_sum   'Y3 In3 Ga1 Cu2'
_cell_volume   197.34956731
_cell_formula_units_Z   1
loop_
 _symmetry_equiv_pos_site_id
 _symmetry_equiv_pos_as_xyz
  1  'x, y, z'
loop_
 _atom_site_type_symbol
 _atom_site_label
 _atom_site_symmetry_multiplicity
 _atom_site_fract_x
 _atom_site_fract_y
 _atom_site_fract_z
 _atom_site_occupancy
  Y  Y0  1  0.412828  0.002085  0.500000  1
  Y  Y1  1  0.997915  0.410743  0.500000  1
  Y  Y2  1  0.589257  0.587172  0.500000  1
  In  In3  1  0.755610  0.011193  0.000000  1
  In  In4  1  0.988807  0.744416  0.000000  1
  In  In5  1  0.255584  0.244390  0.000000  1
  Ga  Ga6  1  0.333333  0.666667  0.000000  1
  Cu  Cu7  1  0.666667  0.333333  0.000000  1
  Cu  Cu8  1  0.000000  0.000000  0.500000  1
