# generated using pymatgen
data_Zr6Ga2P
_symmetry_space_group_name_H-M   'P 1'
_cell_length_a   3.75764100
_cell_length_b   7.46826749
_cell_length_c   7.46849800
_cell_angle_alpha   60.00102229
_cell_angle_beta   90.00000000
_cell_angle_gamma   90.00000000
_symmetry_Int_Tables_number   1
_chemical_formula_structural   Zr6Ga2P
_chemical_formula_sum   'Zr6 Ga2 P1'
_cell_volume   181.51124063
_cell_formula_units_Z   1
loop_
 _symmetry_equiv_pos_site_id
 _symmetry_equiv_pos_as_xyz
  1  'x, y, z'
loop_
 _atom_site_type_symbol
 _atom_site_label
 _atom_site_symmetry_multiplicity
 _atom_site_fract_x
 _atom_site_fract_y
 _atom_site_fract_z
 _atom_site_occupancy
  Zr  Zr0  1  0.000000  0.254251  0.000000  1
  Zr  Zr1  1  0.500001  0.604391  0.000000  1
  Zr  Zr2  1  0.000000  0.745719  0.254294  1
  Zr  Zr3  1  0.500001  0.999988  0.395615  1
  Zr  Zr4  1  0.500001  0.395603  0.604385  1
  Zr  Zr5  1  0.000000  0.000013  0.745706  1
  Ga  Ga6  1  0.000000  0.333337  0.333326  1
  Ga  Ga7  1  0.000000  0.666663  0.666677  1
  P  P8  1  0.500001  0.999986  0.000000  1
