# generated using pymatgen
data_Tb(Tc2P)2
_symmetry_space_group_name_H-M   'P 1'
_cell_length_a   7.42407200
_cell_length_b   7.42407200
_cell_length_c   3.95332300
_cell_angle_alpha   90.00000000
_cell_angle_beta   90.00000000
_cell_angle_gamma   90.00000000
_symmetry_Int_Tables_number   1
_chemical_formula_structural   Tb(Tc2P)2
_chemical_formula_sum   'Tb2 Tc8 P4'
_cell_volume   217.89469127
_cell_formula_units_Z   2
loop_
 _symmetry_equiv_pos_site_id
 _symmetry_equiv_pos_as_xyz
  1  'x, y, z'
loop_
 _atom_site_type_symbol
 _atom_site_label
 _atom_site_symmetry_multiplicity
 _atom_site_fract_x
 _atom_site_fract_y
 _atom_site_fract_z
 _atom_site_occupancy
  Tb  Tb0  1  0.000000  0.000000  0.500000  1
  Tb  Tb1  1  0.500000  0.500000  0.000000  1
  Tc  Tc2  1  0.082459  0.339478  0.000000  1
  Tc  Tc3  1  0.839478  0.417541  0.500000  1
  Tc  Tc4  1  0.160522  0.582459  0.500000  1
  Tc  Tc5  1  0.917541  0.660522  0.000000  1
  Tc  Tc6  1  0.417541  0.839478  0.500000  1
  Tc  Tc7  1  0.582459  0.160522  0.500000  1
  Tc  Tc8  1  0.339478  0.082459  0.000000  1
  Tc  Tc9  1  0.660522  0.917541  0.000000  1
  P  P10  1  0.787649  0.212351  0.000000  1
  P  P11  1  0.712351  0.712351  0.500000  1
  P  P12  1  0.287649  0.287649  0.500000  1
  P  P13  1  0.212351  0.787649  0.000000  1
