# generated using pymatgen
data_Be8AlVFe2
_symmetry_space_group_name_H-M   'P 1'
_cell_length_a   4.20711600
_cell_length_b   4.20711608
_cell_length_c   6.90118400
_cell_angle_alpha   90.00000000
_cell_angle_beta   90.00000000
_cell_angle_gamma   119.99998366
_symmetry_Int_Tables_number   1
_chemical_formula_structural   Be8AlVFe2
_chemical_formula_sum   'Be8 Al1 V1 Fe2'
_cell_volume   105.78480538
_cell_formula_units_Z   1
loop_
 _symmetry_equiv_pos_site_id
 _symmetry_equiv_pos_as_xyz
  1  'x, y, z'
loop_
 _atom_site_type_symbol
 _atom_site_label
 _atom_site_symmetry_multiplicity
 _atom_site_fract_x
 _atom_site_fract_y
 _atom_site_fract_z
 _atom_site_occupancy
  Be  Be0  1  0.000000  0.000000  0.999066  1
  Be  Be1  1  0.000000  0.000000  0.496409  1
  Be  Be2  1  0.830089  0.660179  0.250211  1
  Be  Be3  1  0.167691  0.832309  0.750695  1
  Be  Be4  1  0.664618  0.832309  0.750695  1
  Be  Be5  1  0.339821  0.169911  0.250211  1
  Be  Be6  1  0.830089  0.169911  0.250211  1
  Be  Be7  1  0.167691  0.335382  0.750695  1
  Al  Al8  1  0.333333  0.666667  0.061323  1
  V  V9  1  0.666667  0.333333  0.565247  1
  Fe  Fe10  1  0.666667  0.333333  0.928417  1
  Fe  Fe11  1  0.333333  0.666667  0.446822  1
