# generated using pymatgen
data_Yb4B16Os3Ru11
_symmetry_space_group_name_H-M   'P 1'
_cell_length_a   6.43235319
_cell_length_b   6.43346419
_cell_length_c   10.06180300
_cell_angle_alpha   90.00000000
_cell_angle_beta   90.00000000
_cell_angle_gamma   89.97223792
_symmetry_Int_Tables_number   1
_chemical_formula_structural   Yb4B16Os3Ru11
_chemical_formula_sum   'Yb4 B16 Os3 Ru11'
_cell_volume   416.38064116
_cell_formula_units_Z   1
loop_
 _symmetry_equiv_pos_site_id
 _symmetry_equiv_pos_as_xyz
  1  'x, y, z'
loop_
 _atom_site_type_symbol
 _atom_site_label
 _atom_site_symmetry_multiplicity
 _atom_site_fract_x
 _atom_site_fract_y
 _atom_site_fract_z
 _atom_site_occupancy
  Yb  Yb0  1  0.732742  0.882464  0.000000  1
  Yb  Yb1  1  0.116949  0.732922  0.500000  1
  Yb  Yb2  1  0.886823  0.266861  0.500000  1
  Yb  Yb3  1  0.267144  0.117589  0.000000  1
  B  B4  1  0.500665  0.999631  0.588723  1
  B  B5  1  0.500665  0.999631  0.411277  1
  B  B6  1  0.899419  0.271328  0.163773  1
  B  B7  1  0.100891  0.728463  0.836072  1
  B  B8  1  0.499145  0.501078  0.340304  1
  B  B9  1  0.500043  0.500182  0.840668  1
  B  B10  1  0.268565  0.100793  0.662588  1
  B  B11  1  0.100891  0.728463  0.163928  1
  B  B12  1  0.268565  0.100793  0.337412  1
  B  B13  1  0.899419  0.271328  0.836227  1
  B  B14  1  0.499145  0.501078  0.659696  1
  B  B15  1  0.500043  0.500182  0.159332  1
  B  B16  1  0.999888  0.499997  0.911407  1
  B  B17  1  0.729280  0.898594  0.664102  1
  B  B18  1  0.729280  0.898594  0.335898  1
  B  B19  1  0.999888  0.499997  0.088593  1
  Os  Os20  1  0.406112  0.289057  0.500000  1
  Os  Os21  1  0.999608  0.999771  0.249344  1
  Os  Os22  1  0.999608  0.999771  0.750656  1
  Ru  Ru23  1  0.204642  0.393724  0.754842  1
  Ru  Ru24  1  0.393052  0.795921  0.255055  1
  Ru  Ru25  1  0.204642  0.393724  0.245158  1
  Ru  Ru26  1  0.594120  0.710317  0.500000  1
  Ru  Ru27  1  0.607766  0.204520  0.744583  1
  Ru  Ru28  1  0.288386  0.593851  0.000000  1
  Ru  Ru29  1  0.711044  0.405912  0.000000  1
  Ru  Ru30  1  0.795373  0.606512  0.244503  1
  Ru  Ru31  1  0.795373  0.606512  0.755497  1
  Ru  Ru32  1  0.393052  0.795921  0.744945  1
  Ru  Ru33  1  0.607766  0.204520  0.255417  1
