# generated using pymatgen
data_Np3Ga3Os2Pt
_symmetry_space_group_name_H-M   'P 1'
_cell_length_a   7.02942800
_cell_length_b   7.02942694
_cell_length_c   3.98135600
_cell_angle_alpha   90.00000000
_cell_angle_beta   90.00000000
_cell_angle_gamma   120.00000498
_symmetry_Int_Tables_number   1
_chemical_formula_structural   Np3Ga3Os2Pt
_chemical_formula_sum   'Np3 Ga3 Os2 Pt1'
_cell_volume   170.37329825
_cell_formula_units_Z   1
loop_
 _symmetry_equiv_pos_site_id
 _symmetry_equiv_pos_as_xyz
  1  'x, y, z'
loop_
 _atom_site_type_symbol
 _atom_site_label
 _atom_site_symmetry_multiplicity
 _atom_site_fract_x
 _atom_site_fract_y
 _atom_site_fract_z
 _atom_site_occupancy
  Np  Np0  1  0.429018  0.429018  0.500000  1
  Np  Np1  1  0.570982  0.000000  0.500000  1
  Np  Np2  1  0.000000  0.570982  0.500000  1
  Ga  Ga3  1  0.754840  0.754840  0.000000  1
  Ga  Ga4  1  0.245160  0.000000  0.000000  1
  Ga  Ga5  1  0.000000  0.245160  0.000000  1
  Os  Os6  1  0.666667  0.333333  0.000000  1
  Os  Os7  1  0.333333  0.666667  0.000000  1
  Pt  Pt8  1  0.000000  0.000000  0.500000  1
