# generated using pymatgen
data_YbPa3(Pd2Pb)2
_symmetry_space_group_name_H-M   'P 1'
_cell_length_a   7.93869033
_cell_length_b   7.93869064
_cell_length_c   3.61556600
_cell_angle_alpha   90.00000000
_cell_angle_beta   90.00000000
_cell_angle_gamma   89.68497576
_symmetry_Int_Tables_number   1
_chemical_formula_structural   YbPa3(Pd2Pb)2
_chemical_formula_sum   'Yb1 Pa3 Pd4 Pb2'
_cell_volume   227.85967258
_cell_formula_units_Z   1
loop_
 _symmetry_equiv_pos_site_id
 _symmetry_equiv_pos_as_xyz
  1  'x, y, z'
loop_
 _atom_site_type_symbol
 _atom_site_label
 _atom_site_symmetry_multiplicity
 _atom_site_fract_x
 _atom_site_fract_y
 _atom_site_fract_z
 _atom_site_occupancy
  Yb  Yb0  1  0.672783  0.172783  0.500000  1
  Pa  Pa1  1  0.173322  0.326098  0.500000  1
  Pa  Pa2  1  0.826098  0.673322  0.500000  1
  Pa  Pa3  1  0.330071  0.830071  0.500000  1
  Pd  Pd4  1  0.364254  0.121694  0.000000  1
  Pd  Pd5  1  0.132313  0.632313  0.000000  1
  Pd  Pd6  1  0.621694  0.864254  0.000000  1
  Pd  Pd7  1  0.885425  0.385425  0.000000  1
  Pb  Pb8  1  0.989010  0.005029  0.000000  1
  Pb  Pb9  1  0.505029  0.489010  0.000000  1
