# generated using pymatgen
data_ErZrB6Ru
_symmetry_space_group_name_H-M   'P 1'
_cell_length_a   3.55042000
_cell_length_b   9.02655000
_cell_length_c   11.38016800
_cell_angle_alpha   90.00000000
_cell_angle_beta   90.00000000
_cell_angle_gamma   90.00000000
_symmetry_Int_Tables_number   1
_chemical_formula_structural   ErZrB6Ru
_chemical_formula_sum   'Er4 Zr4 B24 Ru4'
_cell_volume   364.71212082
_cell_formula_units_Z   4
loop_
 _symmetry_equiv_pos_site_id
 _symmetry_equiv_pos_as_xyz
  1  'x, y, z'
loop_
 _atom_site_type_symbol
 _atom_site_label
 _atom_site_symmetry_multiplicity
 _atom_site_fract_x
 _atom_site_fract_y
 _atom_site_fract_z
 _atom_site_occupancy
  Er  Er0  1  0.000000  0.321987  0.413454  1
  Er  Er1  1  0.000000  0.678013  0.586546  1
  Er  Er2  1  0.000000  0.821987  0.086546  1
  Er  Er3  1  0.000000  0.178013  0.913454  1
  Zr  Zr4  1  0.000000  0.944532  0.373975  1
  Zr  Zr5  1  0.000000  0.055468  0.626025  1
  Zr  Zr6  1  0.000000  0.444532  0.126025  1
  Zr  Zr7  1  0.000000  0.555468  0.873975  1
  B  B8  1  0.500000  0.554210  0.434172  1
  B  B9  1  0.500000  0.445790  0.565828  1
  B  B10  1  0.500000  0.054210  0.065828  1
  B  B11  1  0.500000  0.945790  0.934172  1
  B  B12  1  0.500000  0.751248  0.419289  1
  B  B13  1  0.500000  0.248752  0.580711  1
  B  B14  1  0.500000  0.251248  0.080711  1
  B  B15  1  0.500000  0.748752  0.919289  1
  B  B16  1  0.500000  0.794749  0.263579  1
  B  B17  1  0.500000  0.205251  0.736421  1
  B  B18  1  0.500000  0.294749  0.236421  1
  B  B19  1  0.500000  0.705251  0.763579  1
  B  B20  1  0.500000  0.630609  0.183064  1
  B  B21  1  0.500000  0.369391  0.816936  1
  B  B22  1  0.500000  0.130609  0.316936  1
  B  B23  1  0.500000  0.869391  0.683064  1
  B  B24  1  0.500000  0.981784  0.212439  1
  B  B25  1  0.500000  0.018216  0.787561  1
  B  B26  1  0.500000  0.481784  0.287561  1
  B  B27  1  0.500000  0.518216  0.712439  1
  B  B28  1  0.500000  0.602810  0.027933  1
  B  B29  1  0.500000  0.397190  0.972067  1
  B  B30  1  0.500000  0.102810  0.472067  1
  B  B31  1  0.500000  0.897190  0.527933  1
  Ru  Ru32  1  0.000000  0.641399  0.319601  1
  Ru  Ru33  1  0.000000  0.358601  0.680399  1
  Ru  Ru34  1  0.000000  0.141399  0.180399  1
  Ru  Ru35  1  0.000000  0.858601  0.819601  1
