# generated using pymatgen
data_VZn3Rh4
_symmetry_space_group_name_H-M   'P 1'
_cell_length_a   7.42259693
_cell_length_b   7.42259746
_cell_length_c   7.42259800
_cell_angle_alpha   33.57515044
_cell_angle_beta   33.57514428
_cell_angle_gamma   33.57516217
_symmetry_Int_Tables_number   1
_chemical_formula_structural   VZn3Rh4
_chemical_formula_sum   'V1 Zn3 Rh4'
_cell_volume   111.40924399
_cell_formula_units_Z   1
loop_
 _symmetry_equiv_pos_site_id
 _symmetry_equiv_pos_as_xyz
  1  'x, y, z'
loop_
 _atom_site_type_symbol
 _atom_site_label
 _atom_site_symmetry_multiplicity
 _atom_site_fract_x
 _atom_site_fract_y
 _atom_site_fract_z
 _atom_site_occupancy
  V  V0  1  0.000000  0.000000  0.000000  1
  Zn  Zn1  1  0.249092  0.249092  0.249092  1
  Zn  Zn2  1  0.750908  0.750908  0.750908  1
  Zn  Zn3  1  0.500000  0.500000  0.500000  1
  Rh  Rh4  1  0.373152  0.373152  0.373152  1
  Rh  Rh5  1  0.878335  0.878335  0.878335  1
  Rh  Rh6  1  0.626848  0.626848  0.626848  1
  Rh  Rh7  1  0.121665  0.121665  0.121665  1
