# generated using pymatgen
data_Er5VReO12
_symmetry_space_group_name_H-M   'P 1'
_cell_length_a   6.73895941
_cell_length_b   6.73895962
_cell_length_c   7.39662644
_cell_angle_alpha   73.89623880
_cell_angle_beta   73.89623783
_cell_angle_gamma   50.17472493
_symmetry_Int_Tables_number   1
_chemical_formula_structural   Er5VReO12
_chemical_formula_sum   'Er5 V1 Re1 O12'
_cell_volume   245.57991100
_cell_formula_units_Z   1
loop_
 _symmetry_equiv_pos_site_id
 _symmetry_equiv_pos_as_xyz
  1  'x, y, z'
loop_
 _atom_site_type_symbol
 _atom_site_label
 _atom_site_symmetry_multiplicity
 _atom_site_fract_x
 _atom_site_fract_y
 _atom_site_fract_z
 _atom_site_occupancy
  Er  Er0  1  0.708090  0.683019  0.640221  1
  Er  Er1  1  0.316981  0.291910  0.359779  1
  Er  Er2  1  0.686205  0.685621  0.176864  1
  Er  Er3  1  0.314379  0.313795  0.823136  1
  Er  Er4  1  0.005080  0.994920  0.500000  1
  V  V5  1  0.769865  0.230135  0.000000  1
  Re  Re6  1  0.219575  0.780425  0.000000  1
  O  O7  1  0.000110  0.002492  0.199803  1
  O  O8  1  0.997508  0.999890  0.800197  1
  O  O9  1  0.571101  0.090314  0.084355  1
  O  O10  1  0.412520  0.906391  0.916864  1
  O  O11  1  0.909686  0.428899  0.915645  1
  O  O12  1  0.093609  0.587480  0.083136  1
  O  O13  1  0.490131  0.509105  0.183048  1
  O  O14  1  0.490895  0.509869  0.816952  1
  O  O15  1  0.406946  0.896893  0.429661  1
  O  O16  1  0.595689  0.091478  0.577958  1
  O  O17  1  0.103107  0.593054  0.570339  1
  O  O18  1  0.908522  0.404311  0.422042  1
