# generated using pymatgen
data_SmCrNi4P3
_symmetry_space_group_name_H-M   'P 1'
_cell_length_a   3.71908300
_cell_length_b   10.52377900
_cell_length_c   11.99842000
_cell_angle_alpha   90.00000000
_cell_angle_beta   90.00000000
_cell_angle_gamma   90.00000000
_symmetry_Int_Tables_number   1
_chemical_formula_structural   SmCrNi4P3
_chemical_formula_sum   'Sm4 Cr4 Ni16 P12'
_cell_volume   469.60385158
_cell_formula_units_Z   4
loop_
 _symmetry_equiv_pos_site_id
 _symmetry_equiv_pos_as_xyz
  1  'x, y, z'
loop_
 _atom_site_type_symbol
 _atom_site_label
 _atom_site_symmetry_multiplicity
 _atom_site_fract_x
 _atom_site_fract_y
 _atom_site_fract_z
 _atom_site_occupancy
  Sm  Sm0  1  0.250000  0.584130  0.705005  1
  Sm  Sm1  1  0.250000  0.915870  0.205005  1
  Sm  Sm2  1  0.750000  0.415870  0.294995  1
  Sm  Sm3  1  0.750000  0.084130  0.794995  1
  Cr  Cr4  1  0.250000  0.707391  0.986973  1
  Cr  Cr5  1  0.250000  0.792609  0.486973  1
  Cr  Cr6  1  0.750000  0.292609  0.013027  1
  Cr  Cr7  1  0.750000  0.207391  0.513027  1
  Ni  Ni8  1  0.250000  0.407137  0.489859  1
  Ni  Ni9  1  0.250000  0.092863  0.989859  1
  Ni  Ni10  1  0.750000  0.592863  0.510141  1
  Ni  Ni11  1  0.750000  0.907137  0.010141  1
  Ni  Ni12  1  0.250000  0.220230  0.177171  1
  Ni  Ni13  1  0.250000  0.279770  0.677171  1
  Ni  Ni14  1  0.750000  0.779770  0.822829  1
  Ni  Ni15  1  0.750000  0.720230  0.322829  1
  Ni  Ni16  1  0.250000  0.882754  0.700929  1
  Ni  Ni17  1  0.250000  0.617246  0.200929  1
  Ni  Ni18  1  0.750000  0.117246  0.299071  1
  Ni  Ni19  1  0.750000  0.382754  0.799071  1
  Ni  Ni20  1  0.250000  0.467448  0.930842  1
  Ni  Ni21  1  0.250000  0.032552  0.430842  1
  Ni  Ni22  1  0.750000  0.532552  0.069158  1
  Ni  Ni23  1  0.750000  0.967448  0.569158  1
  P  P24  1  0.250000  0.417055  0.110426  1
  P  P25  1  0.250000  0.082945  0.610426  1
  P  P26  1  0.750000  0.582945  0.889574  1
  P  P27  1  0.750000  0.917055  0.389574  1
  P  P28  1  0.250000  0.271252  0.871262  1
  P  P29  1  0.250000  0.228748  0.371262  1
  P  P30  1  0.750000  0.728748  0.128738  1
  P  P31  1  0.750000  0.771252  0.628738  1
  P  P32  1  0.250000  0.602411  0.392255  1
  P  P33  1  0.250000  0.897589  0.892255  1
  P  P34  1  0.750000  0.397589  0.607745  1
  P  P35  1  0.750000  0.102411  0.107745  1
