# generated using pymatgen
data_La3Yb(WC2)2
_symmetry_space_group_name_H-M   'P 1'
_cell_length_a   5.81907926
_cell_length_b   5.81907823
_cell_length_c   10.54586968
_cell_angle_alpha   90.47274082
_cell_angle_beta   90.47274066
_cell_angle_gamma   90.29252384
_symmetry_Int_Tables_number   1
_chemical_formula_structural   La3Yb(WC2)2
_chemical_formula_sum   'La6 Yb2 W4 C8'
_cell_volume   357.07174829
_cell_formula_units_Z   2
loop_
 _symmetry_equiv_pos_site_id
 _symmetry_equiv_pos_as_xyz
  1  'x, y, z'
loop_
 _atom_site_type_symbol
 _atom_site_label
 _atom_site_symmetry_multiplicity
 _atom_site_fract_x
 _atom_site_fract_y
 _atom_site_fract_z
 _atom_site_occupancy
  La  La0  1  0.307130  0.695144  0.158799  1
  La  La1  1  0.692870  0.304856  0.841201  1
  La  La2  1  0.809353  0.809353  0.344736  1
  La  La3  1  0.190647  0.190647  0.655264  1
  La  La4  1  0.695144  0.307130  0.158799  1
  La  La5  1  0.304856  0.692870  0.841201  1
  Yb  Yb6  1  0.196537  0.196537  0.346618  1
  Yb  Yb7  1  0.803463  0.803463  0.653382  1
  W  W8  1  0.676073  0.323927  0.500000  1
  W  W9  1  0.323927  0.676073  0.500000  1
  W  W10  1  0.822775  0.822775  0.000419  1
  W  W11  1  0.177225  0.177225  0.999581  1
  C  C12  1  0.995051  0.995051  0.858367  1
  C  C13  1  0.502664  0.502664  0.636901  1
  C  C14  1  0.497336  0.497336  0.363099  1
  C  C15  1  0.500000  0.000000  0.000000  1
  C  C16  1  0.500000  0.000000  0.500000  1
  C  C17  1  0.000000  0.500000  0.000000  1
  C  C18  1  0.000000  0.500000  0.500000  1
  C  C19  1  0.004949  0.004949  0.141633  1
