# generated using pymatgen
data_Y2TiCr2Co9As7
_symmetry_space_group_name_H-M   'P 1'
_cell_length_a   3.75187900
_cell_length_b   9.43832049
_cell_length_c   9.42568509
_cell_angle_alpha   119.93992646
_cell_angle_beta   90.00000000
_cell_angle_gamma   90.00000000
_symmetry_Int_Tables_number   1
_chemical_formula_structural   Y2TiCr2Co9As7
_chemical_formula_sum   'Y2 Ti1 Cr2 Co9 As7'
_cell_volume   289.23422361
_cell_formula_units_Z   1
loop_
 _symmetry_equiv_pos_site_id
 _symmetry_equiv_pos_as_xyz
  1  'x, y, z'
loop_
 _atom_site_type_symbol
 _atom_site_label
 _atom_site_symmetry_multiplicity
 _atom_site_fract_x
 _atom_site_fract_y
 _atom_site_fract_z
 _atom_site_occupancy
  Y  Y0  1  0.000000  0.665834  0.331248  1
  Y  Y1  1  0.500000  0.333263  0.665925  1
  Ti  Ti2  1  0.500000  0.107184  0.887519  1
  Cr  Cr3  1  0.500000  0.776770  0.890679  1
  Cr  Cr4  1  0.500000  0.119999  0.223379  1
  Co  Co5  1  0.000000  0.572569  0.939237  1
  Co  Co6  1  0.000000  0.367794  0.426852  1
  Co  Co7  1  0.000000  0.060397  0.632120  1
  Co  Co8  1  0.000000  0.879201  0.161928  1
  Co  Co9  1  0.000000  0.277387  0.120743  1
  Co  Co10  1  0.000000  0.839648  0.720334  1
  Co  Co11  1  0.500000  0.950225  0.384591  1
  Co  Co12  1  0.500000  0.436755  0.052765  1
  Co  Co13  1  0.500000  0.614318  0.564499  1
  As  As14  1  0.000000  0.995559  0.002742  1
  As  As15  1  0.500000  0.710959  0.118134  1
  As  As16  1  0.500000  0.410222  0.290648  1
  As  As17  1  0.500000  0.878764  0.587031  1
  As  As18  1  0.000000  0.584679  0.698530  1
  As  As19  1  0.000000  0.113195  0.414428  1
  As  As20  1  0.000000  0.305278  0.886666  1
