# generated using pymatgen
data_Dy2HoEr(B6Os)2
_symmetry_space_group_name_H-M   'P 1'
_cell_length_a   3.64488900
_cell_length_b   9.13318205
_cell_length_c   11.51339706
_cell_angle_alpha   90.01148792
_cell_angle_beta   90.00000000
_cell_angle_gamma   90.00000000
_symmetry_Int_Tables_number   1
_chemical_formula_structural   Dy2HoEr(B6Os)2
_chemical_formula_sum   'Dy4 Ho2 Er2 B24 Os4'
_cell_volume   383.27447268
_cell_formula_units_Z   2
loop_
 _symmetry_equiv_pos_site_id
 _symmetry_equiv_pos_as_xyz
  1  'x, y, z'
loop_
 _atom_site_type_symbol
 _atom_site_label
 _atom_site_symmetry_multiplicity
 _atom_site_fract_x
 _atom_site_fract_y
 _atom_site_fract_z
 _atom_site_occupancy
  Dy  Dy0  1  0.000000  0.322149  0.413783  1
  Dy  Dy1  1  0.000000  0.677851  0.586217  1
  Dy  Dy2  1  0.000000  0.821939  0.086115  1
  Dy  Dy3  1  0.000000  0.178061  0.913885  1
  Ho  Ho4  1  0.000000  0.944169  0.372877  1
  Ho  Ho5  1  0.000000  0.055831  0.627123  1
  Er  Er6  1  0.000000  0.444222  0.126924  1
  Er  Er7  1  0.000000  0.555778  0.873076  1
  B  B8  1  0.500000  0.554090  0.432899  1
  B  B9  1  0.500000  0.445910  0.567101  1
  B  B10  1  0.500000  0.054180  0.067038  1
  B  B11  1  0.500000  0.945820  0.932962  1
  B  B12  1  0.500000  0.748178  0.419829  1
  B  B13  1  0.500000  0.251822  0.580171  1
  B  B14  1  0.500000  0.248577  0.080143  1
  B  B15  1  0.500000  0.751423  0.919857  1
  B  B16  1  0.500000  0.791178  0.266590  1
  B  B17  1  0.500000  0.208822  0.733410  1
  B  B18  1  0.500000  0.291609  0.233268  1
  B  B19  1  0.500000  0.708391  0.766732  1
  B  B20  1  0.500000  0.631516  0.185171  1
  B  B21  1  0.500000  0.368484  0.814829  1
  B  B22  1  0.500000  0.131877  0.314616  1
  B  B23  1  0.500000  0.868123  0.685384  1
  B  B24  1  0.500000  0.983507  0.213108  1
  B  B25  1  0.500000  0.016493  0.786892  1
  B  B26  1  0.500000  0.483256  0.286623  1
  B  B27  1  0.500000  0.516744  0.713377  1
  B  B28  1  0.500000  0.607034  0.029629  1
  B  B29  1  0.500000  0.392966  0.970371  1
  B  B30  1  0.500000  0.107675  0.470200  1
  B  B31  1  0.500000  0.892325  0.529800  1
  Os  Os32  1  0.000000  0.637500  0.321028  1
  Os  Os33  1  0.000000  0.362500  0.678972  1
  Os  Os34  1  0.000000  0.138070  0.178703  1
  Os  Os35  1  0.000000  0.861930  0.821297  1
