# generated using pymatgen
data_Ca4AlSiIr4
_symmetry_space_group_name_H-M   'P 1'
_cell_length_a   5.74343277
_cell_length_b   5.74343275
_cell_length_c   7.40892823
_cell_angle_alpha   80.62589854
_cell_angle_beta   80.62589352
_cell_angle_gamma   60.78196955
_symmetry_Int_Tables_number   1
_chemical_formula_structural   Ca4AlSiIr4
_chemical_formula_sum   'Ca4 Al1 Si1 Ir4'
_cell_volume   209.46607507
_cell_formula_units_Z   1
loop_
 _symmetry_equiv_pos_site_id
 _symmetry_equiv_pos_as_xyz
  1  'x, y, z'
loop_
 _atom_site_type_symbol
 _atom_site_label
 _atom_site_symmetry_multiplicity
 _atom_site_fract_x
 _atom_site_fract_y
 _atom_site_fract_z
 _atom_site_occupancy
  Ca  Ca0  1  0.987497  0.722267  0.140051  1
  Ca  Ca1  1  0.277733  0.012503  0.359949  1
  Ca  Ca2  1  0.014986  0.277870  0.859449  1
  Ca  Ca3  1  0.722130  0.985014  0.640551  1
  Al  Al4  1  0.423792  0.576208  0.750000  1
  Si  Si5  1  0.565564  0.434436  0.250000  1
  Ir  Ir6  1  0.495313  0.778877  0.999579  1
  Ir  Ir7  1  0.221123  0.504687  0.500421  1
  Ir  Ir8  1  0.512756  0.220894  0.019216  1
  Ir  Ir9  1  0.779106  0.487244  0.480784  1
