# generated using pymatgen
data_Rb4Na2ScAlBi4
_symmetry_space_group_name_H-M   'P 1'
_cell_length_a   10.05322067
_cell_length_b   10.05322106
_cell_length_c   10.05322106
_cell_angle_alpha   135.85372836
_cell_angle_beta   62.69152708
_cell_angle_gamma   137.83517762
_symmetry_Int_Tables_number   1
_chemical_formula_structural   Rb4Na2ScAlBi4
_chemical_formula_sum   'Rb4 Na2 Sc1 Al1 Bi4'
_cell_volume   469.19533944
_cell_formula_units_Z   1
loop_
 _symmetry_equiv_pos_site_id
 _symmetry_equiv_pos_as_xyz
  1  'x, y, z'
loop_
 _atom_site_type_symbol
 _atom_site_label
 _atom_site_symmetry_multiplicity
 _atom_site_fract_x
 _atom_site_fract_y
 _atom_site_fract_z
 _atom_site_occupancy
  Rb  Rb0  1  0.331939  0.768497  0.096699  1
  Rb  Rb1  1  0.168062  0.264759  0.436559  1
  Rb  Rb2  1  0.828200  0.731503  0.563441  1
  Rb  Rb3  1  0.671800  0.235241  0.903302  1
  Na  Na4  1  0.749999  0.249999  0.500000  1
  Na  Na5  1  0.249999  0.749999  0.500000  1
  Sc  Sc6  1  0.249999  0.249999  0.000000  1
  Al  Al7  1  0.750000  0.750000  0.000000  1
  Bi  Bi8  1  0.895262  0.204917  0.114682  1
  Bi  Bi9  1  0.604738  0.719420  0.309655  1
  Bi  Bi10  1  0.409766  0.295083  0.690345  1
  Bi  Bi11  1  0.090234  0.780580  0.885317  1
