# generated using pymatgen
data_Tb4Dy3Lu5Co5Bi
_symmetry_space_group_name_H-M   'P 1'
_cell_length_a   8.26508871
_cell_length_b   8.26508868
_cell_length_c   8.24991190
_cell_angle_alpha   111.19500668
_cell_angle_beta   110.49733476
_cell_angle_gamma   106.83400591
_symmetry_Int_Tables_number   1
_chemical_formula_structural   Tb4Dy3Lu5Co5Bi
_chemical_formula_sum   'Tb4 Dy3 Lu5 Co5 Bi1'
_cell_volume   432.69101809
_cell_formula_units_Z   1
loop_
 _symmetry_equiv_pos_site_id
 _symmetry_equiv_pos_as_xyz
  1  'x, y, z'
loop_
 _atom_site_type_symbol
 _atom_site_label
 _atom_site_symmetry_multiplicity
 _atom_site_fract_x
 _atom_site_fract_y
 _atom_site_fract_z
 _atom_site_occupancy
  Tb  Tb0  1  0.597316  0.793490  0.805773  1
  Tb  Tb1  1  0.404317  0.208211  0.195213  1
  Tb  Tb2  1  0.987003  0.790897  0.195213  1
  Tb  Tb3  1  0.012282  0.208456  0.805773  1
  Dy  Dy4  1  0.816453  0.709984  0.526437  1
  Dy  Dy5  1  0.182373  0.289352  0.471726  1
  Dy  Dy6  1  0.183955  0.710479  0.894435  1
  Lu  Lu7  1  0.817261  0.289454  0.106714  1
  Lu  Lu8  1  0.686592  0.375025  0.689650  1
  Lu  Lu9  1  0.312567  0.624205  0.310870  1
  Lu  Lu10  1  0.686665  0.998303  0.310870  1
  Lu  Lu11  1  0.314625  0.003057  0.689650  1
  Co  Co12  1  0.623017  0.000482  0.623499  1
  Co  Co13  1  0.377335  0.000251  0.377586  1
  Co  Co14  1  0.111536  0.611236  0.498089  1
  Co  Co15  1  0.886853  0.386553  0.498089  1
  Co  Co16  1  0.999879  0.000574  0.000453  1
  Bi  Bi17  1  0.499972  0.499989  0.999961  1
