# generated using pymatgen
data_YbCe(PtRh)2
_symmetry_space_group_name_H-M   'P 1'
_cell_length_a   5.38471895
_cell_length_b   5.38471793
_cell_length_c   5.38471875
_cell_angle_alpha   120.08810752
_cell_angle_beta   119.95662619
_cell_angle_gamma   89.96130374
_symmetry_Int_Tables_number   1
_chemical_formula_structural   YbCe(PtRh)2
_chemical_formula_sum   'Yb1 Ce1 Pt2 Rh2'
_cell_volume   110.36372389
_cell_formula_units_Z   1
loop_
 _symmetry_equiv_pos_site_id
 _symmetry_equiv_pos_as_xyz
  1  'x, y, z'
loop_
 _atom_site_type_symbol
 _atom_site_label
 _atom_site_symmetry_multiplicity
 _atom_site_fract_x
 _atom_site_fract_y
 _atom_site_fract_z
 _atom_site_occupancy
  Yb  Yb0  1  0.124079  0.874079  0.250000  1
  Ce  Ce1  1  0.876106  0.126106  0.750000  1
  Pt  Pt2  1  0.499558  0.500519  0.500961  1
  Pt  Pt3  1  0.499558  0.998597  0.999039  1
  Rh  Rh4  1  0.500050  0.500349  0.999701  1
  Rh  Rh5  1  0.000647  0.500349  0.500299  1
