# generated using pymatgen
data_Tb2TmGa7Cu4
_symmetry_space_group_name_H-M   'P 1'
_cell_length_a   8.00173814
_cell_length_b   8.00173769
_cell_length_c   9.38669442
_cell_angle_alpha   54.38812251
_cell_angle_beta   54.38812567
_cell_angle_gamma   30.63350063
_symmetry_Int_Tables_number   1
_chemical_formula_structural   Tb2TmGa7Cu4
_chemical_formula_sum   'Tb2 Tm1 Ga7 Cu4'
_cell_volume   244.13062108
_cell_formula_units_Z   1
loop_
 _symmetry_equiv_pos_site_id
 _symmetry_equiv_pos_as_xyz
  1  'x, y, z'
loop_
 _atom_site_type_symbol
 _atom_site_label
 _atom_site_symmetry_multiplicity
 _atom_site_fract_x
 _atom_site_fract_y
 _atom_site_fract_z
 _atom_site_occupancy
  Tb  Tb0  1  0.303481  0.303481  0.703211  1
  Tb  Tb1  1  0.696519  0.696519  0.296789  1
  Tm  Tm2  1  0.000000  0.000000  0.000000  1
  Ga  Ga3  1  0.860083  0.860083  0.418981  1
  Ga  Ga4  1  0.139917  0.139917  0.581019  1
  Ga  Ga5  1  0.139466  0.139466  0.131264  1
  Ga  Ga6  1  0.860534  0.860534  0.868736  1
  Ga  Ga7  1  0.000000  0.000000  0.500000  1
  Ga  Ga8  1  0.345237  0.345237  0.276300  1
  Ga  Ga9  1  0.654763  0.654763  0.723700  1
  Cu  Cu10  1  0.497486  0.497486  0.307629  1
  Cu  Cu11  1  0.502514  0.502514  0.692371  1
  Cu  Cu12  1  0.656516  0.656516  0.983152  1
  Cu  Cu13  1  0.343484  0.343484  0.016848  1
