# generated using pymatgen
data_Hf3Re2Ge3Os
_symmetry_space_group_name_H-M   'P 1'
_cell_length_a   7.02838942
_cell_length_b   7.02838981
_cell_length_c   3.50390800
_cell_angle_alpha   90.00000000
_cell_angle_beta   90.00000000
_cell_angle_gamma   120.30819040
_symmetry_Int_Tables_number   1
_chemical_formula_structural   Hf3Re2Ge3Os
_chemical_formula_sum   'Hf3 Re2 Ge3 Os1'
_cell_volume   149.43002661
_cell_formula_units_Z   1
loop_
 _symmetry_equiv_pos_site_id
 _symmetry_equiv_pos_as_xyz
  1  'x, y, z'
loop_
 _atom_site_type_symbol
 _atom_site_label
 _atom_site_symmetry_multiplicity
 _atom_site_fract_x
 _atom_site_fract_y
 _atom_site_fract_z
 _atom_site_occupancy
  Hf  Hf0  1  0.404409  0.996306  0.500000  1
  Hf  Hf1  1  0.996306  0.404409  0.500000  1
  Hf  Hf2  1  0.598228  0.598228  0.500000  1
  Re  Re3  1  0.745149  0.999931  0.000000  1
  Re  Re4  1  0.999931  0.745149  0.000000  1
  Ge  Ge5  1  0.332217  0.663810  0.000000  1
  Ge  Ge6  1  0.663810  0.332217  0.000000  1
  Ge  Ge7  1  0.003990  0.003990  0.500000  1
  Os  Os8  1  0.255961  0.255961  0.000000  1
