# generated using pymatgen
data_Zr5Co16Cu(P6W)2
_symmetry_space_group_name_H-M   'P 1'
_cell_length_a   11.88837120
_cell_length_b   11.80718548
_cell_length_c   3.64464900
_cell_angle_alpha   90.00000000
_cell_angle_beta   90.00000000
_cell_angle_gamma   119.77434717
_symmetry_Int_Tables_number   1
_chemical_formula_structural   Zr5Co16Cu(P6W)2
_chemical_formula_sum   'Zr5 Co16 Cu1 P12 W2'
_cell_volume   444.05637627
_cell_formula_units_Z   1
loop_
 _symmetry_equiv_pos_site_id
 _symmetry_equiv_pos_as_xyz
  1  'x, y, z'
loop_
 _atom_site_type_symbol
 _atom_site_label
 _atom_site_symmetry_multiplicity
 _atom_site_fract_x
 _atom_site_fract_y
 _atom_site_fract_z
 _atom_site_occupancy
  Zr  Zr0  1  0.663109  0.333069  0.000000  1
  Zr  Zr1  1  0.336891  0.669961  0.000000  1
  Zr  Zr2  1  0.817919  0.818943  0.500000  1
  Zr  Zr3  1  0.182081  0.001023  0.500000  1
  Zr  Zr4  1  0.000000  0.183970  0.500000  1
  Co  Co5  1  0.194377  0.373187  0.000000  1
  Co  Co6  1  0.178938  0.801955  0.000000  1
  Co  Co7  1  0.821062  0.623017  0.000000  1
  Co  Co8  1  0.805623  0.178811  0.000000  1
  Co  Co9  1  0.373294  0.195323  0.000000  1
  Co  Co10  1  0.130815  0.486148  0.500000  1
  Co  Co11  1  0.357042  0.875389  0.500000  1
  Co  Co12  1  0.514998  0.644572  0.500000  1
  Co  Co13  1  0.642958  0.518347  0.500000  1
  Co  Co14  1  0.869185  0.355334  0.500000  1
  Co  Co15  1  0.485002  0.129573  0.500000  1
  Co  Co16  1  0.000000  0.997182  0.000000  1
  Co  Co17  1  0.720178  0.999796  0.500000  1
  Co  Co18  1  0.000000  0.711598  0.500000  1
  Co  Co19  1  0.626706  0.822028  0.000000  1
  Co  Co20  1  0.279822  0.279617  0.500000  1
  Cu  Cu21  1  0.000000  0.550634  0.000000  1
  P  P22  1  0.644586  0.643605  0.000000  1
  P  P23  1  0.355414  0.999019  0.000000  1
  P  P24  1  0.000000  0.360738  0.000000  1
  P  P25  1  0.480898  0.314281  0.500000  1
  P  P26  1  0.687687  0.168887  0.500000  1
  P  P27  1  0.828081  0.515768  0.500000  1
  P  P28  1  0.519102  0.833381  0.500000  1
  P  P29  1  0.171919  0.687686  0.500000  1
  P  P30  1  0.825615  0.000442  0.000000  1
  P  P31  1  0.000000  0.819945  0.000000  1
  P  P32  1  0.312313  0.481198  0.500000  1
  P  P33  1  0.174385  0.174828  0.000000  1
  W  W34  1  0.446898  0.448822  0.000000  1
  W  W35  1  0.553102  0.001923  0.000000  1
