# generated using pymatgen
data_BaPr(TaS2)6
_symmetry_space_group_name_H-M   'P 1'
_cell_length_a   5.81443600
_cell_length_b   5.81443612
_cell_length_c   15.26359300
_cell_angle_alpha   90.00000000
_cell_angle_beta   90.00000000
_cell_angle_gamma   119.99998794
_symmetry_Int_Tables_number   1
_chemical_formula_structural   BaPr(TaS2)6
_chemical_formula_sum   'Ba1 Pr1 Ta6 S12'
_cell_volume   446.89208174
_cell_formula_units_Z   1
loop_
 _symmetry_equiv_pos_site_id
 _symmetry_equiv_pos_as_xyz
  1  'x, y, z'
loop_
 _atom_site_type_symbol
 _atom_site_label
 _atom_site_symmetry_multiplicity
 _atom_site_fract_x
 _atom_site_fract_y
 _atom_site_fract_z
 _atom_site_occupancy
  Ba  Ba0  1  0.000000  0.000000  0.500000  1
  Pr  Pr1  1  0.000000  0.000000  0.000000  1
  Ta  Ta2  1  0.000000  0.000000  0.237696  1
  Ta  Ta3  1  0.000000  0.000000  0.762304  1
  Ta  Ta4  1  0.333333  0.666667  0.237762  1
  Ta  Ta5  1  0.666667  0.333333  0.762238  1
  Ta  Ta6  1  0.666667  0.333333  0.237762  1
  Ta  Ta7  1  0.333333  0.666667  0.762238  1
  S  S8  1  0.338602  0.000000  0.134778  1
  S  S9  1  0.000000  0.338602  0.134778  1
  S  S10  1  0.661398  0.661398  0.134778  1
  S  S11  1  0.337648  0.337648  0.659636  1
  S  S12  1  0.662352  0.662352  0.340364  1
  S  S13  1  0.662352  0.000000  0.659636  1
  S  S14  1  0.000000  0.662352  0.659636  1
  S  S15  1  0.000000  0.661398  0.865222  1
  S  S16  1  0.338602  0.338602  0.865222  1
  S  S17  1  0.000000  0.337648  0.340364  1
  S  S18  1  0.337648  0.000000  0.340364  1
  S  S19  1  0.661398  0.000000  0.865222  1
