# generated using pymatgen
data_Ho6P5Cl
_symmetry_space_group_name_H-M   'P 1'
_cell_length_a   6.86399947
_cell_length_b   6.86187972
_cell_length_c   6.84436100
_cell_angle_alpha   80.37385754
_cell_angle_beta   80.36860372
_cell_angle_gamma   119.86031879
_symmetry_Int_Tables_number   1
_chemical_formula_structural   Ho6P5Cl
_chemical_formula_sum   'Ho6 P5 Cl1'
_cell_volume   263.53441950
_cell_formula_units_Z   1
loop_
 _symmetry_equiv_pos_site_id
 _symmetry_equiv_pos_as_xyz
  1  'x, y, z'
loop_
 _atom_site_type_symbol
 _atom_site_label
 _atom_site_symmetry_multiplicity
 _atom_site_fract_x
 _atom_site_fract_y
 _atom_site_fract_z
 _atom_site_occupancy
  Ho  Ho0  1  0.168908  0.882577  0.472438  1
  Ho  Ho1  1  0.868686  0.232925  0.471141  1
  Ho  Ho2  1  0.345342  0.709047  0.988614  1
  Ho  Ho3  1  0.696648  0.409973  0.988773  1
  Ho  Ho4  1  0.994903  0.058481  0.988454  1
  Ho  Ho5  1  0.519326  0.581939  0.470800  1
  P  P6  1  0.100015  0.478301  0.729860  1
  P  P7  1  0.933334  0.646607  0.230057  1
  P  P8  1  0.270402  0.306789  0.229681  1
  P  P9  1  0.593272  0.984111  0.230185  1
  P  P10  1  0.764314  0.813064  0.729792  1
  Cl  Cl11  1  0.433181  0.148459  0.729752  1
