# generated using pymatgen
data_Ho10Tl7In(PdRh)2
_symmetry_space_group_name_H-M   'P 1'
_cell_length_a   3.61871500
_cell_length_b   8.18901816
_cell_length_c   18.35949237
_cell_angle_alpha   89.99992314
_cell_angle_beta   90.00000000
_cell_angle_gamma   90.00000000
_symmetry_Int_Tables_number   1
_chemical_formula_structural   Ho10Tl7In(PdRh)2
_chemical_formula_sum   'Ho10 Tl7 In1 Pd2 Rh2'
_cell_volume   544.06010879
_cell_formula_units_Z   1
loop_
 _symmetry_equiv_pos_site_id
 _symmetry_equiv_pos_as_xyz
  1  'x, y, z'
loop_
 _atom_site_type_symbol
 _atom_site_label
 _atom_site_symmetry_multiplicity
 _atom_site_fract_x
 _atom_site_fract_y
 _atom_site_fract_z
 _atom_site_occupancy
  Ho  Ho0  1  0.000000  0.499915  0.500257  1
  Ho  Ho1  1  0.000000  0.001148  0.998964  1
  Ho  Ho2  1  0.000000  0.731111  0.279104  1
  Ho  Ho3  1  0.000000  0.269009  0.720973  1
  Ho  Ho4  1  0.000000  0.745682  0.781522  1
  Ho  Ho5  1  0.000000  0.253793  0.218635  1
  Ho  Ho6  1  0.000000  0.614759  0.088934  1
  Ho  Ho7  1  0.000000  0.385026  0.911361  1
  Ho  Ho8  1  0.000000  0.884971  0.588049  1
  Ho  Ho9  1  0.000000  0.114857  0.412646  1
  Tl  Tl10  1  0.500000  0.708622  0.934018  1
  Tl  Tl11  1  0.500000  0.293858  0.065020  1
  Tl  Tl12  1  0.500000  0.793645  0.435203  1
  Tl  Tl13  1  0.500000  0.205871  0.564916  1
  Tl  Tl14  1  0.500000  0.580807  0.649397  1
  Tl  Tl15  1  0.500000  0.419173  0.350991  1
  Tl  Tl16  1  0.500000  0.919483  0.149455  1
  In  In17  1  0.500000  0.081518  0.848502  1
  Pd  Pd18  1  0.500000  0.978837  0.698339  1
  Pd  Pd19  1  0.500000  0.021219  0.303324  1
  Rh  Rh20  1  0.500000  0.523035  0.195756  1
  Rh  Rh21  1  0.500000  0.473661  0.804635  1
