# generated using pymatgen
data_Tb2DyEr17Sn16
_symmetry_space_group_name_H-M   'P 1'
_cell_length_a   7.99834499
_cell_length_b   8.12243482
_cell_length_c   15.35949924
_cell_angle_alpha   90.01343180
_cell_angle_beta   90.12628760
_cell_angle_gamma   89.96306246
_symmetry_Int_Tables_number   1
_chemical_formula_structural   Tb2DyEr17Sn16
_chemical_formula_sum   'Tb2 Dy1 Er17 Sn16'
_cell_volume   997.84311982
_cell_formula_units_Z   1
loop_
 _symmetry_equiv_pos_site_id
 _symmetry_equiv_pos_as_xyz
  1  'x, y, z'
loop_
 _atom_site_type_symbol
 _atom_site_label
 _atom_site_symmetry_multiplicity
 _atom_site_fract_x
 _atom_site_fract_y
 _atom_site_fract_z
 _atom_site_occupancy
  Tb  Tb0  1  0.519257  0.321220  0.596144  1
  Tb  Tb1  1  0.020155  0.178782  0.903650  1
  Dy  Dy2  1  0.980435  0.820629  0.403479  1
  Er  Er3  1  0.367931  0.837498  0.877502  1
  Er  Er4  1  0.866675  0.663127  0.622875  1
  Er  Er5  1  0.633233  0.162352  0.376898  1
  Er  Er6  1  0.132503  0.337386  0.122533  1
  Er  Er7  1  0.632008  0.162348  0.122618  1
  Er  Er8  1  0.132892  0.337436  0.377190  1
  Er  Er9  1  0.367388  0.837509  0.622916  1
  Er  Er10  1  0.868588  0.662483  0.877304  1
  Er  Er11  1  0.521910  0.321353  0.902564  1
  Er  Er12  1  0.020958  0.179238  0.597055  1
  Er  Er13  1  0.479123  0.679177  0.403124  1
  Er  Er14  1  0.978360  0.820216  0.097383  1
  Er  Er15  1  0.478779  0.678610  0.096554  1
  Er  Er16  1  0.198661  0.504095  0.750241  1
  Er  Er17  1  0.698717  0.996529  0.750166  1
  Er  Er18  1  0.801725  0.496281  0.249682  1
  Er  Er19  1  0.301668  0.003549  0.249785  1
  Sn  Sn20  1  0.292703  0.035497  0.042329  1
  Sn  Sn21  1  0.793043  0.462595  0.458187  1
  Sn  Sn22  1  0.706276  0.962743  0.541736  1
  Sn  Sn23  1  0.208032  0.537297  0.958582  1
  Sn  Sn24  1  0.705956  0.960985  0.959191  1
  Sn  Sn25  1  0.204550  0.539268  0.541213  1
  Sn  Sn26  1  0.294895  0.038559  0.458954  1
  Sn  Sn27  1  0.792509  0.462635  0.041295  1
  Sn  Sn28  1  0.565081  0.619488  0.750184  1
  Sn  Sn29  1  0.065201  0.881295  0.750090  1
  Sn  Sn30  1  0.435852  0.382213  0.249930  1
  Sn  Sn31  1  0.935293  0.118503  0.249839  1
  Sn  Sn32  1  0.330833  0.148996  0.750176  1
  Sn  Sn33  1  0.830684  0.351576  0.749359  1
  Sn  Sn34  1  0.668483  0.850289  0.249810  1
  Sn  Sn35  1  0.169644  0.648245  0.249459  1
