# generated using pymatgen
data_K2Zr4SnSe10
_symmetry_space_group_name_H-M   'P 1'
_cell_length_a   6.80106071
_cell_length_b   11.45731844
_cell_length_c   9.11422973
_cell_angle_alpha   59.88406407
_cell_angle_beta   68.29058624
_cell_angle_gamma   90.21345941
_symmetry_Int_Tables_number   1
_chemical_formula_structural   K2Zr4SnSe10
_chemical_formula_sum   'K2 Zr4 Sn1 Se10'
_cell_volume   554.69313465
_cell_formula_units_Z   1
loop_
 _symmetry_equiv_pos_site_id
 _symmetry_equiv_pos_as_xyz
  1  'x, y, z'
loop_
 _atom_site_type_symbol
 _atom_site_label
 _atom_site_symmetry_multiplicity
 _atom_site_fract_x
 _atom_site_fract_y
 _atom_site_fract_z
 _atom_site_occupancy
  K  K0  1  0.785309  0.074731  0.427337  1
  K  K1  1  0.009064  0.527037  0.981913  1
  Zr  Zr2  1  0.401698  0.799644  0.197358  1
  Zr  Zr3  1  0.200650  0.399206  0.595150  1
  Zr  Zr4  1  0.599732  0.201851  0.803140  1
  Zr  Zr5  1  0.998569  0.998021  0.999690  1
  Sn  Sn6  1  0.800070  0.600784  0.403390  1
  Se  Se7  1  0.009148  0.853625  0.334679  1
  Se  Se8  1  0.595657  0.035311  0.152622  1
  Se  Se9  1  0.194685  0.239864  0.948842  1
  Se  Se10  1  0.791512  0.420704  0.770604  1
  Se  Se11  1  0.363631  0.637269  0.549962  1
  Se  Se12  1  0.402124  0.962618  0.851718  1
  Se  Se13  1  0.002723  0.163822  0.647692  1
  Se  Se14  1  0.595271  0.343283  0.464530  1
  Se  Se15  1  0.239283  0.561941  0.243335  1
  Se  Se16  1  0.810875  0.780289  0.028038  1
