# generated using pymatgen
data_Li4Ca2YbLuSi8
_symmetry_space_group_name_H-M   'P 1'
_cell_length_a   3.79251700
_cell_length_b   7.83056364
_cell_length_c   10.44677877
_cell_angle_alpha   89.82718973
_cell_angle_beta   90.00000000
_cell_angle_gamma   90.00000000
_symmetry_Int_Tables_number   1
_chemical_formula_structural   Li4Ca2YbLuSi8
_chemical_formula_sum   'Li4 Ca2 Yb1 Lu1 Si8'
_cell_volume   310.24227904
_cell_formula_units_Z   1
loop_
 _symmetry_equiv_pos_site_id
 _symmetry_equiv_pos_as_xyz
  1  'x, y, z'
loop_
 _atom_site_type_symbol
 _atom_site_label
 _atom_site_symmetry_multiplicity
 _atom_site_fract_x
 _atom_site_fract_y
 _atom_site_fract_z
 _atom_site_occupancy
  Li  Li0  1  0.250000  0.997739  0.388200  1
  Li  Li1  1  0.750000  0.000608  0.610478  1
  Li  Li2  1  0.250000  0.496661  0.108239  1
  Li  Li3  1  0.750000  0.510702  0.889115  1
  Ca  Ca4  1  0.250000  0.635281  0.638159  1
  Ca  Ca5  1  0.750000  0.362516  0.364549  1
  Yb  Yb6  1  0.750000  0.866659  0.134924  1
  Lu  Lu7  1  0.250000  0.127137  0.866035  1
  Si  Si8  1  0.750000  0.265530  0.057704  1
  Si  Si9  1  0.250000  0.742450  0.934490  1
  Si  Si10  1  0.750000  0.767104  0.431746  1
  Si  Si11  1  0.250000  0.225376  0.575616  1
  Si  Si12  1  0.750000  0.846856  0.824632  1
  Si  Si13  1  0.250000  0.160890  0.167619  1
  Si  Si14  1  0.750000  0.329995  0.685735  1
  Si  Si15  1  0.250000  0.664494  0.322759  1
