# generated using pymatgen
data_Y8Lu3ScGa20
_symmetry_space_group_name_H-M   'P 1'
_cell_length_a   6.06678650
_cell_length_b   9.56278200
_cell_length_c   11.53159584
_cell_angle_alpha   90.00000000
_cell_angle_beta   89.91948245
_cell_angle_gamma   90.00000000
_symmetry_Int_Tables_number   1
_chemical_formula_structural   Y8Lu3ScGa20
_chemical_formula_sum   'Y8 Lu3 Sc1 Ga20'
_cell_volume   669.00898597
_cell_formula_units_Z   1
loop_
 _symmetry_equiv_pos_site_id
 _symmetry_equiv_pos_as_xyz
  1  'x, y, z'
loop_
 _atom_site_type_symbol
 _atom_site_label
 _atom_site_symmetry_multiplicity
 _atom_site_fract_x
 _atom_site_fract_y
 _atom_site_fract_z
 _atom_site_occupancy
  Y  Y0  1  0.891338  0.508204  0.351265  1
  Y  Y1  1  0.608992  0.991974  0.850917  1
  Y  Y2  1  0.109554  0.009003  0.648219  1
  Y  Y3  1  0.390570  0.491562  0.148776  1
  Y  Y4  1  0.109554  0.490997  0.648219  1
  Y  Y5  1  0.390570  0.008438  0.148776  1
  Y  Y6  1  0.891338  0.991796  0.351265  1
  Y  Y7  1  0.608992  0.508026  0.850917  1
  Lu  Lu8  1  0.848985  0.750000  0.073430  1
  Lu  Lu9  1  0.650714  0.750000  0.573063  1
  Lu  Lu10  1  0.150903  0.250000  0.926337  1
  Sc  Sc11  1  0.349653  0.250000  0.425380  1
  Ga  Ga12  1  0.877162  0.053922  0.090395  1
  Ga  Ga13  1  0.621901  0.445248  0.588636  1
  Ga  Ga14  1  0.122736  0.553156  0.909898  1
  Ga  Ga15  1  0.377284  0.950829  0.410427  1
  Ga  Ga16  1  0.122736  0.946844  0.909898  1
  Ga  Ga17  1  0.377284  0.549171  0.410427  1
  Ga  Ga18  1  0.877162  0.446078  0.090395  1
  Ga  Ga19  1  0.621901  0.054752  0.588636  1
  Ga  Ga20  1  0.167017  0.750000  0.251748  1
  Ga  Ga21  1  0.332740  0.750000  0.751644  1
  Ga  Ga22  1  0.832951  0.250000  0.747937  1
  Ga  Ga23  1  0.661660  0.250000  0.251046  1
  Ga  Ga24  1  0.377254  0.750000  0.001326  1
  Ga  Ga25  1  0.124489  0.750000  0.500807  1
  Ga  Ga26  1  0.622331  0.250000  0.999323  1
  Ga  Ga27  1  0.883248  0.250000  0.497959  1
  Ga  Ga28  1  0.600254  0.750000  0.297533  1
  Ga  Ga29  1  0.898385  0.750000  0.796441  1
  Ga  Ga30  1  0.398203  0.250000  0.702156  1
  Ga  Ga31  1  0.102138  0.250000  0.206801  1
