# generated using pymatgen
data_Ho16Cd4CoNi2Ir
_symmetry_space_group_name_H-M   'P 1'
_cell_length_a   9.51126644
_cell_length_b   9.51126658
_cell_length_c   9.55673693
_cell_angle_alpha   60.05570406
_cell_angle_beta   60.05570516
_cell_angle_gamma   59.79729932
_symmetry_Int_Tables_number   1
_chemical_formula_structural   Ho16Cd4CoNi2Ir
_chemical_formula_sum   'Ho16 Cd4 Co1 Ni2 Ir1'
_cell_volume   610.89371262
_cell_formula_units_Z   1
loop_
 _symmetry_equiv_pos_site_id
 _symmetry_equiv_pos_as_xyz
  1  'x, y, z'
loop_
 _atom_site_type_symbol
 _atom_site_label
 _atom_site_symmetry_multiplicity
 _atom_site_fract_x
 _atom_site_fract_y
 _atom_site_fract_z
 _atom_site_occupancy
  Ho  Ho0  1  0.349677  0.349677  0.344510  1
  Ho  Ho1  1  0.347437  0.347437  0.956938  1
  Ho  Ho2  1  0.349327  0.956208  0.344056  1
  Ho  Ho3  1  0.956208  0.349327  0.344056  1
  Ho  Ho4  1  0.814083  0.187503  0.189829  1
  Ho  Ho5  1  0.187345  0.809177  0.813230  1
  Ho  Ho6  1  0.187503  0.814083  0.189829  1
  Ho  Ho7  1  0.809177  0.187345  0.813230  1
  Ho  Ho8  1  0.188404  0.188404  0.816528  1
  Ho  Ho9  1  0.811331  0.811331  0.187899  1
  Ho  Ho10  1  0.937281  0.560871  0.565503  1
  Ho  Ho11  1  0.561705  0.936965  0.935689  1
  Ho  Ho12  1  0.560871  0.937281  0.565503  1
  Ho  Ho13  1  0.936965  0.561705  0.935689  1
  Ho  Ho14  1  0.565133  0.565133  0.935357  1
  Ho  Ho15  1  0.938599  0.938599  0.562113  1
  Cd  Cd16  1  0.579562  0.579562  0.581699  1
  Cd  Cd17  1  0.580625  0.580625  0.256406  1
  Cd  Cd18  1  0.580450  0.256042  0.581820  1
  Cd  Cd19  1  0.256042  0.580450  0.581820  1
  Co  Co20  1  0.142904  0.142904  0.140768  1
  Ni  Ni21  1  0.141874  0.575067  0.141788  1
  Ni  Ni22  1  0.575067  0.141874  0.141788  1
  Ir  Ir23  1  0.142429  0.142429  0.573947  1
