# generated using pymatgen
data_Zr4Ta3Re5
_symmetry_space_group_name_H-M   'P 1'
_cell_length_a   5.39565800
_cell_length_b   5.42535380
_cell_length_c   8.83952300
_cell_angle_alpha   90.00000000
_cell_angle_beta   90.00000000
_cell_angle_gamma   119.81908973
_symmetry_Int_Tables_number   1
_chemical_formula_structural   Zr4Ta3Re5
_chemical_formula_sum   'Zr4 Ta3 Re5'
_cell_volume   224.50228438
_cell_formula_units_Z   1
loop_
 _symmetry_equiv_pos_site_id
 _symmetry_equiv_pos_as_xyz
  1  'x, y, z'
loop_
 _atom_site_type_symbol
 _atom_site_label
 _atom_site_symmetry_multiplicity
 _atom_site_fract_x
 _atom_site_fract_y
 _atom_site_fract_z
 _atom_site_occupancy
  Zr  Zr0  1  0.333722  0.667445  0.058783  1
  Zr  Zr1  1  0.666521  0.333040  0.565567  1
  Zr  Zr2  1  0.666521  0.333040  0.934433  1
  Zr  Zr3  1  0.333722  0.667445  0.441217  1
  Ta  Ta4  1  0.003373  0.006746  0.995447  1
  Ta  Ta5  1  0.003373  0.006746  0.504553  1
  Ta  Ta6  1  0.827570  0.655142  0.250000  1
  Re  Re7  1  0.171850  0.827657  0.750000  1
  Re  Re8  1  0.655808  0.827657  0.750000  1
  Re  Re9  1  0.338993  0.164769  0.250000  1
  Re  Re10  1  0.825775  0.164769  0.250000  1
  Re  Re11  1  0.172771  0.345542  0.750000  1
