# generated using pymatgen
data_KRbMnI4
_symmetry_space_group_name_H-M   'P 1'
_cell_length_a   8.35220000
_cell_length_b   8.07286570
_cell_length_c   10.16534887
_cell_angle_alpha   72.61507613
_cell_angle_beta   90.00000000
_cell_angle_gamma   90.00000000
_symmetry_Int_Tables_number   1
_chemical_formula_structural   KRbMnI4
_chemical_formula_sum   'K2 Rb2 Mn2 I8'
_cell_volume   654.10047335
_cell_formula_units_Z   2
loop_
 _symmetry_equiv_pos_site_id
 _symmetry_equiv_pos_as_xyz
  1  'x, y, z'
loop_
 _atom_site_type_symbol
 _atom_site_label
 _atom_site_symmetry_multiplicity
 _atom_site_fract_x
 _atom_site_fract_y
 _atom_site_fract_z
 _atom_site_occupancy
  K  K0  1  0.750000  0.780679  0.550687  1
  K  K1  1  0.250000  0.219321  0.449313  1
  Rb  Rb2  1  0.750000  0.735210  0.070046  1
  Rb  Rb3  1  0.250000  0.264790  0.929954  1
  Mn  Mn4  1  0.750000  0.222203  0.693804  1
  Mn  Mn5  1  0.250000  0.777797  0.306196  1
  I  I6  1  0.750000  0.409236  0.426849  1
  I  I7  1  0.250000  0.590764  0.573151  1
  I  I8  1  0.999142  0.999227  0.247553  1
  I  I9  1  0.000858  0.000773  0.752447  1
  I  I10  1  0.499142  0.000773  0.752447  1
  I  I11  1  0.500858  0.999227  0.247553  1
  I  I12  1  0.750000  0.423283  0.863721  1
  I  I13  1  0.250000  0.576717  0.136279  1
