# generated using pymatgen
data_Pr2HfAlIr2
_symmetry_space_group_name_H-M   'P 1'
_cell_length_a   4.51267700
_cell_length_b   7.27606216
_cell_length_c   8.13602268
_cell_angle_alpha   88.67100240
_cell_angle_beta   90.00000000
_cell_angle_gamma   90.00000000
_symmetry_Int_Tables_number   1
_chemical_formula_structural   Pr2HfAlIr2
_chemical_formula_sum   'Pr4 Hf2 Al2 Ir4'
_cell_volume   267.07052445
_cell_formula_units_Z   2
loop_
 _symmetry_equiv_pos_site_id
 _symmetry_equiv_pos_as_xyz
  1  'x, y, z'
loop_
 _atom_site_type_symbol
 _atom_site_label
 _atom_site_symmetry_multiplicity
 _atom_site_fract_x
 _atom_site_fract_y
 _atom_site_fract_z
 _atom_site_occupancy
  Pr  Pr0  1  0.250000  0.530910  0.165297  1
  Pr  Pr1  1  0.750000  0.469090  0.834703  1
  Pr  Pr2  1  0.750000  0.979286  0.695129  1
  Pr  Pr3  1  0.250000  0.020714  0.304871  1
  Hf  Hf4  1  0.250000  0.637286  0.576498  1
  Hf  Hf5  1  0.750000  0.362714  0.423502  1
  Al  Al6  1  0.750000  0.853342  0.067371  1
  Al  Al7  1  0.250000  0.146658  0.932629  1
  Ir  Ir8  1  0.250000  0.786831  0.890342  1
  Ir  Ir9  1  0.750000  0.213169  0.109658  1
  Ir  Ir10  1  0.750000  0.721820  0.400175  1
  Ir  Ir11  1  0.250000  0.278180  0.599825  1
