# generated using pymatgen
data_Er3SnPd2RuPb2
_symmetry_space_group_name_H-M   'P 1'
_cell_length_a   7.86549792
_cell_length_b   7.84741720
_cell_length_c   3.69467700
_cell_angle_alpha   90.00000000
_cell_angle_beta   90.00000000
_cell_angle_gamma   119.92398901
_symmetry_Int_Tables_number   1
_chemical_formula_structural   Er3SnPd2RuPb2
_chemical_formula_sum   'Er3 Sn1 Pd2 Ru1 Pb2'
_cell_volume   197.64790008
_cell_formula_units_Z   1
loop_
 _symmetry_equiv_pos_site_id
 _symmetry_equiv_pos_as_xyz
  1  'x, y, z'
loop_
 _atom_site_type_symbol
 _atom_site_label
 _atom_site_symmetry_multiplicity
 _atom_site_fract_x
 _atom_site_fract_y
 _atom_site_fract_z
 _atom_site_occupancy
  Er  Er0  1  0.387253  0.391789  0.500000  1
  Er  Er1  1  0.612747  0.004536  0.500000  1
  Er  Er2  1  0.000000  0.604161  0.500000  1
  Sn  Sn3  1  0.000000  0.269870  0.000000  1
  Pd  Pd4  1  0.672464  0.331037  0.000000  1
  Pd  Pd5  1  0.327536  0.658574  0.000000  1
  Ru  Ru6  1  0.000000  0.011654  0.500000  1
  Pb  Pb7  1  0.729797  0.729089  0.000000  1
  Pb  Pb8  1  0.270203  0.999292  0.000000  1
