# generated using pymatgen
data_Nb6Al5GaRu12
_symmetry_space_group_name_H-M   'P 1'
_cell_length_a   4.39525200
_cell_length_b   6.20713100
_cell_length_c   13.14728000
_cell_angle_alpha   90.00000000
_cell_angle_beta   90.00263709
_cell_angle_gamma   90.00000000
_symmetry_Int_Tables_number   1
_chemical_formula_structural   Nb6Al5GaRu12
_chemical_formula_sum   'Nb6 Al5 Ga1 Ru12'
_cell_volume   358.68284302
_cell_formula_units_Z   1
loop_
 _symmetry_equiv_pos_site_id
 _symmetry_equiv_pos_as_xyz
  1  'x, y, z'
loop_
 _atom_site_type_symbol
 _atom_site_label
 _atom_site_symmetry_multiplicity
 _atom_site_fract_x
 _atom_site_fract_y
 _atom_site_fract_z
 _atom_site_occupancy
  Nb  Nb0  1  0.000000  0.500000  0.000000  1
  Nb  Nb1  1  0.499861  0.000000  0.166151  1
  Nb  Nb2  1  0.999873  0.500000  0.333345  1
  Nb  Nb3  1  0.500001  0.000000  0.500000  1
  Nb  Nb4  1  0.000127  0.500000  0.666655  1
  Nb  Nb5  1  0.500139  0.000000  0.833849  1
  Al  Al6  1  0.499844  0.500000  0.166779  1
  Al  Al7  1  0.999843  0.000000  0.333406  1
  Al  Al8  1  0.500001  0.500000  0.500000  1
  Al  Al9  1  0.000157  0.000000  0.666594  1
  Al  Al10  1  0.500156  0.500000  0.833221  1
  Ga  Ga11  1  0.000000  0.000000  0.000000  1
  Ru  Ru12  1  0.500001  0.252741  0.000000  1
  Ru  Ru13  1  0.500001  0.747259  0.000000  1
  Ru  Ru14  1  0.999860  0.250471  0.167484  1
  Ru  Ru15  1  0.999860  0.749528  0.167484  1
  Ru  Ru16  1  0.499874  0.250199  0.333277  1
  Ru  Ru17  1  0.499874  0.749803  0.333277  1
  Ru  Ru18  1  0.000000  0.249381  0.500000  1
  Ru  Ru19  1  0.000000  0.750619  0.500000  1
  Ru  Ru20  1  0.500126  0.250199  0.666723  1
  Ru  Ru21  1  0.500126  0.749803  0.666723  1
  Ru  Ru22  1  0.000139  0.250471  0.832515  1
  Ru  Ru23  1  0.000139  0.749528  0.832515  1
