# generated using pymatgen
data_Yb12NbAl6Si12NiO48
_symmetry_space_group_name_H-M   'P 1'
_cell_length_a   10.34119888
_cell_length_b   10.21521520
_cell_length_c   10.34119900
_cell_angle_alpha   109.22462844
_cell_angle_beta   109.71667826
_cell_angle_gamma   109.22461751
_symmetry_Int_Tables_number   1
_chemical_formula_structural   Yb12NbAl6Si12NiO48
_chemical_formula_sum   'Yb12 Nb1 Al6 Si12 Ni1 O48'
_cell_volume   843.49038758
_cell_formula_units_Z   1
loop_
 _symmetry_equiv_pos_site_id
 _symmetry_equiv_pos_as_xyz
  1  'x, y, z'
loop_
 _atom_site_type_symbol
 _atom_site_label
 _atom_site_symmetry_multiplicity
 _atom_site_fract_x
 _atom_site_fract_y
 _atom_site_fract_z
 _atom_site_occupancy
  Yb  Yb0  1  0.374915  0.750327  0.124399  1
  Yb  Yb1  1  0.249484  0.375412  0.125086  1
  Yb  Yb2  1  0.375601  0.125929  0.250516  1
  Yb  Yb3  1  0.877730  0.615619  0.248951  1
  Yb  Yb4  1  0.748950  0.133334  0.371221  1
  Yb  Yb5  1  0.128779  0.262111  0.377729  1
  Yb  Yb6  1  0.871221  0.737890  0.622270  1
  Yb  Yb7  1  0.251050  0.866666  0.628780  1
  Yb  Yb8  1  0.122271  0.384382  0.751049  1
  Yb  Yb9  1  0.624400  0.874071  0.749484  1
  Yb  Yb10  1  0.750516  0.624589  0.874915  1
  Yb  Yb11  1  0.625084  0.249672  0.875601  1
  Nb  Nb12  1  0.000000  0.000000  0.500000  1
  Al  Al13  1  0.000000  0.000000  0.000000  1
  Al  Al14  1  0.500000  0.000000  0.000000  1
  Al  Al15  1  0.000000  0.499999  0.000000  1
  Al  Al16  1  0.499999  0.500000  0.000000  1
  Al  Al17  1  0.499999  0.500000  0.500000  1
  Al  Al18  1  0.499999  0.000000  0.500000  1
  Si  Si19  1  0.872351  0.244993  0.120823  1
  Si  Si20  1  0.742709  0.870899  0.115326  1
  Si  Si21  1  0.620823  0.375830  0.248471  1
  Si  Si22  1  0.127382  0.871808  0.242708  1
  Si  Si23  1  0.251529  0.627359  0.372352  1
  Si  Si24  1  0.615326  0.744426  0.372618  1
  Si  Si25  1  0.748472  0.372640  0.627647  1
  Si  Si26  1  0.384673  0.255573  0.627381  1
  Si  Si27  1  0.872619  0.128193  0.757292  1
  Si  Si28  1  0.379177  0.624169  0.751529  1
  Si  Si29  1  0.257292  0.129100  0.884674  1
  Si  Si30  1  0.127649  0.755008  0.879177  1
  Ni  Ni31  1  0.000000  0.500000  0.500000  1
  O  O32  1  0.200776  0.115373  0.013166  1
  O  O33  1  0.313290  0.898397  0.013700  1
  O  O34  1  0.697110  0.687865  0.082837  1
  O  O35  1  0.884475  0.392849  0.081395  1
  O  O36  1  0.611745  0.414139  0.101832  1
  O  O37  1  0.989844  0.687128  0.102381  1
  O  O38  1  0.009912  0.197603  0.111744  1
  O  O39  1  0.602381  0.915252  0.112538  1
  O  O40  1  0.200411  0.585106  0.186710  1
  O  O41  1  0.486834  0.602206  0.187612  1
  O  O42  1  0.114272  0.009244  0.197109  1
  O  O43  1  0.581395  0.188546  0.196919  1
  O  O44  1  0.312389  0.914594  0.299223  1
  O  O45  1  0.486301  0.384697  0.299591  1
  O  O46  1  0.906932  0.287492  0.299767  1
  O  O47  1  0.889415  0.007521  0.299168  1
  O  O48  1  0.582836  0.894971  0.385726  1
  O  O49  1  0.303083  0.491628  0.384476  1
  O  O50  1  0.799766  0.512275  0.392834  1
  O  O51  1  0.090248  0.881893  0.389416  1
  O  O52  1  0.799168  0.791645  0.409751  1
  O  O53  1  0.107165  0.619440  0.406932  1
  O  O54  1  0.387463  0.302715  0.489844  1
  O  O55  1  0.601832  0.187693  0.490088  1
  O  O56  1  0.398168  0.812308  0.509912  1
  O  O57  1  0.612538  0.697286  0.510158  1
  O  O58  1  0.892834  0.380559  0.593068  1
  O  O59  1  0.200832  0.208355  0.590249  1
  O  O60  1  0.909752  0.118107  0.610585  1
  O  O61  1  0.200234  0.487725  0.607165  1
  O  O62  1  0.417162  0.105028  0.614272  1
  O  O63  1  0.696919  0.508373  0.615526  1
  O  O64  1  0.110585  0.992478  0.700832  1
  O  O65  1  0.093067  0.712508  0.700233  1
  O  O66  1  0.687610  0.085405  0.700777  1
  O  O67  1  0.513700  0.615304  0.700410  1
  O  O68  1  0.418604  0.811453  0.803080  1
  O  O69  1  0.885728  0.990756  0.802892  1
  O  O70  1  0.513166  0.397795  0.812388  1
  O  O71  1  0.799589  0.414893  0.813289  1
  O  O72  1  0.397619  0.084747  0.887462  1
  O  O73  1  0.990088  0.802397  0.888257  1
  O  O74  1  0.388255  0.585860  0.898167  1
  O  O75  1  0.010156  0.312873  0.897619  1
  O  O76  1  0.302891  0.312135  0.917163  1
  O  O77  1  0.115525  0.607151  0.918605  1
  O  O78  1  0.686710  0.101602  0.986299  1
  O  O79  1  0.799224  0.884627  0.986835  1
