# generated using pymatgen
data_EuCo2(Sb6Ru)2
_symmetry_space_group_name_H-M   'P 1'
_cell_length_a   8.11308635
_cell_length_b   8.05972983
_cell_length_c   8.05972910
_cell_angle_alpha   109.13577920
_cell_angle_beta   109.46756660
_cell_angle_gamma   109.54202011
_symmetry_Int_Tables_number   1
_chemical_formula_structural   EuCo2(Sb6Ru)2
_chemical_formula_sum   'Eu1 Co2 Sb12 Ru2'
_cell_volume   407.03355414
_cell_formula_units_Z   1
loop_
 _symmetry_equiv_pos_site_id
 _symmetry_equiv_pos_as_xyz
  1  'x, y, z'
loop_
 _atom_site_type_symbol
 _atom_site_label
 _atom_site_symmetry_multiplicity
 _atom_site_fract_x
 _atom_site_fract_y
 _atom_site_fract_z
 _atom_site_occupancy
  Eu  Eu0  1  0.000000  0.000000  0.000000  1
  Co  Co1  1  0.500000  0.500000  0.500000  1
  Co  Co2  1  0.500000  0.000000  0.000000  1
  Sb  Sb3  1  0.658409  0.836467  0.502845  1
  Sb  Sb4  1  0.341591  0.163533  0.497155  1
  Sb  Sb5  1  0.835681  0.178189  0.333190  1
  Sb  Sb6  1  0.817927  0.659836  0.158090  1
  Sb  Sb7  1  0.835681  0.502491  0.657492  1
  Sb  Sb8  1  0.182073  0.340164  0.841910  1
  Sb  Sb9  1  0.164319  0.821811  0.666810  1
  Sb  Sb10  1  0.503688  0.664425  0.839263  1
  Sb  Sb11  1  0.496312  0.335575  0.160737  1
  Sb  Sb12  1  0.164319  0.497509  0.342508  1
  Sb  Sb13  1  0.341591  0.844437  0.178058  1
  Sb  Sb14  1  0.658409  0.155563  0.821942  1
  Ru  Ru15  1  0.000000  0.000000  0.500000  1
  Ru  Ru16  1  0.000000  0.500000  0.000000  1
