# generated using pymatgen
data_Tb9Ho3(AlAu5)4
_symmetry_space_group_name_H-M   'P 1'
_cell_length_a   8.50254018
_cell_length_b   8.50254139
_cell_length_c   13.53170107
_cell_angle_alpha   90.01079983
_cell_angle_beta   89.98920171
_cell_angle_gamma   128.47697304
_symmetry_Int_Tables_number   1
_chemical_formula_structural   Tb9Ho3(AlAu5)4
_chemical_formula_sum   'Tb9 Ho3 Al4 Au20'
_cell_volume   765.83107126
_cell_formula_units_Z   1
loop_
 _symmetry_equiv_pos_site_id
 _symmetry_equiv_pos_as_xyz
  1  'x, y, z'
loop_
 _atom_site_type_symbol
 _atom_site_label
 _atom_site_symmetry_multiplicity
 _atom_site_fract_x
 _atom_site_fract_y
 _atom_site_fract_z
 _atom_site_occupancy
  Tb  Tb0  1  0.927620  0.072380  0.250007  1
  Tb  Tb1  1  0.072296  0.927704  0.749968  1
  Tb  Tb2  1  0.320522  0.679478  0.250078  1
  Tb  Tb3  1  0.679461  0.320539  0.749979  1
  Tb  Tb4  1  0.369312  0.630688  0.964711  1
  Tb  Tb5  1  0.881488  0.118512  0.951325  1
  Tb  Tb6  1  0.118434  0.881566  0.048691  1
  Tb  Tb7  1  0.881485  0.118515  0.548644  1
  Tb  Tb8  1  0.118503  0.881497  0.451332  1
  Ho  Ho9  1  0.630629  0.369371  0.464825  1
  Ho  Ho10  1  0.369361  0.630639  0.535119  1
  Ho  Ho11  1  0.630718  0.369282  0.035167  1
  Al  Al12  1  0.720146  0.279854  0.250049  1
  Al  Al13  1  0.279763  0.720237  0.749830  1
  Al  Al14  1  0.532775  0.467225  0.250011  1
  Al  Al15  1  0.467276  0.532724  0.749882  1
  Au  Au16  1  0.323260  0.069357  0.250015  1
  Au  Au17  1  0.069371  0.323219  0.750010  1
  Au  Au18  1  0.676781  0.930629  0.750010  1
  Au  Au19  1  0.930643  0.676740  0.250015  1
  Au  Au20  1  0.570377  0.004315  0.396855  1
  Au  Au21  1  0.004330  0.570358  0.603152  1
  Au  Au22  1  0.570599  0.004728  0.103290  1
  Au  Au23  1  0.003634  0.570238  0.896714  1
  Au  Au24  1  0.429642  0.995670  0.603152  1
  Au  Au25  1  0.995685  0.429623  0.396855  1
  Au  Au26  1  0.429762  0.996366  0.896714  1
  Au  Au27  1  0.995272  0.429401  0.103290  1
  Au  Au28  1  0.685324  0.740518  0.395024  1
  Au  Au29  1  0.740502  0.685291  0.604978  1
  Au  Au30  1  0.685944  0.740780  0.105238  1
  Au  Au31  1  0.741058  0.685386  0.894915  1
  Au  Au32  1  0.314709  0.259498  0.604978  1
  Au  Au33  1  0.259482  0.314676  0.395024  1
  Au  Au34  1  0.314614  0.258942  0.894915  1
  Au  Au35  1  0.259220  0.314056  0.105238  1
