# generated using pymatgen
data_Tm4Ge3Sb3Rh7
_symmetry_space_group_name_H-M   'P 1'
_cell_length_a   7.39744738
_cell_length_b   7.39744750
_cell_length_c   7.43117400
_cell_angle_alpha   109.56361164
_cell_angle_beta   109.56361196
_cell_angle_gamma   109.37867504
_symmetry_Int_Tables_number   1
_chemical_formula_structural   Tm4Ge3Sb3Rh7
_chemical_formula_sum   'Tm4 Ge3 Sb3 Rh7'
_cell_volume   312.68196365
_cell_formula_units_Z   1
loop_
 _symmetry_equiv_pos_site_id
 _symmetry_equiv_pos_as_xyz
  1  'x, y, z'
loop_
 _atom_site_type_symbol
 _atom_site_label
 _atom_site_symmetry_multiplicity
 _atom_site_fract_x
 _atom_site_fract_y
 _atom_site_fract_z
 _atom_site_occupancy
  Tm  Tm0  1  0.000000  0.000000  0.545788  1
  Tm  Tm1  1  0.000000  0.478754  0.987576  1
  Tm  Tm2  1  0.478754  0.000000  0.987576  1
  Tm  Tm3  1  0.521246  0.521246  0.508822  1
  Ge  Ge4  1  0.332616  0.332616  0.006011  1
  Ge  Ge5  1  0.667384  0.000000  0.673396  1
  Ge  Ge6  1  0.000000  0.667384  0.673396  1
  Sb  Sb7  1  0.697190  0.697190  0.009410  1
  Sb  Sb8  1  0.302810  0.000000  0.312220  1
  Sb  Sb9  1  0.000000  0.302810  0.312220  1
  Rh  Rh10  1  0.749463  0.249392  0.503211  1
  Rh  Rh11  1  0.750608  0.500071  0.253819  1
  Rh  Rh12  1  0.499929  0.250537  0.753748  1
  Rh  Rh13  1  0.250537  0.499929  0.753748  1
  Rh  Rh14  1  0.249392  0.749463  0.503211  1
  Rh  Rh15  1  0.500071  0.750608  0.253819  1
  Rh  Rh16  1  0.000000  0.000000  0.962032  1
