# generated using pymatgen
data_Sr6Os2N7
_symmetry_space_group_name_H-M   'P 1'
_cell_length_a   7.13538848
_cell_length_b   7.13538807
_cell_length_c   7.13538832
_cell_angle_alpha   65.89551172
_cell_angle_beta   65.89550993
_cell_angle_gamma   65.89552105
_symmetry_Int_Tables_number   1
_chemical_formula_structural   Sr6Os2N7
_chemical_formula_sum   'Sr6 Os2 N7'
_cell_volume   289.69006834
_cell_formula_units_Z   1
loop_
 _symmetry_equiv_pos_site_id
 _symmetry_equiv_pos_as_xyz
  1  'x, y, z'
loop_
 _atom_site_type_symbol
 _atom_site_label
 _atom_site_symmetry_multiplicity
 _atom_site_fract_x
 _atom_site_fract_y
 _atom_site_fract_z
 _atom_site_occupancy
  Sr  Sr0  1  0.338642  0.189629  0.728859  1
  Sr  Sr1  1  0.189629  0.728859  0.338642  1
  Sr  Sr2  1  0.728859  0.338642  0.189629  1
  Sr  Sr3  1  0.661358  0.810371  0.271141  1
  Sr  Sr4  1  0.810371  0.271141  0.661358  1
  Sr  Sr5  1  0.271141  0.661358  0.810371  1
  Os  Os6  1  0.250052  0.250052  0.250052  1
  Os  Os7  1  0.749948  0.749948  0.749948  1
  N  N8  1  0.237829  0.025169  0.495536  1
  N  N9  1  0.025169  0.495536  0.237829  1
  N  N10  1  0.495536  0.237829  0.025169  1
  N  N11  1  0.762171  0.974831  0.504464  1
  N  N12  1  0.974831  0.504464  0.762171  1
  N  N13  1  0.504464  0.762171  0.974831  1
  N  N14  1  0.500000  0.500000  0.500000  1
