# generated using pymatgen
data_Er12Tc3Ru
_symmetry_space_group_name_H-M   'P 1'
_cell_length_a   6.23322200
_cell_length_b   7.35146800
_cell_length_c   9.05799300
_cell_angle_alpha   90.00000000
_cell_angle_beta   90.00000000
_cell_angle_gamma   90.00069282
_symmetry_Int_Tables_number   1
_chemical_formula_structural   Er12Tc3Ru
_chemical_formula_sum   'Er12 Tc3 Ru1'
_cell_volume   415.06742111
_cell_formula_units_Z   1
loop_
 _symmetry_equiv_pos_site_id
 _symmetry_equiv_pos_as_xyz
  1  'x, y, z'
loop_
 _atom_site_type_symbol
 _atom_site_label
 _atom_site_symmetry_multiplicity
 _atom_site_fract_x
 _atom_site_fract_y
 _atom_site_fract_z
 _atom_site_occupancy
  Er  Er0  1  0.335913  0.676688  0.062608  1
  Er  Er1  1  0.161870  0.176014  0.438153  1
  Er  Er2  1  0.662037  0.324057  0.562616  1
  Er  Er3  1  0.837253  0.823774  0.937742  1
  Er  Er4  1  0.662037  0.324057  0.937384  1
  Er  Er5  1  0.837253  0.823774  0.562258  1
  Er  Er6  1  0.335913  0.676688  0.437392  1
  Er  Er7  1  0.161870  0.176014  0.061847  1
  Er  Er8  1  0.872774  0.540018  0.250000  1
  Er  Er9  1  0.627482  0.039090  0.250000  1
  Er  Er10  1  0.130816  0.459191  0.750000  1
  Er  Er11  1  0.373405  0.958179  0.750000  1
  Tc  Tc12  1  0.041076  0.884314  0.250000  1
  Tc  Tc13  1  0.460213  0.386214  0.250000  1
  Tc  Tc14  1  0.960125  0.115723  0.750000  1
  Ru  Ru15  1  0.539962  0.616204  0.750000  1
