# generated using pymatgen
data_Sr8Rh
_symmetry_space_group_name_H-M   'P 1'
_cell_length_a   7.42381847
_cell_length_b   9.54731812
_cell_length_c   10.52752021
_cell_angle_alpha   43.02108255
_cell_angle_beta   61.66353426
_cell_angle_gamma   75.27961126
_symmetry_Int_Tables_number   1
_chemical_formula_structural   Sr8Rh
_chemical_formula_sum   'Sr8 Rh1'
_cell_volume   442.68723909
_cell_formula_units_Z   1
loop_
 _symmetry_equiv_pos_site_id
 _symmetry_equiv_pos_as_xyz
  1  'x, y, z'
loop_
 _atom_site_type_symbol
 _atom_site_label
 _atom_site_symmetry_multiplicity
 _atom_site_fract_x
 _atom_site_fract_y
 _atom_site_fract_z
 _atom_site_occupancy
  Sr  Sr0  1  0.664623  0.211066  0.160032  1
  Sr  Sr1  1  0.289169  0.078503  0.036715  1
  Sr  Sr2  1  0.404633  0.468083  0.403066  1
  Sr  Sr3  1  0.799501  0.586147  0.528094  1
  Sr  Sr4  1  0.043468  0.343153  0.283739  1
  Sr  Sr5  1  0.924554  0.951820  0.917757  1
  Sr  Sr6  1  0.530063  0.832325  0.795210  1
  Sr  Sr7  1  0.167540  0.708252  0.661061  1
  Rh  Rh8  1  0.165034  0.709665  0.160492  1
