# generated using pymatgen
data_Ba2NaCoO4
_symmetry_space_group_name_H-M   'P 1'
_cell_length_a   6.02216900
_cell_length_b   6.25629917
_cell_length_c   7.46884539
_cell_angle_alpha   84.98125138
_cell_angle_beta   90.00000000
_cell_angle_gamma   90.00000000
_symmetry_Int_Tables_number   1
_chemical_formula_structural   Ba2NaCoO4
_chemical_formula_sum   'Ba4 Na2 Co2 O8'
_cell_volume   280.32103360
_cell_formula_units_Z   2
loop_
 _symmetry_equiv_pos_site_id
 _symmetry_equiv_pos_as_xyz
  1  'x, y, z'
loop_
 _atom_site_type_symbol
 _atom_site_label
 _atom_site_symmetry_multiplicity
 _atom_site_fract_x
 _atom_site_fract_y
 _atom_site_fract_z
 _atom_site_occupancy
  Ba  Ba0  1  0.750000  0.088156  0.861470  1
  Ba  Ba1  1  0.250000  0.911844  0.138530  1
  Ba  Ba2  1  0.250000  0.324006  0.456783  1
  Ba  Ba3  1  0.750000  0.675994  0.543217  1
  Na  Na4  1  0.750000  0.574967  0.055238  1
  Na  Na5  1  0.250000  0.425033  0.944762  1
  Co  Co6  1  0.250000  0.839756  0.713637  1
  Co  Co7  1  0.750000  0.160244  0.286363  1
  O  O8  1  0.498430  0.275914  0.163434  1
  O  O9  1  0.998430  0.724086  0.836565  1
  O  O10  1  0.501570  0.724086  0.836565  1
  O  O11  1  0.001570  0.275914  0.163434  1
  O  O12  1  0.750000  0.253255  0.518525  1
  O  O13  1  0.750000  0.878163  0.220839  1
  O  O14  1  0.250000  0.746745  0.481475  1
  O  O15  1  0.250000  0.121837  0.779161  1
