# generated using pymatgen
data_Tm2Lu2ReB12Os
_symmetry_space_group_name_H-M   'P 1'
_cell_length_a   3.61597300
_cell_length_b   9.05988332
_cell_length_c   11.43067304
_cell_angle_alpha   90.11951137
_cell_angle_beta   90.00000000
_cell_angle_gamma   90.00000000
_symmetry_Int_Tables_number   1
_chemical_formula_structural   Tm2Lu2ReB12Os
_chemical_formula_sum   'Tm4 Lu4 Re2 B24 Os2'
_cell_volume   374.47138889
_cell_formula_units_Z   2
loop_
 _symmetry_equiv_pos_site_id
 _symmetry_equiv_pos_as_xyz
  1  'x, y, z'
loop_
 _atom_site_type_symbol
 _atom_site_label
 _atom_site_symmetry_multiplicity
 _atom_site_fract_x
 _atom_site_fract_y
 _atom_site_fract_z
 _atom_site_occupancy
  Tm  Tm0  1  0.000000  0.319917  0.412264  1
  Tm  Tm1  1  0.000000  0.680083  0.587736  1
  Tm  Tm2  1  0.000000  0.824035  0.084694  1
  Tm  Tm3  1  0.000000  0.175965  0.915306  1
  Lu  Lu4  1  0.000000  0.943668  0.371006  1
  Lu  Lu5  1  0.000000  0.056332  0.628994  1
  Lu  Lu6  1  0.000000  0.442822  0.128422  1
  Lu  Lu7  1  0.000000  0.557178  0.871578  1
  Re  Re8  1  0.000000  0.138909  0.180050  1
  Re  Re9  1  0.000000  0.861091  0.819950  1
  B  B10  1  0.500000  0.553675  0.433536  1
  B  B11  1  0.500000  0.446325  0.566464  1
  B  B12  1  0.500000  0.053019  0.066524  1
  B  B13  1  0.500000  0.946981  0.933476  1
  B  B14  1  0.500000  0.750001  0.419273  1
  B  B15  1  0.500000  0.249999  0.580727  1
  B  B16  1  0.500000  0.250113  0.080482  1
  B  B17  1  0.500000  0.749887  0.919518  1
  B  B18  1  0.500000  0.791773  0.265502  1
  B  B19  1  0.500000  0.208227  0.734498  1
  B  B20  1  0.500000  0.292813  0.234980  1
  B  B21  1  0.500000  0.707187  0.765020  1
  B  B22  1  0.500000  0.630521  0.185182  1
  B  B23  1  0.500000  0.369479  0.814818  1
  B  B24  1  0.500000  0.130875  0.315704  1
  B  B25  1  0.500000  0.869125  0.684296  1
  B  B26  1  0.500000  0.981469  0.212880  1
  B  B27  1  0.500000  0.018531  0.787120  1
  B  B28  1  0.500000  0.482113  0.287709  1
  B  B29  1  0.500000  0.517887  0.712291  1
  B  B30  1  0.500000  0.601875  0.028422  1
  B  B31  1  0.500000  0.398125  0.971578  1
  B  B32  1  0.500000  0.101973  0.471983  1
  B  B33  1  0.500000  0.898027  0.528017  1
  Os  Os34  1  0.000000  0.637948  0.321384  1
  Os  Os35  1  0.000000  0.362052  0.678616  1
