# generated using pymatgen
data_Nd4PtAu3
_symmetry_space_group_name_H-M   'P 1'
_cell_length_a   4.78001100
_cell_length_b   5.85818751
_cell_length_c   7.42599845
_cell_angle_alpha   90.69825038
_cell_angle_beta   90.00000000
_cell_angle_gamma   90.00000000
_symmetry_Int_Tables_number   1
_chemical_formula_structural   Nd4PtAu3
_chemical_formula_sum   'Nd4 Pt1 Au3'
_cell_volume   207.92885775
_cell_formula_units_Z   1
loop_
 _symmetry_equiv_pos_site_id
 _symmetry_equiv_pos_as_xyz
  1  'x, y, z'
loop_
 _atom_site_type_symbol
 _atom_site_label
 _atom_site_symmetry_multiplicity
 _atom_site_fract_x
 _atom_site_fract_y
 _atom_site_fract_z
 _atom_site_occupancy
  Nd  Nd0  1  0.250000  0.358583  0.692796  1
  Nd  Nd1  1  0.250000  0.145778  0.175635  1
  Nd  Nd2  1  0.750000  0.636859  0.311934  1
  Nd  Nd3  1  0.750000  0.863467  0.820541  1
  Pt  Pt4  1  0.750000  0.348202  0.957263  1
  Au  Au5  1  0.250000  0.852001  0.541247  1
  Au  Au6  1  0.250000  0.648136  0.043006  1
  Au  Au7  1  0.750000  0.146974  0.457578  1
