# generated using pymatgen
data_Sr8Li3In4N5
_symmetry_space_group_name_H-M   'P 1'
_cell_length_a   11.46048643
_cell_length_b   11.46048737
_cell_length_c   11.46048648
_cell_angle_alpha   160.32784933
_cell_angle_beta   112.67145071
_cell_angle_gamma   70.90832526
_symmetry_Int_Tables_number   1
_chemical_formula_structural   Sr8Li3In4N5
_chemical_formula_sum   'Sr8 Li3 In4 N5'
_cell_volume   464.44219052
_cell_formula_units_Z   1
loop_
 _symmetry_equiv_pos_site_id
 _symmetry_equiv_pos_as_xyz
  1  'x, y, z'
loop_
 _atom_site_type_symbol
 _atom_site_label
 _atom_site_symmetry_multiplicity
 _atom_site_fract_x
 _atom_site_fract_y
 _atom_site_fract_z
 _atom_site_occupancy
  Sr  Sr0  1  0.560271  0.710694  0.849577  1
  Sr  Sr1  1  0.746448  0.901995  0.844454  1
  Sr  Sr2  1  0.439729  0.289306  0.150423  1
  Sr  Sr3  1  0.861118  0.710694  0.150423  1
  Sr  Sr4  1  0.138882  0.289306  0.849577  1
  Sr  Sr5  1  0.253552  0.098005  0.155546  1
  Sr  Sr6  1  0.057541  0.901995  0.155546  1
  Sr  Sr7  1  0.942459  0.098005  0.844454  1
  Li  Li8  1  0.192819  0.692819  0.500000  1
  Li  Li9  1  0.807181  0.307181  0.500000  1
  Li  Li10  1  0.000000  0.500000  0.500000  1
  In  In11  1  0.646424  0.500000  0.146424  1
  In  In12  1  0.353576  0.500000  0.853576  1
  In  In13  1  0.414171  0.914171  0.500000  1
  In  In14  1  0.585829  0.085829  0.500000  1
  N  N15  1  0.343990  0.692526  0.651464  1
  N  N16  1  0.958938  0.307474  0.651464  1
  N  N17  1  0.041062  0.692526  0.348536  1
  N  N18  1  0.000000  0.000000  0.000000  1
  N  N19  1  0.656010  0.307474  0.348536  1
