# generated using pymatgen
data_DyHo11(SiRh)8
_symmetry_space_group_name_H-M   'P 1'
_cell_length_a   5.57750208
_cell_length_b   7.76972810
_cell_length_c   12.98246510
_cell_angle_alpha   90.00891074
_cell_angle_beta   90.01094724
_cell_angle_gamma   90.01564403
_symmetry_Int_Tables_number   1
_chemical_formula_structural   DyHo11(SiRh)8
_chemical_formula_sum   'Dy1 Ho11 Si8 Rh8'
_cell_volume   562.60384491
_cell_formula_units_Z   1
loop_
 _symmetry_equiv_pos_site_id
 _symmetry_equiv_pos_as_xyz
  1  'x, y, z'
loop_
 _atom_site_type_symbol
 _atom_site_label
 _atom_site_symmetry_multiplicity
 _atom_site_fract_x
 _atom_site_fract_y
 _atom_site_fract_z
 _atom_site_occupancy
  Dy  Dy0  1  0.138907  0.394183  0.102201  1
  Ho  Ho1  1  0.630046  0.252298  0.250038  1
  Ho  Ho2  1  0.369990  0.747695  0.750011  1
  Ho  Ho3  1  0.369991  0.752350  0.250006  1
  Ho  Ho4  1  0.630032  0.247678  0.750010  1
  Ho  Ho5  1  0.860916  0.605894  0.897747  1
  Ho  Ho6  1  0.860940  0.605850  0.602231  1
  Ho  Ho7  1  0.860955  0.894151  0.397798  1
  Ho  Ho8  1  0.139041  0.394157  0.397796  1
  Ho  Ho9  1  0.139027  0.105849  0.602229  1
  Ho  Ho10  1  0.139024  0.105803  0.897760  1
  Ho  Ho11  1  0.860984  0.894156  0.102190  1
  Si  Si12  1  0.136940  0.106433  0.250065  1
  Si  Si13  1  0.863131  0.893438  0.750004  1
  Si  Si14  1  0.863002  0.606620  0.250064  1
  Si  Si15  1  0.136871  0.393438  0.749990  1
  Si  Si16  1  0.629183  0.249943  0.999973  1
  Si  Si17  1  0.370848  0.750047  0.999977  1
  Si  Si18  1  0.370888  0.749987  0.500003  1
  Si  Si19  1  0.629116  0.250011  0.499995  1
  Rh  Rh20  1  0.366446  0.033779  0.091841  1
  Rh  Rh21  1  0.633635  0.966062  0.908148  1
  Rh  Rh22  1  0.633638  0.966083  0.591839  1
  Rh  Rh23  1  0.633576  0.533908  0.408169  1
  Rh  Rh24  1  0.366362  0.033902  0.408182  1
  Rh  Rh25  1  0.366389  0.466102  0.591844  1
  Rh  Rh26  1  0.366486  0.466158  0.908039  1
  Rh  Rh27  1  0.633635  0.534024  0.091848  1
