# generated using pymatgen
data_Mg3GaAs(PN2)6
_symmetry_space_group_name_H-M   'P 1'
_cell_length_a   7.24354939
_cell_length_b   7.24354881
_cell_length_c   7.24355005
_cell_angle_alpha   109.50416296
_cell_angle_beta   109.50417580
_cell_angle_gamma   109.50415062
_symmetry_Int_Tables_number   1
_chemical_formula_structural   Mg3GaAs(PN2)6
_chemical_formula_sum   'Mg3 Ga1 As1 P6 N12'
_cell_volume   292.21436746
_cell_formula_units_Z   1
loop_
 _symmetry_equiv_pos_site_id
 _symmetry_equiv_pos_as_xyz
  1  'x, y, z'
loop_
 _atom_site_type_symbol
 _atom_site_label
 _atom_site_symmetry_multiplicity
 _atom_site_fract_x
 _atom_site_fract_y
 _atom_site_fract_z
 _atom_site_occupancy
  Mg  Mg0  1  0.000802  0.654935  0.000802  1
  Mg  Mg1  1  0.654935  0.000802  0.000802  1
  Mg  Mg2  1  0.000802  0.000802  0.654935  1
  Ga  Ga3  1  0.343978  0.343978  0.343978  1
  As  As4  1  0.017340  0.017340  0.017340  1
  P  P5  1  0.497469  0.249528  0.749142  1
  P  P6  1  0.497469  0.749142  0.249528  1
  P  P7  1  0.749142  0.249528  0.497469  1
  P  P8  1  0.249528  0.497469  0.749142  1
  P  P9  1  0.749142  0.497469  0.249528  1
  P  P10  1  0.249528  0.749142  0.497469  1
  N  N11  1  0.999389  0.720639  0.437717  1
  N  N12  1  0.273507  0.709373  0.273507  1
  N  N13  1  0.293987  0.562002  0.562002  1
  N  N14  1  0.562002  0.562002  0.293987  1
  N  N15  1  0.562002  0.293987  0.562002  1
  N  N16  1  0.720639  0.999389  0.437717  1
  N  N17  1  0.437717  0.999389  0.720639  1
  N  N18  1  0.720639  0.437717  0.999389  1
  N  N19  1  0.273507  0.273507  0.709373  1
  N  N20  1  0.709373  0.273507  0.273507  1
  N  N21  1  0.999389  0.437717  0.720639  1
  N  N22  1  0.437717  0.720639  0.999389  1
