# generated using pymatgen
data_Tb5PrYFeI12
_symmetry_space_group_name_H-M   'P 1'
_cell_length_a   9.83026709
_cell_length_b   9.81213762
_cell_length_c   9.84544208
_cell_angle_alpha   106.83162252
_cell_angle_beta   106.83898522
_cell_angle_gamma   107.10860748
_symmetry_Int_Tables_number   1
_chemical_formula_structural   Tb5PrYFeI12
_chemical_formula_sum   'Tb5 Pr1 Y1 Fe1 I12'
_cell_volume   792.45643262
_cell_formula_units_Z   1
loop_
 _symmetry_equiv_pos_site_id
 _symmetry_equiv_pos_as_xyz
  1  'x, y, z'
loop_
 _atom_site_type_symbol
 _atom_site_label
 _atom_site_symmetry_multiplicity
 _atom_site_fract_x
 _atom_site_fract_y
 _atom_site_fract_z
 _atom_site_occupancy
  Tb  Tb0  1  0.020936  0.091809  0.291100  1
  Tb  Tb1  1  0.293180  0.023569  0.093599  1
  Tb  Tb2  1  0.911400  0.725059  0.978952  1
  Tb  Tb3  1  0.977727  0.905034  0.707159  1
  Tb  Tb4  1  0.705977  0.977965  0.905599  1
  Pr  Pr5  1  0.092147  0.288215  0.021227  1
  Y  Y6  1  0.500372  0.498429  0.501884  1
  Fe  Fe7  1  0.000804  0.003597  0.999258  1
  I  I8  1  0.470548  0.386147  0.166871  1
  I  I9  1  0.162719  0.462025  0.392356  1
  I  I10  1  0.384539  0.158698  0.461453  1
  I  I11  1  0.541169  0.615835  0.840858  1
  I  I12  1  0.839969  0.538797  0.620075  1
  I  I13  1  0.615080  0.837118  0.537472  1
  I  I14  1  0.764828  0.314919  0.924640  1
  I  I15  1  0.927188  0.772089  0.315196  1
  I  I16  1  0.320047  0.927163  0.775393  1
  I  I17  1  0.223247  0.685432  0.071938  1
  I  I18  1  0.069128  0.218485  0.670766  1
  I  I19  1  0.678995  0.069614  0.224203  1
