# generated using pymatgen
data_LaPr6Nd3(Si5I3)2
_symmetry_space_group_name_H-M   'P 1'
_cell_length_a   12.18456971
_cell_length_b   12.18456889
_cell_length_c   15.71254207
_cell_angle_alpha   69.59351646
_cell_angle_beta   69.59351777
_cell_angle_gamma   19.73376710
_symmetry_Int_Tables_number   1
_chemical_formula_structural   LaPr6Nd3(Si5I3)2
_chemical_formula_sum   'La1 Pr6 Nd3 Si10 I6'
_cell_volume   736.67260995
_cell_formula_units_Z   1
loop_
 _symmetry_equiv_pos_site_id
 _symmetry_equiv_pos_as_xyz
  1  'x, y, z'
loop_
 _atom_site_type_symbol
 _atom_site_label
 _atom_site_symmetry_multiplicity
 _atom_site_fract_x
 _atom_site_fract_y
 _atom_site_fract_z
 _atom_site_occupancy
  La  La0  1  0.262445  0.262445  0.331625  1
  Pr  Pr1  1  0.017398  0.017398  0.709604  1
  Pr  Pr2  1  0.982499  0.982499  0.290539  1
  Pr  Pr3  1  0.835221  0.835221  0.832615  1
  Pr  Pr4  1  0.738044  0.738044  0.669456  1
  Pr  Pr5  1  0.662468  0.662468  0.941541  1
  Pr  Pr6  1  0.164668  0.164668  0.166876  1
  Nd  Nd7  1  0.336965  0.336965  0.058100  1
  Nd  Nd8  1  0.915025  0.915025  0.564422  1
  Nd  Nd9  1  0.085015  0.085015  0.435514  1
  Si  Si10  1  0.508624  0.508624  0.572371  1
  Si  Si11  1  0.423650  0.423650  0.707196  1
  Si  Si12  1  0.491268  0.491268  0.427732  1
  Si  Si13  1  0.749592  0.749592  0.039808  1
  Si  Si14  1  0.670693  0.670693  0.319641  1
  Si  Si15  1  0.240854  0.240854  0.808656  1
  Si  Si16  1  0.759276  0.759276  0.190714  1
  Si  Si17  1  0.329160  0.329160  0.679665  1
  Si  Si18  1  0.576109  0.576109  0.292816  1
  Si  Si19  1  0.250669  0.250669  0.960104  1
  I  I20  1  0.590935  0.590935  0.795054  1
  I  I21  1  0.061693  0.061693  0.067255  1
  I  I22  1  0.937693  0.937693  0.933369  1
  I  I23  1  0.828044  0.828044  0.438563  1
  I  I24  1  0.409464  0.409464  0.203781  1
  I  I25  1  0.172527  0.172527  0.562982  1
