# generated using pymatgen
data_Nd5GaBi2Pb
_symmetry_space_group_name_H-M   'P 1'
_cell_length_a   9.69825456
_cell_length_b   9.70398602
_cell_length_c   6.65489300
_cell_angle_alpha   90.00000000
_cell_angle_beta   90.00000000
_cell_angle_gamma   120.01954216
_symmetry_Int_Tables_number   1
_chemical_formula_structural   Nd5GaBi2Pb
_chemical_formula_sum   'Nd10 Ga2 Bi4 Pb2'
_cell_volume   542.28787715
_cell_formula_units_Z   2
loop_
 _symmetry_equiv_pos_site_id
 _symmetry_equiv_pos_as_xyz
  1  'x, y, z'
loop_
 _atom_site_type_symbol
 _atom_site_label
 _atom_site_symmetry_multiplicity
 _atom_site_fract_x
 _atom_site_fract_y
 _atom_site_fract_z
 _atom_site_occupancy
  Nd  Nd0  1  0.665639  0.332531  0.998770  1
  Nd  Nd1  1  0.334361  0.666893  0.998770  1
  Nd  Nd2  1  0.334361  0.666893  0.501230  1
  Nd  Nd3  1  0.665639  0.332531  0.501230  1
  Nd  Nd4  1  0.742288  0.743206  0.750000  1
  Nd  Nd5  1  0.257712  0.000918  0.750000  1
  Nd  Nd6  1  0.000000  0.257128  0.750000  1
  Nd  Nd7  1  0.255936  0.256191  0.250000  1
  Nd  Nd8  1  0.744064  0.000255  0.250000  1
  Nd  Nd9  1  0.000000  0.743677  0.250000  1
  Ga  Ga10  1  0.000000  0.000448  0.998705  1
  Ga  Ga11  1  0.000000  0.000448  0.501295  1
  Bi  Bi12  1  0.000000  0.613774  0.750000  1
  Bi  Bi13  1  0.612988  0.612577  0.250000  1
  Bi  Bi14  1  0.387012  0.999589  0.250000  1
  Bi  Bi15  1  0.000000  0.386459  0.250000  1
  Pb  Pb16  1  0.386434  0.386457  0.750000  1
  Pb  Pb17  1  0.613566  0.000023  0.750000  1
