# generated using pymatgen
data_La3Nd2Bi3As
_symmetry_space_group_name_H-M   'P 1'
_cell_length_a   9.74600700
_cell_length_b   9.74600706
_cell_length_c   6.95304400
_cell_angle_alpha   90.00000000
_cell_angle_beta   90.00000000
_cell_angle_gamma   119.99999642
_symmetry_Int_Tables_number   1
_chemical_formula_structural   La3Nd2Bi3As
_chemical_formula_sum   'La6 Nd4 Bi6 As2'
_cell_volume   571.95131846
_cell_formula_units_Z   2
loop_
 _symmetry_equiv_pos_site_id
 _symmetry_equiv_pos_as_xyz
  1  'x, y, z'
loop_
 _atom_site_type_symbol
 _atom_site_label
 _atom_site_symmetry_multiplicity
 _atom_site_fract_x
 _atom_site_fract_y
 _atom_site_fract_z
 _atom_site_occupancy
  La  La0  1  0.752634  0.752634  0.750000  1
  La  La1  1  0.247366  0.000000  0.750000  1
  La  La2  1  0.000000  0.247366  0.750000  1
  La  La3  1  0.247366  0.247366  0.250000  1
  La  La4  1  0.752634  0.000000  0.250000  1
  La  La5  1  0.000000  0.752634  0.250000  1
  Nd  Nd6  1  0.666667  0.333333  0.000000  1
  Nd  Nd7  1  0.333333  0.666667  0.000000  1
  Nd  Nd8  1  0.333333  0.666667  0.500000  1
  Nd  Nd9  1  0.666667  0.333333  0.500000  1
  Bi  Bi10  1  0.394737  0.394737  0.750000  1
  Bi  Bi11  1  0.605263  0.000000  0.750000  1
  Bi  Bi12  1  0.000000  0.605263  0.750000  1
  Bi  Bi13  1  0.605263  0.605263  0.250000  1
  Bi  Bi14  1  0.394737  0.000000  0.250000  1
  Bi  Bi15  1  0.000000  0.394737  0.250000  1
  As  As16  1  0.000000  0.000000  0.000000  1
  As  As17  1  0.000000  0.000000  0.500000  1
