# generated using pymatgen
data_Tm4Co11(Ni3P4)3
_symmetry_space_group_name_H-M   'P 1'
_cell_length_a   3.66478500
_cell_length_b   10.24457334
_cell_length_c   11.80437038
_cell_angle_alpha   89.97070957
_cell_angle_beta   90.00000000
_cell_angle_gamma   90.00000000
_symmetry_Int_Tables_number   1
_chemical_formula_structural   Tm4Co11(Ni3P4)3
_chemical_formula_sum   'Tm4 Co11 Ni9 P12'
_cell_volume   443.18509706
_cell_formula_units_Z   1
loop_
 _symmetry_equiv_pos_site_id
 _symmetry_equiv_pos_as_xyz
  1  'x, y, z'
loop_
 _atom_site_type_symbol
 _atom_site_label
 _atom_site_symmetry_multiplicity
 _atom_site_fract_x
 _atom_site_fract_y
 _atom_site_fract_z
 _atom_site_occupancy
  Tm  Tm0  1  0.250000  0.582372  0.703537  1
  Tm  Tm1  1  0.250000  0.917529  0.204370  1
  Tm  Tm2  1  0.750000  0.417692  0.296218  1
  Tm  Tm3  1  0.750000  0.082507  0.796289  1
  Co  Co4  1  0.250000  0.278501  0.676411  1
  Co  Co5  1  0.750000  0.778569  0.823608  1
  Co  Co6  1  0.750000  0.721841  0.323213  1
  Co  Co7  1  0.250000  0.881848  0.698099  1
  Co  Co8  1  0.250000  0.618536  0.197908  1
  Co  Co9  1  0.750000  0.118335  0.302022  1
  Co  Co10  1  0.750000  0.382175  0.801747  1
  Co  Co11  1  0.250000  0.467191  0.932313  1
  Co  Co12  1  0.250000  0.031782  0.432710  1
  Co  Co13  1  0.750000  0.532543  0.067270  1
  Co  Co14  1  0.750000  0.967703  0.567841  1
  Ni  Ni15  1  0.250000  0.713583  0.989543  1
  Ni  Ni16  1  0.250000  0.785576  0.489926  1
  Ni  Ni17  1  0.750000  0.284304  0.009199  1
  Ni  Ni18  1  0.750000  0.214211  0.510286  1
  Ni  Ni19  1  0.250000  0.408846  0.484564  1
  Ni  Ni20  1  0.250000  0.092168  0.985579  1
  Ni  Ni21  1  0.750000  0.591426  0.515213  1
  Ni  Ni22  1  0.750000  0.908046  0.014957  1
  Ni  Ni23  1  0.250000  0.222430  0.177184  1
  P  P24  1  0.250000  0.422689  0.113180  1
  P  P25  1  0.250000  0.080333  0.613636  1
  P  P26  1  0.750000  0.580337  0.885800  1
  P  P27  1  0.750000  0.919447  0.386732  1
  P  P28  1  0.250000  0.271211  0.865526  1
  P  P29  1  0.250000  0.228557  0.368616  1
  P  P30  1  0.750000  0.729173  0.134187  1
  P  P31  1  0.750000  0.771271  0.633946  1
  P  P32  1  0.250000  0.604139  0.387067  1
  P  P33  1  0.250000  0.896160  0.886859  1
  P  P34  1  0.750000  0.396379  0.612856  1
  P  P35  1  0.750000  0.100590  0.111587  1
