# generated using pymatgen
data_LaPa5(Fe3P2)6
_symmetry_space_group_name_H-M   'P 1'
_cell_length_a   3.74799300
_cell_length_b   10.61998900
_cell_length_c   12.23755700
_cell_angle_alpha   90.00000000
_cell_angle_beta   90.00000000
_cell_angle_gamma   90.00000000
_symmetry_Int_Tables_number   1
_chemical_formula_structural   LaPa5(Fe3P2)6
_chemical_formula_sum   'La1 Pa5 Fe18 P12'
_cell_volume   487.09936755
_cell_formula_units_Z   1
loop_
 _symmetry_equiv_pos_site_id
 _symmetry_equiv_pos_as_xyz
  1  'x, y, z'
loop_
 _atom_site_type_symbol
 _atom_site_label
 _atom_site_symmetry_multiplicity
 _atom_site_fract_x
 _atom_site_fract_y
 _atom_site_fract_z
 _atom_site_occupancy
  La  La0  1  0.500000  0.000000  0.477798  1
  Pa  Pa1  1  0.000000  0.500000  0.523488  1
  Pa  Pa2  1  0.500000  0.819594  0.205929  1
  Pa  Pa3  1  0.500000  0.180406  0.205929  1
  Pa  Pa4  1  0.000000  0.681965  0.793846  1
  Pa  Pa5  1  0.000000  0.318035  0.793846  1
  Fe  Fe6  1  0.500000  0.500000  0.150723  1
  Fe  Fe7  1  0.000000  0.000000  0.850119  1
  Fe  Fe8  1  0.500000  0.500000  0.701341  1
  Fe  Fe9  1  0.000000  0.000000  0.290808  1
  Fe  Fe10  1  0.000000  0.500000  0.986168  1
  Fe  Fe11  1  0.500000  0.000000  0.012589  1
  Fe  Fe12  1  0.500000  0.333370  0.993877  1
  Fe  Fe13  1  0.500000  0.666630  0.993877  1
  Fe  Fe14  1  0.000000  0.167778  0.005665  1
  Fe  Fe15  1  0.000000  0.832222  0.005665  1
  Fe  Fe16  1  0.500000  0.306567  0.428237  1
  Fe  Fe17  1  0.500000  0.693433  0.428237  1
  Fe  Fe18  1  0.000000  0.205974  0.574346  1
  Fe  Fe19  1  0.000000  0.794026  0.574346  1
  Fe  Fe20  1  0.500000  0.878896  0.717572  1
  Fe  Fe21  1  0.500000  0.121104  0.717572  1
  Fe  Fe22  1  0.000000  0.618641  0.283226  1
  Fe  Fe23  1  0.000000  0.381359  0.283226  1
  P  P24  1  0.500000  0.500000  0.886203  1
  P  P25  1  0.000000  0.000000  0.111028  1
  P  P26  1  0.500000  0.500000  0.336600  1
  P  P27  1  0.000000  0.000000  0.666295  1
  P  P28  1  0.500000  0.305428  0.613162  1
  P  P29  1  0.500000  0.694572  0.613162  1
  P  P30  1  0.000000  0.200682  0.386770  1
  P  P31  1  0.000000  0.799318  0.386770  1
  P  P32  1  0.500000  0.846983  0.898219  1
  P  P33  1  0.500000  0.153017  0.898219  1
  P  P34  1  0.000000  0.652220  0.102572  1
  P  P35  1  0.000000  0.347780  0.102572  1
