# generated using pymatgen
data_Y4HoTm(RuI3)2
_symmetry_space_group_name_H-M   'P 1'
_cell_length_a   4.22543900
_cell_length_b   8.87217460
_cell_length_c   12.29810456
_cell_angle_alpha   86.21702088
_cell_angle_beta   90.00000000
_cell_angle_gamma   90.00000000
_symmetry_Int_Tables_number   1
_chemical_formula_structural   Y4HoTm(RuI3)2
_chemical_formula_sum   'Y4 Ho1 Tm1 Ru2 I6'
_cell_volume   460.03702462
_cell_formula_units_Z   1
loop_
 _symmetry_equiv_pos_site_id
 _symmetry_equiv_pos_as_xyz
  1  'x, y, z'
loop_
 _atom_site_type_symbol
 _atom_site_label
 _atom_site_symmetry_multiplicity
 _atom_site_fract_x
 _atom_site_fract_y
 _atom_site_fract_z
 _atom_site_occupancy
  Y  Y0  1  0.750000  0.097310  0.685152  1
  Y  Y1  1  0.250000  0.901504  0.315148  1
  Y  Y2  1  0.250000  0.262773  0.897192  1
  Y  Y3  1  0.750000  0.737168  0.101632  1
  Ho  Ho4  1  0.750000  0.129233  0.124492  1
  Tm  Tm5  1  0.250000  0.872822  0.875810  1
  Ru  Ru6  1  0.750000  0.052164  0.908011  1
  Ru  Ru7  1  0.250000  0.946708  0.091725  1
  I  I8  1  0.250000  0.352019  0.637162  1
  I  I9  1  0.750000  0.647469  0.363053  1
  I  I10  1  0.750000  0.142860  0.392219  1
  I  I11  1  0.250000  0.856400  0.608830  1
  I  I12  1  0.250000  0.426618  0.133069  1
  I  I13  1  0.750000  0.574952  0.866505  1
