# generated using pymatgen
data_Sm4Y4Tc(B8Ru)3
_symmetry_space_group_name_H-M   'P 1'
_cell_length_a   3.70321700
_cell_length_b   9.20791607
_cell_length_c   11.61795601
_cell_angle_alpha   89.90906612
_cell_angle_beta   90.00000000
_cell_angle_gamma   90.00000000
_symmetry_Int_Tables_number   1
_chemical_formula_structural   Sm4Y4Tc(B8Ru)3
_chemical_formula_sum   'Sm4 Y4 Tc1 B24 Ru3'
_cell_volume   396.15915268
_cell_formula_units_Z   1
loop_
 _symmetry_equiv_pos_site_id
 _symmetry_equiv_pos_as_xyz
  1  'x, y, z'
loop_
 _atom_site_type_symbol
 _atom_site_label
 _atom_site_symmetry_multiplicity
 _atom_site_fract_x
 _atom_site_fract_y
 _atom_site_fract_z
 _atom_site_occupancy
  Sm  Sm0  1  0.000000  0.324657  0.413179  1
  Sm  Sm1  1  0.000000  0.676393  0.583836  1
  Sm  Sm2  1  0.000000  0.821594  0.087797  1
  Sm  Sm3  1  0.000000  0.176080  0.914820  1
  Y  Y4  1  0.000000  0.943239  0.372050  1
  Y  Y5  1  0.000000  0.057154  0.628625  1
  Y  Y6  1  0.000000  0.444385  0.128420  1
  Y  Y7  1  0.000000  0.556606  0.870980  1
  Tc  Tc8  1  0.000000  0.638602  0.320275  1
  B  B9  1  0.500000  0.554271  0.431460  1
  B  B10  1  0.500000  0.445125  0.568842  1
  B  B11  1  0.500000  0.054896  0.068831  1
  B  B12  1  0.500000  0.944765  0.931629  1
  B  B13  1  0.500000  0.748400  0.418071  1
  B  B14  1  0.500000  0.251716  0.581889  1
  B  B15  1  0.500000  0.248409  0.081467  1
  B  B16  1  0.500000  0.751343  0.918317  1
  B  B17  1  0.500000  0.790747  0.266748  1
  B  B18  1  0.500000  0.209835  0.733393  1
  B  B19  1  0.500000  0.290228  0.232656  1
  B  B20  1  0.500000  0.710373  0.766656  1
  B  B21  1  0.500000  0.631205  0.186005  1
  B  B22  1  0.500000  0.368511  0.814573  1
  B  B23  1  0.500000  0.131337  0.313955  1
  B  B24  1  0.500000  0.869256  0.685630  1
  B  B25  1  0.500000  0.984764  0.213327  1
  B  B26  1  0.500000  0.015016  0.787307  1
  B  B27  1  0.500000  0.484138  0.286720  1
  B  B28  1  0.500000  0.514802  0.713162  1
  B  B29  1  0.500000  0.604987  0.028288  1
  B  B30  1  0.500000  0.394489  0.970494  1
  B  B31  1  0.500000  0.105763  0.471249  1
  B  B32  1  0.500000  0.895835  0.529536  1
  Ru  Ru33  1  0.000000  0.361057  0.680235  1
  Ru  Ru34  1  0.000000  0.138551  0.179290  1
  Ru  Ru35  1  0.000000  0.861470  0.820286  1
