# generated using pymatgen
data_Nd6Cd23Sb
_symmetry_space_group_name_H-M   'P 1'
_cell_length_a   10.14403388
_cell_length_b   10.14403383
_cell_length_c   10.14403400
_cell_angle_alpha   59.99999943
_cell_angle_beta   59.99999960
_cell_angle_gamma   60.00000145
_symmetry_Int_Tables_number   1
_chemical_formula_structural   Nd6Cd23Sb
_chemical_formula_sum   'Nd6 Cd23 Sb1'
_cell_volume   738.10318549
_cell_formula_units_Z   1
loop_
 _symmetry_equiv_pos_site_id
 _symmetry_equiv_pos_as_xyz
  1  'x, y, z'
loop_
 _atom_site_type_symbol
 _atom_site_label
 _atom_site_symmetry_multiplicity
 _atom_site_fract_x
 _atom_site_fract_y
 _atom_site_fract_z
 _atom_site_occupancy
  Nd  Nd0  1  0.782964  0.782964  0.217036  1
  Nd  Nd1  1  0.217036  0.782964  0.217036  1
  Nd  Nd2  1  0.782964  0.217036  0.217036  1
  Nd  Nd3  1  0.217036  0.217036  0.782964  1
  Nd  Nd4  1  0.782964  0.217036  0.782964  1
  Nd  Nd5  1  0.217036  0.782964  0.782964  1
  Cd  Cd6  1  0.834448  0.834448  0.496656  1
  Cd  Cd7  1  0.834448  0.496656  0.834448  1
  Cd  Cd8  1  0.496656  0.834448  0.834448  1
  Cd  Cd9  1  0.834448  0.834448  0.834448  1
  Cd  Cd10  1  0.165552  0.165552  0.503344  1
  Cd  Cd11  1  0.165552  0.503344  0.165552  1
  Cd  Cd12  1  0.503344  0.165552  0.165552  1
  Cd  Cd13  1  0.165552  0.165552  0.165552  1
  Cd  Cd14  1  0.622720  0.622720  0.131841  1
  Cd  Cd15  1  0.622720  0.131841  0.622720  1
  Cd  Cd16  1  0.131841  0.622720  0.622720  1
  Cd  Cd17  1  0.622720  0.622720  0.622720  1
  Cd  Cd18  1  0.377280  0.377280  0.868159  1
  Cd  Cd19  1  0.377280  0.868159  0.377280  1
  Cd  Cd20  1  0.868159  0.377280  0.377280  1
  Cd  Cd21  1  0.377280  0.377280  0.377280  1
  Cd  Cd22  1  0.000000  0.000000  0.500000  1
  Cd  Cd23  1  0.500000  0.000000  0.500000  1
  Cd  Cd24  1  0.000000  0.500000  0.500000  1
  Cd  Cd25  1  0.500000  0.500000  0.000000  1
  Cd  Cd26  1  0.000000  0.500000  0.000000  1
  Cd  Cd27  1  0.500000  0.000000  0.000000  1
  Cd  Cd28  1  0.500000  0.500000  0.500000  1
  Sb  Sb29  1  0.000000  0.000000  0.000000  1
