# generated using pymatgen
data_Dy3HoAl18(IrPt)3
_symmetry_space_group_name_H-M   'P 1'
_cell_length_a   7.59118923
_cell_length_b   7.59225138
_cell_length_c   9.42779125
_cell_angle_alpha   89.98744239
_cell_angle_beta   89.98607930
_cell_angle_gamma   119.60040785
_symmetry_Int_Tables_number   1
_chemical_formula_structural   Dy3HoAl18(IrPt)3
_chemical_formula_sum   'Dy3 Ho1 Al18 Ir3 Pt3'
_cell_volume   472.44973107
_cell_formula_units_Z   1
loop_
 _symmetry_equiv_pos_site_id
 _symmetry_equiv_pos_as_xyz
  1  'x, y, z'
loop_
 _atom_site_type_symbol
 _atom_site_label
 _atom_site_symmetry_multiplicity
 _atom_site_fract_x
 _atom_site_fract_y
 _atom_site_fract_z
 _atom_site_occupancy
  Dy  Dy0  1  0.995427  0.671124  0.250466  1
  Dy  Dy1  1  0.005152  0.329316  0.749618  1
  Dy  Dy2  1  0.670625  0.994788  0.250383  1
  Ho  Ho3  1  0.328714  0.004692  0.749484  1
  Al  Al4  1  0.127390  0.127949  0.250455  1
  Al  Al5  1  0.872189  0.872746  0.749544  1
  Al  Al6  1  0.000023  0.331780  0.076529  1
  Al  Al7  1  0.999889  0.668741  0.922653  1
  Al  Al8  1  0.997121  0.664792  0.575620  1
  Al  Al9  1  0.335331  0.003057  0.424913  1
  Al  Al10  1  0.996721  0.331533  0.424733  1
  Al  Al11  1  0.668229  0.003297  0.575570  1
  Al  Al12  1  0.667985  0.000036  0.923168  1
  Al  Al13  1  0.331432  0.000340  0.076786  1
  Al  Al14  1  0.332706  0.329331  0.553000  1
  Al  Al15  1  0.670559  0.667286  0.447508  1
  Al  Al16  1  0.669714  0.669728  0.055125  1
  Al  Al17  1  0.330286  0.330187  0.944369  1
  Al  Al18  1  0.340541  0.546272  0.250461  1
  Al  Al19  1  0.658778  0.451464  0.747498  1
  Al  Al20  1  0.548242  0.340884  0.252540  1
  Al  Al21  1  0.453658  0.659724  0.749545  1
  Ir  Ir22  1  0.671874  0.327997  0.500122  1
  Ir  Ir23  1  0.999931  0.000232  0.999853  1
  Ir  Ir24  1  0.000435  0.999740  0.500146  1
  Pt  Pt25  1  0.672108  0.327839  0.999906  1
  Pt  Pt26  1  0.327420  0.672605  0.999930  1
  Pt  Pt27  1  0.327520  0.672519  0.500073  1
