# generated using pymatgen
data_Eu12InNi4Ag
_symmetry_space_group_name_H-M   'P 1'
_cell_length_a   8.79797801
_cell_length_b   8.79797761
_cell_length_c   8.79797800
_cell_angle_alpha   112.50572197
_cell_angle_beta   109.37283118
_cell_angle_gamma   106.58937007
_symmetry_Int_Tables_number   1
_chemical_formula_structural   Eu12InNi4Ag
_chemical_formula_sum   'Eu12 In1 Ni4 Ag1'
_cell_volume   522.83450820
_cell_formula_units_Z   1
loop_
 _symmetry_equiv_pos_site_id
 _symmetry_equiv_pos_as_xyz
  1  'x, y, z'
loop_
 _atom_site_type_symbol
 _atom_site_label
 _atom_site_symmetry_multiplicity
 _atom_site_fract_x
 _atom_site_fract_y
 _atom_site_fract_z
 _atom_site_occupancy
  Eu  Eu0  1  0.426256  0.226142  0.200115  1
  Eu  Eu1  1  0.573744  0.773858  0.799885  1
  Eu  Eu2  1  0.026027  0.226142  0.799885  1
  Eu  Eu3  1  0.973973  0.773858  0.200115  1
  Eu  Eu4  1  0.184087  0.293326  0.477415  1
  Eu  Eu5  1  0.815913  0.706674  0.522585  1
  Eu  Eu6  1  0.184087  0.706674  0.890761  1
  Eu  Eu7  1  0.815913  0.293326  0.109239  1
  Eu  Eu8  1  0.324843  0.631026  0.306183  1
  Eu  Eu9  1  0.675157  0.368974  0.693817  1
  Eu  Eu10  1  0.324843  0.018661  0.693817  1
  Eu  Eu11  1  0.675157  0.981339  0.306183  1
  In  In12  1  0.500000  0.500000  0.000000  1
  Ni  Ni13  1  0.374438  0.000000  0.374438  1
  Ni  Ni14  1  0.625562  0.000000  0.625562  1
  Ni  Ni15  1  0.112612  0.612612  0.500000  1
  Ni  Ni16  1  0.887388  0.387388  0.500000  1
  Ag  Ag17  1  0.000000  0.000000  0.000000  1
