# generated using pymatgen
data_KFe(Sb4Rh)3
_symmetry_space_group_name_H-M   'P 1'
_cell_length_a   8.10281758
_cell_length_b   8.14285576
_cell_length_c   8.10281737
_cell_angle_alpha   109.57134597
_cell_angle_beta   109.37090873
_cell_angle_gamma   109.57134829
_symmetry_Int_Tables_number   1
_chemical_formula_structural   KFe(Sb4Rh)3
_chemical_formula_sum   'K1 Fe1 Sb12 Rh3'
_cell_volume   411.04447518
_cell_formula_units_Z   1
loop_
 _symmetry_equiv_pos_site_id
 _symmetry_equiv_pos_as_xyz
  1  'x, y, z'
loop_
 _atom_site_type_symbol
 _atom_site_label
 _atom_site_symmetry_multiplicity
 _atom_site_fract_x
 _atom_site_fract_y
 _atom_site_fract_z
 _atom_site_occupancy
  K  K0  1  0.000000  0.000000  0.000000  1
  Fe  Fe1  1  0.000000  0.500000  0.000000  1
  Sb  Sb2  1  0.844226  0.656194  0.500050  1
  Sb  Sb3  1  0.155774  0.343806  0.499950  1
  Sb  Sb4  1  0.152722  0.654791  0.821532  1
  Sb  Sb5  1  0.847278  0.345209  0.178468  1
  Sb  Sb6  1  0.668809  0.502069  0.847278  1
  Sb  Sb7  1  0.331191  0.497931  0.152722  1
  Sb  Sb8  1  0.655824  0.811969  0.155774  1
  Sb  Sb9  1  0.344176  0.188031  0.844226  1
  Sb  Sb10  1  0.500050  0.843856  0.655824  1
  Sb  Sb11  1  0.499950  0.156144  0.344176  1
  Sb  Sb12  1  0.178468  0.833260  0.331191  1
  Sb  Sb13  1  0.821532  0.166740  0.668809  1
  Rh  Rh14  1  0.500000  0.500000  0.500000  1
  Rh  Rh15  1  0.500000  0.000000  0.000000  1
  Rh  Rh16  1  0.000000  0.000000  0.500000  1
