# generated using pymatgen
data_Y8Zn4In3Ru
_symmetry_space_group_name_H-M   'P 1'
_cell_length_a   7.26436600
_cell_length_b   7.35280000
_cell_length_c   7.26814100
_cell_angle_alpha   90.00000000
_cell_angle_beta   89.99723233
_cell_angle_gamma   90.00000000
_symmetry_Int_Tables_number   1
_chemical_formula_structural   Y8Zn4In3Ru
_chemical_formula_sum   'Y8 Zn4 In3 Ru1'
_cell_volume   388.21634267
_cell_formula_units_Z   1
loop_
 _symmetry_equiv_pos_site_id
 _symmetry_equiv_pos_as_xyz
  1  'x, y, z'
loop_
 _atom_site_type_symbol
 _atom_site_label
 _atom_site_symmetry_multiplicity
 _atom_site_fract_x
 _atom_site_fract_y
 _atom_site_fract_z
 _atom_site_occupancy
  Y  Y0  1  0.759091  0.487184  0.259188  1
  Y  Y1  1  0.759091  0.012816  0.259188  1
  Y  Y2  1  0.240051  0.013542  0.259880  1
  Y  Y3  1  0.240051  0.486457  0.259880  1
  Y  Y4  1  0.759927  0.486762  0.740067  1
  Y  Y5  1  0.759927  0.013238  0.740067  1
  Y  Y6  1  0.240880  0.013100  0.740883  1
  Y  Y7  1  0.240880  0.486900  0.740883  1
  Zn  Zn8  1  0.999738  0.250000  0.000010  1
  Zn  Zn9  1  0.000241  0.750001  0.000000  1
  Zn  Zn10  1  0.500235  0.250000  0.499978  1
  Zn  Zn11  1  0.499747  0.750001  0.500011  1
  In  In12  1  0.500365  0.250000  0.999894  1
  In  In13  1  0.499547  0.750001  0.000178  1
  In  In14  1  0.000416  0.750001  0.499874  1
  Ru  Ru15  1  0.999812  0.250000  0.500014  1
