# generated using pymatgen
data_HoTh2(ZnPt)3
_symmetry_space_group_name_H-M   'P 1'
_cell_length_a   7.47762502
_cell_length_b   7.53180330
_cell_length_c   3.88212800
_cell_angle_alpha   90.00000000
_cell_angle_beta   90.00000000
_cell_angle_gamma   120.23995379
_symmetry_Int_Tables_number   1
_chemical_formula_structural   HoTh2(ZnPt)3
_chemical_formula_sum   'Ho1 Th2 Zn3 Pt3'
_cell_volume   188.88955919
_cell_formula_units_Z   1
loop_
 _symmetry_equiv_pos_site_id
 _symmetry_equiv_pos_as_xyz
  1  'x, y, z'
loop_
 _atom_site_type_symbol
 _atom_site_label
 _atom_site_symmetry_multiplicity
 _atom_site_fract_x
 _atom_site_fract_y
 _atom_site_fract_z
 _atom_site_occupancy
  Ho  Ho0  1  0.000000  0.598581  0.000000  1
  Th  Th1  1  0.408174  0.407188  0.000000  1
  Th  Th2  1  0.591826  0.999013  0.000000  1
  Zn  Zn3  1  0.759644  0.750258  0.500000  1
  Zn  Zn4  1  0.240356  0.990614  0.500000  1
  Zn  Zn5  1  0.000000  0.256404  0.500000  1
  Pt  Pt6  1  0.000000  0.001099  0.000000  1
  Pt  Pt7  1  0.664193  0.330517  0.500000  1
  Pt  Pt8  1  0.335807  0.666325  0.500000  1
