# generated using pymatgen
data_Er8Hf11Si16Au
_symmetry_space_group_name_H-M   'P 1'
_cell_length_a   7.27149031
_cell_length_b   7.27149040
_cell_length_c   13.21357010
_cell_angle_alpha   90.24389375
_cell_angle_beta   89.75610726
_cell_angle_gamma   89.88266575
_symmetry_Int_Tables_number   1
_chemical_formula_structural   Er8Hf11Si16Au
_chemical_formula_sum   'Er8 Hf11 Si16 Au1'
_cell_volume   698.64771288
_cell_formula_units_Z   1
loop_
 _symmetry_equiv_pos_site_id
 _symmetry_equiv_pos_as_xyz
  1  'x, y, z'
loop_
 _atom_site_type_symbol
 _atom_site_label
 _atom_site_symmetry_multiplicity
 _atom_site_fract_x
 _atom_site_fract_y
 _atom_site_fract_z
 _atom_site_occupancy
  Er  Er0  1  0.345360  0.004011  0.464815  1
  Er  Er1  1  0.494433  0.846491  0.716571  1
  Er  Er2  1  0.503220  0.152639  0.210755  1
  Er  Er3  1  0.846491  0.494433  0.283429  1
  Er  Er4  1  0.152639  0.503220  0.789245  1
  Er  Er5  1  0.651661  0.002364  0.967332  1
  Er  Er6  1  0.004011  0.345360  0.535185  1
  Er  Er7  1  0.002364  0.651661  0.032668  1
  Hf  Hf8  1  0.177977  0.822106  0.248863  1
  Hf  Hf9  1  0.822106  0.177977  0.751137  1
  Hf  Hf10  1  0.675133  0.675133  0.500000  1
  Hf  Hf11  1  0.143034  0.007434  0.877227  1
  Hf  Hf12  1  0.497492  0.642529  0.120260  1
  Hf  Hf13  1  0.501691  0.355590  0.625796  1
  Hf  Hf14  1  0.642529  0.497492  0.879740  1
  Hf  Hf15  1  0.355590  0.501691  0.374204  1
  Hf  Hf16  1  0.854743  0.995498  0.373599  1
  Hf  Hf17  1  0.007434  0.143034  0.122773  1
  Hf  Hf18  1  0.995498  0.854743  0.626401  1
  Si  Si19  1  0.203351  0.142499  0.683292  1
  Si  Si20  1  0.367630  0.726333  0.925546  1
  Si  Si21  1  0.640565  0.292397  0.430653  1
  Si  Si22  1  0.726333  0.367630  0.074454  1
  Si  Si23  1  0.292397  0.640565  0.569347  1
  Si  Si24  1  0.796661  0.857180  0.179902  1
  Si  Si25  1  0.142499  0.203351  0.316708  1
  Si  Si26  1  0.857180  0.796661  0.820098  1
  Si  Si27  1  0.291258  0.934705  0.063796  1
  Si  Si28  1  0.550152  0.795213  0.313040  1
  Si  Si29  1  0.446712  0.205056  0.811710  1
  Si  Si30  1  0.795213  0.550152  0.686960  1
  Si  Si31  1  0.205056  0.446712  0.188290  1
  Si  Si32  1  0.702853  0.050328  0.564466  1
  Si  Si33  1  0.934705  0.291258  0.936204  1
  Si  Si34  1  0.050328  0.702853  0.435534  1
  Au  Au35  1  0.323705  0.323705  0.000000  1
