# generated using pymatgen
data_Gd3Lu2Sn3S
_symmetry_space_group_name_H-M   'P 1'
_cell_length_a   9.03434200
_cell_length_b   9.03434278
_cell_length_c   6.62841800
_cell_angle_alpha   90.00000000
_cell_angle_beta   90.00000000
_cell_angle_gamma   120.00000447
_symmetry_Int_Tables_number   1
_chemical_formula_structural   Gd3Lu2Sn3S
_chemical_formula_sum   'Gd6 Lu4 Sn6 S2'
_cell_volume   468.52588700
_cell_formula_units_Z   2
loop_
 _symmetry_equiv_pos_site_id
 _symmetry_equiv_pos_as_xyz
  1  'x, y, z'
loop_
 _atom_site_type_symbol
 _atom_site_label
 _atom_site_symmetry_multiplicity
 _atom_site_fract_x
 _atom_site_fract_y
 _atom_site_fract_z
 _atom_site_occupancy
  Gd  Gd0  1  0.753298  0.753298  0.750000  1
  Gd  Gd1  1  0.246702  0.000000  0.750000  1
  Gd  Gd2  1  0.000000  0.246702  0.750000  1
  Gd  Gd3  1  0.246702  0.246702  0.250000  1
  Gd  Gd4  1  0.753298  0.000000  0.250000  1
  Gd  Gd5  1  0.000000  0.753298  0.250000  1
  Lu  Lu6  1  0.666667  0.333333  0.000000  1
  Lu  Lu7  1  0.333333  0.666667  0.000000  1
  Lu  Lu8  1  0.333333  0.666667  0.500000  1
  Lu  Lu9  1  0.666667  0.333333  0.500000  1
  Sn  Sn10  1  0.400095  0.400095  0.750000  1
  Sn  Sn11  1  0.599905  0.000000  0.750000  1
  Sn  Sn12  1  0.000000  0.599905  0.750000  1
  Sn  Sn13  1  0.599905  0.599905  0.250000  1
  Sn  Sn14  1  0.400095  0.000000  0.250000  1
  Sn  Sn15  1  0.000000  0.400095  0.250000  1
  S  S16  1  0.000000  0.000000  0.000000  1
  S  S17  1  0.000000  0.000000  0.500000  1
