# generated using pymatgen
data_HoErGa6(NiAu)2
_symmetry_space_group_name_H-M   'P 1'
_cell_length_a   7.96555438
_cell_length_b   7.96555484
_cell_length_c   6.55320200
_cell_angle_alpha   90.00000000
_cell_angle_beta   90.00000000
_cell_angle_gamma   150.52777887
_symmetry_Int_Tables_number   1
_chemical_formula_structural   HoErGa6(NiAu)2
_chemical_formula_sum   'Ho1 Er1 Ga6 Ni2 Au2'
_cell_volume   204.57475670
_cell_formula_units_Z   1
loop_
 _symmetry_equiv_pos_site_id
 _symmetry_equiv_pos_as_xyz
  1  'x, y, z'
loop_
 _atom_site_type_symbol
 _atom_site_label
 _atom_site_symmetry_multiplicity
 _atom_site_fract_x
 _atom_site_fract_y
 _atom_site_fract_z
 _atom_site_occupancy
  Ho  Ho0  1  0.125047  0.874953  0.750000  1
  Er  Er1  1  0.875064  0.124936  0.250000  1
  Ga  Ga2  1  0.314834  0.685166  0.550963  1
  Ga  Ga3  1  0.068788  0.931212  0.250000  1
  Ga  Ga4  1  0.685486  0.314514  0.448799  1
  Ga  Ga5  1  0.685486  0.314514  0.051201  1
  Ga  Ga6  1  0.314834  0.685166  0.949037  1
  Ga  Ga7  1  0.931354  0.068646  0.750000  1
  Ni  Ni8  1  0.775975  0.224025  0.750000  1
  Ni  Ni9  1  0.224341  0.775659  0.250000  1
  Au  Au10  1  0.499396  0.500604  0.000122  1
  Au  Au11  1  0.499396  0.500604  0.499878  1
