# generated using pymatgen
data_Er8CrRe2RuC8
_symmetry_space_group_name_H-M   'P 1'
_cell_length_a   5.03934000
_cell_length_b   6.49588223
_cell_length_c   9.73620701
_cell_angle_alpha   89.85810832
_cell_angle_beta   90.00000000
_cell_angle_gamma   90.00000000
_symmetry_Int_Tables_number   1
_chemical_formula_structural   Er8CrRe2RuC8
_chemical_formula_sum   'Er8 Cr1 Re2 Ru1 C8'
_cell_volume   318.71336122
_cell_formula_units_Z   1
loop_
 _symmetry_equiv_pos_site_id
 _symmetry_equiv_pos_as_xyz
  1  'x, y, z'
loop_
 _atom_site_type_symbol
 _atom_site_label
 _atom_site_symmetry_multiplicity
 _atom_site_fract_x
 _atom_site_fract_y
 _atom_site_fract_z
 _atom_site_occupancy
  Er  Er0  1  0.750000  0.531553  0.782430  1
  Er  Er1  1  0.250000  0.967018  0.285189  1
  Er  Er2  1  0.750000  0.674766  0.444614  1
  Er  Er3  1  0.250000  0.826444  0.942549  1
  Er  Er4  1  0.750000  0.181081  0.055609  1
  Er  Er5  1  0.250000  0.318849  0.561311  1
  Er  Er6  1  0.250000  0.464576  0.215497  1
  Er  Er7  1  0.750000  0.030430  0.717724  1
  Cr  Cr8  1  0.250000  0.278534  0.865300  1
  Re  Re9  1  0.250000  0.779038  0.634894  1
  Re  Re10  1  0.750000  0.718594  0.133094  1
  Ru  Ru11  1  0.750000  0.217785  0.367897  1
  C  C12  1  0.250000  0.677081  0.448176  1
  C  C13  1  0.250000  0.541506  0.763659  1
  C  C14  1  0.750000  0.452669  0.240154  1
  C  C15  1  0.750000  0.825929  0.947626  1
  C  C16  1  0.250000  0.051283  0.743147  1
  C  C17  1  0.250000  0.184655  0.043079  1
  C  C18  1  0.750000  0.326307  0.551564  1
  C  C19  1  0.750000  0.951899  0.256486  1
