# generated using pymatgen
data_Dy7Ho(Si3Pt)4
_symmetry_space_group_name_H-M   'P 1'
_cell_length_a   8.17914336
_cell_length_b   8.18335857
_cell_length_c   7.94744600
_cell_angle_alpha   90.00000000
_cell_angle_beta   90.00000000
_cell_angle_gamma   120.01705620
_symmetry_Int_Tables_number   1
_chemical_formula_structural   Dy7Ho(Si3Pt)4
_chemical_formula_sum   'Dy7 Ho1 Si12 Pt4'
_cell_volume   460.59895829
_cell_formula_units_Z   1
loop_
 _symmetry_equiv_pos_site_id
 _symmetry_equiv_pos_as_xyz
  1  'x, y, z'
loop_
 _atom_site_type_symbol
 _atom_site_label
 _atom_site_symmetry_multiplicity
 _atom_site_fract_x
 _atom_site_fract_y
 _atom_site_fract_z
 _atom_site_occupancy
  Dy  Dy0  1  0.999990  0.999995  0.250000  1
  Dy  Dy1  1  0.999974  0.999987  0.750000  1
  Dy  Dy2  1  0.510268  0.489764  0.250000  1
  Dy  Dy3  1  0.510268  0.020504  0.250000  1
  Dy  Dy4  1  0.979415  0.489707  0.250000  1
  Dy  Dy5  1  0.489625  0.510300  0.750000  1
  Dy  Dy6  1  0.489625  0.979325  0.750000  1
  Ho  Ho7  1  0.020257  0.510128  0.750000  1
  Si  Si8  1  0.165328  0.834508  0.499175  1
  Si  Si9  1  0.165328  0.330818  0.499175  1
  Si  Si10  1  0.669277  0.834638  0.498960  1
  Si  Si11  1  0.834642  0.165406  0.501154  1
  Si  Si12  1  0.834642  0.669238  0.501154  1
  Si  Si13  1  0.330812  0.165407  0.501089  1
  Si  Si14  1  0.834642  0.165406  0.998846  1
  Si  Si15  1  0.834642  0.669238  0.998846  1
  Si  Si16  1  0.330812  0.165407  0.998911  1
  Si  Si17  1  0.165328  0.834508  0.000825  1
  Si  Si18  1  0.165328  0.330818  0.000825  1
  Si  Si19  1  0.669277  0.834638  0.001040  1
  Pt  Pt20  1  0.332956  0.666479  0.464745  1
  Pt  Pt21  1  0.667303  0.333651  0.536263  1
  Pt  Pt22  1  0.667303  0.333651  0.963737  1
  Pt  Pt23  1  0.332956  0.666479  0.035255  1
