# generated using pymatgen
data_Nb6BiPbS12
_symmetry_space_group_name_H-M   'P 1'
_cell_length_a   5.86137200
_cell_length_b   5.86137195
_cell_length_c   14.62330800
_cell_angle_alpha   90.00000000
_cell_angle_beta   90.00000000
_cell_angle_gamma   120.00000026
_symmetry_Int_Tables_number   1
_chemical_formula_structural   Nb6BiPbS12
_chemical_formula_sum   'Nb6 Bi1 Pb1 S12'
_cell_volume   435.08571567
_cell_formula_units_Z   1
loop_
 _symmetry_equiv_pos_site_id
 _symmetry_equiv_pos_as_xyz
  1  'x, y, z'
loop_
 _atom_site_type_symbol
 _atom_site_label
 _atom_site_symmetry_multiplicity
 _atom_site_fract_x
 _atom_site_fract_y
 _atom_site_fract_z
 _atom_site_occupancy
  Nb  Nb0  1  0.000000  0.000000  0.753843  1
  Nb  Nb1  1  0.000000  0.000000  0.246157  1
  Nb  Nb2  1  0.333333  0.666667  0.245862  1
  Nb  Nb3  1  0.666667  0.333333  0.754138  1
  Nb  Nb4  1  0.666667  0.333333  0.245862  1
  Nb  Nb5  1  0.333333  0.666667  0.754138  1
  Bi  Bi6  1  0.000000  0.000000  0.000000  1
  Pb  Pb7  1  0.000000  0.000000  0.500000  1
  S  S8  1  0.338279  0.000000  0.138832  1
  S  S9  1  0.000000  0.338279  0.138832  1
  S  S10  1  0.661721  0.661721  0.138832  1
  S  S11  1  0.338187  0.338187  0.647195  1
  S  S12  1  0.661813  0.661813  0.352805  1
  S  S13  1  0.661813  0.000000  0.647195  1
  S  S14  1  0.000000  0.661813  0.647195  1
  S  S15  1  0.000000  0.661721  0.861168  1
  S  S16  1  0.338279  0.338279  0.861168  1
  S  S17  1  0.000000  0.338187  0.352805  1
  S  S18  1  0.338187  0.000000  0.352805  1
  S  S19  1  0.661721  0.000000  0.861168  1
