# generated using pymatgen
data_Hf16TaFe4Pd3
_symmetry_space_group_name_H-M   'P 1'
_cell_length_a   8.69550599
_cell_length_b   8.59821693
_cell_length_c   8.59821700
_cell_angle_alpha   59.99999588
_cell_angle_beta   60.36942117
_cell_angle_gamma   60.36942796
_symmetry_Int_Tables_number   1
_chemical_formula_structural   Hf16TaFe4Pd3
_chemical_formula_sum   'Hf16 Ta1 Fe4 Pd3'
_cell_volume   457.08739652
_cell_formula_units_Z   1
loop_
 _symmetry_equiv_pos_site_id
 _symmetry_equiv_pos_as_xyz
  1  'x, y, z'
loop_
 _atom_site_type_symbol
 _atom_site_label
 _atom_site_symmetry_multiplicity
 _atom_site_fract_x
 _atom_site_fract_y
 _atom_site_fract_z
 _atom_site_occupancy
  Hf  Hf0  1  0.181980  0.606006  0.606006  1
  Hf  Hf1  1  0.598158  0.206337  0.597752  1
  Hf  Hf2  1  0.598158  0.597752  0.206337  1
  Hf  Hf3  1  0.598158  0.597752  0.597752  1
  Hf  Hf4  1  0.813114  0.812152  0.187367  1
  Hf  Hf5  1  0.197072  0.177922  0.812504  1
  Hf  Hf6  1  0.813114  0.187367  0.812152  1
  Hf  Hf7  1  0.197072  0.812504  0.177922  1
  Hf  Hf8  1  0.197072  0.812504  0.812504  1
  Hf  Hf9  1  0.813114  0.187367  0.187367  1
  Hf  Hf10  1  0.439322  0.446177  0.057251  1
  Hf  Hf11  1  0.054381  0.054481  0.445568  1
  Hf  Hf12  1  0.439322  0.057251  0.446177  1
  Hf  Hf13  1  0.054381  0.445568  0.054481  1
  Hf  Hf14  1  0.054381  0.445568  0.445568  1
  Hf  Hf15  1  0.439322  0.057251  0.057251  1
  Ta  Ta16  1  0.518875  0.827042  0.827042  1
  Fe  Fe17  1  0.834652  0.388450  0.388450  1
  Fe  Fe18  1  0.384537  0.827801  0.393832  1
  Fe  Fe19  1  0.384537  0.393832  0.827801  1
  Fe  Fe20  1  0.384537  0.393832  0.393832  1
  Pd  Pd21  1  0.834914  0.491603  0.836742  1
  Pd  Pd22  1  0.834914  0.836742  0.491603  1
  Pd  Pd23  1  0.834914  0.836742  0.836742  1
