# generated using pymatgen
data_Rb3(MnSe2)2
_symmetry_space_group_name_H-M   'P 1'
_cell_length_a   7.78073500
_cell_length_b   12.36645700
_cell_length_c   12.47507900
_cell_angle_alpha   90.00000000
_cell_angle_beta   90.00000000
_cell_angle_gamma   90.00000000
_symmetry_Int_Tables_number   1
_chemical_formula_structural   Rb3(MnSe2)2
_chemical_formula_sum   'Rb12 Mn8 Se16'
_cell_volume   1200.35365834
_cell_formula_units_Z   4
loop_
 _symmetry_equiv_pos_site_id
 _symmetry_equiv_pos_as_xyz
  1  'x, y, z'
loop_
 _atom_site_type_symbol
 _atom_site_label
 _atom_site_symmetry_multiplicity
 _atom_site_fract_x
 _atom_site_fract_y
 _atom_site_fract_z
 _atom_site_occupancy
  Rb  Rb0  1  0.068926  0.422299  0.138711  1
  Rb  Rb1  1  0.568926  0.077701  0.361289  1
  Rb  Rb2  1  0.931074  0.922299  0.861289  1
  Rb  Rb3  1  0.431074  0.577701  0.638711  1
  Rb  Rb4  1  0.931074  0.577701  0.861289  1
  Rb  Rb5  1  0.431074  0.922299  0.638711  1
  Rb  Rb6  1  0.068926  0.077701  0.138711  1
  Rb  Rb7  1  0.568926  0.422299  0.361289  1
  Rb  Rb8  1  0.091041  0.250000  0.771381  1
  Rb  Rb9  1  0.591041  0.250000  0.728619  1
  Rb  Rb10  1  0.908959  0.750000  0.228619  1
  Rb  Rb11  1  0.408959  0.750000  0.271381  1
  Mn  Mn12  1  0.056745  0.375472  0.469183  1
  Mn  Mn13  1  0.556745  0.124528  0.030817  1
  Mn  Mn14  1  0.943255  0.875472  0.530817  1
  Mn  Mn15  1  0.443255  0.624528  0.969183  1
  Mn  Mn16  1  0.943255  0.624528  0.530817  1
  Mn  Mn17  1  0.443255  0.875472  0.969183  1
  Mn  Mn18  1  0.056745  0.124528  0.469183  1
  Mn  Mn19  1  0.556745  0.375472  0.030817  1
  Se  Se20  1  0.149856  0.552049  0.392733  1
  Se  Se21  1  0.649856  0.947951  0.107267  1
  Se  Se22  1  0.850144  0.052049  0.607267  1
  Se  Se23  1  0.350144  0.447951  0.892733  1
  Se  Se24  1  0.850144  0.447951  0.607267  1
  Se  Se25  1  0.350144  0.052049  0.892733  1
  Se  Se26  1  0.149856  0.947951  0.392733  1
  Se  Se27  1  0.649856  0.552049  0.107267  1
  Se  Se28  1  0.292325  0.250000  0.526180  1
  Se  Se29  1  0.792325  0.250000  0.973820  1
  Se  Se30  1  0.707675  0.750000  0.473820  1
  Se  Se31  1  0.207675  0.750000  0.026180  1
  Se  Se32  1  0.416319  0.250000  0.157511  1
  Se  Se33  1  0.916319  0.250000  0.342489  1
  Se  Se34  1  0.583681  0.750000  0.842489  1
  Se  Se35  1  0.083681  0.750000  0.657511  1
