# generated using pymatgen
data_Ho12Sc7Nb(ReN4)12
_symmetry_space_group_name_H-M   'P 1'
_cell_length_a   11.09476617
_cell_length_b   11.13031953
_cell_length_c   11.13031909
_cell_angle_alpha   109.53583296
_cell_angle_beta   109.40652707
_cell_angle_gamma   109.40653029
_symmetry_Int_Tables_number   1
_chemical_formula_structural   Ho12Sc7Nb(ReN4)12
_chemical_formula_sum   'Ho12 Sc7 Nb1 Re12 N48'
_cell_volume   1058.90654660
_cell_formula_units_Z   1
loop_
 _symmetry_equiv_pos_site_id
 _symmetry_equiv_pos_as_xyz
  1  'x, y, z'
loop_
 _atom_site_type_symbol
 _atom_site_label
 _atom_site_symmetry_multiplicity
 _atom_site_fract_x
 _atom_site_fract_y
 _atom_site_fract_z
 _atom_site_occupancy
  Ho  Ho0  1  0.248429  0.374785  0.125402  1
  Ho  Ho1  1  0.373645  0.750618  0.125216  1
  Ho  Ho2  1  0.374982  0.124399  0.250253  1
  Ho  Ho3  1  0.876973  0.625402  0.250618  1
  Ho  Ho4  1  0.124728  0.249747  0.374147  1
  Ho  Ho5  1  0.750582  0.125854  0.375601  1
  Ho  Ho6  1  0.249418  0.874146  0.624399  1
  Ho  Ho7  1  0.875272  0.750253  0.625854  1
  Ho  Ho8  1  0.123027  0.374598  0.749382  1
  Ho  Ho9  1  0.625019  0.875601  0.749747  1
  Ho  Ho10  1  0.626355  0.249382  0.874784  1
  Ho  Ho11  1  0.751571  0.625216  0.874598  1
  Sc  Sc12  1  0.000000  0.000000  0.000000  1
  Sc  Sc13  1  0.500001  0.000000  0.000000  1
  Sc  Sc14  1  0.000000  0.500001  0.000000  1
  Sc  Sc15  1  0.500000  0.000000  0.500000  1
  Sc  Sc16  1  0.000000  0.500000  0.500000  1
  Sc  Sc17  1  0.000000  0.000000  0.500001  1
  Sc  Sc18  1  0.500001  0.500001  0.500001  1
  Nb  Nb19  1  0.500000  0.500000  0.000000  1
  Re  Re20  1  0.749859  0.875199  0.125732  1
  Re  Re21  1  0.874926  0.250365  0.125248  1
  Re  Re22  1  0.624127  0.374268  0.249467  1
  Re  Re23  1  0.124560  0.874883  0.249635  1
  Re  Re24  1  0.625340  0.749467  0.375200  1
  Re  Re25  1  0.250323  0.625249  0.374883  1
  Re  Re26  1  0.749677  0.374752  0.625117  1
  Re  Re27  1  0.374660  0.250533  0.624801  1
  Re  Re28  1  0.875439  0.125117  0.750365  1
  Re  Re29  1  0.375874  0.625732  0.750533  1
  Re  Re30  1  0.250141  0.124800  0.874268  1
  Re  Re31  1  0.125074  0.749635  0.874751  1
  N  N32  1  0.309286  0.900827  0.024224  1
  N  N33  1  0.215374  0.123135  0.023304  1
  N  N34  1  0.706829  0.685632  0.088604  1
  N  N35  1  0.875856  0.401147  0.091630  1
  N  N36  1  0.618225  0.411396  0.097029  1
  N  N37  1  0.974710  0.690484  0.098854  1
  N  N38  1  0.024447  0.215099  0.122909  1
  N  N39  1  0.599197  0.908390  0.122900  1
  N  N40  1  0.478803  0.597029  0.185633  1
  N  N41  1  0.215775  0.591631  0.190484  1
  N  N42  1  0.122957  0.024239  0.215044  1
  N  N43  1  0.592113  0.190670  0.214814  1
  N  N44  1  0.476296  0.377100  0.285489  1
  N  N45  1  0.309347  0.907808  0.284901  1
  N  N46  1  0.901444  0.024145  0.309331  1
  N  N47  1  0.907912  0.284956  0.309194  1
  N  N48  1  0.285064  0.475777  0.376604  1
  N  N49  1  0.592240  0.900168  0.376865  1
  N  N50  1  0.091540  0.876604  0.400826  1
  N  N51  1  0.807929  0.523304  0.400168  1
  N  N52  1  0.809193  0.785489  0.408390  1
  N  N53  1  0.098462  0.622908  0.407808  1
  N  N54  1  0.598718  0.190806  0.475761  1
  N  N55  1  0.377299  0.285187  0.475856  1
  N  N56  1  0.622701  0.714814  0.524144  1
  N  N57  1  0.401282  0.809194  0.524239  1
  N  N58  1  0.901538  0.377091  0.592192  1
  N  N59  1  0.190808  0.214512  0.591611  1
  N  N60  1  0.908460  0.123396  0.599174  1
  N  N61  1  0.192071  0.476696  0.599832  1
  N  N62  1  0.407760  0.099832  0.623134  1
  N  N63  1  0.714937  0.524223  0.623396  1
  N  N64  1  0.092088  0.715044  0.690805  1
  N  N65  1  0.098558  0.975857  0.690670  1
  N  N66  1  0.690652  0.092192  0.715099  1
  N  N67  1  0.523704  0.622900  0.714512  1
  N  N68  1  0.407888  0.809331  0.785187  1
  N  N69  1  0.877043  0.975761  0.784956  1
  N  N70  1  0.784226  0.408370  0.809517  1
  N  N71  1  0.521197  0.402971  0.814367  1
  N  N72  1  0.400803  0.091610  0.877100  1
  N  N73  1  0.975553  0.784901  0.877091  1
  N  N74  1  0.025292  0.309517  0.901148  1
  N  N75  1  0.381774  0.588604  0.902971  1
  N  N76  1  0.124144  0.598853  0.908370  1
  N  N77  1  0.293171  0.314367  0.911396  1
  N  N78  1  0.690715  0.099175  0.975778  1
  N  N79  1  0.784626  0.876865  0.976696  1
