# generated using pymatgen
data_PrDyNp2F14
_symmetry_space_group_name_H-M   'P 1'
_cell_length_a   6.03084297
_cell_length_b   6.37327343
_cell_length_c   8.66032371
_cell_angle_alpha   103.15081335
_cell_angle_beta   90.14518954
_cell_angle_gamma   89.93405704
_symmetry_Int_Tables_number   1
_chemical_formula_structural   PrDyNp2F14
_chemical_formula_sum   'Pr1 Dy1 Np2 F14'
_cell_volume   324.13927689
_cell_formula_units_Z   1
loop_
 _symmetry_equiv_pos_site_id
 _symmetry_equiv_pos_as_xyz
  1  'x, y, z'
loop_
 _atom_site_type_symbol
 _atom_site_label
 _atom_site_symmetry_multiplicity
 _atom_site_fract_x
 _atom_site_fract_y
 _atom_site_fract_z
 _atom_site_occupancy
  Pr  Pr0  1  0.699320  0.647442  0.680085  1
  Dy  Dy1  1  0.199086  0.344449  0.311082  1
  Np  Np2  1  0.707426  0.813870  0.226825  1
  Np  Np3  1  0.206468  0.188147  0.774368  1
  F  F4  1  0.917504  0.464433  0.473209  1
  F  F5  1  0.396893  0.522138  0.511854  1
  F  F6  1  0.428781  0.918763  0.766399  1
  F  F7  1  0.936806  0.082580  0.236742  1
  F  F8  1  0.946195  0.947218  0.758873  1
  F  F9  1  0.445704  0.061895  0.245232  1
  F  F10  1  0.985736  0.461915  0.791396  1
  F  F11  1  0.480440  0.542375  0.214643  1
  F  F12  1  0.695693  0.758367  0.972413  1
  F  F13  1  0.196248  0.244895  0.032096  1
  F  F14  1  0.698668  0.869567  0.482909  1
  F  F15  1  0.199068  0.139830  0.517477  1
  F  F16  1  0.506852  0.381096  0.783630  1
  F  F17  1  0.005835  0.611024  0.220768  1
