# generated using pymatgen
data_YTmZr2(Ga3Rh)6
_symmetry_space_group_name_H-M   'P 1'
_cell_length_a   7.51825002
_cell_length_b   7.50930627
_cell_length_c   9.40917800
_cell_angle_alpha   90.00000000
_cell_angle_beta   90.00000000
_cell_angle_gamma   119.94004682
_symmetry_Int_Tables_number   1
_chemical_formula_structural   YTmZr2(Ga3Rh)6
_chemical_formula_sum   'Y1 Tm1 Zr2 Ga18 Rh6'
_cell_volume   460.32117227
_cell_formula_units_Z   1
loop_
 _symmetry_equiv_pos_site_id
 _symmetry_equiv_pos_as_xyz
  1  'x, y, z'
loop_
 _atom_site_type_symbol
 _atom_site_label
 _atom_site_symmetry_multiplicity
 _atom_site_fract_x
 _atom_site_fract_y
 _atom_site_fract_z
 _atom_site_occupancy
  Y  Y0  1  0.668468  0.995769  0.250000  1
  Tm  Tm1  1  0.331501  0.004246  0.750000  1
  Zr  Zr2  1  0.995799  0.669167  0.250000  1
  Zr  Zr3  1  0.004285  0.330882  0.750000  1
  Ga  Ga4  1  0.125209  0.124235  0.250000  1
  Ga  Ga5  1  0.875442  0.876015  0.750000  1
  Ga  Ga6  1  0.999028  0.337189  0.078834  1
  Ga  Ga7  1  0.001626  0.663443  0.920620  1
  Ga  Ga8  1  0.001626  0.663443  0.579380  1
  Ga  Ga9  1  0.331148  0.996746  0.418412  1
  Ga  Ga10  1  0.999028  0.337189  0.421166  1
  Ga  Ga11  1  0.668210  0.003264  0.582510  1
  Ga  Ga12  1  0.668210  0.003264  0.917490  1
  Ga  Ga13  1  0.331148  0.996746  0.081588  1
  Ga  Ga14  1  0.330385  0.332513  0.568746  1
  Ga  Ga15  1  0.669618  0.666903  0.431801  1
  Ga  Ga16  1  0.669618  0.666903  0.068199  1
  Ga  Ga17  1  0.330385  0.332513  0.931254  1
  Ga  Ga18  1  0.335419  0.546621  0.250000  1
  Ga  Ga19  1  0.664040  0.452643  0.750000  1
  Ga  Ga20  1  0.551268  0.340468  0.250000  1
  Ga  Ga21  1  0.448502  0.659831  0.750000  1
  Rh  Rh22  1  0.671517  0.328010  0.999486  1
  Rh  Rh23  1  0.328282  0.671957  0.000253  1
  Rh  Rh24  1  0.328282  0.671957  0.499747  1
  Rh  Rh25  1  0.671517  0.328010  0.500514  1
  Rh  Rh26  1  0.000220  0.000037  0.999844  1
  Rh  Rh27  1  0.000220  0.000037  0.500156  1
