# generated using pymatgen
data_Sm2GeCO7
_symmetry_space_group_name_H-M   'P 1'
_cell_length_a   6.73729847
_cell_length_b   6.84520775
_cell_length_c   6.93980019
_cell_angle_alpha   96.94814015
_cell_angle_beta   116.20337200
_cell_angle_gamma   92.16973063
_symmetry_Int_Tables_number   1
_chemical_formula_structural   Sm2GeCO7
_chemical_formula_sum   'Sm4 Ge2 C2 O14'
_cell_volume   283.55050338
_cell_formula_units_Z   2
loop_
 _symmetry_equiv_pos_site_id
 _symmetry_equiv_pos_as_xyz
  1  'x, y, z'
loop_
 _atom_site_type_symbol
 _atom_site_label
 _atom_site_symmetry_multiplicity
 _atom_site_fract_x
 _atom_site_fract_y
 _atom_site_fract_z
 _atom_site_occupancy
  Sm  Sm0  1  0.257427  0.668669  0.186295  1
  Sm  Sm1  1  0.249488  0.911973  0.702154  1
  Sm  Sm2  1  0.742573  0.331331  0.813705  1
  Sm  Sm3  1  0.750512  0.088027  0.297846  1
  Ge  Ge4  1  0.261521  0.159877  0.243389  1
  Ge  Ge5  1  0.738479  0.840123  0.756611  1
  C  C6  1  0.806412  0.590232  0.268857  1
  C  C7  1  0.193588  0.409768  0.731143  1
  O  O8  1  0.108991  0.021972  0.342334  1
  O  O9  1  0.338939  0.286299  0.746178  1
  O  O10  1  0.261901  0.592921  0.829593  1
  O  O11  1  0.017050  0.646943  0.375757  1
  O  O12  1  0.467714  0.746885  0.556275  1
  O  O13  1  0.661601  0.025247  0.914280  1
  O  O14  1  0.982950  0.353057  0.624243  1
  O  O15  1  0.338399  0.974753  0.085720  1
  O  O16  1  0.121350  0.337177  0.085919  1
  O  O17  1  0.891009  0.978028  0.657666  1
  O  O18  1  0.738099  0.407079  0.170407  1
  O  O19  1  0.878650  0.662823  0.914081  1
  O  O20  1  0.661061  0.713701  0.253822  1
  O  O21  1  0.532286  0.253115  0.443725  1
