# generated using pymatgen
data_Ba4ScFe2ReO12
_symmetry_space_group_name_H-M   'P 1'
_cell_length_a   7.13597975
_cell_length_b   7.13597861
_cell_length_c   7.13597881
_cell_angle_alpha   109.62956069
_cell_angle_beta   109.39211477
_cell_angle_gamma   109.39210763
_symmetry_Int_Tables_number   1
_chemical_formula_structural   Ba4ScFe2ReO12
_chemical_formula_sum   'Ba4 Sc1 Fe2 Re1 O12'
_cell_volume   279.72822820
_cell_formula_units_Z   1
loop_
 _symmetry_equiv_pos_site_id
 _symmetry_equiv_pos_as_xyz
  1  'x, y, z'
loop_
 _atom_site_type_symbol
 _atom_site_label
 _atom_site_symmetry_multiplicity
 _atom_site_fract_x
 _atom_site_fract_y
 _atom_site_fract_z
 _atom_site_occupancy
  Ba  Ba0  1  0.000000  0.500000  0.000000  1
  Ba  Ba1  1  0.500000  0.000000  0.000000  1
  Ba  Ba2  1  0.000000  0.000000  0.500000  1
  Ba  Ba3  1  0.500000  0.500000  0.500000  1
  Sc  Sc4  1  0.000000  0.500000  0.500000  1
  Fe  Fe5  1  0.500000  0.000000  0.500000  1
  Fe  Fe6  1  0.500000  0.500000  0.000000  1
  Re  Re7  1  0.000000  0.000000  0.000000  1
  O  O8  1  0.255624  0.755624  0.500000  1
  O  O9  1  0.769764  0.000000  0.769764  1
  O  O10  1  0.000000  0.767604  0.767604  1
  O  O11  1  0.000000  0.232396  0.232396  1
  O  O12  1  0.230236  0.230236  0.000000  1
  O  O13  1  0.230236  0.000000  0.230236  1
  O  O14  1  0.769764  0.769764  0.000000  1
  O  O15  1  0.744376  0.244376  0.500000  1
  O  O16  1  0.500000  0.250000  0.750000  1
  O  O17  1  0.500000  0.750000  0.250000  1
  O  O18  1  0.255624  0.500000  0.755624  1
  O  O19  1  0.744376  0.500000  0.244376  1
