# generated using pymatgen
data_Y8Ho2(SnSb)3
_symmetry_space_group_name_H-M   'P 1'
_cell_length_a   6.42521200
_cell_length_b   8.99722246
_cell_length_c   8.99707500
_cell_angle_alpha   120.00055042
_cell_angle_beta   90.00016050
_cell_angle_gamma   89.99968786
_symmetry_Int_Tables_number   1
_chemical_formula_structural   Y8Ho2(SnSb)3
_chemical_formula_sum   'Y8 Ho2 Sn3 Sb3'
_cell_volume   450.42810850
_cell_formula_units_Z   1
loop_
 _symmetry_equiv_pos_site_id
 _symmetry_equiv_pos_as_xyz
  1  'x, y, z'
loop_
 _atom_site_type_symbol
 _atom_site_label
 _atom_site_symmetry_multiplicity
 _atom_site_fract_x
 _atom_site_fract_y
 _atom_site_fract_z
 _atom_site_occupancy
  Y  Y0  1  0.999416  0.666668  0.333336  1
  Y  Y1  1  0.999416  0.333332  0.666664  1
  Y  Y2  1  0.749869  0.241805  0.000000  1
  Y  Y3  1  0.749870  0.758219  0.758214  1
  Y  Y4  1  0.749870  0.000005  0.241786  1
  Y  Y5  1  0.250093  0.757340  0.000000  1
  Y  Y6  1  0.250098  0.242633  0.242635  1
  Y  Y7  1  0.250098  0.999998  0.757365  1
  Ho  Ho8  1  0.500723  0.333331  0.666664  1
  Ho  Ho9  1  0.500723  0.666666  0.333336  1
  Sn  Sn10  1  0.749339  0.607316  0.000000  1
  Sn  Sn11  1  0.749344  0.392701  0.392694  1
  Sn  Sn12  1  0.749344  0.000005  0.607306  1
  Sb  Sb13  1  0.250593  0.391191  0.000000  1
  Sb  Sb14  1  0.250603  0.608794  0.608798  1
  Sb  Sb15  1  0.250603  0.999995  0.391202  1
