# generated using pymatgen
data_La6TbUH24
_symmetry_space_group_name_H-M   'P 1'
_cell_length_a   6.96710800
_cell_length_b   6.96710800
_cell_length_c   6.96710800
_cell_angle_alpha   90.00000000
_cell_angle_beta   90.00000000
_cell_angle_gamma   90.00000000
_symmetry_Int_Tables_number   1
_chemical_formula_structural   La6TbUH24
_chemical_formula_sum   'La6 Tb1 U1 H24'
_cell_volume   338.18755997
_cell_formula_units_Z   1
loop_
 _symmetry_equiv_pos_site_id
 _symmetry_equiv_pos_as_xyz
  1  'x, y, z'
loop_
 _atom_site_type_symbol
 _atom_site_label
 _atom_site_symmetry_multiplicity
 _atom_site_fract_x
 _atom_site_fract_y
 _atom_site_fract_z
 _atom_site_occupancy
  La  La0  1  0.248198  0.000000  0.500000  1
  La  La1  1  0.751802  0.000000  0.500000  1
  La  La2  1  0.000000  0.500000  0.248198  1
  La  La3  1  0.000000  0.500000  0.751802  1
  La  La4  1  0.500000  0.751802  0.000000  1
  La  La5  1  0.500000  0.248198  0.000000  1
  Tb  Tb6  1  0.000000  0.000000  0.000000  1
  U  U7  1  0.500000  0.500000  0.500000  1
  H  H8  1  0.000000  0.151983  0.299607  1
  H  H9  1  0.500000  0.209652  0.650242  1
  H  H10  1  0.500000  0.790348  0.349758  1
  H  H11  1  0.790348  0.650242  0.500000  1
  H  H12  1  0.209652  0.650242  0.500000  1
  H  H13  1  0.349758  0.500000  0.790348  1
  H  H14  1  0.650242  0.500000  0.790348  1
  H  H15  1  0.299607  0.000000  0.151983  1
  H  H16  1  0.151983  0.299607  0.000000  1
  H  H17  1  0.848017  0.700393  0.000000  1
  H  H18  1  0.299607  0.000000  0.848017  1
  H  H19  1  0.848017  0.299607  0.000000  1
  H  H20  1  0.700393  0.000000  0.151983  1
  H  H21  1  0.700393  0.000000  0.848017  1
  H  H22  1  0.151983  0.700393  0.000000  1
  H  H23  1  0.000000  0.848017  0.700393  1
  H  H24  1  0.000000  0.151983  0.700393  1
  H  H25  1  0.000000  0.848017  0.299607  1
  H  H26  1  0.650242  0.500000  0.209652  1
  H  H27  1  0.349758  0.500000  0.209652  1
  H  H28  1  0.790348  0.349758  0.500000  1
  H  H29  1  0.209652  0.349758  0.500000  1
  H  H30  1  0.500000  0.790348  0.650242  1
  H  H31  1  0.500000  0.209652  0.349758  1
