# generated using pymatgen
data_Nb2TcB2
_symmetry_space_group_name_H-M   'P 1'
_cell_length_a   6.05729400
_cell_length_b   6.05729400
_cell_length_c   6.61498500
_cell_angle_alpha   90.00000000
_cell_angle_beta   90.00000000
_cell_angle_gamma   90.00000000
_symmetry_Int_Tables_number   1
_chemical_formula_structural   Nb2TcB2
_chemical_formula_sum   'Nb8 Tc4 B8'
_cell_volume   242.70916177
_cell_formula_units_Z   4
loop_
 _symmetry_equiv_pos_site_id
 _symmetry_equiv_pos_as_xyz
  1  'x, y, z'
loop_
 _atom_site_type_symbol
 _atom_site_label
 _atom_site_symmetry_multiplicity
 _atom_site_fract_x
 _atom_site_fract_y
 _atom_site_fract_z
 _atom_site_occupancy
  Nb  Nb0  1  0.676722  0.823024  0.500000  1
  Nb  Nb1  1  0.323278  0.176976  0.500000  1
  Nb  Nb2  1  0.823278  0.323024  0.000000  1
  Nb  Nb3  1  0.176722  0.676976  0.000000  1
  Nb  Nb4  1  0.823024  0.323278  0.500000  1
  Nb  Nb5  1  0.176976  0.676722  0.500000  1
  Nb  Nb6  1  0.323024  0.176722  0.000000  1
  Nb  Nb7  1  0.676976  0.823278  0.000000  1
  Tc  Tc8  1  0.500000  0.500000  0.249329  1
  Tc  Tc9  1  0.000000  0.000000  0.749329  1
  Tc  Tc10  1  0.500000  0.500000  0.750671  1
  Tc  Tc11  1  0.000000  0.000000  0.250671  1
  B  B12  1  0.389758  0.889758  0.250000  1
  B  B13  1  0.610242  0.110242  0.250000  1
  B  B14  1  0.110242  0.389758  0.750000  1
  B  B15  1  0.889758  0.610242  0.750000  1
  B  B16  1  0.889758  0.610242  0.250000  1
  B  B17  1  0.110242  0.389758  0.250000  1
  B  B18  1  0.389758  0.889758  0.750000  1
  B  B19  1  0.610242  0.110242  0.750000  1
