# generated using pymatgen
data_Li2SnPt5
_symmetry_space_group_name_H-M   'P 1'
_cell_length_a   5.52422884
_cell_length_b   5.52422855
_cell_length_c   5.68074300
_cell_angle_alpha   59.05826836
_cell_angle_beta   59.05827018
_cell_angle_gamma   61.88344746
_symmetry_Int_Tables_number   1
_chemical_formula_structural   Li2SnPt5
_chemical_formula_sum   'Li2 Sn1 Pt5'
_cell_volume   122.38130998
_cell_formula_units_Z   1
loop_
 _symmetry_equiv_pos_site_id
 _symmetry_equiv_pos_as_xyz
  1  'x, y, z'
loop_
 _atom_site_type_symbol
 _atom_site_label
 _atom_site_symmetry_multiplicity
 _atom_site_fract_x
 _atom_site_fract_y
 _atom_site_fract_z
 _atom_site_occupancy
  Li  Li0  1  0.500000  0.500000  0.000000  1
  Li  Li1  1  0.000000  0.000000  0.500000  1
  Sn  Sn2  1  0.000000  0.000000  0.000000  1
  Pt  Pt3  1  0.500000  0.500000  0.500000  1
  Pt  Pt4  1  0.000000  0.500000  0.500000  1
  Pt  Pt5  1  0.500000  0.000000  0.000000  1
  Pt  Pt6  1  0.000000  0.500000  0.000000  1
  Pt  Pt7  1  0.500000  0.000000  0.500000  1
