# generated using pymatgen
data_Li3La2ThPt3
_symmetry_space_group_name_H-M   'P 1'
_cell_length_a   7.39460902
_cell_length_b   7.44387783
_cell_length_c   4.16770500
_cell_angle_alpha   90.00000000
_cell_angle_beta   90.00000000
_cell_angle_gamma   120.22063110
_symmetry_Int_Tables_number   1
_chemical_formula_structural   Li3La2ThPt3
_chemical_formula_sum   'Li3 La2 Th1 Pt3'
_cell_volume   198.23129671
_cell_formula_units_Z   1
loop_
 _symmetry_equiv_pos_site_id
 _symmetry_equiv_pos_as_xyz
  1  'x, y, z'
loop_
 _atom_site_type_symbol
 _atom_site_label
 _atom_site_symmetry_multiplicity
 _atom_site_fract_x
 _atom_site_fract_y
 _atom_site_fract_z
 _atom_site_occupancy
  Li  Li0  1  0.773862  0.771178  0.500000  1
  Li  Li1  1  0.226138  0.997316  0.500000  1
  Li  Li2  1  0.000000  0.228333  0.500000  1
  La  La3  1  0.406952  0.408332  0.000000  1
  La  La4  1  0.593048  0.001380  0.000000  1
  Th  Th5  1  0.000000  0.594572  0.000000  1
  Pt  Pt6  1  0.000000  0.987765  0.000000  1
  Pt  Pt7  1  0.683289  0.347205  0.500000  1
  Pt  Pt8  1  0.316711  0.663917  0.500000  1
