# generated using pymatgen
data_Dy5Er(GaC3)2
_symmetry_space_group_name_H-M   'P 1'
_cell_length_a   3.56441500
_cell_length_b   7.04106128
_cell_length_c   9.88029895
_cell_angle_alpha   89.90084789
_cell_angle_beta   90.00000000
_cell_angle_gamma   90.00000000
_symmetry_Int_Tables_number   1
_chemical_formula_structural   Dy5Er(GaC3)2
_chemical_formula_sum   'Dy5 Er1 Ga2 C6'
_cell_volume   247.96810419
_cell_formula_units_Z   1
loop_
 _symmetry_equiv_pos_site_id
 _symmetry_equiv_pos_as_xyz
  1  'x, y, z'
loop_
 _atom_site_type_symbol
 _atom_site_label
 _atom_site_symmetry_multiplicity
 _atom_site_fract_x
 _atom_site_fract_y
 _atom_site_fract_z
 _atom_site_occupancy
  Dy  Dy0  1  0.500000  0.510531  0.196907  1
  Dy  Dy1  1  0.500000  0.489379  0.802879  1
  Dy  Dy2  1  0.500000  0.989997  0.197560  1
  Dy  Dy3  1  0.000000  0.749882  0.458949  1
  Dy  Dy4  1  0.000000  0.249723  0.541157  1
  Er  Er5  1  0.500000  0.012684  0.802050  1
  Ga  Ga6  1  0.000000  0.751953  0.000450  1
  Ga  Ga7  1  0.000000  0.248128  0.998436  1
  C  C8  1  0.500000  0.509106  0.566847  1
  C  C9  1  0.500000  0.490654  0.433165  1
  C  C10  1  0.500000  0.990584  0.567980  1
  C  C11  1  0.500000  0.008864  0.434189  1
  C  C12  1  0.000000  0.750230  0.208981  1
  C  C13  1  0.000000  0.248286  0.790452  1
