# generated using pymatgen
data_Li2Sm8Si12RhAu
_symmetry_space_group_name_H-M   'P 1'
_cell_length_a   8.27152700
_cell_length_b   8.27152631
_cell_length_c   8.53454700
_cell_angle_alpha   90.00000000
_cell_angle_beta   90.00000000
_cell_angle_gamma   119.99999877
_symmetry_Int_Tables_number   1
_chemical_formula_structural   Li2Sm8Si12RhAu
_chemical_formula_sum   'Li2 Sm8 Si12 Rh1 Au1'
_cell_volume   505.68777956
_cell_formula_units_Z   1
loop_
 _symmetry_equiv_pos_site_id
 _symmetry_equiv_pos_as_xyz
  1  'x, y, z'
loop_
 _atom_site_type_symbol
 _atom_site_label
 _atom_site_symmetry_multiplicity
 _atom_site_fract_x
 _atom_site_fract_y
 _atom_site_fract_z
 _atom_site_occupancy
  Li  Li0  1  0.666667  0.333333  0.505517  1
  Li  Li1  1  0.333333  0.666667  0.494509  1
  Sm  Sm2  1  0.000000  0.000000  0.746950  1
  Sm  Sm3  1  0.000000  0.000000  0.253597  1
  Sm  Sm4  1  0.497192  0.502808  0.751224  1
  Sm  Sm5  1  0.497192  0.994385  0.751224  1
  Sm  Sm6  1  0.005615  0.502808  0.751224  1
  Sm  Sm7  1  0.499258  0.500742  0.248463  1
  Sm  Sm8  1  0.001485  0.500742  0.248463  1
  Sm  Sm9  1  0.499258  0.998515  0.248463  1
  Si  Si10  1  0.838649  0.161351  0.000650  1
  Si  Si11  1  0.838649  0.677298  0.000650  1
  Si  Si12  1  0.322702  0.161351  0.000650  1
  Si  Si13  1  0.833509  0.166491  0.499302  1
  Si  Si14  1  0.833509  0.667021  0.499302  1
  Si  Si15  1  0.332979  0.166491  0.499302  1
  Si  Si16  1  0.166218  0.833782  0.500695  1
  Si  Si17  1  0.667563  0.833782  0.500695  1
  Si  Si18  1  0.166218  0.332437  0.500695  1
  Si  Si19  1  0.169643  0.830357  0.999829  1
  Si  Si20  1  0.660714  0.830357  0.999829  1
  Si  Si21  1  0.169643  0.339286  0.999829  1
  Rh  Rh22  1  0.333333  0.666667  0.003136  1
  Au  Au23  1  0.666667  0.333333  0.995800  1
