# generated using pymatgen
data_Dy3Ho4(TmGa4)5
_symmetry_space_group_name_H-M   'P 1'
_cell_length_a   6.05903321
_cell_length_b   9.58743569
_cell_length_c   11.45787102
_cell_angle_alpha   90.01649803
_cell_angle_beta   89.93995917
_cell_angle_gamma   89.97517496
_symmetry_Int_Tables_number   1
_chemical_formula_structural   Dy3Ho4(TmGa4)5
_chemical_formula_sum   'Dy3 Ho4 Tm5 Ga20'
_cell_volume   665.59404675
_cell_formula_units_Z   1
loop_
 _symmetry_equiv_pos_site_id
 _symmetry_equiv_pos_as_xyz
  1  'x, y, z'
loop_
 _atom_site_type_symbol
 _atom_site_label
 _atom_site_symmetry_multiplicity
 _atom_site_fract_x
 _atom_site_fract_y
 _atom_site_fract_z
 _atom_site_occupancy
  Dy  Dy0  1  0.109101  0.490941  0.648843  1
  Dy  Dy1  1  0.390812  0.009246  0.148236  1
  Dy  Dy2  1  0.890557  0.991127  0.351592  1
  Ho  Ho3  1  0.890576  0.509095  0.351387  1
  Ho  Ho4  1  0.609392  0.990609  0.851268  1
  Ho  Ho5  1  0.109139  0.009028  0.648861  1
  Ho  Ho6  1  0.390927  0.490890  0.147947  1
  Tm  Tm7  1  0.848410  0.749824  0.074095  1
  Tm  Tm8  1  0.651303  0.749991  0.574631  1
  Tm  Tm9  1  0.152420  0.249799  0.925491  1
  Tm  Tm10  1  0.348476  0.250060  0.425818  1
  Tm  Tm11  1  0.609045  0.509336  0.851408  1
  Ga  Ga12  1  0.875487  0.053158  0.089591  1
  Ga  Ga13  1  0.624082  0.447491  0.590687  1
  Ga  Ga14  1  0.125697  0.552516  0.910072  1
  Ga  Ga15  1  0.375627  0.947100  0.410310  1
  Ga  Ga16  1  0.124497  0.946724  0.909891  1
  Ga  Ga17  1  0.375538  0.552820  0.409958  1
  Ga  Ga18  1  0.875606  0.447209  0.089653  1
  Ga  Ga19  1  0.624405  0.052851  0.589982  1
  Ga  Ga20  1  0.170938  0.749680  0.251840  1
  Ga  Ga21  1  0.329051  0.749572  0.752516  1
  Ga  Ga22  1  0.827875  0.250622  0.749088  1
  Ga  Ga23  1  0.671121  0.250462  0.247813  1
  Ga  Ga24  1  0.375232  0.749661  0.004005  1
  Ga  Ga25  1  0.125584  0.750119  0.504207  1
  Ga  Ga26  1  0.626083  0.250784  0.994370  1
  Ga  Ga27  1  0.874130  0.250341  0.496098  1
  Ga  Ga28  1  0.602995  0.749760  0.298924  1
  Ga  Ga29  1  0.895779  0.749051  0.799276  1
  Ga  Ga30  1  0.396984  0.249798  0.701033  1
  Ga  Ga31  1  0.103129  0.250337  0.201108  1
