# generated using pymatgen
data_Y2B6Ir7Rh2
_symmetry_space_group_name_H-M   'P 1'
_cell_length_a   5.63490317
_cell_length_b   5.63490265
_cell_length_c   8.63930600
_cell_angle_alpha   90.00000000
_cell_angle_beta   90.00000000
_cell_angle_gamma   119.81724272
_symmetry_Int_Tables_number   1
_chemical_formula_structural   Y2B6Ir7Rh2
_chemical_formula_sum   'Y2 B6 Ir7 Rh2'
_cell_volume   238.00123483
_cell_formula_units_Z   1
loop_
 _symmetry_equiv_pos_site_id
 _symmetry_equiv_pos_as_xyz
  1  'x, y, z'
loop_
 _atom_site_type_symbol
 _atom_site_label
 _atom_site_symmetry_multiplicity
 _atom_site_fract_x
 _atom_site_fract_y
 _atom_site_fract_z
 _atom_site_occupancy
  Y  Y0  1  0.000000  0.000000  0.701571  1
  Y  Y1  1  0.000000  0.000000  0.298429  1
  B  B2  1  0.667426  0.332574  0.000000  1
  B  B3  1  0.332574  0.667426  0.000000  1
  B  B4  1  0.666823  0.333177  0.667855  1
  B  B5  1  0.333177  0.666823  0.667855  1
  B  B6  1  0.333177  0.666823  0.332145  1
  B  B7  1  0.666823  0.333177  0.332145  1
  Ir  Ir8  1  0.500000  0.000000  0.836183  1
  Ir  Ir9  1  0.000000  0.500000  0.836183  1
  Ir  Ir10  1  0.500000  0.000000  0.163817  1
  Ir  Ir11  1  0.000000  0.500000  0.163817  1
  Ir  Ir12  1  0.500000  0.500000  0.500000  1
  Ir  Ir13  1  0.500000  0.000000  0.500000  1
  Ir  Ir14  1  0.000000  0.500000  0.500000  1
  Rh  Rh15  1  0.500000  0.500000  0.836221  1
  Rh  Rh16  1  0.500000  0.500000  0.163779  1
