# generated using pymatgen
data_Y4Ho6IrRh3
_symmetry_space_group_name_H-M   'P 1'
_cell_length_a   6.43373075
_cell_length_b   7.17570656
_cell_length_c   8.60290784
_cell_angle_alpha   96.77865676
_cell_angle_beta   111.94225492
_cell_angle_gamma   90.22483023
_symmetry_Int_Tables_number   1
_chemical_formula_structural   Y4Ho6IrRh3
_chemical_formula_sum   'Y4 Ho6 Ir1 Rh3'
_cell_volume   365.32334937
_cell_formula_units_Z   1
loop_
 _symmetry_equiv_pos_site_id
 _symmetry_equiv_pos_as_xyz
  1  'x, y, z'
loop_
 _atom_site_type_symbol
 _atom_site_label
 _atom_site_symmetry_multiplicity
 _atom_site_fract_x
 _atom_site_fract_y
 _atom_site_fract_z
 _atom_site_occupancy
  Y  Y0  1  0.979386  0.918552  0.189118  1
  Y  Y1  1  0.789123  0.582110  0.811015  1
  Y  Y2  1  0.023035  0.082065  0.812433  1
  Y  Y3  1  0.210414  0.418142  0.188791  1
  Ho  Ho4  1  0.650615  0.815097  0.437299  1
  Ho  Ho5  1  0.210439  0.684626  0.561670  1
  Ho  Ho6  1  0.351182  0.184883  0.560912  1
  Ho  Ho7  1  0.788731  0.314029  0.438329  1
  Ho  Ho8  1  0.425435  0.750795  0.999879  1
  Ho  Ho9  1  0.574331  0.249260  0.000975  1
  Ir  Ir10  1  0.404936  0.073766  0.222964  1
  Rh  Rh11  1  0.816072  0.572619  0.222685  1
  Rh  Rh12  1  0.593123  0.927065  0.777432  1
  Rh  Rh13  1  0.183178  0.426991  0.776497  1
