# generated using pymatgen
data_Dy13Tm3(CdRu)4
_symmetry_space_group_name_H-M   'P 1'
_cell_length_a   9.61690176
_cell_length_b   9.61690249
_cell_length_c   9.59252265
_cell_angle_alpha   59.91589330
_cell_angle_beta   59.91589070
_cell_angle_gamma   59.99999983
_symmetry_Int_Tables_number   1
_chemical_formula_structural   Dy13Tm3(CdRu)4
_chemical_formula_sum   'Dy13 Tm3 Cd4 Ru4'
_cell_volume   626.52000156
_cell_formula_units_Z   1
loop_
 _symmetry_equiv_pos_site_id
 _symmetry_equiv_pos_as_xyz
  1  'x, y, z'
loop_
 _atom_site_type_symbol
 _atom_site_label
 _atom_site_symmetry_multiplicity
 _atom_site_fract_x
 _atom_site_fract_y
 _atom_site_fract_z
 _atom_site_occupancy
  Dy  Dy0  1  0.562768  0.562768  0.936920  1
  Dy  Dy1  1  0.937543  0.562768  0.936920  1
  Dy  Dy2  1  0.562768  0.937543  0.936920  1
  Dy  Dy3  1  0.939213  0.939213  0.560346  1
  Dy  Dy4  1  0.561227  0.939213  0.560346  1
  Dy  Dy5  1  0.939213  0.561227  0.560346  1
  Dy  Dy6  1  0.188910  0.188910  0.810873  1
  Dy  Dy7  1  0.811306  0.188910  0.810873  1
  Dy  Dy8  1  0.188909  0.811307  0.810873  1
  Dy  Dy9  1  0.810372  0.810373  0.188756  1
  Dy  Dy10  1  0.190500  0.810372  0.188755  1
  Dy  Dy11  1  0.810372  0.190501  0.188756  1
  Dy  Dy12  1  0.344749  0.344749  0.965754  1
  Tm  Tm13  1  0.345453  0.964108  0.344987  1
  Tm  Tm14  1  0.964108  0.345453  0.344987  1
  Tm  Tm15  1  0.345453  0.345453  0.344987  1
  Cd  Cd16  1  0.580016  0.580016  0.259950  1
  Cd  Cd17  1  0.580170  0.260345  0.579314  1
  Cd  Cd18  1  0.260345  0.580170  0.579314  1
  Cd  Cd19  1  0.580170  0.580170  0.579314  1
  Ru  Ru20  1  0.140129  0.140129  0.579613  1
  Ru  Ru21  1  0.137645  0.581012  0.143697  1
  Ru  Ru22  1  0.581012  0.137645  0.143697  1
  Ru  Ru23  1  0.137645  0.137645  0.143697  1
