# generated using pymatgen
data_Ho11Sc(Si3Ir)4
_symmetry_space_group_name_H-M   'P 1'
_cell_length_a   4.20144600
_cell_length_b   10.60603893
_cell_length_c   12.19968822
_cell_angle_alpha   89.85148733
_cell_angle_beta   90.00000000
_cell_angle_gamma   90.00000000
_symmetry_Int_Tables_number   1
_chemical_formula_structural   Ho11Sc(Si3Ir)4
_chemical_formula_sum   'Ho11 Sc1 Si12 Ir4'
_cell_volume   543.62481866
_cell_formula_units_Z   1
loop_
 _symmetry_equiv_pos_site_id
 _symmetry_equiv_pos_as_xyz
  1  'x, y, z'
loop_
 _atom_site_type_symbol
 _atom_site_label
 _atom_site_symmetry_multiplicity
 _atom_site_fract_x
 _atom_site_fract_y
 _atom_site_fract_z
 _atom_site_occupancy
  Ho  Ho0  1  0.250000  0.880309  0.018666  1
  Ho  Ho1  1  0.250000  0.620073  0.519647  1
  Ho  Ho2  1  0.750000  0.120584  0.977949  1
  Ho  Ho3  1  0.750000  0.377335  0.481849  1
  Ho  Ho4  1  0.250000  0.921207  0.603874  1
  Ho  Ho5  1  0.250000  0.580654  0.103221  1
  Ho  Ho6  1  0.750000  0.080607  0.398057  1
  Ho  Ho7  1  0.750000  0.418277  0.895643  1
  Ho  Ho8  1  0.250000  0.658588  0.800514  1
  Ho  Ho9  1  0.250000  0.842054  0.300777  1
  Ho  Ho10  1  0.750000  0.340814  0.199332  1
  Sc  Sc11  1  0.750000  0.160391  0.701765  1
  Si  Si12  1  0.250000  0.013862  0.819772  1
  Si  Si13  1  0.250000  0.488223  0.321686  1
  Si  Si14  1  0.750000  0.989694  0.178473  1
  Si  Si15  1  0.750000  0.511639  0.678312  1
  Si  Si16  1  0.250000  0.244929  0.836526  1
  Si  Si17  1  0.250000  0.252145  0.342546  1
  Si  Si18  1  0.750000  0.753405  0.159006  1
  Si  Si19  1  0.750000  0.747030  0.658767  1
  Si  Si20  1  0.250000  0.197511  0.551114  1
  Si  Si21  1  0.250000  0.299319  0.041978  1
  Si  Si22  1  0.750000  0.799875  0.456902  1
  Si  Si23  1  0.750000  0.700351  0.955916  1
  Ir  Ir24  1  0.250000  0.388439  0.679888  1
  Ir  Ir25  1  0.250000  0.110636  0.180180  1
  Ir  Ir26  1  0.750000  0.610375  0.319985  1
  Ir  Ir27  1  0.750000  0.891672  0.817654  1
