# generated using pymatgen
data_Sr3CdNiO6
_symmetry_space_group_name_H-M   'P 1'
_cell_length_a   6.74127909
_cell_length_b   6.74127836
_cell_length_c   6.74127917
_cell_angle_alpha   90.73831873
_cell_angle_beta   90.73832057
_cell_angle_gamma   90.73831008
_symmetry_Int_Tables_number   1
_chemical_formula_structural   Sr3CdNiO6
_chemical_formula_sum   'Sr6 Cd2 Ni2 O12'
_cell_volume   306.27937924
_cell_formula_units_Z   2
loop_
 _symmetry_equiv_pos_site_id
 _symmetry_equiv_pos_as_xyz
  1  'x, y, z'
loop_
 _atom_site_type_symbol
 _atom_site_label
 _atom_site_symmetry_multiplicity
 _atom_site_fract_x
 _atom_site_fract_y
 _atom_site_fract_z
 _atom_site_occupancy
  Sr  Sr0  1  0.884361  0.615639  0.250000  1
  Sr  Sr1  1  0.250000  0.884361  0.615639  1
  Sr  Sr2  1  0.615639  0.250000  0.884361  1
  Sr  Sr3  1  0.750000  0.115639  0.384361  1
  Sr  Sr4  1  0.384361  0.750000  0.115639  1
  Sr  Sr5  1  0.115639  0.384361  0.750000  1
  Cd  Cd6  1  0.250000  0.250000  0.250000  1
  Cd  Cd7  1  0.750000  0.750000  0.750000  1
  Ni  Ni8  1  0.500000  0.500000  0.500000  1
  Ni  Ni9  1  0.000000  0.000000  0.000000  1
  O  O10  1  0.226578  0.552679  0.421962  1
  O  O11  1  0.421962  0.226578  0.552679  1
  O  O12  1  0.552679  0.421962  0.226578  1
  O  O13  1  0.921962  0.052679  0.726578  1
  O  O14  1  0.726578  0.921962  0.052679  1
  O  O15  1  0.052679  0.726578  0.921962  1
  O  O16  1  0.773422  0.447321  0.578038  1
  O  O17  1  0.578038  0.773422  0.447321  1
  O  O18  1  0.447321  0.578038  0.773422  1
  O  O19  1  0.078038  0.947321  0.273422  1
  O  O20  1  0.273422  0.078038  0.947321  1
  O  O21  1  0.947321  0.273422  0.078038  1
