# generated using pymatgen
data_TbCe(Si7Ir3)2
_symmetry_space_group_name_H-M   'P 1'
_cell_length_a   8.08076344
_cell_length_b   8.08076391
_cell_length_c   8.08076270
_cell_angle_alpha   56.54877704
_cell_angle_beta   56.54877145
_cell_angle_gamma   56.54877734
_symmetry_Int_Tables_number   1
_chemical_formula_structural   TbCe(Si7Ir3)2
_chemical_formula_sum   'Tb1 Ce1 Si14 Ir6'
_cell_volume   343.35802891
_cell_formula_units_Z   1
loop_
 _symmetry_equiv_pos_site_id
 _symmetry_equiv_pos_as_xyz
  1  'x, y, z'
loop_
 _atom_site_type_symbol
 _atom_site_label
 _atom_site_symmetry_multiplicity
 _atom_site_fract_x
 _atom_site_fract_y
 _atom_site_fract_z
 _atom_site_occupancy
  Tb  Tb0  1  0.500000  0.500000  0.500000  1
  Ce  Ce1  1  0.000000  0.000000  0.000000  1
  Si  Si2  1  0.850078  0.064041  0.672525  1
  Si  Si3  1  0.672525  0.850078  0.064041  1
  Si  Si4  1  0.064041  0.672525  0.850078  1
  Si  Si5  1  0.648921  0.827316  0.435733  1
  Si  Si6  1  0.249898  0.249898  0.249898  1
  Si  Si7  1  0.750102  0.750102  0.750102  1
  Si  Si8  1  0.172684  0.564267  0.351079  1
  Si  Si9  1  0.564267  0.351079  0.172684  1
  Si  Si10  1  0.351079  0.172684  0.564267  1
  Si  Si11  1  0.935959  0.327475  0.149922  1
  Si  Si12  1  0.327475  0.149922  0.935959  1
  Si  Si13  1  0.149922  0.935959  0.327475  1
  Si  Si14  1  0.827316  0.435733  0.648921  1
  Si  Si15  1  0.435733  0.648921  0.827316  1
  Ir  Ir16  1  0.749257  0.069917  0.431365  1
  Ir  Ir17  1  0.431365  0.749257  0.069917  1
  Ir  Ir18  1  0.069917  0.431365  0.749257  1
  Ir  Ir19  1  0.250743  0.930083  0.568635  1
  Ir  Ir20  1  0.568635  0.250743  0.930083  1
  Ir  Ir21  1  0.930083  0.568635  0.250743  1
