# generated using pymatgen
data_Nd2Y2Al15(GaIr2)3
_symmetry_space_group_name_H-M   'P 1'
_cell_length_a   7.56844623
_cell_length_b   7.56772677
_cell_length_c   9.60385100
_cell_angle_alpha   90.00000000
_cell_angle_beta   90.00000000
_cell_angle_gamma   119.36156981
_symmetry_Int_Tables_number   1
_chemical_formula_structural   Nd2Y2Al15(GaIr2)3
_chemical_formula_sum   'Nd2 Y2 Al15 Ga3 Ir6'
_cell_volume   479.40918117
_cell_formula_units_Z   1
loop_
 _symmetry_equiv_pos_site_id
 _symmetry_equiv_pos_as_xyz
  1  'x, y, z'
loop_
 _atom_site_type_symbol
 _atom_site_label
 _atom_site_symmetry_multiplicity
 _atom_site_fract_x
 _atom_site_fract_y
 _atom_site_fract_z
 _atom_site_occupancy
  Nd  Nd0  1  0.998579  0.674820  0.250000  1
  Nd  Nd1  1  0.669929  0.991317  0.250000  1
  Y  Y2  1  0.005681  0.325134  0.750000  1
  Y  Y3  1  0.324243  0.003845  0.750000  1
  Al  Al4  1  0.003173  0.335309  0.068031  1
  Al  Al5  1  0.998342  0.663693  0.924774  1
  Al  Al6  1  0.998342  0.663693  0.575226  1
  Al  Al7  1  0.336375  0.005440  0.431788  1
  Al  Al8  1  0.003173  0.335309  0.431969  1
  Al  Al9  1  0.663853  0.998837  0.575075  1
  Al  Al10  1  0.663853  0.998837  0.924925  1
  Al  Al11  1  0.336375  0.005440  0.068212  1
  Al  Al12  1  0.334051  0.334315  0.556733  1
  Al  Al13  1  0.665094  0.664591  0.454481  1
  Al  Al14  1  0.665094  0.664591  0.045519  1
  Al  Al15  1  0.334051  0.334315  0.943267  1
  Al  Al16  1  0.661876  0.449391  0.750000  1
  Al  Al17  1  0.547782  0.339466  0.250000  1
  Al  Al18  1  0.449924  0.661838  0.750000  1
  Ga  Ga19  1  0.134780  0.135569  0.250000  1
  Ga  Ga20  1  0.865074  0.864970  0.750000  1
  Ga  Ga21  1  0.338751  0.543234  0.250000  1
  Ir  Ir22  1  0.670785  0.329111  0.998508  1
  Ir  Ir23  1  0.328516  0.672064  0.996264  1
  Ir  Ir24  1  0.328516  0.672064  0.503736  1
  Ir  Ir25  1  0.670785  0.329111  0.501492  1
  Ir  Ir26  1  0.001501  0.001849  0.997684  1
  Ir  Ir27  1  0.001501  0.001849  0.502316  1
