# generated using pymatgen
data_Y4NiP8Pd15
_symmetry_space_group_name_H-M   'P 1'
_cell_length_a   4.18694200
_cell_length_b   7.42715354
_cell_length_c   15.06792500
_cell_angle_alpha   90.15317663
_cell_angle_beta   90.00000000
_cell_angle_gamma   90.00000000
_symmetry_Int_Tables_number   1
_chemical_formula_structural   Y4NiP8Pd15
_chemical_formula_sum   'Y4 Ni1 P8 Pd15'
_cell_volume   468.56650996
_cell_formula_units_Z   1
loop_
 _symmetry_equiv_pos_site_id
 _symmetry_equiv_pos_as_xyz
  1  'x, y, z'
loop_
 _atom_site_type_symbol
 _atom_site_label
 _atom_site_symmetry_multiplicity
 _atom_site_fract_x
 _atom_site_fract_y
 _atom_site_fract_z
 _atom_site_occupancy
  Y  Y0  1  0.250000  0.856651  0.183413  1
  Y  Y1  1  0.750000  0.143718  0.813753  1
  Y  Y2  1  0.250000  0.359577  0.318447  1
  Y  Y3  1  0.750000  0.641420  0.681210  1
  Ni  Ni4  1  0.250000  0.464298  0.560394  1
  P  P5  1  0.250000  0.316407  0.689244  1
  P  P6  1  0.250000  0.756912  0.553844  1
  P  P7  1  0.750000  0.220483  0.444621  1
  P  P8  1  0.750000  0.187913  0.194383  1
  P  P9  1  0.250000  0.811782  0.803479  1
  P  P10  1  0.250000  0.278404  0.944284  1
  P  P11  1  0.750000  0.720426  0.055180  1
  P  P12  1  0.750000  0.685498  0.309525  1
  Pd  Pd13  1  0.250000  0.982857  0.671026  1
  Pd  Pd14  1  0.250000  0.483022  0.823518  1
  Pd  Pd15  1  0.750000  0.379768  0.991335  1
  Pd  Pd16  1  0.750000  0.740681  0.882269  1
  Pd  Pd17  1  0.750000  0.530639  0.451529  1
  Pd  Pd18  1  0.750000  0.254414  0.612445  1
  Pd  Pd19  1  0.750000  0.516272  0.176363  1
  Pd  Pd20  1  0.750000  0.031542  0.056624  1
  Pd  Pd21  1  0.250000  0.758771  0.386230  1
  Pd  Pd22  1  0.250000  0.260314  0.116560  1
  Pd  Pd23  1  0.250000  0.968380  0.941164  1
  Pd  Pd24  1  0.250000  0.130380  0.494024  1
  Pd  Pd25  1  0.750000  0.883702  0.512610  1
  Pd  Pd26  1  0.750000  0.014401  0.325092  1
  Pd  Pd27  1  0.250000  0.621369  0.007434  1
