# generated using pymatgen
data_Th3In2SnRuRh2
_symmetry_space_group_name_H-M   'P 1'
_cell_length_a   7.67106689
_cell_length_b   7.66920791
_cell_length_c   4.04909600
_cell_angle_alpha   90.00000000
_cell_angle_beta   90.00000000
_cell_angle_gamma   120.04636415
_symmetry_Int_Tables_number   1
_chemical_formula_structural   Th3In2SnRuRh2
_chemical_formula_sum   'Th3 In2 Sn1 Ru1 Rh2'
_cell_volume   206.20153626
_cell_formula_units_Z   1
loop_
 _symmetry_equiv_pos_site_id
 _symmetry_equiv_pos_as_xyz
  1  'x, y, z'
loop_
 _atom_site_type_symbol
 _atom_site_label
 _atom_site_symmetry_multiplicity
 _atom_site_fract_x
 _atom_site_fract_y
 _atom_site_fract_z
 _atom_site_occupancy
  Th  Th0  1  0.416346  0.411053  0.500000  1
  Th  Th1  1  0.588204  0.003608  0.500000  1
  Th  Th2  1  0.994978  0.584147  0.500000  1
  In  In3  1  0.749992  0.748950  0.000000  1
  In  In4  1  0.250086  0.999653  0.000000  1
  Sn  Sn5  1  0.999056  0.249345  0.000000  1
  Ru  Ru6  1  0.671576  0.332731  0.000000  1
  Rh  Rh7  1  0.329793  0.662599  0.000000  1
  Rh  Rh8  1  0.999969  0.007913  0.500000  1
