# generated using pymatgen
data_PrErB6Ru
_symmetry_space_group_name_H-M   'P 1'
_cell_length_a   3.71972000
_cell_length_b   9.23084800
_cell_length_c   11.66865300
_cell_angle_alpha   90.00000000
_cell_angle_beta   90.00000000
_cell_angle_gamma   90.00000000
_symmetry_Int_Tables_number   1
_chemical_formula_structural   PrErB6Ru
_chemical_formula_sum   'Pr4 Er4 B24 Ru4'
_cell_volume   400.65685218
_cell_formula_units_Z   4
loop_
 _symmetry_equiv_pos_site_id
 _symmetry_equiv_pos_as_xyz
  1  'x, y, z'
loop_
 _atom_site_type_symbol
 _atom_site_label
 _atom_site_symmetry_multiplicity
 _atom_site_fract_x
 _atom_site_fract_y
 _atom_site_fract_z
 _atom_site_occupancy
  Pr  Pr0  1  0.000000  0.322532  0.414600  1
  Pr  Pr1  1  0.000000  0.677468  0.585400  1
  Pr  Pr2  1  0.000000  0.822532  0.085400  1
  Pr  Pr3  1  0.000000  0.177468  0.914600  1
  Er  Er4  1  0.000000  0.943617  0.371759  1
  Er  Er5  1  0.000000  0.056383  0.628241  1
  Er  Er6  1  0.000000  0.443617  0.128241  1
  Er  Er7  1  0.000000  0.556383  0.871759  1
  B  B8  1  0.500000  0.556575  0.429664  1
  B  B9  1  0.500000  0.443425  0.570336  1
  B  B10  1  0.500000  0.056575  0.070336  1
  B  B11  1  0.500000  0.943425  0.929664  1
  B  B12  1  0.500000  0.749897  0.416588  1
  B  B13  1  0.500000  0.250103  0.583412  1
  B  B14  1  0.500000  0.249897  0.083412  1
  B  B15  1  0.500000  0.750103  0.916588  1
  B  B16  1  0.500000  0.790067  0.266618  1
  B  B17  1  0.500000  0.209933  0.733382  1
  B  B18  1  0.500000  0.290067  0.233382  1
  B  B19  1  0.500000  0.709933  0.766618  1
  B  B20  1  0.500000  0.629724  0.184851  1
  B  B21  1  0.500000  0.370276  0.815149  1
  B  B22  1  0.500000  0.129724  0.315149  1
  B  B23  1  0.500000  0.870276  0.684851  1
  B  B24  1  0.500000  0.985528  0.214321  1
  B  B25  1  0.500000  0.014472  0.785679  1
  B  B26  1  0.500000  0.485528  0.285679  1
  B  B27  1  0.500000  0.514472  0.714321  1
  B  B28  1  0.500000  0.600831  0.027552  1
  B  B29  1  0.500000  0.399169  0.972448  1
  B  B30  1  0.500000  0.100831  0.472448  1
  B  B31  1  0.500000  0.899169  0.527552  1
  Ru  Ru32  1  0.000000  0.639358  0.318841  1
  Ru  Ru33  1  0.000000  0.360642  0.681159  1
  Ru  Ru34  1  0.000000  0.139358  0.181159  1
  Ru  Ru35  1  0.000000  0.860642  0.818841  1
