# generated using pymatgen
data_Tm12Tc2Ni2SnPt
_symmetry_space_group_name_H-M   'P 1'
_cell_length_a   8.28905711
_cell_length_b   8.28905869
_cell_length_c   8.28905821
_cell_angle_alpha   113.74120805
_cell_angle_beta   110.40969969
_cell_angle_gamma   104.39841312
_symmetry_Int_Tables_number   1
_chemical_formula_structural   Tm12Tc2Ni2SnPt
_chemical_formula_sum   'Tm12 Tc2 Ni2 Sn1 Pt1'
_cell_volume   435.47030549
_cell_formula_units_Z   1
loop_
 _symmetry_equiv_pos_site_id
 _symmetry_equiv_pos_as_xyz
  1  'x, y, z'
loop_
 _atom_site_type_symbol
 _atom_site_label
 _atom_site_symmetry_multiplicity
 _atom_site_fract_x
 _atom_site_fract_y
 _atom_site_fract_z
 _atom_site_occupancy
  Tm  Tm0  1  0.422079  0.232015  0.190063  1
  Tm  Tm1  1  0.577921  0.767985  0.809937  1
  Tm  Tm2  1  0.041951  0.232015  0.809937  1
  Tm  Tm3  1  0.958049  0.767985  0.190063  1
  Tm  Tm4  1  0.179099  0.278418  0.457518  1
  Tm  Tm5  1  0.820901  0.721582  0.542482  1
  Tm  Tm6  1  0.179099  0.721582  0.900682  1
  Tm  Tm7  1  0.820901  0.278418  0.099318  1
  Tm  Tm8  1  0.332163  0.648567  0.316405  1
  Tm  Tm9  1  0.667837  0.351433  0.683595  1
  Tm  Tm10  1  0.332163  0.015759  0.683595  1
  Tm  Tm11  1  0.667837  0.984241  0.316405  1
  Tc  Tc12  1  0.329641  0.000000  0.329641  1
  Tc  Tc13  1  0.670359  0.000000  0.670359  1
  Ni  Ni14  1  0.117153  0.617153  0.500000  1
  Ni  Ni15  1  0.882847  0.382847  0.500000  1
  Sn  Sn16  1  0.500000  0.500000  0.000000  1
  Pt  Pt17  1  0.000000  0.000000  0.000000  1
