# generated using pymatgen
data_Ho3Er5Cd2PdRu
_symmetry_space_group_name_H-M   'P 1'
_cell_length_a   9.62297441
_cell_length_b   9.62253927
_cell_length_c   9.64574285
_cell_angle_alpha   59.42445014
_cell_angle_beta   59.42874880
_cell_angle_gamma   59.36941478
_symmetry_Int_Tables_number   1
_chemical_formula_structural   Ho3Er5Cd2PdRu
_chemical_formula_sum   'Ho6 Er10 Cd4 Pd2 Ru2'
_cell_volume   623.05236795
_cell_formula_units_Z   2
loop_
 _symmetry_equiv_pos_site_id
 _symmetry_equiv_pos_as_xyz
  1  'x, y, z'
loop_
 _atom_site_type_symbol
 _atom_site_label
 _atom_site_symmetry_multiplicity
 _atom_site_fract_x
 _atom_site_fract_y
 _atom_site_fract_z
 _atom_site_occupancy
  Ho  Ho0  1  0.937156  0.559936  0.567396  1
  Ho  Ho1  1  0.559405  0.936061  0.937416  1
  Ho  Ho2  1  0.559914  0.937125  0.567434  1
  Ho  Ho3  1  0.936102  0.559379  0.937415  1
  Ho  Ho4  1  0.564558  0.564564  0.937132  1
  Ho  Ho5  1  0.938319  0.938308  0.562057  1
  Er  Er6  1  0.348540  0.348545  0.355154  1
  Er  Er7  1  0.350456  0.350467  0.945220  1
  Er  Er8  1  0.345964  0.952628  0.351629  1
  Er  Er9  1  0.952599  0.346023  0.351633  1
  Er  Er10  1  0.816615  0.187577  0.188568  1
  Er  Er11  1  0.186602  0.818200  0.806565  1
  Er  Er12  1  0.187569  0.816560  0.188613  1
  Er  Er13  1  0.818255  0.186570  0.806582  1
  Er  Er14  1  0.187007  0.187023  0.811649  1
  Er  Er15  1  0.810266  0.810253  0.189774  1
  Cd  Cd16  1  0.579539  0.579559  0.580863  1
  Cd  Cd17  1  0.580124  0.580132  0.257479  1
  Cd  Cd18  1  0.580612  0.255314  0.581331  1
  Cd  Cd19  1  0.255313  0.580603  0.581324  1
  Pd  Pd20  1  0.145294  0.570588  0.142128  1
  Pd  Pd21  1  0.570584  0.145279  0.142166  1
  Ru  Ru22  1  0.144227  0.144305  0.139777  1
  Ru  Ru23  1  0.144980  0.144998  0.570696  1
