# generated using pymatgen
data_UCo21TcB6
_symmetry_space_group_name_H-M   'P 1'
_cell_length_a   7.43311897
_cell_length_b   7.43246153
_cell_length_c   7.43281401
_cell_angle_alpha   60.00383665
_cell_angle_beta   60.00112023
_cell_angle_gamma   60.00455082
_symmetry_Int_Tables_number   1
_chemical_formula_structural   UCo21TcB6
_chemical_formula_sum   'U1 Co21 Tc1 B6'
_cell_volume   290.38436231
_cell_formula_units_Z   1
loop_
 _symmetry_equiv_pos_site_id
 _symmetry_equiv_pos_as_xyz
  1  'x, y, z'
loop_
 _atom_site_type_symbol
 _atom_site_label
 _atom_site_symmetry_multiplicity
 _atom_site_fract_x
 _atom_site_fract_y
 _atom_site_fract_z
 _atom_site_occupancy
  U  U0  1  0.250024  0.249919  0.250104  1
  Co  Co1  1  0.000022  0.000005  0.000030  1
  Co  Co2  1  0.844210  0.385241  0.385304  1
  Co  Co3  1  0.385256  0.844236  0.385235  1
  Co  Co4  1  0.385295  0.385221  0.844236  1
  Co  Co5  1  0.385259  0.385270  0.385239  1
  Co  Co6  1  0.139422  0.620208  0.620116  1
  Co  Co7  1  0.620186  0.139416  0.620186  1
  Co  Co8  1  0.620115  0.620219  0.139409  1
  Co  Co9  1  0.620228  0.620201  0.620205  1
  Co  Co10  1  0.664154  0.998134  0.998099  1
  Co  Co11  1  0.664229  0.998100  0.339593  1
  Co  Co12  1  0.664194  0.339608  0.998098  1
  Co  Co13  1  0.998112  0.664222  0.339612  1
  Co  Co14  1  0.998114  0.664208  0.998109  1
  Co  Co15  1  0.339600  0.664228  0.998126  1
  Co  Co16  1  0.998093  0.339612  0.664188  1
  Co  Co17  1  0.339586  0.998106  0.664230  1
  Co  Co18  1  0.998100  0.998138  0.664157  1
  Co  Co19  1  0.339563  0.998078  0.998119  1
  Co  Co20  1  0.998112  0.339530  0.998102  1
  Co  Co21  1  0.998116  0.998073  0.339572  1
  Tc  Tc22  1  0.749979  0.750029  0.749953  1
  B  B23  1  0.725368  0.274581  0.274635  1
  B  B24  1  0.725420  0.274600  0.725392  1
  B  B25  1  0.725381  0.725409  0.274655  1
  B  B26  1  0.274654  0.725407  0.725370  1
  B  B27  1  0.274571  0.725432  0.274545  1
  B  B28  1  0.274641  0.274568  0.725380  1
