# generated using pymatgen
data_TbY3(In2Cl5)4
_symmetry_space_group_name_H-M   'P 1'
_cell_length_a   8.20802102
_cell_length_b   8.62511400
_cell_length_c   12.97051345
_cell_angle_alpha   90.00000000
_cell_angle_beta   90.20486838
_cell_angle_gamma   90.00000000
_symmetry_Int_Tables_number   1
_chemical_formula_structural   TbY3(In2Cl5)4
_chemical_formula_sum   'Tb1 Y3 In8 Cl20'
_cell_volume   918.24314788
_cell_formula_units_Z   1
loop_
 _symmetry_equiv_pos_site_id
 _symmetry_equiv_pos_as_xyz
  1  'x, y, z'
loop_
 _atom_site_type_symbol
 _atom_site_label
 _atom_site_symmetry_multiplicity
 _atom_site_fract_x
 _atom_site_fract_y
 _atom_site_fract_z
 _atom_site_occupancy
  Tb  Tb0  1  0.426664  0.250000  0.995106  1
  Y  Y1  1  0.928756  0.750000  0.504156  1
  Y  Y2  1  0.572783  0.750000  0.004484  1
  Y  Y3  1  0.071811  0.250000  0.495868  1
  In  In4  1  0.940870  0.007281  0.828632  1
  In  In5  1  0.058049  0.991808  0.171236  1
  In  In6  1  0.558159  0.492703  0.330088  1
  In  In7  1  0.058049  0.508192  0.171236  1
  In  In8  1  0.940870  0.492719  0.828632  1
  In  In9  1  0.441928  0.507611  0.669838  1
  In  In10  1  0.558159  0.007297  0.330088  1
  In  In11  1  0.441928  0.992389  0.669838  1
  Cl  Cl12  1  0.594221  0.750000  0.508368  1
  Cl  Cl13  1  0.163461  0.955466  0.433107  1
  Cl  Cl14  1  0.837086  0.044592  0.566685  1
  Cl  Cl15  1  0.337097  0.543761  0.931840  1
  Cl  Cl16  1  0.163461  0.544534  0.433107  1
  Cl  Cl17  1  0.348005  0.250000  0.196845  1
  Cl  Cl18  1  0.337097  0.956239  0.931840  1
  Cl  Cl19  1  0.837086  0.455408  0.566685  1
  Cl  Cl20  1  0.401098  0.750000  0.180095  1
  Cl  Cl21  1  0.662199  0.044195  0.068261  1
  Cl  Cl22  1  0.152408  0.250000  0.697335  1
  Cl  Cl23  1  0.601369  0.250000  0.819026  1
  Cl  Cl24  1  0.406424  0.250000  0.492340  1
  Cl  Cl25  1  0.099627  0.750000  0.680682  1
  Cl  Cl26  1  0.662199  0.455805  0.068261  1
  Cl  Cl27  1  0.091183  0.250000  0.992871  1
  Cl  Cl28  1  0.907946  0.750000  0.007862  1
  Cl  Cl29  1  0.847803  0.750000  0.302979  1
  Cl  Cl30  1  0.651816  0.750000  0.803355  1
  Cl  Cl31  1  0.900398  0.250000  0.319252  1
