# generated using pymatgen
data_Lu12Mn2ZnIn2
_symmetry_space_group_name_H-M   'P 1'
_cell_length_a   8.22801986
_cell_length_b   8.22921568
_cell_length_c   8.22906438
_cell_angle_alpha   109.39766790
_cell_angle_beta   109.39396040
_cell_angle_gamma   109.61339970
_symmetry_Int_Tables_number   1
_chemical_formula_structural   Lu12Mn2ZnIn2
_chemical_formula_sum   'Lu12 Mn2 Zn1 In2'
_cell_volume   428.97012343
_cell_formula_units_Z   1
loop_
 _symmetry_equiv_pos_site_id
 _symmetry_equiv_pos_as_xyz
  1  'x, y, z'
loop_
 _atom_site_type_symbol
 _atom_site_label
 _atom_site_symmetry_multiplicity
 _atom_site_fract_x
 _atom_site_fract_y
 _atom_site_fract_z
 _atom_site_occupancy
  Lu  Lu0  1  0.305582  0.305577  0.611234  1
  Lu  Lu1  1  0.694418  0.694423  0.388766  1
  Lu  Lu2  1  0.694405  0.305666  0.000002  1
  Lu  Lu3  1  0.305595  0.694334  0.999998  1
  Lu  Lu4  1  0.202222  0.445018  0.242811  1
  Lu  Lu5  1  0.797778  0.554982  0.757189  1
  Lu  Lu6  1  0.202187  0.959408  0.757289  1
  Lu  Lu7  1  0.959463  0.202244  0.757222  1
  Lu  Lu8  1  0.797813  0.040592  0.242711  1
  Lu  Lu9  1  0.040537  0.797756  0.242778  1
  Lu  Lu10  1  0.444967  0.202137  0.242764  1
  Lu  Lu11  1  0.555033  0.797863  0.757236  1
  Mn  Mn12  1  0.388430  0.388988  0.000303  1
  Mn  Mn13  1  0.611570  0.611012  0.999697  1
  Zn  Zn14  1  0.000000  0.000000  0.000000  1
  In  In15  1  0.000000  0.500000  0.500000  1
  In  In16  1  0.500000  0.000000  0.500000  1
