# generated using pymatgen
data_Tb12In2Ga3Si
_symmetry_space_group_name_H-M   'P 1'
_cell_length_a   8.66608777
_cell_length_b   8.66607843
_cell_length_c   8.66608838
_cell_angle_alpha   111.97831163
_cell_angle_beta   111.80009374
_cell_angle_gamma   104.73659745
_symmetry_Int_Tables_number   1
_chemical_formula_structural   Tb12In2Ga3Si
_chemical_formula_sum   'Tb12 In2 Ga3 Si1'
_cell_volume   498.47122057
_cell_formula_units_Z   1
loop_
 _symmetry_equiv_pos_site_id
 _symmetry_equiv_pos_as_xyz
  1  'x, y, z'
loop_
 _atom_site_type_symbol
 _atom_site_label
 _atom_site_symmetry_multiplicity
 _atom_site_fract_x
 _atom_site_fract_y
 _atom_site_fract_z
 _atom_site_occupancy
  Tb  Tb0  1  0.443220  0.238884  0.204334  1
  Tb  Tb1  1  0.558870  0.761769  0.797100  1
  Tb  Tb2  1  0.034550  0.238884  0.795664  1
  Tb  Tb3  1  0.964670  0.761769  0.202900  1
  Tb  Tb4  1  0.184283  0.277894  0.463590  1
  Tb  Tb5  1  0.814306  0.720693  0.536411  1
  Tb  Tb6  1  0.184281  0.720693  0.906387  1
  Tb  Tb7  1  0.814305  0.277894  0.093611  1
  Tb  Tb8  1  0.319133  0.612036  0.292903  1
  Tb  Tb9  1  0.681997  0.387287  0.705290  1
  Tb  Tb10  1  0.319136  0.026234  0.707097  1
  Tb  Tb11  1  0.681999  0.976710  0.294712  1
  In  In12  1  0.500334  0.500332  0.999998  1
  In  In13  1  0.000958  0.000957  0.999999  1
  Ga  Ga14  1  0.356551  0.999894  0.356661  1
  Ga  Ga15  1  0.643233  0.999894  0.643343  1
  Ga  Ga16  1  0.117628  0.617629  0.500000  1
  Si  Si17  1  0.880546  0.380546  0.500000  1
