# generated using pymatgen
data_Al2V4TcOs
_symmetry_space_group_name_H-M   'P 1'
_cell_length_a   4.78928694
_cell_length_b   4.74315400
_cell_length_c   4.84997910
_cell_angle_alpha   90.00000000
_cell_angle_beta   89.71394987
_cell_angle_gamma   90.00000000
_symmetry_Int_Tables_number   1
_chemical_formula_structural   Al2V4TcOs
_chemical_formula_sum   'Al2 V4 Tc1 Os1'
_cell_volume   110.17233071
_cell_formula_units_Z   1
loop_
 _symmetry_equiv_pos_site_id
 _symmetry_equiv_pos_as_xyz
  1  'x, y, z'
loop_
 _atom_site_type_symbol
 _atom_site_label
 _atom_site_symmetry_multiplicity
 _atom_site_fract_x
 _atom_site_fract_y
 _atom_site_fract_z
 _atom_site_occupancy
  Al  Al0  1  0.997256  0.000000  0.999276  1
  Al  Al1  1  0.502187  0.500000  0.503045  1
  V  V2  1  0.749686  0.000000  0.503119  1
  V  V3  1  0.999345  0.500000  0.747998  1
  V  V4  1  0.500411  0.749534  0.998739  1
  V  V5  1  0.500411  0.250466  0.998739  1
  Tc  Tc6  1  0.252612  0.000000  0.502730  1
  Os  Os7  1  0.998093  0.500000  0.246353  1
