# generated using pymatgen
data_Al11(ReRh)2
_symmetry_space_group_name_H-M   'P 1'
_cell_length_a   5.20270321
_cell_length_b   5.16989772
_cell_length_c   8.97102189
_cell_angle_alpha   105.44198429
_cell_angle_beta   88.02445724
_cell_angle_gamma   100.45417656
_symmetry_Int_Tables_number   1
_chemical_formula_structural   Al11(ReRh)2
_chemical_formula_sum   'Al11 Re2 Rh2'
_cell_volume   228.70160188
_cell_formula_units_Z   1
loop_
 _symmetry_equiv_pos_site_id
 _symmetry_equiv_pos_as_xyz
  1  'x, y, z'
loop_
 _atom_site_type_symbol
 _atom_site_label
 _atom_site_symmetry_multiplicity
 _atom_site_fract_x
 _atom_site_fract_y
 _atom_site_fract_z
 _atom_site_occupancy
  Al  Al0  1  0.831511  0.271592  0.622600  1
  Al  Al1  1  0.168489  0.728408  0.377400  1
  Al  Al2  1  0.152911  0.461740  0.872290  1
  Al  Al3  1  0.847089  0.538260  0.127710  1
  Al  Al4  1  0.000000  0.000000  0.000000  1
  Al  Al5  1  0.522771  0.099978  0.874132  1
  Al  Al6  1  0.477229  0.900022  0.125868  1
  Al  Al7  1  0.575954  0.329678  0.373760  1
  Al  Al8  1  0.424046  0.670322  0.626240  1
  Al  Al9  1  0.941223  0.813271  0.661235  1
  Al  Al10  1  0.058777  0.186729  0.338765  1
  Re  Re11  1  0.670498  0.613009  0.866309  1
  Re  Re12  1  0.329502  0.386991  0.133691  1
  Rh  Rh13  1  0.320331  0.154663  0.609530  1
  Rh  Rh14  1  0.679669  0.845337  0.390470  1
