# generated using pymatgen
data_Th6Zr2Sn7Sb3
_symmetry_space_group_name_H-M   'P 1'
_cell_length_a   9.49358000
_cell_length_b   9.48682926
_cell_length_c   6.34807100
_cell_angle_alpha   90.00000000
_cell_angle_beta   90.00000000
_cell_angle_gamma   120.00008626
_symmetry_Int_Tables_number   1
_chemical_formula_structural   Th6Zr2Sn7Sb3
_chemical_formula_sum   'Th6 Zr2 Sn7 Sb3'
_cell_volume   495.13443203
_cell_formula_units_Z   1
loop_
 _symmetry_equiv_pos_site_id
 _symmetry_equiv_pos_as_xyz
  1  'x, y, z'
loop_
 _atom_site_type_symbol
 _atom_site_label
 _atom_site_symmetry_multiplicity
 _atom_site_fract_x
 _atom_site_fract_y
 _atom_site_fract_z
 _atom_site_occupancy
  Th  Th0  1  0.614405  0.996432  0.250000  1
  Th  Th1  1  0.382920  0.000759  0.750000  1
  Th  Th2  1  0.996114  0.616880  0.250000  1
  Th  Th3  1  0.003437  0.385074  0.750000  1
  Th  Th4  1  0.381390  0.381701  0.250000  1
  Th  Th5  1  0.619796  0.617019  0.750000  1
  Zr  Zr6  1  0.000512  0.000154  0.001758  1
  Zr  Zr7  1  0.000512  0.000154  0.498242  1
  Sn  Sn8  1  0.269200  0.999942  0.250000  1
  Sn  Sn9  1  0.732640  0.001171  0.750000  1
  Sn  Sn10  1  0.998634  0.269639  0.250000  1
  Sn  Sn11  1  0.333402  0.667261  0.001646  1
  Sn  Sn12  1  0.666800  0.330989  0.001474  1
  Sn  Sn13  1  0.666800  0.330989  0.498526  1
  Sn  Sn14  1  0.333402  0.667261  0.498354  1
  Sb  Sb15  1  0.001308  0.734554  0.750000  1
  Sb  Sb16  1  0.731988  0.733273  0.250000  1
  Sb  Sb17  1  0.266739  0.266750  0.750000  1
