# generated using pymatgen
data_Ti3MnCo4
_symmetry_space_group_name_H-M   'P 1'
_cell_length_a   7.22601586
_cell_length_b   7.22601588
_cell_length_c   7.22601710
_cell_angle_alpha   33.71615454
_cell_angle_beta   33.71615714
_cell_angle_gamma   33.71614812
_symmetry_Int_Tables_number   1
_chemical_formula_structural   Ti3MnCo4
_chemical_formula_sum   'Ti3 Mn1 Co4'
_cell_volume   103.57691082
_cell_formula_units_Z   1
loop_
 _symmetry_equiv_pos_site_id
 _symmetry_equiv_pos_as_xyz
  1  'x, y, z'
loop_
 _atom_site_type_symbol
 _atom_site_label
 _atom_site_symmetry_multiplicity
 _atom_site_fract_x
 _atom_site_fract_y
 _atom_site_fract_z
 _atom_site_occupancy
  Ti  Ti0  1  0.500000  0.500000  0.500000  1
  Ti  Ti1  1  0.253847  0.253847  0.253847  1
  Ti  Ti2  1  0.746153  0.746153  0.746153  1
  Mn  Mn3  1  0.000000  0.000000  0.000000  1
  Co  Co4  1  0.623474  0.623474  0.623474  1
  Co  Co5  1  0.126106  0.126106  0.126106  1
  Co  Co6  1  0.873894  0.873894  0.873894  1
  Co  Co7  1  0.376526  0.376526  0.376526  1
