# generated using pymatgen
data_Hf5P12Ru19
_symmetry_space_group_name_H-M   'P 1'
_cell_length_a   12.40179600
_cell_length_b   12.40179653
_cell_length_c   3.90224300
_cell_angle_alpha   90.00000000
_cell_angle_beta   90.00000000
_cell_angle_gamma   119.99999859
_symmetry_Int_Tables_number   1
_chemical_formula_structural   Hf5P12Ru19
_chemical_formula_sum   'Hf5 P12 Ru19'
_cell_volume   519.77349929
_cell_formula_units_Z   1
loop_
 _symmetry_equiv_pos_site_id
 _symmetry_equiv_pos_as_xyz
  1  'x, y, z'
loop_
 _atom_site_type_symbol
 _atom_site_label
 _atom_site_symmetry_multiplicity
 _atom_site_fract_x
 _atom_site_fract_y
 _atom_site_fract_z
 _atom_site_occupancy
  Hf  Hf0  1  0.189099  0.189099  0.500000  1
  Hf  Hf1  1  0.810901  0.000000  0.500000  1
  Hf  Hf2  1  0.000000  0.810901  0.500000  1
  Hf  Hf3  1  0.333333  0.666667  0.000000  1
  Hf  Hf4  1  0.666667  0.333333  0.000000  1
  P  P5  1  0.820177  0.820177  0.000000  1
  P  P6  1  0.179823  0.000000  0.000000  1
  P  P7  1  0.000000  0.179823  0.000000  1
  P  P8  1  0.172535  0.479553  0.500000  1
  P  P9  1  0.520447  0.692982  0.500000  1
  P  P10  1  0.307018  0.827465  0.500000  1
  P  P11  1  0.692982  0.520447  0.500000  1
  P  P12  1  0.827465  0.307018  0.500000  1
  P  P13  1  0.479553  0.172535  0.500000  1
  P  P14  1  0.369410  0.369410  0.000000  1
  P  P15  1  0.630590  0.000000  0.000000  1
  P  P16  1  0.000000  0.630590  0.000000  1
  Ru  Ru17  1  0.554959  0.554959  0.000000  1
  Ru  Ru18  1  0.445041  0.000000  0.000000  1
  Ru  Ru19  1  0.000000  0.445041  0.000000  1
  Ru  Ru20  1  0.721695  0.721695  0.500000  1
  Ru  Ru21  1  0.278305  0.000000  0.500000  1
  Ru  Ru22  1  0.000000  0.278305  0.500000  1
  Ru  Ru23  1  0.184353  0.372808  0.000000  1
  Ru  Ru24  1  0.627192  0.811545  0.000000  1
  Ru  Ru25  1  0.188455  0.815647  0.000000  1
  Ru  Ru26  1  0.811545  0.627192  0.000000  1
  Ru  Ru27  1  0.815647  0.188455  0.000000  1
  Ru  Ru28  1  0.372808  0.184353  0.000000  1
  Ru  Ru29  1  0.365146  0.494610  0.500000  1
  Ru  Ru30  1  0.505390  0.870537  0.500000  1
  Ru  Ru31  1  0.129463  0.634854  0.500000  1
  Ru  Ru32  1  0.870537  0.505390  0.500000  1
  Ru  Ru33  1  0.634854  0.129463  0.500000  1
  Ru  Ru34  1  0.494610  0.365146  0.500000  1
  Ru  Ru35  1  0.000000  0.000000  0.000000  1
