# generated using pymatgen
data_LaPr(BePt4)2
_symmetry_space_group_name_H-M   'P 1'
_cell_length_a   5.46752900
_cell_length_b   5.46753061
_cell_length_c   8.07786400
_cell_angle_alpha   90.00000000
_cell_angle_beta   90.00000000
_cell_angle_gamma   120.00000843
_symmetry_Int_Tables_number   1
_chemical_formula_structural   LaPr(BePt4)2
_chemical_formula_sum   'La1 Pr1 Be2 Pt8'
_cell_volume   209.12668345
_cell_formula_units_Z   1
loop_
 _symmetry_equiv_pos_site_id
 _symmetry_equiv_pos_as_xyz
  1  'x, y, z'
loop_
 _atom_site_type_symbol
 _atom_site_label
 _atom_site_symmetry_multiplicity
 _atom_site_fract_x
 _atom_site_fract_y
 _atom_site_fract_z
 _atom_site_occupancy
  La  La0  1  0.000000  0.000000  0.500000  1
  Pr  Pr1  1  0.000000  0.000000  0.000000  1
  Be  Be2  1  0.333333  0.666667  0.000000  1
  Be  Be3  1  0.666667  0.333333  0.000000  1
  Pt  Pt4  1  0.333333  0.666667  0.500000  1
  Pt  Pt5  1  0.666667  0.333333  0.500000  1
  Pt  Pt6  1  0.500000  0.000000  0.214361  1
  Pt  Pt7  1  0.500000  0.000000  0.785639  1
  Pt  Pt8  1  0.000000  0.500000  0.214361  1
  Pt  Pt9  1  0.000000  0.500000  0.785639  1
  Pt  Pt10  1  0.500000  0.500000  0.214361  1
  Pt  Pt11  1  0.500000  0.500000  0.785639  1
