# generated using pymatgen
data_HgSbF7
_symmetry_space_group_name_H-M   'P 1'
_cell_length_a   10.50703300
_cell_length_b   7.43549425
_cell_length_c   8.18843789
_cell_angle_alpha   77.97291203
_cell_angle_beta   90.00000000
_cell_angle_gamma   90.00000000
_symmetry_Int_Tables_number   1
_chemical_formula_structural   HgSbF7
_chemical_formula_sum   'Hg4 Sb4 F28'
_cell_volume   625.67917177
_cell_formula_units_Z   4
loop_
 _symmetry_equiv_pos_site_id
 _symmetry_equiv_pos_as_xyz
  1  'x, y, z'
loop_
 _atom_site_type_symbol
 _atom_site_label
 _atom_site_symmetry_multiplicity
 _atom_site_fract_x
 _atom_site_fract_y
 _atom_site_fract_z
 _atom_site_occupancy
  Hg  Hg0  1  0.247165  0.275125  0.907937  1
  Hg  Hg1  1  0.747165  0.724875  0.592063  1
  Hg  Hg2  1  0.752835  0.724875  0.092063  1
  Hg  Hg3  1  0.252835  0.275125  0.407937  1
  Sb  Sb4  1  0.562600  0.195622  0.202718  1
  Sb  Sb5  1  0.062600  0.804378  0.297282  1
  Sb  Sb6  1  0.437400  0.804378  0.797282  1
  Sb  Sb7  1  0.937400  0.195622  0.702718  1
  F  F8  1  0.704178  0.360010  0.146254  1
  F  F9  1  0.204178  0.639990  0.353746  1
  F  F10  1  0.295822  0.639990  0.853746  1
  F  F11  1  0.795822  0.360010  0.646254  1
  F  F12  1  0.644028  0.071851  0.402249  1
  F  F13  1  0.144028  0.928149  0.097751  1
  F  F14  1  0.355972  0.928149  0.597751  1
  F  F15  1  0.855972  0.071851  0.902249  1
  F  F16  1  0.480728  0.312752  0.996602  1
  F  F17  1  0.980728  0.687248  0.503398  1
  F  F18  1  0.519272  0.687248  0.003398  1
  F  F19  1  0.019272  0.312752  0.496602  1
  F  F20  1  0.411636  0.049169  0.256341  1
  F  F21  1  0.911636  0.950831  0.243659  1
  F  F22  1  0.588364  0.950831  0.743659  1
  F  F23  1  0.088364  0.049169  0.756341  1
  F  F24  1  0.634587  0.019539  0.087130  1
  F  F25  1  0.134587  0.980461  0.412870  1
  F  F26  1  0.365413  0.980461  0.912870  1
  F  F27  1  0.865413  0.019539  0.587130  1
  F  F28  1  0.482598  0.368989  0.317732  1
  F  F29  1  0.982598  0.631011  0.182268  1
  F  F30  1  0.517402  0.631011  0.682268  1
  F  F31  1  0.017402  0.368989  0.817732  1
  F  F32  1  0.194834  0.318476  0.149434  1
  F  F33  1  0.694834  0.681524  0.350566  1
  F  F34  1  0.805166  0.681524  0.850566  1
  F  F35  1  0.305166  0.318476  0.649434  1
