# generated using pymatgen
data_Pr7Dy(Si3Rh)4
_symmetry_space_group_name_H-M   'P 1'
_cell_length_a   8.28778700
_cell_length_b   8.28619627
_cell_length_c   8.36693900
_cell_angle_alpha   90.00000000
_cell_angle_beta   90.00000000
_cell_angle_gamma   120.00627051
_symmetry_Int_Tables_number   1
_chemical_formula_structural   Pr7Dy(Si3Rh)4
_chemical_formula_sum   'Pr7 Dy1 Si12 Rh4'
_cell_volume   497.58076844
_cell_formula_units_Z   1
loop_
 _symmetry_equiv_pos_site_id
 _symmetry_equiv_pos_as_xyz
  1  'x, y, z'
loop_
 _atom_site_type_symbol
 _atom_site_label
 _atom_site_symmetry_multiplicity
 _atom_site_fract_x
 _atom_site_fract_y
 _atom_site_fract_z
 _atom_site_occupancy
  Pr  Pr0  1  0.000144  0.000287  0.250000  1
  Pr  Pr1  1  0.999777  0.999559  0.750000  1
  Pr  Pr2  1  0.495191  0.504930  0.250000  1
  Pr  Pr3  1  0.496598  0.993195  0.250000  1
  Pr  Pr4  1  0.009740  0.504928  0.250000  1
  Pr  Pr5  1  0.506510  0.493612  0.750000  1
  Pr  Pr6  1  0.987102  0.493613  0.750000  1
  Dy  Dy7  1  0.504131  0.008259  0.750000  1
  Si  Si8  1  0.832184  0.165370  0.506165  1
  Si  Si9  1  0.833683  0.667367  0.500720  1
  Si  Si10  1  0.333188  0.165371  0.506164  1
  Si  Si11  1  0.832184  0.165370  0.993835  1
  Si  Si12  1  0.833683  0.667367  0.999280  1
  Si  Si13  1  0.333188  0.165371  0.993836  1
  Si  Si14  1  0.168142  0.833635  0.000291  1
  Si  Si15  1  0.665492  0.833634  0.000292  1
  Si  Si16  1  0.167350  0.334698  0.001267  1
  Si  Si17  1  0.168142  0.833635  0.499709  1
  Si  Si18  1  0.665492  0.833634  0.499708  1
  Si  Si19  1  0.167350  0.334698  0.498733  1
  Rh  Rh20  1  0.665611  0.331220  0.483974  1
  Rh  Rh21  1  0.665611  0.331220  0.016026  1
  Rh  Rh22  1  0.334755  0.669512  0.968478  1
  Rh  Rh23  1  0.334755  0.669512  0.531522  1
