# generated using pymatgen
data_Lu12Fe2TcBi2
_symmetry_space_group_name_H-M   'P 1'
_cell_length_a   8.29543804
_cell_length_b   8.29543909
_cell_length_c   8.29543888
_cell_angle_alpha   108.34751121
_cell_angle_beta   108.34751145
_cell_angle_gamma   111.74278894
_symmetry_Int_Tables_number   1
_chemical_formula_structural   Lu12Fe2TcBi2
_chemical_formula_sum   'Lu12 Fe2 Tc1 Bi2'
_cell_volume   438.91629604
_cell_formula_units_Z   1
loop_
 _symmetry_equiv_pos_site_id
 _symmetry_equiv_pos_as_xyz
  1  'x, y, z'
loop_
 _atom_site_type_symbol
 _atom_site_label
 _atom_site_symmetry_multiplicity
 _atom_site_fract_x
 _atom_site_fract_y
 _atom_site_fract_z
 _atom_site_occupancy
  Lu  Lu0  1  0.308672  0.308672  0.617346  1
  Lu  Lu1  1  0.691328  0.691328  0.382654  1
  Lu  Lu2  1  0.691328  0.308672  0.000000  1
  Lu  Lu3  1  0.308672  0.691328  0.000000  1
  Lu  Lu4  1  0.195429  0.428110  0.232681  1
  Lu  Lu5  1  0.804571  0.571890  0.767319  1
  Lu  Lu6  1  0.195429  0.962748  0.767319  1
  Lu  Lu7  1  0.962748  0.195429  0.767319  1
  Lu  Lu8  1  0.804571  0.037252  0.232681  1
  Lu  Lu9  1  0.037252  0.804571  0.232681  1
  Lu  Lu10  1  0.428110  0.195429  0.232681  1
  Lu  Lu11  1  0.571890  0.804571  0.767319  1
  Fe  Fe12  1  0.382644  0.382644  0.000000  1
  Fe  Fe13  1  0.617356  0.617356  0.000000  1
  Tc  Tc14  1  0.000000  0.000000  0.000000  1
  Bi  Bi15  1  0.000000  0.500000  0.500000  1
  Bi  Bi16  1  0.500000  0.000000  0.500000  1
