# generated using pymatgen
data_CrPt8
_symmetry_space_group_name_H-M   'P 1'
_cell_length_a   6.23896765
_cell_length_b   6.23896814
_cell_length_c   6.23896748
_cell_angle_alpha   95.73424949
_cell_angle_beta   95.73424398
_cell_angle_gamma   143.14644025
_symmetry_Int_Tables_number   1
_chemical_formula_structural   CrPt8
_chemical_formula_sum   'Cr1 Pt8'
_cell_volume   138.18668032
_cell_formula_units_Z   1
loop_
 _symmetry_equiv_pos_site_id
 _symmetry_equiv_pos_as_xyz
  1  'x, y, z'
loop_
 _atom_site_type_symbol
 _atom_site_label
 _atom_site_symmetry_multiplicity
 _atom_site_fract_x
 _atom_site_fract_y
 _atom_site_fract_z
 _atom_site_occupancy
  Cr  Cr0  1  0.000000  0.000000  0.000000  1
  Pt  Pt1  1  0.337794  0.337794  0.675589  1
  Pt  Pt2  1  0.662206  0.662206  0.324411  1
  Pt  Pt3  1  0.662206  0.337794  0.000000  1
  Pt  Pt4  1  0.337794  0.662206  0.000000  1
  Pt  Pt5  1  0.000000  0.328960  0.328960  1
  Pt  Pt6  1  0.000000  0.671040  0.671040  1
  Pt  Pt7  1  0.671040  0.000000  0.671040  1
  Pt  Pt8  1  0.328960  0.000000  0.328960  1
