# generated using pymatgen
data_LiNd3Cd3HgIr
_symmetry_space_group_name_H-M   'P 1'
_cell_length_a   8.12795900
_cell_length_b   8.12795877
_cell_length_c   3.85448300
_cell_angle_alpha   90.00000000
_cell_angle_beta   90.00000000
_cell_angle_gamma   119.99999686
_symmetry_Int_Tables_number   1
_chemical_formula_structural   LiNd3Cd3HgIr
_chemical_formula_sum   'Li1 Nd3 Cd3 Hg1 Ir1'
_cell_volume   220.52598790
_cell_formula_units_Z   1
loop_
 _symmetry_equiv_pos_site_id
 _symmetry_equiv_pos_as_xyz
  1  'x, y, z'
loop_
 _atom_site_type_symbol
 _atom_site_label
 _atom_site_symmetry_multiplicity
 _atom_site_fract_x
 _atom_site_fract_y
 _atom_site_fract_z
 _atom_site_occupancy
  Li  Li0  1  0.000000  0.000000  0.500000  1
  Nd  Nd1  1  0.400626  0.431573  0.500000  1
  Nd  Nd2  1  0.568427  0.969052  0.500000  1
  Nd  Nd3  1  0.030948  0.599374  0.500000  1
  Cd  Cd4  1  0.752632  0.752533  0.000000  1
  Cd  Cd5  1  0.247467  0.000099  0.000000  1
  Cd  Cd6  1  0.999901  0.247368  0.000000  1
  Hg  Hg7  1  0.666667  0.333333  0.000000  1
  Ir  Ir8  1  0.333333  0.666667  0.000000  1
