# generated using pymatgen
data_Dy4GeBi5Rh7
_symmetry_space_group_name_H-M   'P 1'
_cell_length_a   7.73791378
_cell_length_b   7.73791448
_cell_length_c   7.73791460
_cell_angle_alpha   106.81124672
_cell_angle_beta   110.81736266
_cell_angle_gamma   110.81735616
_symmetry_Int_Tables_number   1
_chemical_formula_structural   Dy4GeBi5Rh7
_chemical_formula_sum   'Dy4 Ge1 Bi5 Rh7'
_cell_volume   356.08308988
_cell_formula_units_Z   1
loop_
 _symmetry_equiv_pos_site_id
 _symmetry_equiv_pos_as_xyz
  1  'x, y, z'
loop_
 _atom_site_type_symbol
 _atom_site_label
 _atom_site_symmetry_multiplicity
 _atom_site_fract_x
 _atom_site_fract_y
 _atom_site_fract_z
 _atom_site_occupancy
  Dy  Dy0  1  0.000000  0.984340  0.530938  1
  Dy  Dy1  1  0.000000  0.530938  0.984340  1
  Dy  Dy2  1  0.453403  0.984340  0.984340  1
  Dy  Dy3  1  0.546597  0.530938  0.530938  1
  Ge  Ge4  1  0.000000  0.644924  0.644924  1
  Bi  Bi5  1  0.689033  0.705218  0.016186  1
  Bi  Bi6  1  0.310967  0.016186  0.327153  1
  Bi  Bi7  1  0.000000  0.304897  0.304897  1
  Bi  Bi8  1  0.310967  0.327153  0.016186  1
  Bi  Bi9  1  0.689033  0.016186  0.705218  1
  Rh  Rh10  1  0.754356  0.258019  0.503663  1
  Rh  Rh11  1  0.754356  0.503663  0.258019  1
  Rh  Rh12  1  0.500000  0.262257  0.762257  1
  Rh  Rh13  1  0.245644  0.503663  0.749307  1
  Rh  Rh14  1  0.245644  0.749307  0.503663  1
  Rh  Rh15  1  0.500000  0.762257  0.262257  1
  Rh  Rh16  1  0.000000  0.915715  0.915715  1
