# generated using pymatgen
data_Zr5Sc3(BCl6)2
_symmetry_space_group_name_H-M   'P 1'
_cell_length_a   3.49657700
_cell_length_b   12.22937661
_cell_length_c   12.59102400
_cell_angle_alpha   90.99489223
_cell_angle_beta   90.00000000
_cell_angle_gamma   90.00000000
_symmetry_Int_Tables_number   1
_chemical_formula_structural   Zr5Sc3(BCl6)2
_chemical_formula_sum   'Zr5 Sc3 B2 Cl12'
_cell_volume   538.32306976
_cell_formula_units_Z   1
loop_
 _symmetry_equiv_pos_site_id
 _symmetry_equiv_pos_as_xyz
  1  'x, y, z'
loop_
 _atom_site_type_symbol
 _atom_site_label
 _atom_site_symmetry_multiplicity
 _atom_site_fract_x
 _atom_site_fract_y
 _atom_site_fract_z
 _atom_site_occupancy
  Zr  Zr0  1  0.000000  0.100886  0.080542  1
  Zr  Zr1  1  0.000000  0.899404  0.918817  1
  Zr  Zr2  1  0.000000  0.601703  0.418652  1
  Zr  Zr3  1  0.000000  0.400619  0.578725  1
  Zr  Zr4  1  0.500000  0.119325  0.859752  1
  Sc  Sc5  1  0.500000  0.879601  0.142089  1
  Sc  Sc6  1  0.500000  0.623281  0.642933  1
  Sc  Sc7  1  0.500000  0.378858  0.355204  1
  B  B8  1  0.500000  0.998091  0.002082  1
  B  B9  1  0.500000  0.501328  0.498982  1
  Cl  Cl10  1  0.500000  0.265220  0.682329  1
  Cl  Cl11  1  0.500000  0.733900  0.316593  1
  Cl  Cl12  1  0.500000  0.763832  0.818253  1
  Cl  Cl13  1  0.500000  0.231884  0.186179  1
  Cl  Cl14  1  0.000000  0.258113  0.938535  1
  Cl  Cl15  1  0.000000  0.746931  0.067158  1
  Cl  Cl16  1  0.000000  0.479218  0.243827  1
  Cl  Cl17  1  0.000000  0.521664  0.753444  1
  Cl  Cl18  1  0.000000  0.980939  0.254730  1
  Cl  Cl19  1  0.000000  0.012846  0.742227  1
  Cl  Cl20  1  0.000000  0.247389  0.429717  1
  Cl  Cl21  1  0.000000  0.754967  0.569226  1
