# generated using pymatgen
data_K6InSe4Br
_symmetry_space_group_name_H-M   'P 1'
_cell_length_a   10.88010000
_cell_length_b   10.88010050
_cell_length_c   7.96914300
_cell_angle_alpha   90.00000000
_cell_angle_beta   90.00000000
_cell_angle_gamma   120.00000455
_symmetry_Int_Tables_number   1
_chemical_formula_structural   K6InSe4Br
_chemical_formula_sum   'K12 In2 Se8 Br2'
_cell_volume   816.97360584
_cell_formula_units_Z   2
loop_
 _symmetry_equiv_pos_site_id
 _symmetry_equiv_pos_as_xyz
  1  'x, y, z'
loop_
 _atom_site_type_symbol
 _atom_site_label
 _atom_site_symmetry_multiplicity
 _atom_site_fract_x
 _atom_site_fract_y
 _atom_site_fract_z
 _atom_site_occupancy
  K  K0  1  0.135333  0.864667  0.512031  1
  K  K1  1  0.729334  0.864667  0.512031  1
  K  K2  1  0.944101  0.472050  0.322279  1
  K  K3  1  0.527950  0.472050  0.322279  1
  K  K4  1  0.864667  0.729334  0.012031  1
  K  K5  1  0.270666  0.135333  0.012031  1
  K  K6  1  0.527950  0.055899  0.322279  1
  K  K7  1  0.135333  0.270666  0.512031  1
  K  K8  1  0.864667  0.135333  0.012031  1
  K  K9  1  0.055899  0.527950  0.822279  1
  K  K10  1  0.472050  0.944101  0.822279  1
  K  K11  1  0.472050  0.527950  0.822279  1
  In  In12  1  0.666667  0.333333  0.707867  1
  In  In13  1  0.333333  0.666667  0.207867  1
  Se  Se14  1  0.402799  0.201400  0.604460  1
  Se  Se15  1  0.597201  0.798600  0.104460  1
  Se  Se16  1  0.666667  0.333333  0.042791  1
  Se  Se17  1  0.798600  0.597201  0.604460  1
  Se  Se18  1  0.201400  0.402799  0.104460  1
  Se  Se19  1  0.333333  0.666667  0.542791  1
  Se  Se20  1  0.201400  0.798600  0.104460  1
  Se  Se21  1  0.798600  0.201400  0.604460  1
  Br  Br22  1  0.000000  0.000000  0.273634  1
  Br  Br23  1  0.000000  0.000000  0.773634  1
