# generated using pymatgen
data_Pr10AsPb6Au
_symmetry_space_group_name_H-M   'P 1'
_cell_length_a   9.55759800
_cell_length_b   9.55759915
_cell_length_c   7.02025800
_cell_angle_alpha   90.00000000
_cell_angle_beta   90.00000000
_cell_angle_gamma   119.99999600
_symmetry_Int_Tables_number   1
_chemical_formula_structural   Pr10AsPb6Au
_chemical_formula_sum   'Pr10 As1 Pb6 Au1'
_cell_volume   555.36856522
_cell_formula_units_Z   1
loop_
 _symmetry_equiv_pos_site_id
 _symmetry_equiv_pos_as_xyz
  1  'x, y, z'
loop_
 _atom_site_type_symbol
 _atom_site_label
 _atom_site_symmetry_multiplicity
 _atom_site_fract_x
 _atom_site_fract_y
 _atom_site_fract_z
 _atom_site_occupancy
  Pr  Pr0  1  0.254785  0.000000  0.738428  1
  Pr  Pr1  1  0.745215  0.000000  0.261572  1
  Pr  Pr2  1  0.000000  0.254785  0.738428  1
  Pr  Pr3  1  0.000000  0.745215  0.261572  1
  Pr  Pr4  1  0.745215  0.745215  0.738428  1
  Pr  Pr5  1  0.254785  0.254785  0.261572  1
  Pr  Pr6  1  0.333333  0.666667  0.500000  1
  Pr  Pr7  1  0.666667  0.333333  0.500000  1
  Pr  Pr8  1  0.666667  0.333333  0.000000  1
  Pr  Pr9  1  0.333333  0.666667  0.000000  1
  As  As10  1  0.000000  0.000000  0.500000  1
  Pb  Pb11  1  0.607862  0.000000  0.749612  1
  Pb  Pb12  1  0.392138  0.000000  0.250388  1
  Pb  Pb13  1  0.000000  0.607862  0.749612  1
  Pb  Pb14  1  0.000000  0.392138  0.250388  1
  Pb  Pb15  1  0.392138  0.392138  0.749612  1
  Pb  Pb16  1  0.607862  0.607862  0.250388  1
  Au  Au17  1  0.000000  0.000000  0.000000  1
