# generated using pymatgen
data_Yb4Al13Au9
_symmetry_space_group_name_H-M   'P 1'
_cell_length_a   11.87918600
_cell_length_b   11.87918699
_cell_length_c   4.12651300
_cell_angle_alpha   90.00000000
_cell_angle_beta   90.00000000
_cell_angle_gamma   119.99999723
_symmetry_Int_Tables_number   1
_chemical_formula_structural   Yb4Al13Au9
_chemical_formula_sum   'Yb4 Al13 Au9'
_cell_volume   504.29801952
_cell_formula_units_Z   1
loop_
 _symmetry_equiv_pos_site_id
 _symmetry_equiv_pos_as_xyz
  1  'x, y, z'
loop_
 _atom_site_type_symbol
 _atom_site_label
 _atom_site_symmetry_multiplicity
 _atom_site_fract_x
 _atom_site_fract_y
 _atom_site_fract_z
 _atom_site_occupancy
  Yb  Yb0  1  0.205971  0.794029  0.500000  1
  Yb  Yb1  1  0.588059  0.794029  0.500000  1
  Yb  Yb2  1  0.205971  0.411941  0.500000  1
  Yb  Yb3  1  0.666667  0.333333  0.000000  1
  Al  Al4  1  0.947895  0.293894  0.000000  1
  Al  Al5  1  0.706106  0.654000  0.000000  1
  Al  Al6  1  0.947895  0.654000  0.000000  1
  Al  Al7  1  0.346000  0.052105  0.000000  1
  Al  Al8  1  0.168567  0.084283  0.500000  1
  Al  Al9  1  0.915717  0.831433  0.500000  1
  Al  Al10  1  0.706106  0.052105  0.000000  1
  Al  Al11  1  0.531476  0.062952  0.500000  1
  Al  Al12  1  0.915717  0.084283  0.500000  1
  Al  Al13  1  0.346000  0.293894  0.000000  1
  Al  Al14  1  0.531476  0.468524  0.500000  1
  Al  Al15  1  0.937048  0.468524  0.500000  1
  Al  Al16  1  0.333333  0.666667  0.000000  1
  Au  Au17  1  0.454458  0.545542  0.000000  1
  Au  Au18  1  0.821524  0.910762  0.000000  1
  Au  Au19  1  0.454458  0.908913  0.000000  1
  Au  Au20  1  0.089238  0.178476  0.000000  1
  Au  Au21  1  0.089238  0.910762  0.000000  1
  Au  Au22  1  0.786494  0.572988  0.500000  1
  Au  Au23  1  0.091087  0.545542  0.000000  1
  Au  Au24  1  0.786494  0.213506  0.500000  1
  Au  Au25  1  0.427012  0.213506  0.500000  1
