# generated using pymatgen
data_Tb6EuFeBr12
_symmetry_space_group_name_H-M   'P 1'
_cell_length_a   9.25089825
_cell_length_b   9.25089795
_cell_length_c   9.25089999
_cell_angle_alpha   106.44754442
_cell_angle_beta   106.44753706
_cell_angle_gamma   106.44754290
_symmetry_Int_Tables_number   1
_chemical_formula_structural   Tb6EuFeBr12
_chemical_formula_sum   'Tb6 Eu1 Fe1 Br12'
_cell_volume   669.00952655
_cell_formula_units_Z   1
loop_
 _symmetry_equiv_pos_site_id
 _symmetry_equiv_pos_as_xyz
  1  'x, y, z'
loop_
 _atom_site_type_symbol
 _atom_site_label
 _atom_site_symmetry_multiplicity
 _atom_site_fract_x
 _atom_site_fract_y
 _atom_site_fract_z
 _atom_site_occupancy
  Tb  Tb0  1  0.096934  0.021297  0.302449  1
  Tb  Tb1  1  0.302449  0.096934  0.021297  1
  Tb  Tb2  1  0.021297  0.302449  0.096934  1
  Tb  Tb3  1  0.903066  0.978703  0.697551  1
  Tb  Tb4  1  0.697551  0.903066  0.978703  1
  Tb  Tb5  1  0.978703  0.697551  0.903066  1
  Eu  Eu6  1  0.500000  0.500000  0.500000  1
  Fe  Fe7  1  0.000000  0.000000  0.000000  1
  Br  Br8  1  0.073157  0.680557  0.220294  1
  Br  Br9  1  0.220294  0.073157  0.680557  1
  Br  Br10  1  0.680557  0.220294  0.073157  1
  Br  Br11  1  0.926843  0.319443  0.779706  1
  Br  Br12  1  0.779706  0.926843  0.319443  1
  Br  Br13  1  0.319443  0.779706  0.926843  1
  Br  Br14  1  0.447913  0.143407  0.369229  1
  Br  Br15  1  0.369229  0.447913  0.143407  1
  Br  Br16  1  0.143407  0.369229  0.447913  1
  Br  Br17  1  0.552087  0.856593  0.630771  1
  Br  Br18  1  0.630771  0.552087  0.856593  1
  Br  Br19  1  0.856593  0.630771  0.552087  1
