# generated using pymatgen
data_La3PrGa7(GeIr2)3
_symmetry_space_group_name_H-M   'P 1'
_cell_length_a   8.66609700
_cell_length_b   8.72558883
_cell_length_c   8.72558828
_cell_angle_alpha   140.41043793
_cell_angle_beta   108.25675626
_cell_angle_gamma   85.27745519
_symmetry_Int_Tables_number   1
_chemical_formula_structural   La3PrGa7(GeIr2)3
_chemical_formula_sum   'La3 Pr1 Ga7 Ge3 Ir6'
_cell_volume   385.27116321
_cell_formula_units_Z   1
loop_
 _symmetry_equiv_pos_site_id
 _symmetry_equiv_pos_as_xyz
  1  'x, y, z'
loop_
 _atom_site_type_symbol
 _atom_site_label
 _atom_site_symmetry_multiplicity
 _atom_site_fract_x
 _atom_site_fract_y
 _atom_site_fract_z
 _atom_site_occupancy
  La  La0  1  0.863184  0.632512  0.230672  1
  La  La1  1  0.136632  0.364722  0.771910  1
  La  La2  1  0.409391  0.137717  0.271673  1
  Pr  Pr3  1  0.593592  0.864651  0.728941  1
  Ga  Ga4  1  0.499129  0.752707  0.251103  1
  Ga  Ga5  1  0.499129  0.248028  0.746423  1
  Ga  Ga6  1  0.215731  0.962897  0.749415  1
  Ga  Ga7  1  0.786379  0.533920  0.747649  1
  Ga  Ga8  1  0.786379  0.038730  0.252459  1
  Ga  Ga9  1  0.215731  0.466316  0.252834  1
  Ga  Ga10  1  0.072616  0.908003  0.164613  1
  Ge  Ge11  1  0.929884  0.092978  0.836907  1
  Ge  Ge12  1  0.736222  0.401710  0.334512  1
  Ge  Ge13  1  0.258524  0.594225  0.664300  1
  Ir  Ir14  1  0.997540  0.749077  0.746224  1
  Ir  Ir15  1  0.997540  0.251316  0.248463  1
  Ir  Ir16  1  0.252015  0.854260  0.397754  1
  Ir  Ir17  1  0.750279  0.144363  0.605916  1
  Ir  Ir18  1  0.455843  0.356359  0.099483  1
  Ir  Ir19  1  0.544260  0.645512  0.898748  1
