# generated using pymatgen
data_U3Be(Ni4P3)2
_symmetry_space_group_name_H-M   'P 1'
_cell_length_a   3.76117800
_cell_length_b   10.46617800
_cell_length_c   12.37769800
_cell_angle_alpha   90.00000000
_cell_angle_beta   90.00000000
_cell_angle_gamma   90.00000000
_symmetry_Int_Tables_number   1
_chemical_formula_structural   U3Be(Ni4P3)2
_chemical_formula_sum   'U6 Be2 Ni16 P12'
_cell_volume   487.25004286
_cell_formula_units_Z   2
loop_
 _symmetry_equiv_pos_site_id
 _symmetry_equiv_pos_as_xyz
  1  'x, y, z'
loop_
 _atom_site_type_symbol
 _atom_site_label
 _atom_site_symmetry_multiplicity
 _atom_site_fract_x
 _atom_site_fract_y
 _atom_site_fract_z
 _atom_site_occupancy
  U  U0  1  0.752152  0.000000  0.477387  1
  U  U1  1  0.252152  0.500000  0.522613  1
  U  U2  1  0.252122  0.685250  0.795265  1
  U  U3  1  0.252122  0.314750  0.795265  1
  U  U4  1  0.752122  0.814750  0.204735  1
  U  U5  1  0.752122  0.185250  0.204735  1
  Be  Be6  1  0.749527  0.000000  0.016002  1
  Be  Be7  1  0.249527  0.500000  0.983998  1
  Ni  Ni8  1  0.249563  0.202550  0.567867  1
  Ni  Ni9  1  0.249563  0.797450  0.567867  1
  Ni  Ni10  1  0.749563  0.297450  0.432133  1
  Ni  Ni11  1  0.749563  0.702550  0.432133  1
  Ni  Ni12  1  0.250191  0.620156  0.292904  1
  Ni  Ni13  1  0.250191  0.379844  0.292904  1
  Ni  Ni14  1  0.750191  0.879844  0.707096  1
  Ni  Ni15  1  0.750191  0.120156  0.707096  1
  Ni  Ni16  1  0.250233  0.168777  0.004622  1
  Ni  Ni17  1  0.250233  0.831223  0.004622  1
  Ni  Ni18  1  0.750233  0.331223  0.995378  1
  Ni  Ni19  1  0.750233  0.668777  0.995378  1
  Ni  Ni20  1  0.250135  0.000000  0.841895  1
  Ni  Ni21  1  0.750135  0.500000  0.158105  1
  Ni  Ni22  1  0.279308  0.000000  0.298553  1
  Ni  Ni23  1  0.779308  0.500000  0.701447  1
  P  P24  1  0.249390  0.187991  0.384411  1
  P  P25  1  0.249390  0.812009  0.384411  1
  P  P26  1  0.749390  0.312009  0.615589  1
  P  P27  1  0.749390  0.687991  0.615589  1
  P  P28  1  0.249057  0.000000  0.120811  1
  P  P29  1  0.749057  0.500000  0.879189  1
  P  P30  1  0.249795  0.652071  0.108692  1
  P  P31  1  0.249795  0.347929  0.108692  1
  P  P32  1  0.749795  0.847929  0.891308  1
  P  P33  1  0.749795  0.152071  0.891308  1
  P  P34  1  0.250036  0.000000  0.654028  1
  P  P35  1  0.750036  0.500000  0.345972  1
