# generated using pymatgen
data_Ho5P12Ir4(Ru3Rh2)3
_symmetry_space_group_name_H-M   'P 1'
_cell_length_a   12.60623800
_cell_length_b   12.60623806
_cell_length_c   3.94761400
_cell_angle_alpha   90.00000000
_cell_angle_beta   90.00000000
_cell_angle_gamma   119.99999460
_symmetry_Int_Tables_number   1
_chemical_formula_structural   Ho5P12Ir4(Ru3Rh2)3
_chemical_formula_sum   'Ho5 P12 Ir4 Ru9 Rh6'
_cell_volume   543.29579312
_cell_formula_units_Z   1
loop_
 _symmetry_equiv_pos_site_id
 _symmetry_equiv_pos_as_xyz
  1  'x, y, z'
loop_
 _atom_site_type_symbol
 _atom_site_label
 _atom_site_symmetry_multiplicity
 _atom_site_fract_x
 _atom_site_fract_y
 _atom_site_fract_z
 _atom_site_occupancy
  Ho  Ho0  1  0.999967  0.185175  0.500000  1
  Ho  Ho1  1  0.814825  0.814790  0.500000  1
  Ho  Ho2  1  0.185210  0.000033  0.500000  1
  Ho  Ho3  1  0.666667  0.333333  0.000000  1
  Ho  Ho4  1  0.333333  0.666667  0.000000  1
  P  P5  1  0.000282  0.817816  0.000000  1
  P  P6  1  0.182184  0.182466  0.000000  1
  P  P7  1  0.817534  0.999718  0.000000  1
  P  P8  1  0.688404  0.171872  0.500000  1
  P  P9  1  0.828128  0.516533  0.500000  1
  P  P10  1  0.483467  0.311596  0.500000  1
  P  P11  1  0.173998  0.690624  0.500000  1
  P  P12  1  0.516625  0.826002  0.500000  1
  P  P13  1  0.309376  0.483375  0.500000  1
  P  P14  1  0.000028  0.369087  0.000000  1
  P  P15  1  0.630913  0.630941  0.000000  1
  P  P16  1  0.369059  0.999972  0.000000  1
  Ir  Ir17  1  0.183271  0.807381  0.000000  1
  Ir  Ir18  1  0.624111  0.816729  0.000000  1
  Ir  Ir19  1  0.192619  0.375889  0.000000  1
  Ir  Ir20  1  0.000000  0.000000  0.000000  1
  Ru  Ru21  1  0.000185  0.714285  0.500000  1
  Ru  Ru22  1  0.285715  0.285899  0.500000  1
  Ru  Ru23  1  0.714101  0.999815  0.500000  1
  Ru  Ru24  1  0.872056  0.360509  0.500000  1
  Ru  Ru25  1  0.639491  0.511547  0.500000  1
  Ru  Ru26  1  0.488453  0.127944  0.500000  1
  Ru  Ru27  1  0.363886  0.873349  0.500000  1
  Ru  Ru28  1  0.509463  0.636114  0.500000  1
  Ru  Ru29  1  0.126651  0.490537  0.500000  1
  Rh  Rh30  1  0.997593  0.549408  0.000000  1
  Rh  Rh31  1  0.450592  0.448185  0.000000  1
  Rh  Rh32  1  0.551815  0.002407  0.000000  1
  Rh  Rh33  1  0.808907  0.182992  0.000000  1
  Rh  Rh34  1  0.817008  0.625915  0.000000  1
  Rh  Rh35  1  0.374085  0.191093  0.000000  1
