# generated using pymatgen
data_Ir3Pd(Pb2O7)2
_symmetry_space_group_name_H-M   'P 1'
_cell_length_a   7.37000267
_cell_length_b   7.39492396
_cell_length_c   7.39492400
_cell_angle_alpha   59.99999982
_cell_angle_beta   59.88807919
_cell_angle_gamma   59.88807439
_symmetry_Int_Tables_number   1
_chemical_formula_structural   Ir3Pd(Pb2O7)2
_chemical_formula_sum   'Ir3 Pd1 Pb4 O14'
_cell_volume   284.50067091
_cell_formula_units_Z   1
loop_
 _symmetry_equiv_pos_site_id
 _symmetry_equiv_pos_as_xyz
  1  'x, y, z'
loop_
 _atom_site_type_symbol
 _atom_site_label
 _atom_site_symmetry_multiplicity
 _atom_site_fract_x
 _atom_site_fract_y
 _atom_site_fract_z
 _atom_site_occupancy
  Ir  Ir0  1  0.625000  0.125000  0.625000  1
  Ir  Ir1  1  0.625000  0.625000  0.125000  1
  Ir  Ir2  1  0.625000  0.625000  0.625000  1
  Pd  Pd3  1  0.125000  0.625000  0.625000  1
  Pb  Pb4  1  0.625000  0.125000  0.125000  1
  Pb  Pb5  1  0.125000  0.625000  0.125000  1
  Pb  Pb6  1  0.125000  0.125000  0.625000  1
  Pb  Pb7  1  0.125000  0.125000  0.125000  1
  O  O8  1  0.700507  0.704762  0.297366  1
  O  O9  1  0.301161  0.288258  0.705290  1
  O  O10  1  0.700507  0.297366  0.704762  1
  O  O11  1  0.301161  0.705290  0.288258  1
  O  O12  1  0.301161  0.705290  0.705290  1
  O  O13  1  0.700507  0.297366  0.297366  1
  O  O14  1  0.549493  0.545238  0.952634  1
  O  O15  1  0.948839  0.961742  0.544710  1
  O  O16  1  0.549493  0.952634  0.545238  1
  O  O17  1  0.948839  0.544710  0.961742  1
  O  O18  1  0.948839  0.544710  0.544710  1
  O  O19  1  0.549493  0.952634  0.952634  1
  O  O20  1  0.247430  0.250857  0.250857  1
  O  O21  1  0.002570  0.999143  0.999143  1
