# generated using pymatgen
data_Ho7Tm3(Si3O)2
_symmetry_space_group_name_H-M   'P 1'
_cell_length_a   8.33506600
_cell_length_b   8.33506436
_cell_length_c   6.14936900
_cell_angle_alpha   90.00000000
_cell_angle_beta   90.00000000
_cell_angle_gamma   120.00000652
_symmetry_Int_Tables_number   1
_chemical_formula_structural   Ho7Tm3(Si3O)2
_chemical_formula_sum   'Ho7 Tm3 Si6 O2'
_cell_volume   369.98077503
_cell_formula_units_Z   1
loop_
 _symmetry_equiv_pos_site_id
 _symmetry_equiv_pos_as_xyz
  1  'x, y, z'
loop_
 _atom_site_type_symbol
 _atom_site_label
 _atom_site_symmetry_multiplicity
 _atom_site_fract_x
 _atom_site_fract_y
 _atom_site_fract_z
 _atom_site_occupancy
  Ho  Ho0  1  0.232296  0.000125  0.250197  1
  Ho  Ho1  1  0.767829  0.000125  0.749803  1
  Ho  Ho2  1  0.999875  0.232171  0.250197  1
  Ho  Ho3  1  0.999875  0.767704  0.749803  1
  Ho  Ho4  1  0.767829  0.767704  0.250197  1
  Ho  Ho5  1  0.232296  0.232171  0.749803  1
  Ho  Ho6  1  0.333333  0.666667  0.000000  1
  Tm  Tm7  1  0.666667  0.333333  0.000000  1
  Tm  Tm8  1  0.666667  0.333333  0.500000  1
  Tm  Tm9  1  0.333333  0.666667  0.500000  1
  Si  Si10  1  0.601657  0.000804  0.250902  1
  Si  Si11  1  0.399147  0.000804  0.749098  1
  Si  Si12  1  0.999196  0.600853  0.250902  1
  Si  Si13  1  0.999196  0.398343  0.749098  1
  Si  Si14  1  0.399147  0.398343  0.250902  1
  Si  Si15  1  0.601657  0.600853  0.749098  1
  O  O16  1  0.000000  0.000000  0.000000  1
  O  O17  1  0.000000  0.000000  0.500000  1
