# generated using pymatgen
data_Ho4Lu2Al24NiOs7
_symmetry_space_group_name_H-M   'P 1'
_cell_length_a   8.75250600
_cell_length_b   8.76945934
_cell_length_c   9.55609533
_cell_angle_alpha   89.97379492
_cell_angle_beta   90.00000000
_cell_angle_gamma   119.93607002
_symmetry_Int_Tables_number   1
_chemical_formula_structural   Ho4Lu2Al24NiOs7
_chemical_formula_sum   'Ho4 Lu2 Al24 Ni1 Os7'
_cell_volume   635.61727660
_cell_formula_units_Z   1
loop_
 _symmetry_equiv_pos_site_id
 _symmetry_equiv_pos_as_xyz
  1  'x, y, z'
loop_
 _atom_site_type_symbol
 _atom_site_label
 _atom_site_symmetry_multiplicity
 _atom_site_fract_x
 _atom_site_fract_y
 _atom_site_fract_z
 _atom_site_occupancy
  Ho  Ho0  1  0.613055  0.806876  0.250611  1
  Ho  Ho1  1  0.386945  0.193124  0.749389  1
  Ho  Ho2  1  0.193823  0.806876  0.250611  1
  Ho  Ho3  1  0.806177  0.193124  0.749389  1
  Lu  Lu4  1  0.196555  0.393109  0.251177  1
  Lu  Lu5  1  0.803445  0.606891  0.748823  1
  Al  Al6  1  0.333423  0.666847  0.018846  1
  Al  Al7  1  0.666577  0.333153  0.981154  1
  Al  Al8  1  0.666488  0.332974  0.519027  1
  Al  Al9  1  0.333512  0.667026  0.480973  1
  Al  Al10  1  0.162500  0.324999  0.575841  1
  Al  Al11  1  0.837500  0.675001  0.424159  1
  Al  Al12  1  0.675217  0.837095  0.576723  1
  Al  Al13  1  0.838198  0.676395  0.076350  1
  Al  Al14  1  0.324783  0.162905  0.423277  1
  Al  Al15  1  0.161802  0.323605  0.923650  1
  Al  Al16  1  0.161879  0.837095  0.576723  1
  Al  Al17  1  0.323199  0.162233  0.077453  1
  Al  Al18  1  0.838121  0.162905  0.423277  1
  Al  Al19  1  0.676801  0.837767  0.922547  1
  Al  Al20  1  0.839034  0.162233  0.077453  1
  Al  Al21  1  0.160966  0.837767  0.922547  1
  Al  Al22  1  0.561757  0.123515  0.250106  1
  Al  Al23  1  0.438243  0.876485  0.749894  1
  Al  Al24  1  0.877405  0.438550  0.250124  1
  Al  Al25  1  0.122595  0.561450  0.749876  1
  Al  Al26  1  0.561144  0.438550  0.250124  1
  Al  Al27  1  0.438856  0.561450  0.749876  1
  Al  Al28  1  0.001987  0.003975  0.243161  1
  Al  Al29  1  0.998013  0.996025  0.756839  1
  Ni  Ni30  1  0.000000  0.000000  0.000000  1
  Os  Os31  1  0.500000  0.000000  0.000000  1
  Os  Os32  1  0.000000  0.500000  0.000000  1
  Os  Os33  1  0.500000  0.000000  0.500000  1
  Os  Os34  1  0.500000  0.500000  0.000000  1
  Os  Os35  1  0.000000  0.500000  0.500000  1
  Os  Os36  1  0.500000  0.500000  0.500000  1
  Os  Os37  1  0.000000  0.000000  0.500000  1
