# generated using pymatgen
data_Ce12Co8Si7P
_symmetry_space_group_name_H-M   'P 1'
_cell_length_a   5.45145979
_cell_length_b   7.82259156
_cell_length_c   12.34658200
_cell_angle_alpha   90.00000000
_cell_angle_beta   90.00000000
_cell_angle_gamma   90.09279007
_symmetry_Int_Tables_number   1
_chemical_formula_structural   Ce12Co8Si7P
_chemical_formula_sum   'Ce12 Co8 Si7 P1'
_cell_volume   526.51366082
_cell_formula_units_Z   1
loop_
 _symmetry_equiv_pos_site_id
 _symmetry_equiv_pos_as_xyz
  1  'x, y, z'
loop_
 _atom_site_type_symbol
 _atom_site_label
 _atom_site_symmetry_multiplicity
 _atom_site_fract_x
 _atom_site_fract_y
 _atom_site_fract_z
 _atom_site_occupancy
  Ce  Ce0  1  0.341698  0.752210  0.750000  1
  Ce  Ce1  1  0.346926  0.751288  0.250000  1
  Ce  Ce2  1  0.651085  0.244811  0.750000  1
  Ce  Ce3  1  0.656296  0.252306  0.250000  1
  Ce  Ce4  1  0.160016  0.400090  0.407090  1
  Ce  Ce5  1  0.156512  0.098626  0.594858  1
  Ce  Ce6  1  0.840015  0.900311  0.094956  1
  Ce  Ce7  1  0.838504  0.601904  0.904878  1
  Ce  Ce8  1  0.838504  0.601904  0.595122  1
  Ce  Ce9  1  0.840015  0.900311  0.405044  1
  Ce  Ce10  1  0.156512  0.098626  0.905142  1
  Ce  Ce11  1  0.160016  0.400090  0.092910  1
  Co  Co12  1  0.385208  0.038644  0.412644  1
  Co  Co13  1  0.381921  0.460506  0.588709  1
  Co  Co14  1  0.617199  0.539753  0.088587  1
  Co  Co15  1  0.621839  0.959201  0.908327  1
  Co  Co16  1  0.385208  0.038644  0.087356  1
  Co  Co17  1  0.381921  0.460506  0.911291  1
  Co  Co18  1  0.617199  0.539753  0.411413  1
  Co  Co19  1  0.621839  0.959201  0.591673  1
  Si  Si20  1  0.648713  0.249943  0.500528  1
  Si  Si21  1  0.351311  0.750578  0.999482  1
  Si  Si22  1  0.351311  0.750578  0.500518  1
  Si  Si23  1  0.648713  0.249943  0.999472  1
  Si  Si24  1  0.841095  0.603226  0.250000  1
  Si  Si25  1  0.158498  0.397693  0.750000  1
  Si  Si26  1  0.163306  0.103296  0.250000  1
  P  P27  1  0.838617  0.896057  0.750000  1
