# generated using pymatgen
data_CrTcF7
_symmetry_space_group_name_H-M   'P 1'
_cell_length_a   7.55319829
_cell_length_b   7.55319809
_cell_length_c   7.55319800
_cell_angle_alpha   122.56978275
_cell_angle_beta   121.10020679
_cell_angle_gamma   86.85501500
_symmetry_Int_Tables_number   1
_chemical_formula_structural   CrTcF7
_chemical_formula_sum   'Cr2 Tc2 F14'
_cell_volume   295.70251049
_cell_formula_units_Z   2
loop_
 _symmetry_equiv_pos_site_id
 _symmetry_equiv_pos_as_xyz
  1  'x, y, z'
loop_
 _atom_site_type_symbol
 _atom_site_label
 _atom_site_symmetry_multiplicity
 _atom_site_fract_x
 _atom_site_fract_y
 _atom_site_fract_z
 _atom_site_occupancy
  Cr  Cr0  1  0.500000  0.500000  0.500000  1
  Cr  Cr1  1  0.000000  0.500000  0.000000  1
  Tc  Tc2  1  0.000000  0.500000  0.500000  1
  Tc  Tc3  1  0.500000  0.000000  0.500000  1
  F  F4  1  0.050029  0.801272  0.751242  1
  F  F5  1  0.562768  0.811486  0.625101  1
  F  F6  1  0.186385  0.811486  0.248718  1
  F  F7  1  0.550029  0.798787  0.248758  1
  F  F8  1  0.250000  0.416817  0.166817  1
  F  F9  1  0.062768  0.437667  0.751282  1
  F  F10  1  0.686385  0.437667  0.374899  1
  F  F11  1  0.313615  0.562333  0.625101  1
  F  F12  1  0.937232  0.562333  0.248718  1
  F  F13  1  0.750000  0.583183  0.833183  1
  F  F14  1  0.449971  0.201213  0.751242  1
  F  F15  1  0.813615  0.188514  0.751282  1
  F  F16  1  0.437232  0.188514  0.374899  1
  F  F17  1  0.949971  0.198728  0.248758  1
