# generated using pymatgen
data_Sn2PBrO4
_symmetry_space_group_name_H-M   'P 1'
_cell_length_a   5.13200197
_cell_length_b   5.13200110
_cell_length_c   14.36351600
_cell_angle_alpha   90.00000000
_cell_angle_beta   90.00000000
_cell_angle_gamma   123.50568742
_symmetry_Int_Tables_number   1
_chemical_formula_structural   Sn2PBrO4
_chemical_formula_sum   'Sn4 P2 Br2 O8'
_cell_volume   315.43680889
_cell_formula_units_Z   2
loop_
 _symmetry_equiv_pos_site_id
 _symmetry_equiv_pos_as_xyz
  1  'x, y, z'
loop_
 _atom_site_type_symbol
 _atom_site_label
 _atom_site_symmetry_multiplicity
 _atom_site_fract_x
 _atom_site_fract_y
 _atom_site_fract_z
 _atom_site_occupancy
  Sn  Sn0  1  0.833871  0.231444  0.880781  1
  Sn  Sn1  1  0.231444  0.833871  0.380781  1
  Sn  Sn2  1  0.231444  0.833871  0.119219  1
  Sn  Sn3  1  0.833871  0.231444  0.619219  1
  P  P4  1  0.187435  0.915733  0.750000  1
  P  P5  1  0.915733  0.187435  0.250000  1
  Br  Br6  1  0.459133  0.459133  0.000000  1
  Br  Br7  1  0.459133  0.459133  0.500000  1
  O  O8  1  0.122023  0.723876  0.839830  1
  O  O9  1  0.186836  0.545622  0.250000  1
  O  O10  1  0.999828  0.073852  0.750000  1
  O  O11  1  0.723876  0.122023  0.160170  1
  O  O12  1  0.122023  0.723876  0.660170  1
  O  O13  1  0.723876  0.122023  0.339830  1
  O  O14  1  0.545622  0.186836  0.750000  1
  O  O15  1  0.073852  0.999828  0.250000  1
