# generated using pymatgen
data_YbDyCd2(Ru2O7)2
_symmetry_space_group_name_H-M   'P 1'
_cell_length_a   7.33603049
_cell_length_b   7.24336574
_cell_length_c   7.24336477
_cell_angle_alpha   59.27525477
_cell_angle_beta   59.45956308
_cell_angle_gamma   59.45956097
_symmetry_Int_Tables_number   1
_chemical_formula_structural   YbDyCd2(Ru2O7)2
_chemical_formula_sum   'Yb1 Dy1 Cd2 Ru4 O14'
_cell_volume   268.43204524
_cell_formula_units_Z   1
loop_
 _symmetry_equiv_pos_site_id
 _symmetry_equiv_pos_as_xyz
  1  'x, y, z'
loop_
 _atom_site_type_symbol
 _atom_site_label
 _atom_site_symmetry_multiplicity
 _atom_site_fract_x
 _atom_site_fract_y
 _atom_site_fract_z
 _atom_site_occupancy
  Yb  Yb0  1  0.125000  0.125000  0.125000  1
  Dy  Dy1  1  0.625000  0.125000  0.125000  1
  Cd  Cd2  1  0.125000  0.625000  0.125000  1
  Cd  Cd3  1  0.125000  0.125000  0.625000  1
  Ru  Ru4  1  0.625000  0.125000  0.625000  1
  Ru  Ru5  1  0.625000  0.625000  0.125000  1
  Ru  Ru6  1  0.125000  0.625000  0.625000  1
  Ru  Ru7  1  0.625000  0.625000  0.625000  1
  O  O8  1  0.693723  0.704126  0.299791  1
  O  O9  1  0.939720  0.559894  0.559894  1
  O  O10  1  0.545610  0.956988  0.956988  1
  O  O11  1  0.942803  0.947729  0.552983  1
  O  O12  1  0.942803  0.552983  0.947729  1
  O  O13  1  0.556277  0.950209  0.545874  1
  O  O14  1  0.307197  0.697017  0.302271  1
  O  O15  1  0.310280  0.690106  0.690106  1
  O  O16  1  0.704390  0.293012  0.293012  1
  O  O17  1  0.693723  0.299791  0.704126  1
  O  O18  1  0.556277  0.545874  0.950209  1
  O  O19  1  0.307197  0.302271  0.697017  1
  O  O20  1  0.249736  0.254899  0.254899  1
  O  O21  1  0.000264  0.995101  0.995101  1
