# generated using pymatgen
data_ZnGaRhO4
_symmetry_space_group_name_H-M   'P 1'
_cell_length_a   6.00075900
_cell_length_b   6.09666600
_cell_length_c   8.54941100
_cell_angle_alpha   90.00001880
_cell_angle_beta   90.00001910
_cell_angle_gamma   90.00000940
_symmetry_Int_Tables_number   1
_chemical_formula_structural   ZnGaRhO4
_chemical_formula_sum   'Zn4 Ga4 Rh4 O16'
_cell_volume   312.77698147
_cell_formula_units_Z   4
loop_
 _symmetry_equiv_pos_site_id
 _symmetry_equiv_pos_as_xyz
  1  'x, y, z'
loop_
 _atom_site_type_symbol
 _atom_site_label
 _atom_site_symmetry_multiplicity
 _atom_site_fract_x
 _atom_site_fract_y
 _atom_site_fract_z
 _atom_site_occupancy
  Zn  Zn0  1  0.000000  0.249999  0.128275  1
  Zn  Zn1  1  0.500000  0.750000  0.628275  1
  Zn  Zn2  1  0.500000  0.250000  0.371725  1
  Zn  Zn3  1  0.000000  0.750000  0.871725  1
  Ga  Ga4  1  0.750000  0.750001  0.250000  1
  Ga  Ga5  1  0.250000  0.249999  0.750000  1
  Ga  Ga6  1  0.250000  0.750001  0.250000  1
  Ga  Ga7  1  0.750000  0.249999  0.750000  1
  Rh  Rh8  1  0.000002  0.500000  0.500001  1
  Rh  Rh9  1  0.500000  0.500001  0.000000  1
  Rh  Rh10  1  0.500000  0.000001  0.000000  1
  Rh  Rh11  1  0.999998  0.000001  0.499999  1
  O  O12  1  0.231734  0.750002  0.484159  1
  O  O13  1  0.731734  0.249998  0.984159  1
  O  O14  1  0.768266  0.750002  0.484159  1
  O  O15  1  0.268266  0.249998  0.984159  1
  O  O16  1  0.268266  0.750002  0.015841  1
  O  O17  1  0.768266  0.249998  0.515841  1
  O  O18  1  0.731734  0.750002  0.015841  1
  O  O19  1  0.231734  0.249998  0.515841  1
  O  O20  1  0.000000  0.973851  0.257229  1
  O  O21  1  0.500000  0.473851  0.757229  1
  O  O22  1  0.000000  0.526149  0.257229  1
  O  O23  1  0.500000  0.026148  0.757229  1
  O  O24  1  0.500000  0.526149  0.242772  1
  O  O25  1  0.000000  0.026149  0.742770  1
  O  O26  1  0.500000  0.973851  0.242771  1
  O  O27  1  0.000000  0.473851  0.742771  1
