# generated using pymatgen
data_Ce2ThSe5
_symmetry_space_group_name_H-M   'P 1'
_cell_length_a   7.92897600
_cell_length_b   8.66209700
_cell_length_c   12.67459900
_cell_angle_alpha   90.00000000
_cell_angle_beta   90.00000000
_cell_angle_gamma   90.00000000
_symmetry_Int_Tables_number   1
_chemical_formula_structural   Ce2ThSe5
_chemical_formula_sum   'Ce8 Th4 Se20'
_cell_volume   870.51122184
_cell_formula_units_Z   4
loop_
 _symmetry_equiv_pos_site_id
 _symmetry_equiv_pos_as_xyz
  1  'x, y, z'
loop_
 _atom_site_type_symbol
 _atom_site_label
 _atom_site_symmetry_multiplicity
 _atom_site_fract_x
 _atom_site_fract_y
 _atom_site_fract_z
 _atom_site_occupancy
  Ce  Ce0  1  0.521234  0.500327  0.321936  1
  Ce  Ce1  1  0.978766  0.999673  0.821936  1
  Ce  Ce2  1  0.478766  0.000327  0.678064  1
  Ce  Ce3  1  0.021234  0.499673  0.178064  1
  Ce  Ce4  1  0.478766  0.499673  0.678064  1
  Ce  Ce5  1  0.021234  0.000327  0.178064  1
  Ce  Ce6  1  0.521234  0.999673  0.321936  1
  Ce  Ce7  1  0.978766  0.500327  0.821936  1
  Th  Th8  1  0.076013  0.750000  0.490760  1
  Th  Th9  1  0.423987  0.750000  0.990760  1
  Th  Th10  1  0.923987  0.250000  0.509240  1
  Th  Th11  1  0.576013  0.250000  0.009240  1
  Se  Se12  1  0.835735  0.956397  0.599107  1
  Se  Se13  1  0.664265  0.543603  0.099107  1
  Se  Se14  1  0.164265  0.456397  0.400893  1
  Se  Se15  1  0.335735  0.043603  0.900893  1
  Se  Se16  1  0.164265  0.043603  0.400893  1
  Se  Se17  1  0.335735  0.456397  0.900893  1
  Se  Se18  1  0.835735  0.543603  0.599107  1
  Se  Se19  1  0.664265  0.956397  0.099107  1
  Se  Se20  1  0.828281  0.750000  0.312322  1
  Se  Se21  1  0.671719  0.750000  0.812322  1
  Se  Se22  1  0.171719  0.250000  0.687678  1
  Se  Se23  1  0.328281  0.250000  0.187678  1
  Se  Se24  1  0.459473  0.750000  0.498549  1
  Se  Se25  1  0.040527  0.750000  0.998549  1
  Se  Se26  1  0.540527  0.250000  0.501451  1
  Se  Se27  1  0.959473  0.250000  0.001451  1
  Se  Se28  1  0.198557  0.750000  0.716566  1
  Se  Se29  1  0.301443  0.750000  0.216566  1
  Se  Se30  1  0.801443  0.250000  0.283434  1
  Se  Se31  1  0.698557  0.250000  0.783434  1
