# generated using pymatgen
data_NaCrPbF6
_symmetry_space_group_name_H-M   'P 1'
_cell_length_a   9.50494100
_cell_length_b   5.71957257
_cell_length_c   9.87292169
_cell_angle_alpha   86.69777081
_cell_angle_beta   90.00000000
_cell_angle_gamma   90.00000000
_symmetry_Int_Tables_number   1
_chemical_formula_structural   NaCrPbF6
_chemical_formula_sum   'Na4 Cr4 Pb4 F24'
_cell_volume   535.84228211
_cell_formula_units_Z   4
loop_
 _symmetry_equiv_pos_site_id
 _symmetry_equiv_pos_as_xyz
  1  'x, y, z'
loop_
 _atom_site_type_symbol
 _atom_site_label
 _atom_site_symmetry_multiplicity
 _atom_site_fract_x
 _atom_site_fract_y
 _atom_site_fract_z
 _atom_site_occupancy
  Na  Na0  1  0.048147  0.276847  0.395128  1
  Na  Na1  1  0.548147  0.723153  0.104872  1
  Na  Na2  1  0.951853  0.723153  0.604872  1
  Na  Na3  1  0.451853  0.276847  0.895128  1
  Cr  Cr4  1  0.918196  0.766578  0.264710  1
  Cr  Cr5  1  0.418196  0.233422  0.235290  1
  Cr  Cr6  1  0.081804  0.233422  0.735290  1
  Cr  Cr7  1  0.581804  0.766578  0.764710  1
  Pb  Pb8  1  0.323861  0.768223  0.492455  1
  Pb  Pb9  1  0.823861  0.231777  0.007545  1
  Pb  Pb10  1  0.676139  0.231777  0.507545  1
  Pb  Pb11  1  0.176139  0.768223  0.992455  1
  F  F12  1  0.027650  0.996489  0.152967  1
  F  F13  1  0.527650  0.003511  0.347033  1
  F  F14  1  0.972350  0.003511  0.847033  1
  F  F15  1  0.472350  0.996489  0.652967  1
  F  F16  1  0.683867  0.528553  0.872595  1
  F  F17  1  0.183867  0.471447  0.627405  1
  F  F18  1  0.316133  0.471447  0.127405  1
  F  F19  1  0.816133  0.528553  0.372595  1
  F  F20  1  0.918135  0.320671  0.621697  1
  F  F21  1  0.418135  0.679329  0.878303  1
  F  F22  1  0.081865  0.679329  0.378303  1
  F  F23  1  0.581865  0.320671  0.121697  1
  F  F24  1  0.526174  0.530613  0.641218  1
  F  F25  1  0.026174  0.469387  0.858782  1
  F  F26  1  0.473826  0.469387  0.358782  1
  F  F27  1  0.973826  0.530613  0.141218  1
  F  F28  1  0.238771  0.139883  0.850593  1
  F  F29  1  0.738771  0.860117  0.649407  1
  F  F30  1  0.761229  0.860117  0.149407  1
  F  F31  1  0.261229  0.139883  0.350593  1
  F  F32  1  0.627582  0.005013  0.892316  1
  F  F33  1  0.127582  0.994987  0.607684  1
  F  F34  1  0.372418  0.994987  0.107684  1
  F  F35  1  0.872418  0.005013  0.392316  1
