# generated using pymatgen
data_K5(CdAg2)2
_symmetry_space_group_name_H-M   'P 1'
_cell_length_a   17.07955348
_cell_length_b   17.07955366
_cell_length_c   5.17123700
_cell_angle_alpha   90.00000000
_cell_angle_beta   90.00000000
_cell_angle_gamma   163.91170034
_symmetry_Int_Tables_number   1
_chemical_formula_structural   K5(CdAg2)2
_chemical_formula_sum   'K5 Cd2 Ag4'
_cell_volume   418.03525406
_cell_formula_units_Z   1
loop_
 _symmetry_equiv_pos_site_id
 _symmetry_equiv_pos_as_xyz
  1  'x, y, z'
loop_
 _atom_site_type_symbol
 _atom_site_label
 _atom_site_symmetry_multiplicity
 _atom_site_fract_x
 _atom_site_fract_y
 _atom_site_fract_z
 _atom_site_occupancy
  K  K0  1  0.005217  0.994783  0.000000  1
  K  K1  1  0.610955  0.389043  0.000000  1
  K  K2  1  0.385536  0.614462  0.000000  1
  K  K3  1  0.805160  0.194838  0.500001  1
  K  K4  1  0.191257  0.808741  0.500001  1
  Cd  Cd5  1  0.728049  0.271949  0.000000  1
  Cd  Cd6  1  0.918342  0.081657  0.500001  1
  Ag  Ag7  1  0.271061  0.728937  0.000000  1
  Ag  Ag8  1  0.542811  0.457187  0.500001  1
  Ag  Ag9  1  0.459804  0.540194  0.500001  1
  Ag  Ag10  1  0.081798  0.918201  0.500001  1
