# generated using pymatgen
data_DyThZn5Sn
_symmetry_space_group_name_H-M   'P 1'
_cell_length_a   8.47546264
_cell_length_b   8.47546305
_cell_length_c   9.06003300
_cell_angle_alpha   90.00000000
_cell_angle_beta   90.00000000
_cell_angle_gamma   149.99177233
_symmetry_Int_Tables_number   1
_chemical_formula_structural   DyThZn5Sn
_chemical_formula_sum   'Dy2 Th2 Zn10 Sn2'
_cell_volume   325.48773893
_cell_formula_units_Z   2
loop_
 _symmetry_equiv_pos_site_id
 _symmetry_equiv_pos_as_xyz
  1  'x, y, z'
loop_
 _atom_site_type_symbol
 _atom_site_label
 _atom_site_symmetry_multiplicity
 _atom_site_fract_x
 _atom_site_fract_y
 _atom_site_fract_z
 _atom_site_occupancy
  Dy  Dy0  1  0.202734  0.797266  0.250000  1
  Dy  Dy1  1  0.797266  0.202734  0.750000  1
  Th  Th2  1  0.000000  0.000000  0.500000  1
  Th  Th3  1  0.000000  0.000000  0.000000  1
  Zn  Zn4  1  0.812582  0.187418  0.391299  1
  Zn  Zn5  1  0.187418  0.812582  0.608701  1
  Zn  Zn6  1  0.812582  0.187418  0.108701  1
  Zn  Zn7  1  0.187418  0.812582  0.891299  1
  Zn  Zn8  1  0.657979  0.342021  0.481092  1
  Zn  Zn9  1  0.342021  0.657979  0.518908  1
  Zn  Zn10  1  0.657979  0.342021  0.018908  1
  Zn  Zn11  1  0.342021  0.657979  0.981092  1
  Zn  Zn12  1  0.393739  0.606261  0.250000  1
  Zn  Zn13  1  0.606261  0.393739  0.750000  1
  Sn  Sn14  1  0.555940  0.444060  0.250000  1
  Sn  Sn15  1  0.444060  0.555940  0.750000  1
