# generated using pymatgen
data_Eu4MnNb2CrO14
_symmetry_space_group_name_H-M   'P 1'
_cell_length_a   7.37979198
_cell_length_b   7.37979101
_cell_length_c   7.32237644
_cell_angle_alpha   60.23130958
_cell_angle_beta   60.23130719
_cell_angle_gamma   60.70594031
_symmetry_Int_Tables_number   1
_chemical_formula_structural   Eu4MnNb2CrO14
_chemical_formula_sum   'Eu4 Mn1 Nb2 Cr1 O14'
_cell_volume   284.45571628
_cell_formula_units_Z   1
loop_
 _symmetry_equiv_pos_site_id
 _symmetry_equiv_pos_as_xyz
  1  'x, y, z'
loop_
 _atom_site_type_symbol
 _atom_site_label
 _atom_site_symmetry_multiplicity
 _atom_site_fract_x
 _atom_site_fract_y
 _atom_site_fract_z
 _atom_site_occupancy
  Eu  Eu0  1  0.125000  0.625000  0.125000  1
  Eu  Eu1  1  0.125000  0.125000  0.625000  1
  Eu  Eu2  1  0.625000  0.125000  0.125000  1
  Eu  Eu3  1  0.125000  0.125000  0.125000  1
  Mn  Mn4  1  0.625000  0.625000  0.125000  1
  Nb  Nb5  1  0.125000  0.625000  0.625000  1
  Nb  Nb6  1  0.625000  0.125000  0.625000  1
  Cr  Cr7  1  0.625000  0.625000  0.625000  1
  O  O8  1  0.296578  0.698474  0.705325  1
  O  O9  1  0.554481  0.940277  0.950424  1
  O  O10  1  0.703410  0.703410  0.291053  1
  O  O11  1  0.297029  0.297029  0.707256  1
  O  O12  1  0.000122  0.000122  0.000888  1
  O  O13  1  0.309723  0.695519  0.299576  1
  O  O14  1  0.698474  0.296578  0.705325  1
  O  O15  1  0.940277  0.554481  0.950424  1
  O  O16  1  0.546590  0.546590  0.958947  1
  O  O17  1  0.952971  0.952971  0.542744  1
  O  O18  1  0.249878  0.249878  0.249112  1
  O  O19  1  0.551526  0.953422  0.544675  1
  O  O20  1  0.695519  0.309723  0.299576  1
  O  O21  1  0.953422  0.551526  0.544675  1
