# generated using pymatgen
data_Er20(CoPt3)3
_symmetry_space_group_name_H-M   'P 1'
_cell_length_a   10.91991500
_cell_length_b   10.91991500
_cell_length_c   6.32372300
_cell_angle_alpha   90.00000000
_cell_angle_beta   90.00000000
_cell_angle_gamma   90.00000000
_symmetry_Int_Tables_number   1
_chemical_formula_structural   Er20(CoPt3)3
_chemical_formula_sum   'Er20 Co3 Pt9'
_cell_volume   754.06946303
_cell_formula_units_Z   1
loop_
 _symmetry_equiv_pos_site_id
 _symmetry_equiv_pos_as_xyz
  1  'x, y, z'
loop_
 _atom_site_type_symbol
 _atom_site_label
 _atom_site_symmetry_multiplicity
 _atom_site_fract_x
 _atom_site_fract_y
 _atom_site_fract_z
 _atom_site_occupancy
  Er  Er0  1  0.295921  0.088370  0.380245  1
  Er  Er1  1  0.293982  0.911996  0.867775  1
  Er  Er2  1  0.706018  0.088004  0.867775  1
  Er  Er3  1  0.704079  0.911630  0.380245  1
  Er  Er4  1  0.588004  0.793982  0.867775  1
  Er  Er5  1  0.588370  0.204079  0.380245  1
  Er  Er6  1  0.411630  0.795921  0.380245  1
  Er  Er7  1  0.411996  0.206018  0.867775  1
  Er  Er8  1  0.200366  0.415004  0.624171  1
  Er  Er9  1  0.200450  0.585946  0.125320  1
  Er  Er10  1  0.799550  0.414054  0.125320  1
  Er  Er11  1  0.799634  0.584996  0.624171  1
  Er  Er12  1  0.914054  0.700450  0.125320  1
  Er  Er13  1  0.915004  0.299634  0.624171  1
  Er  Er14  1  0.084996  0.700366  0.624171  1
  Er  Er15  1  0.085946  0.299550  0.125320  1
  Er  Er16  1  0.000000  0.000000  0.502033  1
  Er  Er17  1  0.000000  0.000000  0.002367  1
  Er  Er18  1  0.500000  0.500000  0.002367  1
  Er  Er19  1  0.500000  0.500000  0.502033  1
  Co  Co20  1  0.500000  0.000000  0.617112  1
  Co  Co21  1  0.000000  0.500000  0.881071  1
  Co  Co22  1  0.000000  0.500000  0.380790  1
  Pt  Pt23  1  0.845554  0.153748  0.250828  1
  Pt  Pt24  1  0.846602  0.845186  0.750844  1
  Pt  Pt25  1  0.153398  0.154814  0.750844  1
  Pt  Pt26  1  0.154446  0.846252  0.250828  1
  Pt  Pt27  1  0.654814  0.346602  0.750844  1
  Pt  Pt28  1  0.653748  0.654446  0.250828  1
  Pt  Pt29  1  0.346252  0.345554  0.250828  1
  Pt  Pt30  1  0.345186  0.653398  0.750844  1
  Pt  Pt31  1  0.500000  0.000000  0.115493  1
