# generated using pymatgen
data_Dy3Ho9(TmRh3)2
_symmetry_space_group_name_H-M   'P 1'
_cell_length_a   9.74682200
_cell_length_b   9.74682160
_cell_length_c   6.16037400
_cell_angle_alpha   90.00000000
_cell_angle_beta   90.00000000
_cell_angle_gamma   120.00000135
_symmetry_Int_Tables_number   1
_chemical_formula_structural   Dy3Ho9(TmRh3)2
_chemical_formula_sum   'Dy3 Ho9 Tm2 Rh6'
_cell_volume   506.83168479
_cell_formula_units_Z   1
loop_
 _symmetry_equiv_pos_site_id
 _symmetry_equiv_pos_as_xyz
  1  'x, y, z'
loop_
 _atom_site_type_symbol
 _atom_site_label
 _atom_site_symmetry_multiplicity
 _atom_site_fract_x
 _atom_site_fract_y
 _atom_site_fract_z
 _atom_site_occupancy
  Dy  Dy0  1  0.123898  0.876102  0.253378  1
  Dy  Dy1  1  0.752206  0.876102  0.253378  1
  Dy  Dy2  1  0.123898  0.247794  0.253378  1
  Ho  Ho3  1  0.876137  0.123863  0.753631  1
  Ho  Ho4  1  0.247724  0.123863  0.753631  1
  Ho  Ho5  1  0.876137  0.752276  0.753631  1
  Ho  Ho6  1  0.540836  0.459164  0.447696  1
  Ho  Ho7  1  0.918329  0.459164  0.447696  1
  Ho  Ho8  1  0.540836  0.081671  0.447696  1
  Ho  Ho9  1  0.459207  0.540793  0.947485  1
  Ho  Ho10  1  0.081586  0.540793  0.947485  1
  Ho  Ho11  1  0.459207  0.918414  0.947485  1
  Tm  Tm12  1  0.333333  0.666667  0.456678  1
  Tm  Tm13  1  0.666667  0.333333  0.956593  1
  Rh  Rh14  1  0.809323  0.190677  0.180475  1
  Rh  Rh15  1  0.381354  0.190677  0.180475  1
  Rh  Rh16  1  0.809323  0.618646  0.180475  1
  Rh  Rh17  1  0.190551  0.809449  0.680757  1
  Rh  Rh18  1  0.618899  0.809449  0.680757  1
  Rh  Rh19  1  0.190551  0.381101  0.680757  1
