# generated using pymatgen
data_HoBe11Cu2
_symmetry_space_group_name_H-M   'P 1'
_cell_length_a   7.34729232
_cell_length_b   7.35902039
_cell_length_c   7.32034295
_cell_angle_alpha   60.06610539
_cell_angle_beta   60.15843089
_cell_angle_gamma   59.70880902
_symmetry_Int_Tables_number   1
_chemical_formula_structural   HoBe11Cu2
_chemical_formula_sum   'Ho2 Be22 Cu4'
_cell_volume   279.72417433
_cell_formula_units_Z   2
loop_
 _symmetry_equiv_pos_site_id
 _symmetry_equiv_pos_as_xyz
  1  'x, y, z'
loop_
 _atom_site_type_symbol
 _atom_site_label
 _atom_site_symmetry_multiplicity
 _atom_site_fract_x
 _atom_site_fract_y
 _atom_site_fract_z
 _atom_site_occupancy
  Ho  Ho0  1  0.249982  0.250018  0.249983  1
  Ho  Ho1  1  0.750018  0.749982  0.750017  1
  Be  Be2  1  0.500000  0.500000  0.500000  1
  Be  Be3  1  0.000000  0.000000  0.000000  1
  Be  Be4  1  0.280250  0.931335  0.719711  1
  Be  Be5  1  0.719750  0.068665  0.280289  1
  Be  Be6  1  0.931301  0.280153  0.068670  1
  Be  Be7  1  0.068699  0.719847  0.931330  1
  Be  Be8  1  0.200599  0.799443  0.560366  1
  Be  Be9  1  0.799401  0.200557  0.439634  1
  Be  Be10  1  0.439611  0.560411  0.799412  1
  Be  Be11  1  0.560389  0.439589  0.200588  1
  Be  Be12  1  0.714267  0.285701  0.933133  1
  Be  Be13  1  0.285733  0.714299  0.066867  1
  Be  Be14  1  0.066899  0.933066  0.285732  1
  Be  Be15  1  0.933101  0.066934  0.714268  1
  Be  Be16  1  0.566483  0.204923  0.795128  1
  Be  Be17  1  0.433517  0.795077  0.204872  1
  Be  Be18  1  0.795136  0.433599  0.566485  1
  Be  Be19  1  0.204864  0.566401  0.433515  1
  Be  Be20  1  0.940305  0.713051  0.287063  1
  Be  Be21  1  0.059695  0.286949  0.712937  1
  Be  Be22  1  0.287046  0.059611  0.940350  1
  Be  Be23  1  0.712954  0.940389  0.059650  1
  Cu  Cu24  1  0.805471  0.557459  0.194544  1
  Cu  Cu25  1  0.194529  0.442541  0.805456  1
  Cu  Cu26  1  0.557509  0.805120  0.442472  1
  Cu  Cu27  1  0.442491  0.194880  0.557528  1
