# generated using pymatgen
data_CeNd3HgRu
_symmetry_space_group_name_H-M   'P 1'
_cell_length_a   9.86160436
_cell_length_b   9.86160408
_cell_length_c   9.86160500
_cell_angle_alpha   60.00000027
_cell_angle_beta   60.00000120
_cell_angle_gamma   59.99999987
_symmetry_Int_Tables_number   1
_chemical_formula_structural   CeNd3HgRu
_chemical_formula_sum   'Ce4 Nd12 Hg4 Ru4'
_cell_volume   678.15309386
_cell_formula_units_Z   4
loop_
 _symmetry_equiv_pos_site_id
 _symmetry_equiv_pos_as_xyz
  1  'x, y, z'
loop_
 _atom_site_type_symbol
 _atom_site_label
 _atom_site_symmetry_multiplicity
 _atom_site_fract_x
 _atom_site_fract_y
 _atom_site_fract_z
 _atom_site_occupancy
  Ce  Ce0  1  0.343833  0.343833  0.968503  1
  Ce  Ce1  1  0.343833  0.968503  0.343833  1
  Ce  Ce2  1  0.968503  0.343833  0.343833  1
  Ce  Ce3  1  0.343833  0.343833  0.343833  1
  Nd  Nd4  1  0.559593  0.559593  0.940407  1
  Nd  Nd5  1  0.940407  0.559593  0.940407  1
  Nd  Nd6  1  0.559593  0.940407  0.940407  1
  Nd  Nd7  1  0.940407  0.940407  0.559593  1
  Nd  Nd8  1  0.559593  0.940407  0.559593  1
  Nd  Nd9  1  0.940407  0.559593  0.559593  1
  Nd  Nd10  1  0.192472  0.192472  0.807528  1
  Nd  Nd11  1  0.807528  0.192472  0.807528  1
  Nd  Nd12  1  0.192471  0.807529  0.807528  1
  Nd  Nd13  1  0.807528  0.807529  0.192472  1
  Nd  Nd14  1  0.192471  0.807528  0.192471  1
  Nd  Nd15  1  0.807528  0.192472  0.192472  1
  Hg  Hg16  1  0.582722  0.582722  0.251835  1
  Hg  Hg17  1  0.582722  0.251835  0.582722  1
  Hg  Hg18  1  0.251835  0.582722  0.582722  1
  Hg  Hg19  1  0.582722  0.582722  0.582722  1
  Ru  Ru20  1  0.146104  0.146104  0.561689  1
  Ru  Ru21  1  0.146104  0.561689  0.146104  1
  Ru  Ru22  1  0.561689  0.146104  0.146104  1
  Ru  Ru23  1  0.146104  0.146104  0.146104  1
