# generated using pymatgen
data_SmEr(Al3Pd)6
_symmetry_space_group_name_H-M   'P 1'
_cell_length_a   10.42699318
_cell_length_b   10.42699321
_cell_length_c   10.42699400
_cell_angle_alpha   42.21982958
_cell_angle_beta   42.21983758
_cell_angle_gamma   42.21982734
_symmetry_Int_Tables_number   1
_chemical_formula_structural   SmEr(Al3Pd)6
_chemical_formula_sum   'Sm1 Er1 Al18 Pd6'
_cell_volume   463.25493851
_cell_formula_units_Z   1
loop_
 _symmetry_equiv_pos_site_id
 _symmetry_equiv_pos_as_xyz
  1  'x, y, z'
loop_
 _atom_site_type_symbol
 _atom_site_label
 _atom_site_symmetry_multiplicity
 _atom_site_fract_x
 _atom_site_fract_y
 _atom_site_fract_z
 _atom_site_occupancy
  Sm  Sm0  1  0.166857  0.166857  0.166857  1
  Er  Er1  1  0.833141  0.833141  0.833141  1
  Al  Al2  1  0.106824  0.435751  0.762718  1
  Al  Al3  1  0.435751  0.762718  0.106824  1
  Al  Al4  1  0.565842  0.892372  0.236500  1
  Al  Al5  1  0.949921  0.949921  0.949921  1
  Al  Al6  1  0.049924  0.049924  0.049924  1
  Al  Al7  1  0.295096  0.703177  0.501724  1
  Al  Al8  1  0.892372  0.236500  0.565842  1
  Al  Al9  1  0.384717  0.384717  0.384717  1
  Al  Al10  1  0.501724  0.295096  0.703177  1
  Al  Al11  1  0.236500  0.565842  0.892372  1
  Al  Al12  1  0.716383  0.716383  0.716383  1
  Al  Al13  1  0.615292  0.615292  0.615292  1
  Al  Al14  1  0.334537  0.999883  0.665580  1
  Al  Al15  1  0.703177  0.501724  0.295096  1
  Al  Al16  1  0.665580  0.334537  0.999883  1
  Al  Al17  1  0.283748  0.283748  0.283748  1
  Al  Al18  1  0.999883  0.665580  0.334537  1
  Al  Al19  1  0.762718  0.106824  0.435751  1
  Pd  Pd20  1  0.419086  0.077155  0.759635  1
  Pd  Pd21  1  0.581855  0.239952  0.922328  1
  Pd  Pd22  1  0.077155  0.759635  0.419086  1
  Pd  Pd23  1  0.759635  0.419086  0.077155  1
  Pd  Pd24  1  0.922328  0.581855  0.239952  1
  Pd  Pd25  1  0.239952  0.922328  0.581855  1
