# generated using pymatgen
data_Tm5Co19Si11As
_symmetry_space_group_name_H-M   'P 1'
_cell_length_a   12.14285508
_cell_length_b   12.17870278
_cell_length_c   3.71870500
_cell_angle_alpha   90.00000000
_cell_angle_beta   90.00000000
_cell_angle_gamma   120.09770509
_symmetry_Int_Tables_number   1
_chemical_formula_structural   Tm5Co19Si11As
_chemical_formula_sum   'Tm5 Co19 Si11 As1'
_cell_volume   475.79051447
_cell_formula_units_Z   1
loop_
 _symmetry_equiv_pos_site_id
 _symmetry_equiv_pos_as_xyz
  1  'x, y, z'
loop_
 _atom_site_type_symbol
 _atom_site_label
 _atom_site_symmetry_multiplicity
 _atom_site_fract_x
 _atom_site_fract_y
 _atom_site_fract_z
 _atom_site_occupancy
  Tm  Tm0  1  0.666124  0.333966  0.000000  1
  Tm  Tm1  1  0.333876  0.667844  0.000000  1
  Tm  Tm2  1  0.190143  0.186200  0.500000  1
  Tm  Tm3  1  0.809857  0.996057  0.500000  1
  Tm  Tm4  1  0.000000  0.813695  0.500000  1
  Co  Co5  1  0.818810  0.198595  0.000000  1
  Co  Co6  1  0.801963  0.621206  0.000000  1
  Co  Co7  1  0.377623  0.180317  0.000000  1
  Co  Co8  1  0.198037  0.819244  0.000000  1
  Co  Co9  1  0.622377  0.802694  0.000000  1
  Co  Co10  1  0.181190  0.379786  0.000000  1
  Co  Co11  1  0.558708  0.559229  0.000000  1
  Co  Co12  1  0.441292  0.000521  0.000000  1
  Co  Co13  1  0.000000  0.442867  0.000000  1
  Co  Co14  1  0.643210  0.123468  0.500000  1
  Co  Co15  1  0.876684  0.520875  0.500000  1
  Co  Co16  1  0.479650  0.356408  0.500000  1
  Co  Co17  1  0.123316  0.644191  0.500000  1
  Co  Co18  1  0.520350  0.876757  0.500000  1
  Co  Co19  1  0.356790  0.480259  0.500000  1
  Co  Co20  1  0.717462  0.717247  0.500000  1
  Co  Co21  1  0.282538  0.999784  0.500000  1
  Co  Co22  1  0.000000  0.284842  0.500000  1
  Co  Co23  1  0.000000  0.995333  0.000000  1
  Si  Si24  1  0.371638  0.371798  0.000000  1
  Si  Si25  1  0.628362  0.000160  0.000000  1
  Si  Si26  1  0.000000  0.629550  0.000000  1
  Si  Si27  1  0.837604  0.318839  0.500000  1
  Si  Si28  1  0.682360  0.521212  0.500000  1
  Si  Si29  1  0.478962  0.161713  0.500000  1
  Si  Si30  1  0.317640  0.838853  0.500000  1
  Si  Si31  1  0.521038  0.682752  0.500000  1
  Si  Si32  1  0.162396  0.481236  0.500000  1
  Si  Si33  1  0.815759  0.814394  0.000000  1
  Si  Si34  1  0.184241  0.998635  0.000000  1
  As  As35  1  0.000000  0.179471  0.000000  1
