# generated using pymatgen
data_Be7Al2Re2Si
_symmetry_space_group_name_H-M   'P 1'
_cell_length_a   4.37504100
_cell_length_b   4.37504069
_cell_length_c   7.24576800
_cell_angle_alpha   90.00000000
_cell_angle_beta   90.00000000
_cell_angle_gamma   120.00000992
_symmetry_Int_Tables_number   1
_chemical_formula_structural   Be7Al2Re2Si
_chemical_formula_sum   'Be7 Al2 Re2 Si1'
_cell_volume   120.11001918
_cell_formula_units_Z   1
loop_
 _symmetry_equiv_pos_site_id
 _symmetry_equiv_pos_as_xyz
  1  'x, y, z'
loop_
 _atom_site_type_symbol
 _atom_site_label
 _atom_site_symmetry_multiplicity
 _atom_site_fract_x
 _atom_site_fract_y
 _atom_site_fract_z
 _atom_site_occupancy
  Be  Be0  1  0.000000  0.000000  0.487996  1
  Be  Be1  1  0.829206  0.658412  0.258696  1
  Be  Be2  1  0.171838  0.828162  0.738587  1
  Be  Be3  1  0.656325  0.828162  0.738587  1
  Be  Be4  1  0.341588  0.170794  0.258696  1
  Be  Be5  1  0.829206  0.170794  0.258696  1
  Be  Be6  1  0.171838  0.343675  0.738587  1
  Al  Al7  1  0.333333  0.666667  0.077851  1
  Al  Al8  1  0.666667  0.333333  0.565864  1
  Re  Re9  1  0.666667  0.333333  0.945092  1
  Re  Re10  1  0.333333  0.666667  0.442184  1
  Si  Si11  1  0.000000  0.000000  0.989165  1
