# generated using pymatgen
data_Ba3CeEr3O9
_symmetry_space_group_name_H-M   'P 1'
_cell_length_a   9.25578421
_cell_length_b   9.25578382
_cell_length_c   9.25578337
_cell_angle_alpha   38.85384245
_cell_angle_beta   38.85384421
_cell_angle_gamma   38.85384548
_symmetry_Int_Tables_number   1
_chemical_formula_structural   Ba3CeEr3O9
_chemical_formula_sum   'Ba3 Ce1 Er3 O9'
_cell_volume   280.56462850
_cell_formula_units_Z   1
loop_
 _symmetry_equiv_pos_site_id
 _symmetry_equiv_pos_as_xyz
  1  'x, y, z'
loop_
 _atom_site_type_symbol
 _atom_site_label
 _atom_site_symmetry_multiplicity
 _atom_site_fract_x
 _atom_site_fract_y
 _atom_site_fract_z
 _atom_site_occupancy
  Ba  Ba0  1  0.999302  0.999302  0.999302  1
  Ba  Ba1  1  0.833552  0.833552  0.833552  1
  Ba  Ba2  1  0.405111  0.405111  0.405111  1
  Ce  Ce3  1  0.573262  0.573262  0.573262  1
  Er  Er4  1  0.134331  0.134331  0.134331  1
  Er  Er5  1  0.260388  0.260388  0.260388  1
  Er  Er6  1  0.700457  0.700457  0.700457  1
  O  O7  1  0.437919  0.970881  0.521080  1
  O  O8  1  0.970881  0.521080  0.437919  1
  O  O9  1  0.521080  0.437919  0.970881  1
  O  O10  1  0.282874  0.887034  0.416462  1
  O  O11  1  0.887034  0.416462  0.282874  1
  O  O12  1  0.416462  0.282874  0.887034  1
  O  O13  1  0.415176  0.858982  0.976988  1
  O  O14  1  0.976988  0.415176  0.858982  1
  O  O15  1  0.858982  0.976988  0.415176  1
