# generated using pymatgen
data_TaAg6AsS8
_symmetry_space_group_name_H-M   'P 1'
_cell_length_a   6.75486830
_cell_length_b   7.04754049
_cell_length_c   7.97582300
_cell_angle_alpha   90.00000000
_cell_angle_beta   90.00000000
_cell_angle_gamma   90.11368244
_symmetry_Int_Tables_number   1
_chemical_formula_structural   TaAg6AsS8
_chemical_formula_sum   'Ta1 Ag6 As1 S8'
_cell_volume   379.68996448
_cell_formula_units_Z   1
loop_
 _symmetry_equiv_pos_site_id
 _symmetry_equiv_pos_as_xyz
  1  'x, y, z'
loop_
 _atom_site_type_symbol
 _atom_site_label
 _atom_site_symmetry_multiplicity
 _atom_site_fract_x
 _atom_site_fract_y
 _atom_site_fract_z
 _atom_site_occupancy
  Ta  Ta0  1  0.498306  0.817650  0.500000  1
  Ag  Ag1  1  0.988451  0.154230  0.500000  1
  Ag  Ag2  1  0.013732  0.682513  0.235890  1
  Ag  Ag3  1  0.515245  0.315708  0.256704  1
  Ag  Ag4  1  0.490900  0.854141  0.000000  1
  Ag  Ag5  1  0.515245  0.315708  0.743296  1
  Ag  Ag6  1  0.013732  0.682513  0.764110  1
  As  As7  1  0.996784  0.180215  0.000000  1
  S  S8  1  0.388506  0.662186  0.737078  1
  S  S9  1  0.889037  0.333853  0.770913  1
  S  S10  1  0.889037  0.333853  0.229087  1
  S  S11  1  0.388506  0.662186  0.262922  1
  S  S12  1  0.325029  0.180683  0.000000  1
  S  S13  1  0.872280  0.886635  0.000000  1
  S  S14  1  0.837955  0.817016  0.500000  1
  S  S15  1  0.373058  0.120909  0.500000  1
