# generated using pymatgen
data_Y12Er4Tl3CdPd3Pt
_symmetry_space_group_name_H-M   'P 1'
_cell_length_a   9.70381581
_cell_length_b   9.70278150
_cell_length_c   9.70278200
_cell_angle_alpha   60.00000512
_cell_angle_beta   60.00353096
_cell_angle_gamma   60.00352842
_symmetry_Int_Tables_number   1
_chemical_formula_structural   Y12Er4Tl3CdPd3Pt
_chemical_formula_sum   'Y12 Er4 Tl3 Cd1 Pd3 Pt1'
_cell_volume   646.01597446
_cell_formula_units_Z   1
loop_
 _symmetry_equiv_pos_site_id
 _symmetry_equiv_pos_as_xyz
  1  'x, y, z'
loop_
 _atom_site_type_symbol
 _atom_site_label
 _atom_site_symmetry_multiplicity
 _atom_site_fract_x
 _atom_site_fract_y
 _atom_site_fract_z
 _atom_site_occupancy
  Y  Y0  1  0.808953  0.189546  0.189546  1
  Y  Y1  1  0.188812  0.810932  0.810932  1
  Y  Y2  1  0.188812  0.810932  0.189324  1
  Y  Y3  1  0.808953  0.189546  0.811957  1
  Y  Y4  1  0.188812  0.189324  0.810932  1
  Y  Y5  1  0.808953  0.811957  0.189546  1
  Y  Y6  1  0.937876  0.563875  0.563875  1
  Y  Y7  1  0.563544  0.937271  0.937271  1
  Y  Y8  1  0.563544  0.937271  0.561915  1
  Y  Y9  1  0.937876  0.563875  0.934374  1
  Y  Y10  1  0.563544  0.561915  0.937271  1
  Y  Y11  1  0.937876  0.934374  0.563875  1
  Er  Er12  1  0.353318  0.351328  0.351328  1
  Er  Er13  1  0.353318  0.351328  0.944023  1
  Er  Er14  1  0.353318  0.944023  0.351328  1
  Er  Er15  1  0.942883  0.352372  0.352372  1
  Tl  Tl16  1  0.583081  0.585526  0.585526  1
  Tl  Tl17  1  0.583081  0.585526  0.245867  1
  Tl  Tl18  1  0.583081  0.245867  0.585526  1
  Cd  Cd19  1  0.250486  0.583171  0.583171  1
  Pd  Pd20  1  0.144975  0.145469  0.145469  1
  Pd  Pd21  1  0.144975  0.145469  0.564086  1
  Pd  Pd22  1  0.144975  0.564086  0.145469  1
  Pt  Pt23  1  0.564955  0.145015  0.145015  1
