# generated using pymatgen
data_NaCr2BiO8
_symmetry_space_group_name_H-M   'P 1'
_cell_length_a   6.09845390
_cell_length_b   6.09845383
_cell_length_c   6.09845426
_cell_angle_alpha   105.64498424
_cell_angle_beta   105.64498294
_cell_angle_gamma   117.42893445
_symmetry_Int_Tables_number   1
_chemical_formula_structural   NaCr2BiO8
_chemical_formula_sum   'Na1 Cr2 Bi1 O8'
_cell_volume   172.03863446
_cell_formula_units_Z   1
loop_
 _symmetry_equiv_pos_site_id
 _symmetry_equiv_pos_as_xyz
  1  'x, y, z'
loop_
 _atom_site_type_symbol
 _atom_site_label
 _atom_site_symmetry_multiplicity
 _atom_site_fract_x
 _atom_site_fract_y
 _atom_site_fract_z
 _atom_site_occupancy
  Na  Na0  1  0.000000  0.000000  0.000000  1
  Cr  Cr1  1  0.750000  0.250000  0.500000  1
  Cr  Cr2  1  0.500000  0.500000  0.000000  1
  Bi  Bi3  1  0.250000  0.750000  0.500000  1
  O  O4  1  0.915446  0.592190  0.676743  1
  O  O5  1  0.407810  0.084554  0.323257  1
  O  O6  1  0.915446  0.238703  0.323257  1
  O  O7  1  0.761297  0.084554  0.676743  1
  O  O8  1  0.474024  0.656125  0.817899  1
  O  O9  1  0.343875  0.525976  0.182101  1
  O  O10  1  0.838227  0.656125  0.182101  1
  O  O11  1  0.343875  0.161773  0.817899  1
