# generated using pymatgen
data_TbIn(NiPt)2
_symmetry_space_group_name_H-M   'P 1'
_cell_length_a   5.45365768
_cell_length_b   5.18952784
_cell_length_c   5.18952814
_cell_angle_alpha   58.64120418
_cell_angle_beta   58.30156808
_cell_angle_gamma   58.30156778
_symmetry_Int_Tables_number   1
_chemical_formula_structural   TbIn(NiPt)2
_chemical_formula_sum   'Tb1 In1 Ni2 Pt2'
_cell_volume   100.08488796
_cell_formula_units_Z   1
loop_
 _symmetry_equiv_pos_site_id
 _symmetry_equiv_pos_as_xyz
  1  'x, y, z'
loop_
 _atom_site_type_symbol
 _atom_site_label
 _atom_site_symmetry_multiplicity
 _atom_site_fract_x
 _atom_site_fract_y
 _atom_site_fract_z
 _atom_site_occupancy
  Tb  Tb0  1  0.997955  0.002045  0.002045  1
  In  In1  1  0.260042  0.239958  0.239958  1
  Ni  Ni2  1  0.621853  0.627951  0.128344  1
  Ni  Ni3  1  0.621853  0.128344  0.627951  1
  Pt  Pt4  1  0.125019  0.625851  0.625851  1
  Pt  Pt5  1  0.623279  0.625851  0.625851  1
