# generated using pymatgen
data_Tb3YbAlOs7
_symmetry_space_group_name_H-M   'P 1'
_cell_length_a   5.36185300
_cell_length_b   5.36185283
_cell_length_c   8.70298800
_cell_angle_alpha   90.00000000
_cell_angle_beta   90.00000000
_cell_angle_gamma   119.99999489
_symmetry_Int_Tables_number   1
_chemical_formula_structural   Tb3YbAlOs7
_chemical_formula_sum   'Tb3 Yb1 Al1 Os7'
_cell_volume   216.68499151
_cell_formula_units_Z   1
loop_
 _symmetry_equiv_pos_site_id
 _symmetry_equiv_pos_as_xyz
  1  'x, y, z'
loop_
 _atom_site_type_symbol
 _atom_site_label
 _atom_site_symmetry_multiplicity
 _atom_site_fract_x
 _atom_site_fract_y
 _atom_site_fract_z
 _atom_site_occupancy
  Tb  Tb0  1  0.333333  0.666667  0.425189  1
  Tb  Tb1  1  0.666667  0.333333  0.570391  1
  Tb  Tb2  1  0.666667  0.333333  0.938508  1
  Yb  Yb3  1  0.333333  0.666667  0.064131  1
  Al  Al4  1  0.000000  0.000000  0.501767  1
  Os  Os5  1  0.000000  0.000000  0.999165  1
  Os  Os6  1  0.829371  0.170629  0.250782  1
  Os  Os7  1  0.829371  0.658741  0.250782  1
  Os  Os8  1  0.341259  0.170629  0.250782  1
  Os  Os9  1  0.171924  0.828076  0.749501  1
  Os  Os10  1  0.171924  0.343847  0.749501  1
  Os  Os11  1  0.656153  0.828076  0.749501  1
