# generated using pymatgen
data_Dy2Ni16PH3
_symmetry_space_group_name_H-M   'P 1'
_cell_length_a   6.23857424
_cell_length_b   6.23857646
_cell_length_c   6.25222600
_cell_angle_alpha   83.91020183
_cell_angle_beta   83.91019965
_cell_angle_gamma   82.91322526
_symmetry_Int_Tables_number   1
_chemical_formula_structural   Dy2Ni16PH3
_chemical_formula_sum   'Dy2 Ni16 P1 H3'
_cell_volume   239.04508523
_cell_formula_units_Z   1
loop_
 _symmetry_equiv_pos_site_id
 _symmetry_equiv_pos_as_xyz
  1  'x, y, z'
loop_
 _atom_site_type_symbol
 _atom_site_label
 _atom_site_symmetry_multiplicity
 _atom_site_fract_x
 _atom_site_fract_y
 _atom_site_fract_z
 _atom_site_occupancy
  Dy  Dy0  1  0.654634  0.654634  0.662070  1
  Dy  Dy1  1  0.345366  0.345366  0.337930  1
  Ni  Ni2  1  0.000000  0.500000  0.000000  1
  Ni  Ni3  1  0.500000  0.000000  0.000000  1
  Ni  Ni4  1  0.289270  0.710730  0.000000  1
  Ni  Ni5  1  0.713453  0.001225  0.293507  1
  Ni  Ni6  1  0.998775  0.286547  0.706493  1
  Ni  Ni7  1  0.286547  0.998775  0.706493  1
  Ni  Ni8  1  0.001225  0.713453  0.293507  1
  Ni  Ni9  1  0.710730  0.289270  0.000000  1
  Ni  Ni10  1  0.346870  0.346870  0.846274  1
  Ni  Ni11  1  0.343182  0.858589  0.345701  1
  Ni  Ni12  1  0.858589  0.343182  0.345701  1
  Ni  Ni13  1  0.653130  0.653130  0.153726  1
  Ni  Ni14  1  0.656818  0.141411  0.654299  1
  Ni  Ni15  1  0.141411  0.656818  0.654299  1
  Ni  Ni16  1  0.898390  0.898390  0.901543  1
  Ni  Ni17  1  0.101610  0.101610  0.098457  1
  P  P18  1  0.000000  0.000000  0.500000  1
  H  H19  1  0.500000  0.500000  0.000000  1
  H  H20  1  0.500000  0.000000  0.500000  1
  H  H21  1  0.000000  0.500000  0.500000  1
