# generated using pymatgen
data_Li2Tb2DyAgSn3
_symmetry_space_group_name_H-M   'P 1'
_cell_length_a   7.33550000
_cell_length_b   7.33257792
_cell_length_c   4.60042100
_cell_angle_alpha   90.00000000
_cell_angle_beta   90.00000000
_cell_angle_gamma   120.01318336
_symmetry_Int_Tables_number   1
_chemical_formula_structural   Li2Tb2DyAgSn3
_chemical_formula_sum   'Li2 Tb2 Dy1 Ag1 Sn3'
_cell_volume   214.26779894
_cell_formula_units_Z   1
loop_
 _symmetry_equiv_pos_site_id
 _symmetry_equiv_pos_as_xyz
  1  'x, y, z'
loop_
 _atom_site_type_symbol
 _atom_site_label
 _atom_site_symmetry_multiplicity
 _atom_site_fract_x
 _atom_site_fract_y
 _atom_site_fract_z
 _atom_site_occupancy
  Li  Li0  1  0.004332  0.232667  0.500000  1
  Li  Li1  1  0.771665  0.767333  0.500000  1
  Tb  Tb2  1  0.001819  0.567885  0.000000  1
  Tb  Tb3  1  0.433934  0.432115  0.000000  1
  Dy  Dy4  1  0.554621  0.000000  0.000000  1
  Ag  Ag5  1  0.236434  0.000000  0.500000  1
  Sn  Sn6  1  0.990558  0.000000  0.000000  1
  Sn  Sn7  1  0.671943  0.337247  0.500000  1
  Sn  Sn8  1  0.334695  0.662753  0.500000  1
