# generated using pymatgen
data_Tb3Lu(Hf4Pb5)2
_symmetry_space_group_name_H-M   'P 1'
_cell_length_a   6.06416359
_cell_length_b   9.17771524
_cell_length_c   11.31604565
_cell_angle_alpha   113.98989198
_cell_angle_beta   105.54204009
_cell_angle_gamma   89.99999906
_symmetry_Int_Tables_number   1
_chemical_formula_structural   Tb3Lu(Hf4Pb5)2
_chemical_formula_sum   'Tb3 Lu1 Hf8 Pb10'
_cell_volume   550.09090202
_cell_formula_units_Z   1
loop_
 _symmetry_equiv_pos_site_id
 _symmetry_equiv_pos_as_xyz
  1  'x, y, z'
loop_
 _atom_site_type_symbol
 _atom_site_label
 _atom_site_symmetry_multiplicity
 _atom_site_fract_x
 _atom_site_fract_y
 _atom_site_fract_z
 _atom_site_occupancy
  Tb  Tb0  1  0.143799  0.254364  0.287598  1
  Tb  Tb1  1  0.856389  0.746474  0.712778  1
  Tb  Tb2  1  0.643733  0.033139  0.287467  1
  Lu  Lu3  1  0.356125  0.966385  0.712251  1
  Hf  Hf4  1  0.562258  0.312698  0.624572  1
  Hf  Hf5  1  0.437835  0.687870  0.375617  1
  Hf  Hf6  1  0.937781  0.687870  0.375617  1
  Hf  Hf7  1  0.062315  0.312698  0.624572  1
  Hf  Hf8  1  0.434576  0.671900  0.869152  1
  Hf  Hf9  1  0.565722  0.328453  0.131443  1
  Hf  Hf10  1  0.934402  0.196144  0.868805  1
  Hf  Hf11  1  0.065458  0.803218  0.130916  1
  Pb  Pb12  1  0.289178  0.591216  0.578356  1
  Pb  Pb13  1  0.711305  0.411422  0.422610  1
  Pb  Pb14  1  0.788776  0.988470  0.577552  1
  Pb  Pb15  1  0.211767  0.011025  0.423533  1
  Pb  Pb16  1  0.249982  0.999988  0.999207  1
  Pb  Pb17  1  0.749225  0.999988  0.999207  1
  Pb  Pb18  1  0.066691  0.462883  0.133382  1
  Pb  Pb19  1  0.933276  0.537125  0.866553  1
  Pb  Pb20  1  0.566670  0.670328  0.133341  1
  Pb  Pb21  1  0.432736  0.326341  0.865472  1
