# generated using pymatgen
data_Nd2Cr(Co3As2)3
_symmetry_space_group_name_H-M   'P 1'
_cell_length_a   3.84605500
_cell_length_b   10.81434800
_cell_length_c   12.34177600
_cell_angle_alpha   90.00000000
_cell_angle_beta   90.00000000
_cell_angle_gamma   90.00000000
_symmetry_Int_Tables_number   1
_chemical_formula_structural   Nd2Cr(Co3As2)3
_chemical_formula_sum   'Nd4 Cr2 Co18 As12'
_cell_volume   513.32627103
_cell_formula_units_Z   2
loop_
 _symmetry_equiv_pos_site_id
 _symmetry_equiv_pos_as_xyz
  1  'x, y, z'
loop_
 _atom_site_type_symbol
 _atom_site_label
 _atom_site_symmetry_multiplicity
 _atom_site_fract_x
 _atom_site_fract_y
 _atom_site_fract_z
 _atom_site_occupancy
  Nd  Nd0  1  0.250000  0.579309  0.700936  1
  Nd  Nd1  1  0.250000  0.920691  0.200936  1
  Nd  Nd2  1  0.750000  0.418726  0.296665  1
  Nd  Nd3  1  0.750000  0.081274  0.796665  1
  Cr  Cr4  1  0.250000  0.700990  0.991833  1
  Cr  Cr5  1  0.250000  0.799010  0.491833  1
  Co  Co6  1  0.750000  0.296086  0.009469  1
  Co  Co7  1  0.750000  0.203914  0.509469  1
  Co  Co8  1  0.250000  0.404754  0.489594  1
  Co  Co9  1  0.250000  0.095246  0.989594  1
  Co  Co10  1  0.750000  0.595345  0.511136  1
  Co  Co11  1  0.750000  0.904655  0.011136  1
  Co  Co12  1  0.250000  0.217423  0.175855  1
  Co  Co13  1  0.250000  0.282577  0.675855  1
  Co  Co14  1  0.750000  0.782753  0.825557  1
  Co  Co15  1  0.750000  0.717247  0.325557  1
  Co  Co16  1  0.250000  0.884299  0.697104  1
  Co  Co17  1  0.250000  0.615701  0.197104  1
  Co  Co18  1  0.750000  0.118093  0.303470  1
  Co  Co19  1  0.750000  0.381907  0.803470  1
  Co  Co20  1  0.250000  0.466774  0.932867  1
  Co  Co21  1  0.250000  0.033226  0.432867  1
  Co  Co22  1  0.750000  0.531893  0.065889  1
  Co  Co23  1  0.750000  0.968107  0.565889  1
  As  As24  1  0.250000  0.416379  0.112140  1
  As  As25  1  0.250000  0.083621  0.612140  1
  As  As26  1  0.750000  0.581456  0.885204  1
  As  As27  1  0.750000  0.918544  0.385204  1
  As  As28  1  0.250000  0.270790  0.868343  1
  As  As29  1  0.250000  0.229210  0.368343  1
  As  As30  1  0.750000  0.727701  0.134630  1
  As  As31  1  0.750000  0.772299  0.634630  1
  As  As32  1  0.250000  0.599480  0.392728  1
  As  As33  1  0.250000  0.900520  0.892728  1
  As  As34  1  0.750000  0.393694  0.606582  1
  As  As35  1  0.750000  0.106306  0.106582  1
