# generated using pymatgen
data_Ba8In3
_symmetry_space_group_name_H-M   'P 1'
_cell_length_a   10.79986587
_cell_length_b   10.77300612
_cell_length_c   10.95872368
_cell_angle_alpha   99.34537249
_cell_angle_beta   100.64929806
_cell_angle_gamma   119.81978122
_symmetry_Int_Tables_number   1
_chemical_formula_structural   Ba8In3
_chemical_formula_sum   'Ba16 In6'
_cell_volume   1037.67368601
_cell_formula_units_Z   2
loop_
 _symmetry_equiv_pos_site_id
 _symmetry_equiv_pos_as_xyz
  1  'x, y, z'
loop_
 _atom_site_type_symbol
 _atom_site_label
 _atom_site_symmetry_multiplicity
 _atom_site_fract_x
 _atom_site_fract_y
 _atom_site_fract_z
 _atom_site_occupancy
  Ba  Ba0  1  0.920427  0.767843  0.394459  1
  Ba  Ba1  1  0.701753  0.497110  0.610019  1
  Ba  Ba2  1  0.469294  0.299724  0.849236  1
  Ba  Ba3  1  0.530706  0.700276  0.150764  1
  Ba  Ba4  1  0.120074  0.597817  0.851744  1
  Ba  Ba5  1  0.298247  0.502890  0.389981  1
  Ba  Ba6  1  0.330136  0.877950  0.609938  1
  Ba  Ba7  1  0.079573  0.232157  0.605541  1
  Ba  Ba8  1  0.669864  0.122050  0.390062  1
  Ba  Ba9  1  0.879926  0.402183  0.148256  1
  Ba  Ba10  1  0.455253  0.287170  0.202519  1
  Ba  Ba11  1  0.772898  0.151730  0.798556  1
  Ba  Ba12  1  0.041971  0.939913  0.834092  1
  Ba  Ba13  1  0.958029  0.060087  0.165908  1
  Ba  Ba14  1  0.544747  0.712830  0.797481  1
  Ba  Ba15  1  0.227102  0.848270  0.201444  1
  In  In16  1  0.829612  0.666946  0.000575  1
  In  In17  1  0.676716  0.840141  0.529062  1
  In  In18  1  0.000000  0.500000  0.500000  1
  In  In19  1  0.170388  0.333054  0.999425  1
  In  In20  1  0.500000  0.000000  0.000000  1
  In  In21  1  0.323284  0.159859  0.470938  1
