# generated using pymatgen
data_Tb2Tm2Co11(Ni3P4)3
_symmetry_space_group_name_H-M   'P 1'
_cell_length_a   3.67544700
_cell_length_b   10.24491901
_cell_length_c   11.81766097
_cell_angle_alpha   89.90482074
_cell_angle_beta   90.00000000
_cell_angle_gamma   90.00000000
_symmetry_Int_Tables_number   1
_chemical_formula_structural   Tb2Tm2Co11(Ni3P4)3
_chemical_formula_sum   'Tb2 Tm2 Co11 Ni9 P12'
_cell_volume   444.98935463
_cell_formula_units_Z   1
loop_
 _symmetry_equiv_pos_site_id
 _symmetry_equiv_pos_as_xyz
  1  'x, y, z'
loop_
 _atom_site_type_symbol
 _atom_site_label
 _atom_site_symmetry_multiplicity
 _atom_site_fract_x
 _atom_site_fract_y
 _atom_site_fract_z
 _atom_site_occupancy
  Tb  Tb0  1  0.750000  0.418444  0.296245  1
  Tb  Tb1  1  0.750000  0.081487  0.796911  1
  Tm  Tm2  1  0.250000  0.581498  0.703014  1
  Tm  Tm3  1  0.250000  0.918459  0.204412  1
  Co  Co4  1  0.250000  0.277898  0.675605  1
  Co  Co5  1  0.750000  0.777502  0.824309  1
  Co  Co6  1  0.750000  0.722919  0.324062  1
  Co  Co7  1  0.250000  0.879298  0.697974  1
  Co  Co8  1  0.250000  0.621311  0.197587  1
  Co  Co9  1  0.750000  0.118178  0.301797  1
  Co  Co10  1  0.750000  0.382151  0.801052  1
  Co  Co11  1  0.250000  0.467907  0.931437  1
  Co  Co12  1  0.250000  0.031078  0.432443  1
  Co  Co13  1  0.750000  0.534540  0.065984  1
  Co  Co14  1  0.750000  0.965906  0.567141  1
  Ni  Ni15  1  0.250000  0.712413  0.989265  1
  Ni  Ni16  1  0.250000  0.786485  0.490043  1
  Ni  Ni17  1  0.750000  0.285884  0.009114  1
  Ni  Ni18  1  0.750000  0.212472  0.510406  1
  Ni  Ni19  1  0.250000  0.409229  0.485978  1
  Ni  Ni20  1  0.250000  0.091825  0.987184  1
  Ni  Ni21  1  0.750000  0.591650  0.515964  1
  Ni  Ni22  1  0.750000  0.907601  0.016427  1
  Ni  Ni23  1  0.250000  0.223371  0.176276  1
  P  P24  1  0.250000  0.424607  0.111819  1
  P  P25  1  0.250000  0.078704  0.612685  1
  P  P26  1  0.750000  0.579646  0.884941  1
  P  P27  1  0.750000  0.920042  0.386373  1
  P  P28  1  0.250000  0.272491  0.865459  1
  P  P29  1  0.250000  0.227320  0.368716  1
  P  P30  1  0.750000  0.730086  0.135349  1
  P  P31  1  0.750000  0.770434  0.634876  1
  P  P32  1  0.250000  0.606210  0.387824  1
  P  P33  1  0.250000  0.893859  0.887961  1
  P  P34  1  0.750000  0.395306  0.612118  1
  P  P35  1  0.750000  0.101787  0.111248  1
