# generated using pymatgen
data_Ho3Tm2InSb2
_symmetry_space_group_name_H-M   'P 1'
_cell_length_a   8.91320200
_cell_length_b   8.90017861
_cell_length_c   6.41618800
_cell_angle_alpha   90.00000000
_cell_angle_beta   90.00000000
_cell_angle_gamma   120.04842392
_symmetry_Int_Tables_number   1
_chemical_formula_structural   Ho3Tm2InSb2
_chemical_formula_sum   'Ho6 Tm4 In2 Sb4'
_cell_volume   440.58333113
_cell_formula_units_Z   2
loop_
 _symmetry_equiv_pos_site_id
 _symmetry_equiv_pos_as_xyz
  1  'x, y, z'
loop_
 _atom_site_type_symbol
 _atom_site_label
 _atom_site_symmetry_multiplicity
 _atom_site_fract_x
 _atom_site_fract_y
 _atom_site_fract_z
 _atom_site_occupancy
  Ho  Ho0  1  0.237336  0.000000  0.250000  1
  Ho  Ho1  1  0.762664  0.000000  0.750000  1
  Ho  Ho2  1  0.993544  0.238320  0.250000  1
  Ho  Ho3  1  0.755224  0.761680  0.250000  1
  Ho  Ho4  1  0.244776  0.238320  0.750000  1
  Ho  Ho5  1  0.006456  0.761680  0.750000  1
  Tm  Tm6  1  0.335037  0.670076  0.000000  1
  Tm  Tm7  1  0.664963  0.329924  0.500000  1
  Tm  Tm8  1  0.664963  0.329924  0.000000  1
  Tm  Tm9  1  0.335037  0.670076  0.500000  1
  In  In10  1  0.600248  0.000000  0.250000  1
  In  In11  1  0.399752  0.000000  0.750000  1
  Sb  Sb12  1  0.997759  0.607721  0.250000  1
  Sb  Sb13  1  0.390038  0.392279  0.250000  1
  Sb  Sb14  1  0.609962  0.607721  0.750000  1
  Sb  Sb15  1  0.002241  0.392279  0.750000  1
