# generated using pymatgen
data_Ho4Co20(As3P)3
_symmetry_space_group_name_H-M   'P 1'
_cell_length_a   3.73679400
_cell_length_b   12.08487703
_cell_length_c   10.57611517
_cell_angle_alpha   90.07618049
_cell_angle_beta   90.00000000
_cell_angle_gamma   90.00000000
_symmetry_Int_Tables_number   1
_chemical_formula_structural   Ho4Co20(As3P)3
_chemical_formula_sum   'Ho4 Co20 As9 P3'
_cell_volume   477.60314711
_cell_formula_units_Z   1
loop_
 _symmetry_equiv_pos_site_id
 _symmetry_equiv_pos_as_xyz
  1  'x, y, z'
loop_
 _atom_site_type_symbol
 _atom_site_label
 _atom_site_symmetry_multiplicity
 _atom_site_fract_x
 _atom_site_fract_y
 _atom_site_fract_z
 _atom_site_occupancy
  Ho  Ho0  1  0.750000  0.706488  0.082434  1
  Ho  Ho1  1  0.250000  0.297079  0.918471  1
  Ho  Ho2  1  0.250000  0.791883  0.582438  1
  Ho  Ho3  1  0.750000  0.209886  0.418038  1
  Co  Co4  1  0.750000  0.694992  0.388544  1
  Co  Co5  1  0.250000  0.306644  0.609819  1
  Co  Co6  1  0.250000  0.803047  0.888193  1
  Co  Co7  1  0.750000  0.196785  0.117651  1
  Co  Co8  1  0.750000  0.985100  0.207554  1
  Co  Co9  1  0.250000  0.009143  0.787772  1
  Co  Co10  1  0.250000  0.515568  0.706240  1
  Co  Co11  1  0.750000  0.485437  0.294456  1
  Co  Co12  1  0.750000  0.675087  0.771803  1
  Co  Co13  1  0.250000  0.325782  0.228659  1
  Co  Co14  1  0.250000  0.824363  0.273038  1
  Co  Co15  1  0.750000  0.179375  0.716288  1
  Co  Co16  1  0.750000  0.927867  0.975039  1
  Co  Co17  1  0.250000  0.061638  0.034896  1
  Co  Co18  1  0.250000  0.566438  0.471581  1
  Co  Co19  1  0.750000  0.435629  0.528178  1
  Co  Co20  1  0.750000  0.988265  0.593152  1
  Co  Co21  1  0.250000  0.010739  0.406644  1
  Co  Co22  1  0.250000  0.510986  0.094001  1
  Co  Co23  1  0.750000  0.489379  0.906739  1
  As  As24  1  0.750000  0.111818  0.915993  1
  As  As25  1  0.750000  0.889127  0.399710  1
  As  As26  1  0.250000  0.110879  0.599034  1
  As  As27  1  0.250000  0.610129  0.899439  1
  As  As28  1  0.750000  0.390299  0.101862  1
  As  As29  1  0.750000  0.869887  0.769089  1
  As  As30  1  0.250000  0.130243  0.233567  1
  As  As31  1  0.250000  0.629864  0.268995  1
  As  As32  1  0.750000  0.372358  0.730418  1
  P  P33  1  0.750000  0.611961  0.579342  1
  P  P34  1  0.250000  0.390063  0.420376  1
  P  P35  1  0.250000  0.885770  0.080548  1
