# generated using pymatgen
data_AcSn6IrRu3
_symmetry_space_group_name_H-M   'P 1'
_cell_length_a   7.01822554
_cell_length_b   7.02034658
_cell_length_c   7.02034689
_cell_angle_alpha   90.44083758
_cell_angle_beta   119.78423759
_cell_angle_gamma   119.78424933
_symmetry_Int_Tables_number   1
_chemical_formula_structural   AcSn6IrRu3
_chemical_formula_sum   'Ac1 Sn6 Ir1 Ru3'
_cell_volume   245.23256108
_cell_formula_units_Z   1
loop_
 _symmetry_equiv_pos_site_id
 _symmetry_equiv_pos_as_xyz
  1  'x, y, z'
loop_
 _atom_site_type_symbol
 _atom_site_label
 _atom_site_symmetry_multiplicity
 _atom_site_fract_x
 _atom_site_fract_y
 _atom_site_fract_z
 _atom_site_occupancy
  Ac  Ac0  1  0.997127  0.999029  0.999029  1
  Sn  Sn1  1  0.646674  0.123304  0.123304  1
  Sn  Sn2  1  0.354914  0.473776  0.473776  1
  Sn  Sn3  1  0.995791  0.880110  0.520083  1
  Sn  Sn4  1  0.995791  0.520083  0.880110  1
  Sn  Sn5  1  0.498814  0.494311  0.999486  1
  Sn  Sn6  1  0.498814  0.999486  0.494311  1
  Ir  Ir7  1  0.347226  0.754693  0.754693  1
  Ru  Ru8  1  0.660023  0.410964  0.410964  1
  Ru  Ru9  1  0.002413  0.252789  0.591456  1
  Ru  Ru10  1  0.002413  0.591456  0.252789  1
