# generated using pymatgen
data_CeMn2(NbH4)3
_symmetry_space_group_name_H-M   'P 1'
_cell_length_a   6.03675200
_cell_length_b   6.03674962
_cell_length_c   4.51571100
_cell_angle_alpha   90.00000000
_cell_angle_beta   90.00000000
_cell_angle_gamma   119.99999110
_symmetry_Int_Tables_number   1
_chemical_formula_structural   CeMn2(NbH4)3
_chemical_formula_sum   'Ce1 Mn2 Nb3 H12'
_cell_volume   142.51589644
_cell_formula_units_Z   1
loop_
 _symmetry_equiv_pos_site_id
 _symmetry_equiv_pos_as_xyz
  1  'x, y, z'
loop_
 _atom_site_type_symbol
 _atom_site_label
 _atom_site_symmetry_multiplicity
 _atom_site_fract_x
 _atom_site_fract_y
 _atom_site_fract_z
 _atom_site_occupancy
  Ce  Ce0  1  0.000000  0.000000  0.000000  1
  Mn  Mn1  1  0.666667  0.333333  0.000000  1
  Mn  Mn2  1  0.333333  0.666667  0.000000  1
  Nb  Nb3  1  0.500000  0.000000  0.500000  1
  Nb  Nb4  1  0.000000  0.500000  0.500000  1
  Nb  Nb5  1  0.500000  0.500000  0.500000  1
  H  H6  1  0.799717  0.599435  0.754493  1
  H  H7  1  0.200283  0.400565  0.245507  1
  H  H8  1  0.200283  0.799717  0.245507  1
  H  H9  1  0.799717  0.200283  0.245507  1
  H  H10  1  0.599435  0.799717  0.245507  1
  H  H11  1  0.400565  0.200283  0.245507  1
  H  H12  1  0.400565  0.200283  0.754493  1
  H  H13  1  0.200283  0.400565  0.754493  1
  H  H14  1  0.799717  0.200283  0.754493  1
  H  H15  1  0.599435  0.799717  0.754493  1
  H  H16  1  0.799717  0.599435  0.245507  1
  H  H17  1  0.200283  0.799717  0.754493  1
