# generated using pymatgen
data_Dy3Y5(Sc3Sn4)4
_symmetry_space_group_name_H-M   'P 1'
_cell_length_a   7.74378479
_cell_length_b   7.98506446
_cell_length_c   14.91355600
_cell_angle_alpha   90.00342983
_cell_angle_beta   89.65819666
_cell_angle_gamma   90.05321053
_symmetry_Int_Tables_number   1
_chemical_formula_structural   Dy3Y5(Sc3Sn4)4
_chemical_formula_sum   'Dy3 Y5 Sc12 Sn16'
_cell_volume   922.15727034
_cell_formula_units_Z   1
loop_
 _symmetry_equiv_pos_site_id
 _symmetry_equiv_pos_as_xyz
  1  'x, y, z'
loop_
 _atom_site_type_symbol
 _atom_site_label
 _atom_site_symmetry_multiplicity
 _atom_site_fract_x
 _atom_site_fract_y
 _atom_site_fract_z
 _atom_site_occupancy
  Dy  Dy0  1  0.992530  0.176976  0.406024  1
  Dy  Dy1  1  0.491553  0.323843  0.405660  1
  Dy  Dy2  1  0.507748  0.676152  0.593714  1
  Y  Y3  1  0.993487  0.175700  0.095200  1
  Y  Y4  1  0.006692  0.824108  0.904609  1
  Y  Y5  1  0.506268  0.675508  0.905326  1
  Y  Y6  1  0.006760  0.823800  0.593513  1
  Y  Y7  1  0.493657  0.324063  0.095274  1
  Sc  Sc8  1  0.168988  0.496093  0.748911  1
  Sc  Sc9  1  0.831250  0.504063  0.251120  1
  Sc  Sc10  1  0.331567  0.995739  0.250931  1
  Sc  Sc11  1  0.668970  0.004469  0.749052  1
  Sc  Sc12  1  0.339972  0.161940  0.626892  1
  Sc  Sc13  1  0.660111  0.838066  0.373079  1
  Sc  Sc14  1  0.160113  0.660813  0.373472  1
  Sc  Sc15  1  0.662131  0.839009  0.128341  1
  Sc  Sc16  1  0.840374  0.338804  0.626310  1
  Sc  Sc17  1  0.338358  0.161280  0.872031  1
  Sc  Sc18  1  0.837657  0.338575  0.872405  1
  Sc  Sc19  1  0.162048  0.661273  0.128153  1
  Sn  Sn20  1  0.030962  0.126333  0.749358  1
  Sn  Sn21  1  0.969640  0.874201  0.251032  1
  Sn  Sn22  1  0.468985  0.625596  0.250455  1
  Sn  Sn23  1  0.531328  0.374357  0.749509  1
  Sn  Sn24  1  0.311499  0.850778  0.748934  1
  Sn  Sn25  1  0.689413  0.149387  0.251285  1
  Sn  Sn26  1  0.188997  0.350545  0.251083  1
  Sn  Sn27  1  0.810280  0.648728  0.749143  1
  Sn  Sn28  1  0.183696  0.456676  0.542257  1
  Sn  Sn29  1  0.816039  0.542045  0.457123  1
  Sn  Sn30  1  0.317745  0.957791  0.457180  1
  Sn  Sn31  1  0.820802  0.543572  0.043088  1
  Sn  Sn32  1  0.681202  0.043685  0.542062  1
  Sn  Sn33  1  0.179037  0.456486  0.957267  1
  Sn  Sn34  1  0.679499  0.042638  0.957297  1
  Sn  Sn35  1  0.320641  0.956907  0.042912  1
