# generated using pymatgen
data_Pa5(TiCo4)3
_symmetry_space_group_name_H-M   'P 1'
_cell_length_a   5.26195600
_cell_length_b   7.10529066
_cell_length_c   8.24808481
_cell_angle_alpha   90.04666040
_cell_angle_beta   90.00000000
_cell_angle_gamma   90.00000000
_symmetry_Int_Tables_number   1
_chemical_formula_structural   Pa5(TiCo4)3
_chemical_formula_sum   'Pa5 Ti3 Co12'
_cell_volume   308.37703920
_cell_formula_units_Z   1
loop_
 _symmetry_equiv_pos_site_id
 _symmetry_equiv_pos_as_xyz
  1  'x, y, z'
loop_
 _atom_site_type_symbol
 _atom_site_label
 _atom_site_symmetry_multiplicity
 _atom_site_fract_x
 _atom_site_fract_y
 _atom_site_fract_z
 _atom_site_occupancy
  Pa  Pa0  1  0.750000  0.887989  0.859045  1
  Pa  Pa1  1  0.750000  0.394063  0.652784  1
  Pa  Pa2  1  0.250000  0.113187  0.138891  1
  Pa  Pa3  1  0.250000  0.599481  0.346122  1
  Pa  Pa4  1  0.750000  0.944367  0.413986  1
  Ti  Ti5  1  0.750000  0.445952  0.084939  1
  Ti  Ti6  1  0.250000  0.068421  0.611809  1
  Ti  Ti7  1  0.250000  0.555511  0.907705  1
  Co  Co8  1  0.750000  0.588829  0.363139  1
  Co  Co9  1  0.750000  0.096350  0.132470  1
  Co  Co10  1  0.250000  0.407091  0.632282  1
  Co  Co11  1  0.250000  0.901567  0.866205  1
  Co  Co12  1  0.993341  0.260580  0.381007  1
  Co  Co13  1  0.505874  0.758587  0.118175  1
  Co  Co14  1  0.489675  0.740722  0.618805  1
  Co  Co15  1  0.009096  0.238708  0.877326  1
  Co  Co16  1  0.010325  0.740722  0.618805  1
  Co  Co17  1  0.490904  0.238708  0.877326  1
  Co  Co18  1  0.506659  0.260580  0.381007  1
  Co  Co19  1  0.994126  0.758587  0.118175  1
