# generated using pymatgen
data_Tc12AuI25
_symmetry_space_group_name_H-M   'P 1'
_cell_length_a   10.30526064
_cell_length_b   11.66787898
_cell_length_c   12.55541546
_cell_angle_alpha   86.82233300
_cell_angle_beta   77.76881877
_cell_angle_gamma   90.14464541
_symmetry_Int_Tables_number   1
_chemical_formula_structural   Tc12AuI25
_chemical_formula_sum   'Tc12 Au1 I25'
_cell_volume   1472.97547708
_cell_formula_units_Z   1
loop_
 _symmetry_equiv_pos_site_id
 _symmetry_equiv_pos_as_xyz
  1  'x, y, z'
loop_
 _atom_site_type_symbol
 _atom_site_label
 _atom_site_symmetry_multiplicity
 _atom_site_fract_x
 _atom_site_fract_y
 _atom_site_fract_z
 _atom_site_occupancy
  Tc  Tc0  1  0.818311  0.248562  0.127021  1
  Tc  Tc1  1  0.181689  0.751438  0.872979  1
  Tc  Tc2  1  0.754291  0.124315  0.268157  1
  Tc  Tc3  1  0.245709  0.875685  0.731843  1
  Tc  Tc4  1  0.053378  0.277887  0.191703  1
  Tc  Tc5  1  0.946622  0.722113  0.808297  1
  Tc  Tc6  1  0.846705  0.417094  0.262761  1
  Tc  Tc7  1  0.153295  0.582906  0.737239  1
  Tc  Tc8  1  0.779242  0.294015  0.405240  1
  Tc  Tc9  1  0.220758  0.705985  0.594760  1
  Tc  Tc10  1  0.987905  0.156226  0.334896  1
  Tc  Tc11  1  0.012095  0.843774  0.665104  1
  Au  Au12  1  0.500000  0.000000  0.000000  1
  I  I13  1  0.931880  0.958765  0.260194  1
  I  I14  1  0.068120  0.041235  0.739806  1
  I  I15  1  0.977320  0.276720  0.509171  1
  I  I16  1  0.022680  0.723280  0.490829  1
  I  I17  1  0.641760  0.417044  0.163298  1
  I  I18  1  0.358240  0.582956  0.836702  1
  I  I19  1  0.093718  0.473315  0.280283  1
  I  I20  1  0.906282  0.526685  0.719717  1
  I  I21  1  0.000000  0.500000  0.000000  1
  I  I22  1  0.588795  0.963075  0.204963  1
  I  I23  1  0.411205  0.036925  0.795037  1
  I  I24  1  0.205778  0.049318  0.387287  1
  I  I25  1  0.794222  0.950682  0.612713  1
  I  I26  1  0.543095  0.210180  0.394592  1
  I  I27  1  0.456905  0.789820  0.605408  1
  I  I28  1  0.043367  0.159853  0.019887  1
  I  I29  1  0.956633  0.840147  0.980113  1
  I  I30  1  0.775964  0.637376  0.315416  1
  I  I31  1  0.224036  0.362624  0.684584  1
  I  I32  1  0.701030  0.185169  0.955795  1
  I  I33  1  0.298970  0.814831  0.044205  1
  I  I34  1  0.322996  0.263848  0.118978  1
  I  I35  1  0.677004  0.736152  0.881022  1
  I  I36  1  0.646713  0.407293  0.579571  1
  I  I37  1  0.353287  0.592707  0.420429  1
