# generated using pymatgen
data_ReAg(OF2)2
_symmetry_space_group_name_H-M   'P 1'
_cell_length_a   5.32063900
_cell_length_b   5.32063900
_cell_length_c   10.11212500
_cell_angle_alpha   90.00000000
_cell_angle_beta   90.00000000
_cell_angle_gamma   90.00000000
_symmetry_Int_Tables_number   1
_chemical_formula_structural   ReAg(OF2)2
_chemical_formula_sum   'Re2 Ag2 O4 F8'
_cell_volume   286.26616266
_cell_formula_units_Z   2
loop_
 _symmetry_equiv_pos_site_id
 _symmetry_equiv_pos_as_xyz
  1  'x, y, z'
loop_
 _atom_site_type_symbol
 _atom_site_label
 _atom_site_symmetry_multiplicity
 _atom_site_fract_x
 _atom_site_fract_y
 _atom_site_fract_z
 _atom_site_occupancy
  Re  Re0  1  0.000000  0.500000  0.783738  1
  Re  Re1  1  0.500000  0.000000  0.216262  1
  Ag  Ag2  1  0.000000  0.500000  0.411351  1
  Ag  Ag3  1  0.500000  0.000000  0.588649  1
  O  O4  1  0.178161  0.321839  0.889152  1
  O  O5  1  0.321839  0.821839  0.110848  1
  O  O6  1  0.821839  0.678161  0.889152  1
  O  O7  1  0.678161  0.178161  0.110848  1
  F  F8  1  0.669039  0.169039  0.376673  1
  F  F9  1  0.830961  0.669039  0.623327  1
  F  F10  1  0.330961  0.830961  0.376673  1
  F  F11  1  0.249896  0.749896  0.752528  1
  F  F12  1  0.750104  0.250104  0.752528  1
  F  F13  1  0.250104  0.249896  0.247472  1
  F  F14  1  0.749896  0.750104  0.247472  1
  F  F15  1  0.169039  0.330961  0.623327  1
