# generated using pymatgen
data_Nd5(Tl2Pd)2
_symmetry_space_group_name_H-M   'P 1'
_cell_length_a   3.78773400
_cell_length_b   8.29892400
_cell_length_c   18.76686400
_cell_angle_alpha   90.00000000
_cell_angle_beta   90.00000000
_cell_angle_gamma   90.00000000
_symmetry_Int_Tables_number   1
_chemical_formula_structural   Nd5(Tl2Pd)2
_chemical_formula_sum   'Nd10 Tl8 Pd4'
_cell_volume   589.91979116
_cell_formula_units_Z   2
loop_
 _symmetry_equiv_pos_site_id
 _symmetry_equiv_pos_as_xyz
  1  'x, y, z'
loop_
 _atom_site_type_symbol
 _atom_site_label
 _atom_site_symmetry_multiplicity
 _atom_site_fract_x
 _atom_site_fract_y
 _atom_site_fract_z
 _atom_site_occupancy
  Nd  Nd0  1  0.000000  0.500000  0.500000  1
  Nd  Nd1  1  0.000000  0.000000  0.000000  1
  Nd  Nd2  1  0.000000  0.742021  0.280925  1
  Nd  Nd3  1  0.000000  0.257979  0.719075  1
  Nd  Nd4  1  0.000000  0.757979  0.780925  1
  Nd  Nd5  1  0.000000  0.242021  0.219075  1
  Nd  Nd6  1  0.000000  0.620414  0.083835  1
  Nd  Nd7  1  0.000000  0.379586  0.916165  1
  Nd  Nd8  1  0.000000  0.879586  0.583835  1
  Nd  Nd9  1  0.000000  0.120414  0.416165  1
  Tl  Tl10  1  0.500000  0.707079  0.931349  1
  Tl  Tl11  1  0.500000  0.292921  0.068651  1
  Tl  Tl12  1  0.500000  0.792921  0.431349  1
  Tl  Tl13  1  0.500000  0.207079  0.568651  1
  Tl  Tl14  1  0.500000  0.578651  0.650435  1
  Tl  Tl15  1  0.500000  0.421349  0.349565  1
  Tl  Tl16  1  0.500000  0.921349  0.150435  1
  Tl  Tl17  1  0.500000  0.078651  0.849565  1
  Pd  Pd18  1  0.500000  0.524560  0.196081  1
  Pd  Pd19  1  0.500000  0.475440  0.803919  1
  Pd  Pd20  1  0.500000  0.975440  0.696081  1
  Pd  Pd21  1  0.500000  0.024560  0.303919  1
