# generated using pymatgen
data_Tm4GaSi7Tc6
_symmetry_space_group_name_H-M   'P 1'
_cell_length_a   6.78860731
_cell_length_b   6.68894240
_cell_length_c   6.80268610
_cell_angle_alpha   70.31862810
_cell_angle_beta   90.32289585
_cell_angle_gamma   90.08718191
_symmetry_Int_Tables_number   1
_chemical_formula_structural   Tm4GaSi7Tc6
_chemical_formula_sum   'Tm4 Ga1 Si7 Tc6'
_cell_volume   290.84989515
_cell_formula_units_Z   1
loop_
 _symmetry_equiv_pos_site_id
 _symmetry_equiv_pos_as_xyz
  1  'x, y, z'
loop_
 _atom_site_type_symbol
 _atom_site_label
 _atom_site_symmetry_multiplicity
 _atom_site_fract_x
 _atom_site_fract_y
 _atom_site_fract_z
 _atom_site_occupancy
  Tm  Tm0  1  0.329943  0.554966  0.806061  1
  Tm  Tm1  1  0.832650  0.943527  0.194254  1
  Tm  Tm2  1  0.668590  0.440557  0.194414  1
  Tm  Tm3  1  0.168416  0.056909  0.809218  1
  Ga  Ga4  1  0.550130  0.870297  0.900429  1
  Si  Si5  1  0.048206  0.623461  0.100297  1
  Si  Si6  1  0.450527  0.122868  0.101108  1
  Si  Si7  1  0.952080  0.375767  0.899527  1
  Si  Si8  1  0.141574  0.869826  0.490120  1
  Si  Si9  1  0.639585  0.635186  0.510019  1
  Si  Si10  1  0.856843  0.132422  0.515529  1
  Si  Si11  1  0.359080  0.366343  0.489034  1
  Tc  Tc12  1  0.502368  0.007665  0.491215  1
  Tc  Tc13  1  0.998426  0.495120  0.499605  1
  Tc  Tc14  1  0.856267  0.753809  0.755853  1
  Tc  Tc15  1  0.340582  0.741018  0.246940  1
  Tc  Tc16  1  0.152474  0.243040  0.234517  1
  Tc  Tc17  1  0.652258  0.267218  0.761860  1
