# generated using pymatgen
data_Zr3Al2GaMo2N
_symmetry_space_group_name_H-M   'P 1'
_cell_length_a   7.92478700
_cell_length_b   7.95156553
_cell_length_c   5.37954000
_cell_angle_alpha   90.00000000
_cell_angle_beta   90.00000000
_cell_angle_gamma   119.88865542
_symmetry_Int_Tables_number   1
_chemical_formula_structural   Zr3Al2GaMo2N
_chemical_formula_sum   'Zr6 Al4 Ga2 Mo4 N2'
_cell_volume   293.90176317
_cell_formula_units_Z   2
loop_
 _symmetry_equiv_pos_site_id
 _symmetry_equiv_pos_as_xyz
  1  'x, y, z'
loop_
 _atom_site_type_symbol
 _atom_site_label
 _atom_site_symmetry_multiplicity
 _atom_site_fract_x
 _atom_site_fract_y
 _atom_site_fract_z
 _atom_site_occupancy
  Zr  Zr0  1  0.234179  0.000000  0.250000  1
  Zr  Zr1  1  0.765821  0.000000  0.750000  1
  Zr  Zr2  1  0.998920  0.231834  0.250000  1
  Zr  Zr3  1  0.001080  0.768166  0.750000  1
  Zr  Zr4  1  0.767086  0.768166  0.250000  1
  Zr  Zr5  1  0.232914  0.231834  0.750000  1
  Al  Al6  1  0.999904  0.584570  0.250000  1
  Al  Al7  1  0.000096  0.415430  0.750000  1
  Al  Al8  1  0.415333  0.415430  0.250000  1
  Al  Al9  1  0.584667  0.584570  0.750000  1
  Ga  Ga10  1  0.586813  0.000000  0.250000  1
  Ga  Ga11  1  0.413187  0.000000  0.750000  1
  Mo  Mo12  1  0.333875  0.667750  0.000000  1
  Mo  Mo13  1  0.666125  0.332250  0.000000  1
  Mo  Mo14  1  0.666125  0.332250  0.500000  1
  Mo  Mo15  1  0.333875  0.667750  0.500000  1
  N  N16  1  0.000000  0.000000  0.000000  1
  N  N17  1  0.000000  0.000000  0.500000  1
