# generated using pymatgen
data_Er3Tm7Os4
_symmetry_space_group_name_H-M   'P 1'
_cell_length_a   6.27602781
_cell_length_b   7.31401743
_cell_length_c   8.30642145
_cell_angle_alpha   96.98595315
_cell_angle_beta   112.22036917
_cell_angle_gamma   90.05365878
_symmetry_Int_Tables_number   1
_chemical_formula_structural   Er3Tm7Os4
_chemical_formula_sum   'Er3 Tm7 Os4'
_cell_volume   349.89570033
_cell_formula_units_Z   1
loop_
 _symmetry_equiv_pos_site_id
 _symmetry_equiv_pos_as_xyz
  1  'x, y, z'
loop_
 _atom_site_type_symbol
 _atom_site_label
 _atom_site_symmetry_multiplicity
 _atom_site_fract_x
 _atom_site_fract_y
 _atom_site_fract_z
 _atom_site_occupancy
  Er  Er0  1  0.792275  0.083507  0.816761  1
  Er  Er1  1  0.975368  0.416476  0.182892  1
  Er  Er2  1  0.207825  0.916439  0.183097  1
  Tm  Tm3  1  0.024447  0.583780  0.817104  1
  Tm  Tm4  1  0.203368  0.182638  0.564313  1
  Tm  Tm5  1  0.639675  0.317489  0.436050  1
  Tm  Tm6  1  0.796653  0.817277  0.435801  1
  Tm  Tm7  1  0.360341  0.682666  0.564207  1
  Tm  Tm8  1  0.420255  0.249935  0.999823  1
  Tm  Tm9  1  0.579502  0.750056  0.999978  1
  Os  Os10  1  0.602662  0.422277  0.780283  1
  Os  Os11  1  0.821613  0.078037  0.219724  1
  Os  Os12  1  0.397885  0.577886  0.219621  1
  Os  Os13  1  0.178132  0.921537  0.780346  1
