# generated using pymatgen
data_Er16Ga6NiOs
_symmetry_space_group_name_H-M   'P 1'
_cell_length_a   9.94103500
_cell_length_b   9.94113308
_cell_length_c   6.88466600
_cell_angle_alpha   89.99982133
_cell_angle_beta   89.99995389
_cell_angle_gamma   120.00043563
_symmetry_Int_Tables_number   1
_chemical_formula_structural   Er16Ga6NiOs
_chemical_formula_sum   'Er16 Ga6 Ni1 Os1'
_cell_volume   589.22218711
_cell_formula_units_Z   1
loop_
 _symmetry_equiv_pos_site_id
 _symmetry_equiv_pos_as_xyz
  1  'x, y, z'
loop_
 _atom_site_type_symbol
 _atom_site_label
 _atom_site_symmetry_multiplicity
 _atom_site_fract_x
 _atom_site_fract_y
 _atom_site_fract_z
 _atom_site_occupancy
  Er  Er0  1  0.170280  0.829684  0.510428  1
  Er  Er1  1  0.659448  0.829718  0.510326  1
  Er  Er2  1  0.170347  0.340666  0.510340  1
  Er  Er3  1  0.826784  0.173184  0.008590  1
  Er  Er4  1  0.346158  0.173132  0.008399  1
  Er  Er5  1  0.826902  0.653826  0.008582  1
  Er  Er6  1  0.333233  0.666674  0.843424  1
  Er  Er7  1  0.666716  0.333433  0.329005  1
  Er  Er8  1  0.465303  0.534804  0.207404  1
  Er  Er9  1  0.069556  0.534824  0.207527  1
  Er  Er10  1  0.465261  0.930563  0.207534  1
  Er  Er11  1  0.533243  0.466914  0.703452  1
  Er  Er12  1  0.933565  0.466801  0.703625  1
  Er  Er13  1  0.533248  0.066488  0.703416  1
  Er  Er14  1  0.000060  0.000084  0.229265  1
  Er  Er15  1  0.000016  0.000089  0.737918  1
  Ga  Ga16  1  0.161927  0.837845  0.960973  1
  Ga  Ga17  1  0.676068  0.837878  0.960969  1
  Ga  Ga18  1  0.161918  0.323916  0.960931  1
  Ga  Ga19  1  0.834953  0.165120  0.457266  1
  Ga  Ga20  1  0.330643  0.165131  0.457115  1
  Ga  Ga21  1  0.834896  0.669401  0.457340  1
  Ni  Ni22  1  0.665974  0.333075  0.940738  1
  Os  Os23  1  0.333502  0.666754  0.449476  1
