# generated using pymatgen
data_SrLaTaFeO6
_symmetry_space_group_name_H-M   'P 1'
_cell_length_a   8.18271938
_cell_length_b   8.12155716
_cell_length_c   9.84901609
_cell_angle_alpha   66.44494233
_cell_angle_beta   65.90273377
_cell_angle_gamma   91.11209498
_symmetry_Int_Tables_number   1
_chemical_formula_structural   SrLaTaFeO6
_chemical_formula_sum   'Sr4 La4 Ta4 Fe4 O24'
_cell_volume   534.51026538
_cell_formula_units_Z   4
loop_
 _symmetry_equiv_pos_site_id
 _symmetry_equiv_pos_as_xyz
  1  'x, y, z'
loop_
 _atom_site_type_symbol
 _atom_site_label
 _atom_site_symmetry_multiplicity
 _atom_site_fract_x
 _atom_site_fract_y
 _atom_site_fract_z
 _atom_site_occupancy
  Sr  Sr0  1  0.398484  0.859193  0.248573  1
  Sr  Sr1  1  0.898194  0.357980  0.251583  1
  Sr  Sr2  1  0.110247  0.148860  0.749549  1
  Sr  Sr3  1  0.609721  0.646886  0.751485  1
  La  La4  1  0.093226  0.645071  0.752437  1
  La  La5  1  0.590612  0.141317  0.756047  1
  La  La6  1  0.391065  0.340865  0.254196  1
  La  La7  1  0.894028  0.843375  0.252334  1
  Ta  Ta8  1  0.752232  0.248844  0.999807  1
  Ta  Ta9  1  0.250780  0.746305  0.001373  1
  Ta  Ta10  1  0.498262  0.501383  0.499860  1
  Ta  Ta11  1  0.997136  0.001407  0.501037  1
  Fe  Fe12  1  0.500266  0.996734  0.500546  1
  Fe  Fe13  1  0.748501  0.750388  0.001253  1
  Fe  Fe14  1  0.999907  0.498044  0.502022  1
  Fe  Fe15  1  0.247557  0.250821  0.999971  1
  O  O16  1  0.259815  0.988998  0.454539  1
  O  O17  1  0.758062  0.489885  0.455165  1
  O  O18  1  0.738244  0.511364  0.955579  1
  O  O19  1  0.236748  0.008569  0.956411  1
  O  O20  1  0.239647  0.526999  0.547804  1
  O  O21  1  0.738841  0.027556  0.548714  1
  O  O22  1  0.778395  0.988506  0.044836  1
  O  O23  1  0.276282  0.486510  0.050381  1
  O  O24  1  0.568748  0.766131  0.453329  1
  O  O25  1  0.070686  0.263208  0.452954  1
  O  O26  1  0.014477  0.320784  0.949552  1
  O  O27  1  0.511541  0.819687  0.954795  1
  O  O28  1  0.943165  0.742625  0.538085  1
  O  O29  1  0.445150  0.238784  0.537356  1
  O  O30  1  0.492674  0.194971  0.036951  1
  O  O31  1  0.991373  0.692954  0.040710  1
  O  O32  1  0.930047  0.903386  0.742112  1
  O  O33  1  0.427505  0.401609  0.742001  1
  O  O34  1  0.149914  0.678475  0.245048  1
  O  O35  1  0.654401  0.181490  0.238611  1
  O  O36  1  0.561710  0.582964  0.258883  1
  O  O37  1  0.064354  0.084599  0.257105  1
  O  O38  1  0.333491  0.807901  0.761505  1
  O  O39  1  0.834510  0.314569  0.755504  1
