# generated using pymatgen
data_Tb8Nb12Si15Sn
_symmetry_space_group_name_H-M   'P 1'
_cell_length_a   7.14756111
_cell_length_b   7.11064927
_cell_length_c   13.14593895
_cell_angle_alpha   90.03160783
_cell_angle_beta   89.78609952
_cell_angle_gamma   89.85971436
_symmetry_Int_Tables_number   1
_chemical_formula_structural   Tb8Nb12Si15Sn
_chemical_formula_sum   'Tb8 Nb12 Si15 Sn1'
_cell_volume   668.11981125
_cell_formula_units_Z   1
loop_
 _symmetry_equiv_pos_site_id
 _symmetry_equiv_pos_as_xyz
  1  'x, y, z'
loop_
 _atom_site_type_symbol
 _atom_site_label
 _atom_site_symmetry_multiplicity
 _atom_site_fract_x
 _atom_site_fract_y
 _atom_site_fract_z
 _atom_site_occupancy
  Tb  Tb0  1  0.344472  0.999834  0.462753  1
  Tb  Tb1  1  0.504646  0.837355  0.719885  1
  Tb  Tb2  1  0.502897  0.157685  0.217283  1
  Tb  Tb3  1  0.841967  0.497725  0.281472  1
  Tb  Tb4  1  0.158682  0.509675  0.785211  1
  Tb  Tb5  1  0.659169  0.996601  0.969618  1
  Tb  Tb6  1  0.993011  0.348725  0.526137  1
  Tb  Tb7  1  0.998781  0.657435  0.033594  1
  Nb  Nb8  1  0.328642  0.328486  0.001486  1
  Nb  Nb9  1  0.171741  0.827876  0.249666  1
  Nb  Nb10  1  0.819315  0.172800  0.751779  1
  Nb  Nb11  1  0.671464  0.671137  0.499836  1
  Nb  Nb12  1  0.153276  0.005201  0.880626  1
  Nb  Nb13  1  0.493650  0.652604  0.124781  1
  Nb  Nb14  1  0.515277  0.353847  0.623417  1
  Nb  Nb15  1  0.654989  0.493468  0.877577  1
  Nb  Nb16  1  0.346183  0.507623  0.374965  1
  Nb  Nb17  1  0.845176  0.992637  0.373429  1
  Nb  Nb18  1  0.007629  0.153648  0.125311  1
  Nb  Nb19  1  0.980328  0.834570  0.621259  1
  Si  Si20  1  0.369113  0.704278  0.934797  1
  Si  Si21  1  0.630353  0.296458  0.431254  1
  Si  Si22  1  0.704829  0.367003  0.067953  1
  Si  Si23  1  0.294386  0.632863  0.566872  1
  Si  Si24  1  0.797233  0.867551  0.182816  1
  Si  Si25  1  0.131973  0.203229  0.316252  1
  Si  Si26  1  0.868619  0.799106  0.817894  1
  Si  Si27  1  0.293772  0.953126  0.065534  1
  Si  Si28  1  0.548077  0.790411  0.312624  1
  Si  Si29  1  0.458984  0.208506  0.818483  1
  Si  Si30  1  0.795349  0.543134  0.688488  1
  Si  Si31  1  0.208241  0.453210  0.186593  1
  Si  Si32  1  0.705272  0.047945  0.563131  1
  Si  Si33  1  0.953860  0.292850  0.936427  1
  Si  Si34  1  0.047496  0.709318  0.433837  1
  Sn  Sn35  1  0.201148  0.132081  0.676962  1
