# generated using pymatgen
data_La4SmEr5Si8
_symmetry_space_group_name_H-M   'P 1'
_cell_length_a   7.79530900
_cell_length_b   7.79326936
_cell_length_c   14.51527800
_cell_angle_alpha   89.92126787
_cell_angle_beta   90.00000000
_cell_angle_gamma   90.00000000
_symmetry_Int_Tables_number   1
_chemical_formula_structural   La4SmEr5Si8
_chemical_formula_sum   'La8 Sm2 Er10 Si16'
_cell_volume   881.81599044
_cell_formula_units_Z   2
loop_
 _symmetry_equiv_pos_site_id
 _symmetry_equiv_pos_as_xyz
  1  'x, y, z'
loop_
 _atom_site_type_symbol
 _atom_site_label
 _atom_site_symmetry_multiplicity
 _atom_site_fract_x
 _atom_site_fract_y
 _atom_site_fract_z
 _atom_site_occupancy
  La  La0  1  0.989102  0.638630  0.042515  1
  La  La1  1  0.010737  0.361668  0.543863  1
  La  La2  1  0.638956  0.989124  0.957032  1
  La  La3  1  0.138956  0.510876  0.792968  1
  La  La4  1  0.861955  0.490228  0.292793  1
  La  La5  1  0.510737  0.138332  0.206137  1
  La  La6  1  0.489102  0.861370  0.707485  1
  La  La7  1  0.361955  0.009772  0.457207  1
  Sm  Sm8  1  0.363306  0.488463  0.374826  1
  Sm  Sm9  1  0.863306  0.011537  0.375174  1
  Er  Er10  1  0.990596  0.136524  0.123489  1
  Er  Er11  1  0.008995  0.863457  0.625567  1
  Er  Er12  1  0.636795  0.509035  0.874512  1
  Er  Er13  1  0.490596  0.363476  0.626511  1
  Er  Er14  1  0.508995  0.636543  0.124433  1
  Er  Er15  1  0.136795  0.990965  0.875488  1
  Er  Er16  1  0.685196  0.684191  0.500493  1
  Er  Er17  1  0.816012  0.184399  0.750512  1
  Er  Er18  1  0.185196  0.815809  0.249507  1
  Er  Er19  1  0.316012  0.315601  0.999488  1
  Si  Si20  1  0.067485  0.713067  0.439273  1
  Si  Si21  1  0.932133  0.286469  0.937319  1
  Si  Si22  1  0.712304  0.068497  0.564549  1
  Si  Si23  1  0.212305  0.431503  0.185451  1
  Si  Si24  1  0.786393  0.567572  0.687682  1
  Si  Si25  1  0.432133  0.213532  0.812681  1
  Si  Si26  1  0.567485  0.786933  0.310727  1
  Si  Si27  1  0.286393  0.932428  0.062318  1
  Si  Si28  1  0.843959  0.799640  0.806873  1
  Si  Si29  1  0.157175  0.199339  0.303521  1
  Si  Si30  1  0.798397  0.842415  0.191547  1
  Si  Si31  1  0.298397  0.657585  0.558453  1
  Si  Si32  1  0.700505  0.343744  0.056176  1
  Si  Si33  1  0.657175  0.300661  0.446479  1
  Si  Si34  1  0.343959  0.700360  0.943127  1
  Si  Si35  1  0.200505  0.156256  0.693824  1
