# generated using pymatgen
data_Y4CrPt3F28
_symmetry_space_group_name_H-M   'P 1'
_cell_length_a   5.54432462
_cell_length_b   8.90123128
_cell_length_c   11.95000324
_cell_angle_alpha   62.45261395
_cell_angle_beta   89.99319694
_cell_angle_gamma   90.04479529
_symmetry_Int_Tables_number   1
_chemical_formula_structural   Y4CrPt3F28
_chemical_formula_sum   'Y4 Cr1 Pt3 F28'
_cell_volume   522.88757251
_cell_formula_units_Z   1
loop_
 _symmetry_equiv_pos_site_id
 _symmetry_equiv_pos_as_xyz
  1  'x, y, z'
loop_
 _atom_site_type_symbol
 _atom_site_label
 _atom_site_symmetry_multiplicity
 _atom_site_fract_x
 _atom_site_fract_y
 _atom_site_fract_z
 _atom_site_occupancy
  Y  Y0  1  0.262183  0.812000  0.260961  1
  Y  Y1  1  0.738703  0.184114  0.736969  1
  Y  Y2  1  0.762543  0.185475  0.236031  1
  Y  Y3  1  0.235331  0.812136  0.768029  1
  Cr  Cr4  1  0.758098  0.725364  0.043758  1
  Pt  Pt5  1  0.242295  0.272472  0.957990  1
  Pt  Pt6  1  0.258740  0.272848  0.456808  1
  Pt  Pt7  1  0.740073  0.726539  0.543535  1
  F  F8  1  0.932649  0.704207  0.413687  1
  F  F9  1  0.064985  0.295707  0.585755  1
  F  F10  1  0.437054  0.297485  0.085761  1
  F  F11  1  0.564261  0.711424  0.923887  1
  F  F12  1  0.483595  0.730120  0.136054  1
  F  F13  1  0.538263  0.269501  0.868601  1
  F  F14  1  0.964753  0.275795  0.363576  1
  F  F15  1  0.034291  0.724977  0.636246  1
  F  F16  1  0.950613  0.744530  0.165026  1
  F  F17  1  0.051920  0.254383  0.825673  1
  F  F18  1  0.448863  0.258077  0.322928  1
  F  F19  1  0.552083  0.742813  0.677934  1
  F  F20  1  0.770958  0.492136  0.135731  1
  F  F21  1  0.235052  0.520790  0.860479  1
  F  F22  1  0.268776  0.521196  0.357252  1
  F  F23  1  0.727237  0.477743  0.642337  1
  F  F24  1  0.940385  0.283129  0.041401  1
  F  F25  1  0.042335  0.721160  0.955637  1
  F  F26  1  0.439952  0.720140  0.457140  1
  F  F27  1  0.559429  0.279115  0.542446  1
  F  F28  1  0.742760  0.975244  0.450213  1
  F  F29  1  0.259132  0.024549  0.550669  1
  F  F30  1  0.239816  0.024179  0.048653  1
  F  F31  1  0.757861  0.958605  0.952800  1
  F  F32  1  0.587121  0.970823  0.230414  1
  F  F33  1  0.410393  0.030480  0.770821  1
  F  F34  1  0.087706  0.030291  0.266292  1
  F  F35  1  0.909791  0.970453  0.728510  1
