# generated using pymatgen
data_Tb10S19
_symmetry_space_group_name_H-M   'P 1'
_cell_length_a   8.72157800
_cell_length_b   8.72157800
_cell_length_c   15.79698600
_cell_angle_alpha   90.00000000
_cell_angle_beta   90.00000000
_cell_angle_gamma   90.00000000
_symmetry_Int_Tables_number   1
_chemical_formula_structural   Tb10S19
_chemical_formula_sum   'Tb20 S38'
_cell_volume   1201.61231771
_cell_formula_units_Z   2
loop_
 _symmetry_equiv_pos_site_id
 _symmetry_equiv_pos_as_xyz
  1  'x, y, z'
loop_
 _atom_site_type_symbol
 _atom_site_label
 _atom_site_symmetry_multiplicity
 _atom_site_fract_x
 _atom_site_fract_y
 _atom_site_fract_z
 _atom_site_occupancy
  Tb  Tb0  1  0.645738  0.554945  0.103163  1
  Tb  Tb1  1  0.854263  0.945056  0.103163  1
  Tb  Tb2  1  0.250000  0.750000  0.114973  1
  Tb  Tb3  1  0.459267  0.151913  0.122146  1
  Tb  Tb4  1  0.040732  0.348087  0.122146  1
  Tb  Tb5  1  0.151913  0.040732  0.377854  1
  Tb  Tb6  1  0.348087  0.459267  0.377854  1
  Tb  Tb7  1  0.750000  0.250000  0.385027  1
  Tb  Tb8  1  0.945056  0.645738  0.396837  1
  Tb  Tb9  1  0.554945  0.854263  0.396837  1
  Tb  Tb10  1  0.445056  0.145737  0.603163  1
  Tb  Tb11  1  0.054944  0.354262  0.603163  1
  Tb  Tb12  1  0.250000  0.750000  0.614973  1
  Tb  Tb13  1  0.651914  0.540733  0.622145  1
  Tb  Tb14  1  0.848086  0.959267  0.622145  1
  Tb  Tb15  1  0.959267  0.651914  0.877854  1
  Tb  Tb16  1  0.540733  0.848086  0.877854  1
  Tb  Tb17  1  0.750000  0.250000  0.885026  1
  Tb  Tb18  1  0.145737  0.054944  0.896837  1
  Tb  Tb19  1  0.354262  0.445056  0.896837  1
  S  S20  1  0.946756  0.648449  0.061741  1
  S  S21  1  0.553244  0.851551  0.061741  1
  S  S22  1  0.750000  0.250000  0.065324  1
  S  S23  1  0.151789  0.048961  0.073148  1
  S  S24  1  0.348211  0.451040  0.073148  1
  S  S25  1  0.470913  0.692376  0.249124  1
  S  S26  1  0.029087  0.807624  0.249124  1
  S  S27  1  0.926712  0.112972  0.249953  1
  S  S28  1  0.573288  0.387027  0.249953  1
  S  S29  1  0.250000  0.250000  0.250000  1
  S  S30  1  0.112972  0.573288  0.250047  1
  S  S31  1  0.387027  0.926712  0.250047  1
  S  S32  1  0.692376  0.029087  0.250875  1
  S  S33  1  0.807624  0.470913  0.250875  1
  S  S34  1  0.451040  0.151789  0.426852  1
  S  S35  1  0.048961  0.348211  0.426852  1
  S  S36  1  0.250000  0.750000  0.434676  1
  S  S37  1  0.648449  0.553244  0.438259  1
  S  S38  1  0.851551  0.946756  0.438259  1
  S  S39  1  0.148448  0.053244  0.561741  1
  S  S40  1  0.351551  0.446757  0.561741  1
  S  S41  1  0.750000  0.250000  0.565324  1
  S  S42  1  0.951039  0.651789  0.573148  1
  S  S43  1  0.548960  0.848212  0.573148  1
  S  S44  1  0.192376  0.529087  0.749124  1
  S  S45  1  0.307623  0.970913  0.749124  1
  S  S46  1  0.612972  0.073288  0.749953  1
  S  S47  1  0.887028  0.426712  0.749953  1
  S  S48  1  0.750000  0.750000  0.750000  1
  S  S49  1  0.426712  0.612972  0.750047  1
  S  S50  1  0.073288  0.887028  0.750047  1
  S  S51  1  0.970913  0.192376  0.750875  1
  S  S52  1  0.529087  0.307623  0.750875  1
  S  S53  1  0.651789  0.548960  0.926851  1
  S  S54  1  0.848212  0.951039  0.926851  1
  S  S55  1  0.250000  0.750000  0.934676  1
  S  S56  1  0.446757  0.148448  0.938258  1
  S  S57  1  0.053244  0.351551  0.938258  1
