# generated using pymatgen
data_CoTe5
_symmetry_space_group_name_H-M   'P 1'
_cell_length_a   3.96137600
_cell_length_b   5.23664093
_cell_length_c   8.25653499
_cell_angle_alpha   90.83473392
_cell_angle_beta   90.00000000
_cell_angle_gamma   90.00000000
_symmetry_Int_Tables_number   1
_chemical_formula_structural   CoTe5
_chemical_formula_sum   'Co1 Te5'
_cell_volume   171.25789270
_cell_formula_units_Z   1
loop_
 _symmetry_equiv_pos_site_id
 _symmetry_equiv_pos_as_xyz
  1  'x, y, z'
loop_
 _atom_site_type_symbol
 _atom_site_label
 _atom_site_symmetry_multiplicity
 _atom_site_fract_x
 _atom_site_fract_y
 _atom_site_fract_z
 _atom_site_occupancy
  Co  Co0  1  0.500000  0.000000  0.500000  1
  Te  Te1  1  0.500000  0.245913  0.235163  1
  Te  Te2  1  0.000000  0.276807  0.607347  1
  Te  Te3  1  0.500000  0.754087  0.764837  1
  Te  Te4  1  0.000000  0.723193  0.392653  1
  Te  Te5  1  0.000000  0.000000  0.000000  1
