# generated using pymatgen
data_Na2SrB2Pd7
_symmetry_space_group_name_H-M   'P 1'
_cell_length_a   8.28478983
_cell_length_b   8.28478921
_cell_length_c   8.28478900
_cell_angle_alpha   39.08873579
_cell_angle_beta   39.08874104
_cell_angle_gamma   39.08874054
_symmetry_Int_Tables_number   1
_chemical_formula_structural   Na2SrB2Pd7
_chemical_formula_sum   'Na2 Sr1 B2 Pd7'
_cell_volume   203.34399817
_cell_formula_units_Z   1
loop_
 _symmetry_equiv_pos_site_id
 _symmetry_equiv_pos_as_xyz
  1  'x, y, z'
loop_
 _atom_site_type_symbol
 _atom_site_label
 _atom_site_symmetry_multiplicity
 _atom_site_fract_x
 _atom_site_fract_y
 _atom_site_fract_z
 _atom_site_occupancy
  Na  Na0  1  0.139687  0.139687  0.139687  1
  Na  Na1  1  0.004795  0.004795  0.004795  1
  Sr  Sr2  1  0.857592  0.857592  0.857592  1
  B  B3  1  0.667703  0.667703  0.667703  1
  B  B4  1  0.332035  0.332035  0.332035  1
  Pd  Pd5  1  0.437382  0.934765  0.437382  1
  Pd  Pd6  1  0.437382  0.437382  0.934765  1
  Pd  Pd7  1  0.934765  0.437382  0.437382  1
  Pd  Pd8  1  0.561681  0.065575  0.561681  1
  Pd  Pd9  1  0.561681  0.561681  0.065575  1
  Pd  Pd10  1  0.065575  0.561681  0.561681  1
  Pd  Pd11  1  0.499719  0.499719  0.499719  1
