# generated using pymatgen
data_YLuRe8Si3Ge
_symmetry_space_group_name_H-M   'P 1'
_cell_length_a   7.41760960
_cell_length_b   7.41760865
_cell_length_c   4.15688700
_cell_angle_alpha   90.00000000
_cell_angle_beta   90.00000000
_cell_angle_gamma   90.42369984
_symmetry_Int_Tables_number   1
_chemical_formula_structural   YLuRe8Si3Ge
_chemical_formula_sum   'Y1 Lu1 Re8 Si3 Ge1'
_cell_volume   228.70951460
_cell_formula_units_Z   1
loop_
 _symmetry_equiv_pos_site_id
 _symmetry_equiv_pos_as_xyz
  1  'x, y, z'
loop_
 _atom_site_type_symbol
 _atom_site_label
 _atom_site_symmetry_multiplicity
 _atom_site_fract_x
 _atom_site_fract_y
 _atom_site_fract_z
 _atom_site_occupancy
  Y  Y0  1  0.998650  0.001350  0.500000  1
  Lu  Lu1  1  0.499875  0.500125  0.000000  1
  Re  Re2  1  0.657370  0.903494  0.000000  1
  Re  Re3  1  0.158932  0.587217  0.500000  1
  Re  Re4  1  0.096506  0.342630  0.000000  1
  Re  Re5  1  0.898709  0.652786  0.000000  1
  Re  Re6  1  0.412783  0.841068  0.500000  1
  Re  Re7  1  0.592407  0.161214  0.500000  1
  Re  Re8  1  0.347214  0.101291  0.000000  1
  Re  Re9  1  0.838786  0.407593  0.500000  1
  Si  Si10  1  0.789315  0.210685  0.000000  1
  Si  Si11  1  0.706809  0.705410  0.500000  1
  Si  Si12  1  0.294590  0.293191  0.500000  1
  Ge  Ge13  1  0.208053  0.791947  0.000000  1
