# generated using pymatgen
data_Er2Tm8Co2Bi3Sb
_symmetry_space_group_name_H-M   'P 1'
_cell_length_a   7.85179900
_cell_length_b   8.82072801
_cell_length_c   12.22044702
_cell_angle_alpha   89.99416361
_cell_angle_beta   90.00000000
_cell_angle_gamma   90.00000000
_symmetry_Int_Tables_number   1
_chemical_formula_structural   Er2Tm8Co2Bi3Sb
_chemical_formula_sum   'Er4 Tm16 Co4 Bi6 Sb2'
_cell_volume   846.37084419
_cell_formula_units_Z   2
loop_
 _symmetry_equiv_pos_site_id
 _symmetry_equiv_pos_as_xyz
  1  'x, y, z'
loop_
 _atom_site_type_symbol
 _atom_site_label
 _atom_site_symmetry_multiplicity
 _atom_site_fract_x
 _atom_site_fract_y
 _atom_site_fract_z
 _atom_site_occupancy
  Er  Er0  1  0.619388  0.744895  0.310628  1
  Er  Er1  1  0.119388  0.255105  0.189372  1
  Er  Er2  1  0.381833  0.249972  0.687734  1
  Er  Er3  1  0.881833  0.750028  0.812266  1
  Tm  Tm4  1  0.156125  0.743956  0.201928  1
  Tm  Tm5  1  0.656125  0.256044  0.298072  1
  Tm  Tm6  1  0.844200  0.249853  0.799617  1
  Tm  Tm7  1  0.344200  0.750147  0.700383  1
  Tm  Tm8  1  0.445099  0.747554  0.999731  1
  Tm  Tm9  1  0.945099  0.252446  0.500269  1
  Tm  Tm10  1  0.553517  0.252246  0.004079  1
  Tm  Tm11  1  0.053517  0.747754  0.495921  1
  Tm  Tm12  1  0.827321  0.961982  0.063842  1
  Tm  Tm13  1  0.327321  0.038018  0.436158  1
  Tm  Tm14  1  0.172987  0.462017  0.937742  1
  Tm  Tm15  1  0.672987  0.537983  0.562258  1
  Tm  Tm16  1  0.173234  0.037936  0.936708  1
  Tm  Tm17  1  0.673234  0.962064  0.563292  1
  Tm  Tm18  1  0.825977  0.537779  0.066665  1
  Tm  Tm19  1  0.325977  0.462221  0.433335  1
  Co  Co20  1  0.432490  0.749313  0.491412  1
  Co  Co21  1  0.932490  0.250687  0.008588  1
  Co  Co22  1  0.567569  0.250349  0.507662  1
  Co  Co23  1  0.067569  0.749651  0.992338  1
  Bi  Bi24  1  0.931052  0.991245  0.326655  1
  Bi  Bi25  1  0.431052  0.008755  0.173345  1
  Bi  Bi26  1  0.068600  0.490875  0.672892  1
  Bi  Bi27  1  0.568600  0.509125  0.827108  1
  Bi  Bi28  1  0.068377  0.009090  0.672063  1
  Bi  Bi29  1  0.568377  0.990910  0.827937  1
  Sb  Sb30  1  0.932232  0.508546  0.328085  1
  Sb  Sb31  1  0.432232  0.491454  0.171915  1
