# generated using pymatgen
data_RuCl30
_symmetry_space_group_name_H-M   'P 1'
_cell_length_a   13.47897990
_cell_length_b   13.47898517
_cell_length_c   15.68763851
_cell_angle_alpha   83.52091563
_cell_angle_beta   83.52100527
_cell_angle_gamma   124.38384445
_symmetry_Int_Tables_number   1
_chemical_formula_structural   RuCl30
_chemical_formula_sum   'Ru1 Cl30'
_cell_volume   2282.32827653
_cell_formula_units_Z   1
loop_
 _symmetry_equiv_pos_site_id
 _symmetry_equiv_pos_as_xyz
  1  'x, y, z'
loop_
 _atom_site_type_symbol
 _atom_site_label
 _atom_site_symmetry_multiplicity
 _atom_site_fract_x
 _atom_site_fract_y
 _atom_site_fract_z
 _atom_site_occupancy
  Ru  Ru0  1  0.000000  0.000000  0.000000  1
  Cl  Cl1  1  0.943804  0.943804  0.155292  1
  Cl  Cl2  1  0.056196  0.056196  0.844708  1
  Cl  Cl3  1  0.058748  0.194667  0.005235  1
  Cl  Cl4  1  0.941252  0.805333  0.994765  1
  Cl  Cl5  1  0.194668  0.058749  0.005235  1
  Cl  Cl6  1  0.805332  0.941251  0.994765  1
  Cl  Cl7  1  0.202704  0.742085  0.065404  1
  Cl  Cl8  1  0.797296  0.257915  0.934596  1
  Cl  Cl9  1  0.701800  0.077071  0.261455  1
  Cl  Cl10  1  0.257915  0.797296  0.934596  1
  Cl  Cl11  1  0.298200  0.922929  0.738545  1
  Cl  Cl12  1  0.742085  0.202704  0.065404  1
  Cl  Cl13  1  0.979654  0.194777  0.782789  1
  Cl  Cl14  1  0.922929  0.298200  0.738546  1
  Cl  Cl15  1  0.020346  0.805223  0.217211  1
  Cl  Cl16  1  0.077071  0.701800  0.261454  1
  Cl  Cl17  1  0.805223  0.020346  0.217211  1
  Cl  Cl18  1  0.194777  0.979654  0.782789  1
  Cl  Cl19  1  0.464297  0.547880  0.259766  1
  Cl  Cl20  1  0.535703  0.452120  0.740234  1
  Cl  Cl21  1  0.508323  0.205455  0.450240  1
  Cl  Cl22  1  0.452119  0.535703  0.740234  1
  Cl  Cl23  1  0.491677  0.794545  0.549760  1
  Cl  Cl24  1  0.547881  0.464297  0.259766  1
  Cl  Cl25  1  0.240092  0.428276  0.545244  1
  Cl  Cl26  1  0.794546  0.491677  0.549760  1
  Cl  Cl27  1  0.759908  0.571724  0.454756  1
  Cl  Cl28  1  0.205454  0.508323  0.450240  1
  Cl  Cl29  1  0.571724  0.759908  0.454756  1
  Cl  Cl30  1  0.428276  0.240092  0.545244  1
