# generated using pymatgen
data_Rb2NaVSe4
_symmetry_space_group_name_H-M   'P 1'
_cell_length_a   7.60522176
_cell_length_b   7.60522251
_cell_length_c   19.66461553
_cell_angle_alpha   86.48100258
_cell_angle_beta   86.48100242
_cell_angle_gamma   77.40313156
_symmetry_Int_Tables_number   1
_chemical_formula_structural   Rb2NaVSe4
_chemical_formula_sum   'Rb8 Na4 V4 Se16'
_cell_volume   1106.57268069
_cell_formula_units_Z   4
loop_
 _symmetry_equiv_pos_site_id
 _symmetry_equiv_pos_as_xyz
  1  'x, y, z'
loop_
 _atom_site_type_symbol
 _atom_site_label
 _atom_site_symmetry_multiplicity
 _atom_site_fract_x
 _atom_site_fract_y
 _atom_site_fract_z
 _atom_site_occupancy
  Rb  Rb0  1  0.838456  0.894313  0.927237  1
  Rb  Rb1  1  0.894313  0.838456  0.427237  1
  Rb  Rb2  1  0.319054  0.681160  0.749956  1
  Rb  Rb3  1  0.499271  0.471955  0.501081  1
  Rb  Rb4  1  0.681160  0.319054  0.249956  1
  Rb  Rb5  1  0.471955  0.499271  0.001081  1
  Rb  Rb6  1  0.101570  0.153926  0.573627  1
  Rb  Rb7  1  0.153926  0.101570  0.073627  1
  Na  Na8  1  0.881525  0.400663  0.786250  1
  Na  Na9  1  0.400663  0.881525  0.286250  1
  Na  Na10  1  0.600220  0.118228  0.714485  1
  Na  Na11  1  0.118228  0.600220  0.214485  1
  V  V12  1  0.812978  0.701160  0.644045  1
  V  V13  1  0.701160  0.812978  0.144045  1
  V  V14  1  0.299013  0.187746  0.856067  1
  V  V15  1  0.187746  0.299013  0.356067  1
  Se  Se16  1  0.834949  0.782706  0.753527  1
  Se  Se17  1  0.607804  0.917151  0.587535  1
  Se  Se18  1  0.782706  0.834949  0.253527  1
  Se  Se19  1  0.917151  0.607804  0.087535  1
  Se  Se20  1  0.333704  0.910956  0.912490  1
  Se  Se21  1  0.910956  0.333704  0.412490  1
  Se  Se22  1  0.716970  0.431851  0.649779  1
  Se  Se23  1  0.431851  0.716970  0.149779  1
  Se  Se24  1  0.568243  0.283751  0.851139  1
  Se  Se25  1  0.283751  0.568243  0.351139  1
  Se  Se26  1  0.089641  0.665290  0.587476  1
  Se  Se27  1  0.665290  0.089641  0.087476  1
  Se  Se28  1  0.083870  0.393210  0.912763  1
  Se  Se29  1  0.217878  0.166888  0.746385  1
  Se  Se30  1  0.393210  0.083870  0.412763  1
  Se  Se31  1  0.166888  0.217878  0.246385  1
