# generated using pymatgen
data_Pu3Ga3TcGe2
_symmetry_space_group_name_H-M   'P 1'
_cell_length_a   6.86516065
_cell_length_b   6.85686561
_cell_length_c   4.41991000
_cell_angle_alpha   90.00000000
_cell_angle_beta   90.00000000
_cell_angle_gamma   119.96114516
_symmetry_Int_Tables_number   1
_chemical_formula_structural   Pu3Ga3TcGe2
_chemical_formula_sum   'Pu3 Ga3 Tc1 Ge2'
_cell_volume   180.25623874
_cell_formula_units_Z   1
loop_
 _symmetry_equiv_pos_site_id
 _symmetry_equiv_pos_as_xyz
  1  'x, y, z'
loop_
 _atom_site_type_symbol
 _atom_site_label
 _atom_site_symmetry_multiplicity
 _atom_site_fract_x
 _atom_site_fract_y
 _atom_site_fract_z
 _atom_site_occupancy
  Pu  Pu0  1  0.000116  0.413184  0.500000  1
  Pu  Pu1  1  0.586730  0.586698  0.500000  1
  Pu  Pu2  1  0.413273  0.000076  0.500000  1
  Ga  Ga3  1  0.000107  0.768165  0.000000  1
  Ga  Ga4  1  0.231952  0.231883  0.000000  1
  Ga  Ga5  1  0.768037  0.000056  0.000000  1
  Tc  Tc6  1  0.999650  0.999866  0.500000  1
  Ge  Ge7  1  0.333403  0.666760  0.000000  1
  Ge  Ge8  1  0.666732  0.333311  0.000000  1
