# generated using pymatgen
data_Ac3Yb(Ga12Cu)2
_symmetry_space_group_name_H-M   'P 1'
_cell_length_a   6.25847077
_cell_length_b   6.25847077
_cell_length_c   15.63977400
_cell_angle_alpha   90.00000000
_cell_angle_beta   90.00000000
_cell_angle_gamma   90.19186884
_symmetry_Int_Tables_number   1
_chemical_formula_structural   Ac3Yb(Ga12Cu)2
_chemical_formula_sum   'Ac3 Yb1 Ga24 Cu2'
_cell_volume   612.58237147
_cell_formula_units_Z   1
loop_
 _symmetry_equiv_pos_site_id
 _symmetry_equiv_pos_as_xyz
  1  'x, y, z'
loop_
 _atom_site_type_symbol
 _atom_site_label
 _atom_site_symmetry_multiplicity
 _atom_site_fract_x
 _atom_site_fract_y
 _atom_site_fract_z
 _atom_site_occupancy
  Ac  Ac0  1  0.500000  0.000000  0.753700  1
  Ac  Ac1  1  0.000000  0.500000  0.246849  1
  Ac  Ac2  1  0.500000  0.000000  0.247009  1
  Yb  Yb3  1  0.000000  0.500000  0.754944  1
  Ga  Ga4  1  0.675032  0.175032  0.432855  1
  Ga  Ga5  1  0.676757  0.823243  0.568808  1
  Ga  Ga6  1  0.172910  0.672910  0.571804  1
  Ga  Ga7  1  0.827090  0.327090  0.571804  1
  Ga  Ga8  1  0.500000  0.500000  0.177562  1
  Ga  Ga9  1  0.500000  0.500000  0.820653  1
  Ga  Ga10  1  0.000000  0.000000  0.820653  1
  Ga  Ga11  1  0.000000  0.000000  0.177562  1
  Ga  Ga12  1  0.500000  0.500000  0.342741  1
  Ga  Ga13  1  0.500000  0.500000  0.658728  1
  Ga  Ga14  1  0.000000  0.000000  0.658728  1
  Ga  Ga15  1  0.000000  0.000000  0.342741  1
  Ga  Ga16  1  0.247086  0.747086  0.915218  1
  Ga  Ga17  1  0.246572  0.253428  0.915531  1
  Ga  Ga18  1  0.753428  0.746572  0.915531  1
  Ga  Ga19  1  0.251245  0.248755  0.081668  1
  Ga  Ga20  1  0.748755  0.751245  0.081668  1
  Ga  Ga21  1  0.752914  0.252914  0.915218  1
  Ga  Ga22  1  0.749600  0.249600  0.081780  1
  Ga  Ga23  1  0.250400  0.750400  0.081780  1
  Ga  Ga24  1  0.324968  0.824968  0.432855  1
  Ga  Ga25  1  0.174501  0.325499  0.431725  1
  Ga  Ga26  1  0.825499  0.674501  0.431725  1
  Ga  Ga27  1  0.323243  0.176757  0.568808  1
  Cu  Cu28  1  0.500000  0.000000  0.998994  1
  Cu  Cu29  1  0.000000  0.500000  0.000356  1
