# generated using pymatgen
data_Dy3ErAl18OsPd5
_symmetry_space_group_name_H-M   'P 1'
_cell_length_a   7.61799053
_cell_length_b   7.61792923
_cell_length_c   9.47372778
_cell_angle_alpha   89.95029810
_cell_angle_beta   89.93510150
_cell_angle_gamma   119.47660988
_symmetry_Int_Tables_number   1
_chemical_formula_structural   Dy3ErAl18OsPd5
_chemical_formula_sum   'Dy3 Er1 Al18 Os1 Pd5'
_cell_volume   478.62396489
_cell_formula_units_Z   1
loop_
 _symmetry_equiv_pos_site_id
 _symmetry_equiv_pos_as_xyz
  1  'x, y, z'
loop_
 _atom_site_type_symbol
 _atom_site_label
 _atom_site_symmetry_multiplicity
 _atom_site_fract_x
 _atom_site_fract_y
 _atom_site_fract_z
 _atom_site_occupancy
  Dy  Dy0  1  0.993799  0.669888  0.248929  1
  Dy  Dy1  1  0.006135  0.329889  0.750947  1
  Dy  Dy2  1  0.670372  0.994142  0.249043  1
  Er  Er3  1  0.329014  0.005197  0.751554  1
  Al  Al4  1  0.129140  0.129168  0.246614  1
  Al  Al5  1  0.871370  0.870881  0.752783  1
  Al  Al6  1  0.999503  0.329964  0.074223  1
  Al  Al7  1  0.001184  0.669835  0.924508  1
  Al  Al8  1  0.999624  0.664624  0.579365  1
  Al  Al9  1  0.335317  0.000612  0.421968  1
  Al  Al10  1  0.000914  0.335510  0.421883  1
  Al  Al11  1  0.664035  0.999799  0.579147  1
  Al  Al12  1  0.670080  0.001284  0.924680  1
  Al  Al13  1  0.330180  0.999081  0.074658  1
  Al  Al14  1  0.333600  0.333134  0.557988  1
  Al  Al15  1  0.665888  0.666013  0.444280  1
  Al  Al16  1  0.671655  0.671632  0.051913  1
  Al  Al17  1  0.329050  0.328498  0.946108  1
  Al  Al18  1  0.341055  0.548445  0.249077  1
  Al  Al19  1  0.657456  0.450555  0.750907  1
  Al  Al20  1  0.547772  0.341279  0.249203  1
  Al  Al21  1  0.452024  0.660328  0.750841  1
  Os  Os22  1  0.000725  0.000201  0.999335  1
  Pd  Pd23  1  0.672409  0.327879  0.000105  1
  Pd  Pd24  1  0.328000  0.672178  0.000037  1
  Pd  Pd25  1  0.327149  0.672546  0.500059  1
  Pd  Pd26  1  0.672542  0.327359  0.500020  1
  Pd  Pd27  1  0.000012  0.000080  0.499823  1
