# generated using pymatgen
data_RbScV2O7
_symmetry_space_group_name_H-M   'P 1'
_cell_length_a   10.79834300
_cell_length_b   7.97333400
_cell_length_c   8.93610880
_cell_angle_alpha   73.48259286
_cell_angle_beta   90.00000000
_cell_angle_gamma   90.00000000
_symmetry_Int_Tables_number   1
_chemical_formula_structural   RbScV2O7
_chemical_formula_sum   'Rb4 Sc4 V8 O28'
_cell_volume   737.63817025
_cell_formula_units_Z   4
loop_
 _symmetry_equiv_pos_site_id
 _symmetry_equiv_pos_as_xyz
  1  'x, y, z'
loop_
 _atom_site_type_symbol
 _atom_site_label
 _atom_site_symmetry_multiplicity
 _atom_site_fract_x
 _atom_site_fract_y
 _atom_site_fract_z
 _atom_site_occupancy
  Rb  Rb0  1  0.179164  0.827894  0.550406  1
  Rb  Rb1  1  0.320836  0.827894  0.050406  1
  Rb  Rb2  1  0.820836  0.172106  0.449594  1
  Rb  Rb3  1  0.679164  0.172106  0.949594  1
  Sc  Sc4  1  0.400283  0.235679  0.234183  1
  Sc  Sc5  1  0.599717  0.764321  0.765817  1
  Sc  Sc6  1  0.099717  0.235679  0.734183  1
  Sc  Sc7  1  0.900283  0.764321  0.265817  1
  V  V8  1  0.089795  0.140795  0.164911  1
  V  V9  1  0.862846  0.551698  0.695797  1
  V  V10  1  0.910205  0.859205  0.835089  1
  V  V11  1  0.589795  0.859205  0.335089  1
  V  V12  1  0.362846  0.448302  0.804203  1
  V  V13  1  0.637154  0.551698  0.195797  1
  V  V14  1  0.137154  0.448302  0.304203  1
  V  V15  1  0.410205  0.140795  0.664911  1
  O  O16  1  0.290927  0.453774  0.249715  1
  O  O17  1  0.953860  0.644515  0.823217  1
  O  O18  1  0.886555  0.681480  0.509068  1
  O  O19  1  0.709073  0.546226  0.750285  1
  O  O20  1  0.234830  0.087126  0.243899  1
  O  O21  1  0.765170  0.912874  0.756101  1
  O  O22  1  0.512783  0.994592  0.780839  1
  O  O23  1  0.012783  0.005408  0.719161  1
  O  O24  1  0.546140  0.644515  0.323217  1
  O  O25  1  0.089293  0.140347  0.974701  1
  O  O26  1  0.113445  0.318520  0.490932  1
  O  O27  1  0.734830  0.912874  0.256101  1
  O  O28  1  0.082711  0.656822  0.281382  1
  O  O29  1  0.582711  0.343178  0.218618  1
  O  O30  1  0.910707  0.859653  0.025299  1
  O  O31  1  0.987217  0.994592  0.280839  1
  O  O32  1  0.790927  0.546226  0.250285  1
  O  O33  1  0.209073  0.453774  0.749715  1
  O  O34  1  0.386555  0.318520  0.990932  1
  O  O35  1  0.613445  0.681480  0.009068  1
  O  O36  1  0.417289  0.656822  0.781382  1
  O  O37  1  0.917289  0.343178  0.718618  1
  O  O38  1  0.265170  0.087126  0.743899  1
  O  O39  1  0.410707  0.140347  0.474701  1
  O  O40  1  0.487217  0.005408  0.219161  1
  O  O41  1  0.453860  0.355485  0.676783  1
  O  O42  1  0.046140  0.355485  0.176783  1
  O  O43  1  0.589293  0.859653  0.525299  1
