# generated using pymatgen
data_Tc7P4Os
_symmetry_space_group_name_H-M   'P 1'
_cell_length_a   3.97906800
_cell_length_b   5.96320619
_cell_length_c   6.91942541
_cell_angle_alpha   89.68803037
_cell_angle_beta   90.00000000
_cell_angle_gamma   90.00000000
_symmetry_Int_Tables_number   1
_chemical_formula_structural   Tc7P4Os
_chemical_formula_sum   'Tc7 P4 Os1'
_cell_volume   164.18171254
_cell_formula_units_Z   1
loop_
 _symmetry_equiv_pos_site_id
 _symmetry_equiv_pos_as_xyz
  1  'x, y, z'
loop_
 _atom_site_type_symbol
 _atom_site_label
 _atom_site_symmetry_multiplicity
 _atom_site_fract_x
 _atom_site_fract_y
 _atom_site_fract_z
 _atom_site_occupancy
  Tc  Tc0  1  0.750000  0.009032  0.663626  1
  Tc  Tc1  1  0.250000  0.982074  0.335190  1
  Tc  Tc2  1  0.750000  0.515889  0.834321  1
  Tc  Tc3  1  0.250000  0.490050  0.164943  1
  Tc  Tc4  1  0.250000  0.355847  0.573030  1
  Tc  Tc5  1  0.750000  0.638426  0.425871  1
  Tc  Tc6  1  0.250000  0.865341  0.924616  1
  P  P7  1  0.250000  0.748660  0.607222  1
  P  P8  1  0.750000  0.244353  0.394415  1
  P  P9  1  0.250000  0.259323  0.895980  1
  P  P10  1  0.750000  0.749014  0.105116  1
  Os  Os11  1  0.750000  0.141992  0.075669  1
