# generated using pymatgen
data_Ga2Bi6SbO18
_symmetry_space_group_name_H-M   'P 1'
_cell_length_a   9.19339500
_cell_length_b   9.19339508
_cell_length_c   5.11432700
_cell_angle_alpha   90.00000000
_cell_angle_beta   90.00000000
_cell_angle_gamma   120.00000234
_symmetry_Int_Tables_number   1
_chemical_formula_structural   Ga2Bi6SbO18
_chemical_formula_sum   'Ga2 Bi6 Sb1 O18'
_cell_volume   374.34407042
_cell_formula_units_Z   1
loop_
 _symmetry_equiv_pos_site_id
 _symmetry_equiv_pos_as_xyz
  1  'x, y, z'
loop_
 _atom_site_type_symbol
 _atom_site_label
 _atom_site_symmetry_multiplicity
 _atom_site_fract_x
 _atom_site_fract_y
 _atom_site_fract_z
 _atom_site_occupancy
  Ga  Ga0  1  0.000000  0.000000  0.493452  1
  Ga  Ga1  1  0.333333  0.666667  0.998653  1
  Bi  Bi2  1  0.011400  0.376288  0.501503  1
  Bi  Bi3  1  0.285994  0.292392  0.000527  1
  Bi  Bi4  1  0.006398  0.714006  0.000527  1
  Bi  Bi5  1  0.623712  0.635112  0.501503  1
  Bi  Bi6  1  0.364888  0.988600  0.501503  1
  Bi  Bi7  1  0.707608  0.993602  0.000527  1
  Sb  Sb8  1  0.666667  0.333333  0.001076  1
  O  O9  1  0.086023  0.204934  0.721245  1
  O  O10  1  0.230359  0.456933  0.222177  1
  O  O11  1  0.127007  0.598666  0.784452  1
  O  O12  1  0.401334  0.528341  0.784452  1
  O  O13  1  0.226575  0.769641  0.222177  1
  O  O14  1  0.118911  0.913977  0.721245  1
  O  O15  1  0.543067  0.773425  0.222177  1
  O  O16  1  0.207646  0.089704  0.272646  1
  O  O17  1  0.471659  0.872993  0.784452  1
  O  O18  1  0.795066  0.881089  0.721245  1
  O  O19  1  0.455005  0.228671  0.781086  1
  O  O20  1  0.596269  0.126889  0.218636  1
  O  O21  1  0.530620  0.403731  0.218636  1
  O  O22  1  0.771329  0.226335  0.781086  1
  O  O23  1  0.910296  0.117942  0.272646  1
  O  O24  1  0.773665  0.544995  0.781086  1
  O  O25  1  0.873111  0.469380  0.218636  1
  O  O26  1  0.882058  0.792354  0.272646  1
