# generated using pymatgen
data_Tb2Er6In3Ru
_symmetry_space_group_name_H-M   'P 1'
_cell_length_a   10.35218300
_cell_length_b   10.34269514
_cell_length_c   7.04608672
_cell_angle_alpha   90.05051495
_cell_angle_beta   90.00000000
_cell_angle_gamma   120.03034710
_symmetry_Int_Tables_number   1
_chemical_formula_structural   Tb2Er6In3Ru
_chemical_formula_sum   'Tb4 Er12 In6 Ru2'
_cell_volume   653.14734712
_cell_formula_units_Z   2
loop_
 _symmetry_equiv_pos_site_id
 _symmetry_equiv_pos_as_xyz
  1  'x, y, z'
loop_
 _atom_site_type_symbol
 _atom_site_label
 _atom_site_symmetry_multiplicity
 _atom_site_fract_x
 _atom_site_fract_y
 _atom_site_fract_z
 _atom_site_occupancy
  Tb  Tb0  1  0.532629  0.065258  0.793513  1
  Tb  Tb1  1  0.935427  0.467633  0.794318  1
  Tb  Tb2  1  0.532207  0.467633  0.794318  1
  Tb  Tb3  1  0.466991  0.933982  0.293743  1
  Er  Er4  1  0.066570  0.533177  0.294853  1
  Er  Er5  1  0.466607  0.533177  0.294853  1
  Er  Er6  1  0.822589  0.645180  0.497049  1
  Er  Er7  1  0.353972  0.177491  0.497467  1
  Er  Er8  1  0.823519  0.177491  0.497467  1
  Er  Er9  1  0.177369  0.354737  0.999129  1
  Er  Er10  1  0.645841  0.822517  0.998791  1
  Er  Er11  1  0.176676  0.822517  0.998791  1
  Er  Er12  1  0.667067  0.334133  0.173082  1
  Er  Er13  1  0.332918  0.665837  0.672698  1
  Er  Er14  1  0.000098  0.000195  0.778203  1
  Er  Er15  1  0.000030  0.000061  0.277914  1
  In  In16  1  0.837619  0.675241  0.040768  1
  In  In17  1  0.324935  0.162545  0.040975  1
  In  In18  1  0.837609  0.162545  0.040975  1
  In  In19  1  0.162993  0.325986  0.540052  1
  In  In20  1  0.674440  0.836804  0.540516  1
  In  In21  1  0.162366  0.836804  0.540516  1
  Ru  Ru22  1  0.666641  0.333282  0.567397  1
  Ru  Ru23  1  0.332886  0.665774  0.068516  1
