# generated using pymatgen
data_PrYFe4(CoB2)4
_symmetry_space_group_name_H-M   'P 1'
_cell_length_a   7.03062659
_cell_length_b   7.01115860
_cell_length_c   3.80797000
_cell_angle_alpha   90.00000000
_cell_angle_beta   90.00000000
_cell_angle_gamma   90.04720189
_symmetry_Int_Tables_number   1
_chemical_formula_structural   PrYFe4(CoB2)4
_chemical_formula_sum   'Pr1 Y1 Fe4 Co4 B8'
_cell_volume   187.70558496
_cell_formula_units_Z   1
loop_
 _symmetry_equiv_pos_site_id
 _symmetry_equiv_pos_as_xyz
  1  'x, y, z'
loop_
 _atom_site_type_symbol
 _atom_site_label
 _atom_site_symmetry_multiplicity
 _atom_site_fract_x
 _atom_site_fract_y
 _atom_site_fract_z
 _atom_site_occupancy
  Pr  Pr0  1  0.500000  0.500000  0.500634  1
  Y  Y1  1  0.000000  0.000000  0.001961  1
  Fe  Fe2  1  0.868505  0.384487  0.105923  1
  Fe  Fe3  1  0.131495  0.615513  0.105923  1
  Fe  Fe4  1  0.887067  0.634921  0.605339  1
  Fe  Fe5  1  0.112933  0.365079  0.605339  1
  Co  Co6  1  0.641201  0.113790  0.391652  1
  Co  Co7  1  0.358799  0.886210  0.391652  1
  Co  Co8  1  0.617094  0.863879  0.891271  1
  Co  Co9  1  0.382906  0.136121  0.891271  1
  B  B10  1  0.334108  0.801800  0.897197  1
  B  B11  1  0.665892  0.198200  0.897197  1
  B  B12  1  0.291522  0.161761  0.395003  1
  B  B13  1  0.708478  0.838239  0.395003  1
  B  B14  1  0.162678  0.704494  0.607626  1
  B  B15  1  0.837322  0.295506  0.607626  1
  B  B16  1  0.195503  0.333227  0.104692  1
  B  B17  1  0.804497  0.666773  0.104692  1
