# generated using pymatgen
data_NdSm4Er3(Si3Rh)4
_symmetry_space_group_name_H-M   'P 1'
_cell_length_a   8.20672700
_cell_length_b   8.20672669
_cell_length_c   8.07453200
_cell_angle_alpha   90.00000000
_cell_angle_beta   90.00000000
_cell_angle_gamma   119.99999720
_symmetry_Int_Tables_number   1
_chemical_formula_structural   NdSm4Er3(Si3Rh)4
_chemical_formula_sum   'Nd1 Sm4 Er3 Si12 Rh4'
_cell_volume   470.96427090
_cell_formula_units_Z   1
loop_
 _symmetry_equiv_pos_site_id
 _symmetry_equiv_pos_as_xyz
  1  'x, y, z'
loop_
 _atom_site_type_symbol
 _atom_site_label
 _atom_site_symmetry_multiplicity
 _atom_site_fract_x
 _atom_site_fract_y
 _atom_site_fract_z
 _atom_site_occupancy
  Nd  Nd0  1  0.000000  0.000000  0.250000  1
  Sm  Sm1  1  0.000000  0.000000  0.750000  1
  Sm  Sm2  1  0.495289  0.504711  0.250000  1
  Sm  Sm3  1  0.495289  0.990579  0.250000  1
  Sm  Sm4  1  0.009421  0.504711  0.250000  1
  Er  Er5  1  0.507108  0.492892  0.750000  1
  Er  Er6  1  0.985786  0.492892  0.750000  1
  Er  Er7  1  0.507108  0.014214  0.750000  1
  Si  Si8  1  0.833239  0.166761  0.505297  1
  Si  Si9  1  0.833239  0.666479  0.505297  1
  Si  Si10  1  0.333521  0.166761  0.505297  1
  Si  Si11  1  0.833239  0.166761  0.994703  1
  Si  Si12  1  0.833239  0.666479  0.994703  1
  Si  Si13  1  0.333521  0.166761  0.994703  1
  Si  Si14  1  0.168221  0.831779  0.996539  1
  Si  Si15  1  0.663557  0.831779  0.996539  1
  Si  Si16  1  0.168221  0.336443  0.996539  1
  Si  Si17  1  0.168221  0.831779  0.503461  1
  Si  Si18  1  0.663557  0.831779  0.503461  1
  Si  Si19  1  0.168221  0.336443  0.503461  1
  Rh  Rh20  1  0.666667  0.333333  0.491171  1
  Rh  Rh21  1  0.666667  0.333333  0.008829  1
  Rh  Rh22  1  0.333333  0.666667  0.958155  1
  Rh  Rh23  1  0.333333  0.666667  0.541845  1
