# generated using pymatgen
data_Tb2YMnVC6
_symmetry_space_group_name_H-M   'P 1'
_cell_length_a   8.18356603
_cell_length_b   8.18546676
_cell_length_c   4.98561600
_cell_angle_alpha   90.00000000
_cell_angle_beta   90.00000000
_cell_angle_gamma   120.00283825
_symmetry_Int_Tables_number   1
_chemical_formula_structural   Tb2YMnVC6
_chemical_formula_sum   'Tb4 Y2 Mn2 V2 C12'
_cell_volume   289.21650669
_cell_formula_units_Z   2
loop_
 _symmetry_equiv_pos_site_id
 _symmetry_equiv_pos_as_xyz
  1  'x, y, z'
loop_
 _atom_site_type_symbol
 _atom_site_label
 _atom_site_symmetry_multiplicity
 _atom_site_fract_x
 _atom_site_fract_y
 _atom_site_fract_z
 _atom_site_occupancy
  Tb  Tb0  1  0.682038  0.060289  0.250000  1
  Tb  Tb1  1  0.318357  0.939794  0.750000  1
  Tb  Tb2  1  0.060329  0.378468  0.750000  1
  Tb  Tb3  1  0.378712  0.318431  0.250000  1
  Y  Y4  1  0.622054  0.682172  0.750000  1
  Y  Y5  1  0.939669  0.621931  0.250000  1
  Mn  Mn6  1  0.666706  0.333603  0.750000  1
  Mn  Mn7  1  0.333070  0.666370  0.250000  1
  V  V8  1  0.000048  0.999973  0.499977  1
  V  V9  1  0.000048  0.999973  0.000023  1
  C  C10  1  0.961882  0.766566  0.750000  1
  C  C11  1  0.195385  0.961864  0.250000  1
  C  C12  1  0.766410  0.804242  0.250000  1
  C  C13  1  0.233359  0.195000  0.750000  1
  C  C14  1  0.804142  0.037946  0.750000  1
  C  C15  1  0.038259  0.233079  0.250000  1
  C  C16  1  0.864192  0.573178  0.750000  1
  C  C17  1  0.290635  0.863653  0.250000  1
  C  C18  1  0.572843  0.708912  0.250000  1
  C  C19  1  0.426992  0.291188  0.750000  1
  C  C20  1  0.135630  0.426778  0.250000  1
  C  C21  1  0.709238  0.136590  0.750000  1
