# generated using pymatgen
data_Tb2ErAl12NiOs3
_symmetry_space_group_name_H-M   'P 1'
_cell_length_a   8.81036709
_cell_length_b   8.81036722
_cell_length_c   9.49053448
_cell_angle_alpha   90.42297964
_cell_angle_beta   89.57701736
_cell_angle_gamma   120.32711159
_symmetry_Int_Tables_number   1
_chemical_formula_structural   Tb2ErAl12NiOs3
_chemical_formula_sum   'Tb4 Er2 Al24 Ni2 Os6'
_cell_volume   635.84697960
_cell_formula_units_Z   2
loop_
 _symmetry_equiv_pos_site_id
 _symmetry_equiv_pos_as_xyz
  1  'x, y, z'
loop_
 _atom_site_type_symbol
 _atom_site_label
 _atom_site_symmetry_multiplicity
 _atom_site_fract_x
 _atom_site_fract_y
 _atom_site_fract_z
 _atom_site_occupancy
  Tb  Tb0  1  0.197056  0.386511  0.251068  1
  Tb  Tb1  1  0.802944  0.613489  0.748932  1
  Tb  Tb2  1  0.613489  0.802944  0.251068  1
  Tb  Tb3  1  0.386511  0.197056  0.748932  1
  Er  Er4  1  0.193704  0.806296  0.253593  1
  Er  Er5  1  0.806296  0.193704  0.746407  1
  Al  Al6  1  0.331840  0.668160  0.022237  1
  Al  Al7  1  0.668160  0.331840  0.977763  1
  Al  Al8  1  0.666958  0.333042  0.514702  1
  Al  Al9  1  0.333042  0.666958  0.485298  1
  Al  Al10  1  0.161441  0.326668  0.577247  1
  Al  Al11  1  0.838559  0.673332  0.422753  1
  Al  Al12  1  0.673332  0.838559  0.577247  1
  Al  Al13  1  0.836759  0.672007  0.075477  1
  Al  Al14  1  0.326668  0.161441  0.422753  1
  Al  Al15  1  0.163241  0.327993  0.924523  1
  Al  Al16  1  0.163012  0.836988  0.577685  1
  Al  Al17  1  0.327993  0.163241  0.075477  1
  Al  Al18  1  0.836988  0.163012  0.422315  1
  Al  Al19  1  0.672007  0.836759  0.924523  1
  Al  Al20  1  0.837039  0.162961  0.076403  1
  Al  Al21  1  0.162961  0.837039  0.923597  1
  Al  Al22  1  0.560971  0.119531  0.245086  1
  Al  Al23  1  0.439029  0.880469  0.754914  1
  Al  Al24  1  0.880469  0.439029  0.245086  1
  Al  Al25  1  0.119531  0.560971  0.754914  1
  Al  Al26  1  0.563344  0.436656  0.247724  1
  Al  Al27  1  0.436656  0.563344  0.752276  1
  Al  Al28  1  0.001882  0.998118  0.250181  1
  Al  Al29  1  0.998118  0.001882  0.749819  1
  Ni  Ni30  1  0.500000  0.000000  0.000000  1
  Ni  Ni31  1  0.000000  0.500000  0.000000  1
  Os  Os32  1  0.500000  0.000000  0.500000  1
  Os  Os33  1  0.500000  0.500000  0.000000  1
  Os  Os34  1  0.000000  0.500000  0.500000  1
  Os  Os35  1  0.500000  0.500000  0.500000  1
  Os  Os36  1  0.000000  0.000000  0.000000  1
  Os  Os37  1  0.000000  0.000000  0.500000  1
