# generated using pymatgen
data_Cr3SnCl16
_symmetry_space_group_name_H-M   'P 1'
_cell_length_a   6.99563694
_cell_length_b   10.54763582
_cell_length_c   10.60036155
_cell_angle_alpha   77.74077322
_cell_angle_beta   89.81543810
_cell_angle_gamma   89.92722888
_symmetry_Int_Tables_number   1
_chemical_formula_structural   Cr3SnCl16
_chemical_formula_sum   'Cr3 Sn1 Cl16'
_cell_volume   764.33338197
_cell_formula_units_Z   1
loop_
 _symmetry_equiv_pos_site_id
 _symmetry_equiv_pos_as_xyz
  1  'x, y, z'
loop_
 _atom_site_type_symbol
 _atom_site_label
 _atom_site_symmetry_multiplicity
 _atom_site_fract_x
 _atom_site_fract_y
 _atom_site_fract_z
 _atom_site_occupancy
  Cr  Cr0  1  0.074791  0.248066  0.133072  1
  Cr  Cr1  1  0.575278  0.752205  0.366206  1
  Cr  Cr2  1  0.925379  0.751780  0.866766  1
  Sn  Sn3  1  0.424233  0.247950  0.634250  1
  Cl  Cl4  1  0.932503  0.200122  0.973834  1
  Cl  Cl5  1  0.431958  0.799854  0.525988  1
  Cl  Cl6  1  0.067288  0.799549  0.026396  1
  Cl  Cl7  1  0.580612  0.196165  0.458895  1
  Cl  Cl8  1  0.424704  0.069090  0.804430  1
  Cl  Cl9  1  0.925399  0.914441  0.710625  1
  Cl  Cl10  1  0.573744  0.914558  0.210048  1
  Cl  Cl11  1  0.074591  0.085081  0.288753  1
  Cl  Cl12  1  0.112340  0.308624  0.577699  1
  Cl  Cl13  1  0.640496  0.696387  0.918579  1
  Cl  Cl14  1  0.861138  0.698830  0.416782  1
  Cl  Cl15  1  0.359924  0.303011  0.080946  1
  Cl  Cl16  1  0.580928  0.417852  0.697034  1
  Cl  Cl17  1  0.070020  0.596712  0.809616  1
  Cl  Cl18  1  0.433196  0.595760  0.310340  1
  Cl  Cl19  1  0.931477  0.403960  0.189740  1
