# generated using pymatgen
data_Pr6Ho10Cd4OsPd3
_symmetry_space_group_name_H-M   'P 1'
_cell_length_a   9.82338862
_cell_length_b   9.82338965
_cell_length_c   9.82338829
_cell_angle_alpha   59.65584532
_cell_angle_beta   59.65583981
_cell_angle_gamma   59.65584689
_symmetry_Int_Tables_number   1
_chemical_formula_structural   Pr6Ho10Cd4OsPd3
_chemical_formula_sum   'Pr6 Ho10 Cd4 Os1 Pd3'
_cell_volume   665.05820639
_cell_formula_units_Z   1
loop_
 _symmetry_equiv_pos_site_id
 _symmetry_equiv_pos_as_xyz
  1  'x, y, z'
loop_
 _atom_site_type_symbol
 _atom_site_label
 _atom_site_symmetry_multiplicity
 _atom_site_fract_x
 _atom_site_fract_y
 _atom_site_fract_z
 _atom_site_occupancy
  Pr  Pr0  1  0.937406  0.562384  0.562384  1
  Pr  Pr1  1  0.555069  0.940520  0.940520  1
  Pr  Pr2  1  0.562384  0.937406  0.562384  1
  Pr  Pr3  1  0.940520  0.555069  0.940520  1
  Pr  Pr4  1  0.562384  0.562384  0.937406  1
  Pr  Pr5  1  0.940520  0.940520  0.555069  1
  Ho  Ho6  1  0.352682  0.352682  0.352682  1
  Ho  Ho7  1  0.347455  0.347455  0.952706  1
  Ho  Ho8  1  0.347455  0.952706  0.347455  1
  Ho  Ho9  1  0.952706  0.347455  0.347455  1
  Ho  Ho10  1  0.819174  0.185718  0.185718  1
  Ho  Ho11  1  0.183257  0.812394  0.812394  1
  Ho  Ho12  1  0.185718  0.819174  0.185718  1
  Ho  Ho13  1  0.812394  0.183257  0.812394  1
  Ho  Ho14  1  0.185718  0.185718  0.819174  1
  Ho  Ho15  1  0.812394  0.812394  0.183257  1
  Cd  Cd16  1  0.578741  0.578741  0.578741  1
  Cd  Cd17  1  0.579431  0.579431  0.260820  1
  Cd  Cd18  1  0.579431  0.260820  0.579431  1
  Cd  Cd19  1  0.260820  0.579431  0.579431  1
  Os  Os20  1  0.143162  0.143162  0.143162  1
  Pd  Pd21  1  0.144795  0.144795  0.571587  1
  Pd  Pd22  1  0.144795  0.571587  0.144795  1
  Pd  Pd23  1  0.571587  0.144795  0.144795  1
