# generated using pymatgen
data_U8Re(B8Mo)3
_symmetry_space_group_name_H-M   'P 1'
_cell_length_a   3.67997800
_cell_length_b   9.27294319
_cell_length_c   11.36465023
_cell_angle_alpha   90.02325441
_cell_angle_beta   90.00000000
_cell_angle_gamma   90.00000000
_symmetry_Int_Tables_number   1
_chemical_formula_structural   U8Re(B8Mo)3
_chemical_formula_sum   'U8 Re1 B24 Mo3'
_cell_volume   387.80987171
_cell_formula_units_Z   1
loop_
 _symmetry_equiv_pos_site_id
 _symmetry_equiv_pos_as_xyz
  1  'x, y, z'
loop_
 _atom_site_type_symbol
 _atom_site_label
 _atom_site_symmetry_multiplicity
 _atom_site_fract_x
 _atom_site_fract_y
 _atom_site_fract_z
 _atom_site_occupancy
  U  U0  1  0.000000  0.335212  0.407358  1
  U  U1  1  0.000000  0.664305  0.591996  1
  U  U2  1  0.000000  0.835339  0.092753  1
  U  U3  1  0.000000  0.164833  0.907956  1
  U  U4  1  0.000000  0.955891  0.394886  1
  U  U5  1  0.000000  0.044663  0.605030  1
  U  U6  1  0.000000  0.456262  0.105225  1
  U  U7  1  0.000000  0.543417  0.894746  1
  Re  Re8  1  0.000000  0.855287  0.820146  1
  B  B9  1  0.500000  0.549687  0.433269  1
  B  B10  1  0.500000  0.450185  0.566789  1
  B  B11  1  0.500000  0.049347  0.066374  1
  B  B12  1  0.500000  0.949841  0.932514  1
  B  B13  1  0.500000  0.743200  0.424580  1
  B  B14  1  0.500000  0.256714  0.575679  1
  B  B15  1  0.500000  0.243253  0.075587  1
  B  B16  1  0.500000  0.756975  0.923375  1
  B  B17  1  0.500000  0.803852  0.272889  1
  B  B18  1  0.500000  0.195632  0.727432  1
  B  B19  1  0.500000  0.303740  0.227155  1
  B  B20  1  0.500000  0.696862  0.773099  1
  B  B21  1  0.500000  0.644910  0.187331  1
  B  B22  1  0.500000  0.355233  0.812723  1
  B  B23  1  0.500000  0.144659  0.312349  1
  B  B24  1  0.500000  0.855886  0.688358  1
  B  B25  1  0.500000  0.985119  0.218539  1
  B  B26  1  0.500000  0.013845  0.781727  1
  B  B27  1  0.500000  0.485314  0.281374  1
  B  B28  1  0.500000  0.515127  0.718726  1
  B  B29  1  0.500000  0.642828  0.038976  1
  B  B30  1  0.500000  0.357717  0.960643  1
  B  B31  1  0.500000  0.142488  0.460430  1
  B  B32  1  0.500000  0.857790  0.540071  1
  Mo  Mo33  1  0.000000  0.644881  0.320178  1
  Mo  Mo34  1  0.000000  0.355070  0.680177  1
  Mo  Mo35  1  0.000000  0.144639  0.179558  1
