# generated using pymatgen
data_HoCu3HgRh
_symmetry_space_group_name_H-M   'P 1'
_cell_length_a   5.22170260
_cell_length_b   5.22170193
_cell_length_c   5.22170231
_cell_angle_alpha   58.23536631
_cell_angle_beta   58.23537578
_cell_angle_gamma   58.23537185
_symmetry_Int_Tables_number   1
_chemical_formula_structural   HoCu3HgRh
_chemical_formula_sum   'Ho1 Cu3 Hg1 Rh1'
_cell_volume   96.60496582
_cell_formula_units_Z   1
loop_
 _symmetry_equiv_pos_site_id
 _symmetry_equiv_pos_as_xyz
  1  'x, y, z'
loop_
 _atom_site_type_symbol
 _atom_site_label
 _atom_site_symmetry_multiplicity
 _atom_site_fract_x
 _atom_site_fract_y
 _atom_site_fract_z
 _atom_site_occupancy
  Ho  Ho0  1  0.252386  0.252386  0.252386  1
  Cu  Cu1  1  0.623295  0.623295  0.123362  1
  Cu  Cu2  1  0.623295  0.123362  0.623295  1
  Cu  Cu3  1  0.123362  0.623295  0.623295  1
  Hg  Hg4  1  0.004321  0.004321  0.004321  1
  Rh  Rh5  1  0.623341  0.623341  0.623341  1
