# generated using pymatgen
data_TbTiCoO5
_symmetry_space_group_name_H-M   'P 1'
_cell_length_a   5.72833300
_cell_length_b   7.37050800
_cell_length_c   8.49487400
_cell_angle_alpha   90.00000000
_cell_angle_beta   90.00000000
_cell_angle_gamma   90.00000000
_symmetry_Int_Tables_number   1
_chemical_formula_structural   TbTiCoO5
_chemical_formula_sum   'Tb4 Ti4 Co4 O20'
_cell_volume   358.65973229
_cell_formula_units_Z   4
loop_
 _symmetry_equiv_pos_site_id
 _symmetry_equiv_pos_as_xyz
  1  'x, y, z'
loop_
 _atom_site_type_symbol
 _atom_site_label
 _atom_site_symmetry_multiplicity
 _atom_site_fract_x
 _atom_site_fract_y
 _atom_site_fract_z
 _atom_site_occupancy
  Tb  Tb0  1  0.500000  0.361044  0.328329  1
  Tb  Tb1  1  0.500000  0.638956  0.671671  1
  Tb  Tb2  1  0.500000  0.138956  0.828329  1
  Tb  Tb3  1  0.500000  0.861044  0.171671  1
  Ti  Ti4  1  0.000000  0.120922  0.146957  1
  Ti  Ti5  1  0.000000  0.879078  0.853043  1
  Ti  Ti6  1  0.000000  0.379078  0.646957  1
  Ti  Ti7  1  0.000000  0.620922  0.353043  1
  Co  Co8  1  0.253484  0.000000  0.500000  1
  Co  Co9  1  0.746516  0.000000  0.500000  1
  Co  Co10  1  0.746516  0.500000  0.000000  1
  Co  Co11  1  0.253484  0.500000  0.000000  1
  O  O12  1  0.223382  0.000000  0.000000  1
  O  O13  1  0.776618  0.000000  0.000000  1
  O  O14  1  0.776618  0.500000  0.500000  1
  O  O15  1  0.223382  0.500000  0.500000  1
  O  O16  1  0.000000  0.347364  0.071717  1
  O  O17  1  0.000000  0.652636  0.928283  1
  O  O18  1  0.000000  0.152636  0.571717  1
  O  O19  1  0.000000  0.847364  0.428283  1
  O  O20  1  0.252810  0.107346  0.292158  1
  O  O21  1  0.747190  0.892654  0.707842  1
  O  O22  1  0.252810  0.892654  0.707842  1
  O  O23  1  0.747190  0.392654  0.792158  1
  O  O24  1  0.747190  0.107346  0.292158  1
  O  O25  1  0.252810  0.607346  0.207842  1
  O  O26  1  0.747190  0.607346  0.207842  1
  O  O27  1  0.252810  0.392654  0.792158  1
  O  O28  1  0.500000  0.339635  0.056782  1
  O  O29  1  0.500000  0.660365  0.943218  1
  O  O30  1  0.500000  0.160365  0.556782  1
  O  O31  1  0.500000  0.839635  0.443218  1
