# generated using pymatgen
data_Ho7Er9Cd2(InPd2)2
_symmetry_space_group_name_H-M   'P 1'
_cell_length_a   9.64324292
_cell_length_b   9.64324304
_cell_length_c   9.64700700
_cell_angle_alpha   59.98708401
_cell_angle_beta   59.98708360
_cell_angle_gamma   60.04735170
_symmetry_Int_Tables_number   1
_chemical_formula_structural   Ho7Er9Cd2(InPd2)2
_chemical_formula_sum   'Ho7 Er9 Cd2 In2 Pd4'
_cell_volume   634.44520021
_cell_formula_units_Z   1
loop_
 _symmetry_equiv_pos_site_id
 _symmetry_equiv_pos_as_xyz
  1  'x, y, z'
loop_
 _atom_site_type_symbol
 _atom_site_label
 _atom_site_symmetry_multiplicity
 _atom_site_fract_x
 _atom_site_fract_y
 _atom_site_fract_z
 _atom_site_occupancy
  Ho  Ho0  1  0.809389  0.809389  0.190611  1
  Ho  Ho1  1  0.936347  0.565343  0.565366  1
  Ho  Ho2  1  0.565343  0.936347  0.932944  1
  Ho  Ho3  1  0.565343  0.936347  0.565366  1
  Ho  Ho4  1  0.936347  0.565343  0.932944  1
  Ho  Ho5  1  0.565839  0.565839  0.934161  1
  Ho  Ho6  1  0.935652  0.935652  0.564348  1
  Er  Er7  1  0.352680  0.352680  0.352900  1
  Er  Er8  1  0.352680  0.352680  0.941741  1
  Er  Er9  1  0.353512  0.939980  0.353255  1
  Er  Er10  1  0.939980  0.353512  0.353255  1
  Er  Er11  1  0.810296  0.190065  0.189656  1
  Er  Er12  1  0.190065  0.810296  0.809981  1
  Er  Er13  1  0.190065  0.810296  0.189656  1
  Er  Er14  1  0.810296  0.190065  0.809981  1
  Er  Er15  1  0.188985  0.188985  0.811015  1
  Cd  Cd16  1  0.581786  0.251461  0.583376  1
  Cd  Cd17  1  0.251461  0.581786  0.583376  1
  In  In18  1  0.582115  0.582115  0.583581  1
  In  In19  1  0.582115  0.582115  0.252189  1
  Pd  Pd20  1  0.144020  0.144020  0.144313  1
  Pd  Pd21  1  0.144020  0.144020  0.567648  1
  Pd  Pd22  1  0.144010  0.567652  0.144169  1
  Pd  Pd23  1  0.567652  0.144010  0.144169  1
