# generated using pymatgen
data_Gd2LuAl9Si3Os4
_symmetry_space_group_name_H-M   'P 1'
_cell_length_a   8.70354100
_cell_length_b   8.67744352
_cell_length_c   9.52630200
_cell_angle_alpha   90.00000000
_cell_angle_beta   90.00000000
_cell_angle_gamma   120.09953373
_symmetry_Int_Tables_number   1
_chemical_formula_structural   Gd2LuAl9Si3Os4
_chemical_formula_sum   'Gd4 Lu2 Al18 Si6 Os8'
_cell_volume   622.45261263
_cell_formula_units_Z   2
loop_
 _symmetry_equiv_pos_site_id
 _symmetry_equiv_pos_as_xyz
  1  'x, y, z'
loop_
 _atom_site_type_symbol
 _atom_site_label
 _atom_site_symmetry_multiplicity
 _atom_site_fract_x
 _atom_site_fract_y
 _atom_site_fract_z
 _atom_site_occupancy
  Gd  Gd0  1  0.612710  0.808855  0.250000  1
  Gd  Gd1  1  0.387290  0.191145  0.750000  1
  Gd  Gd2  1  0.196146  0.808855  0.250000  1
  Gd  Gd3  1  0.803854  0.191145  0.750000  1
  Lu  Lu4  1  0.195365  0.390730  0.250000  1
  Lu  Lu5  1  0.804635  0.609270  0.750000  1
  Al  Al6  1  0.165135  0.330268  0.577846  1
  Al  Al7  1  0.834865  0.669732  0.422154  1
  Al  Al8  1  0.670881  0.834325  0.577214  1
  Al  Al9  1  0.834865  0.669732  0.077846  1
  Al  Al10  1  0.329119  0.165675  0.422786  1
  Al  Al11  1  0.165135  0.330268  0.922154  1
  Al  Al12  1  0.163446  0.834325  0.577214  1
  Al  Al13  1  0.329119  0.165675  0.077214  1
  Al  Al14  1  0.836554  0.165675  0.422786  1
  Al  Al15  1  0.670881  0.834325  0.922786  1
  Al  Al16  1  0.836554  0.165675  0.077214  1
  Al  Al17  1  0.163446  0.834325  0.922786  1
  Al  Al18  1  0.872654  0.432771  0.250000  1
  Al  Al19  1  0.127346  0.567229  0.750000  1
  Al  Al20  1  0.560118  0.432771  0.250000  1
  Al  Al21  1  0.439882  0.567229  0.750000  1
  Al  Al22  1  0.001376  0.002751  0.250000  1
  Al  Al23  1  0.998624  0.997249  0.750000  1
  Si  Si24  1  0.331552  0.663106  0.039487  1
  Si  Si25  1  0.668448  0.336894  0.960513  1
  Si  Si26  1  0.668448  0.336894  0.539487  1
  Si  Si27  1  0.331552  0.663106  0.460513  1
  Si  Si28  1  0.564075  0.128151  0.250000  1
  Si  Si29  1  0.435925  0.871849  0.750000  1
  Os  Os30  1  0.500000  0.000000  0.000000  1
  Os  Os31  1  0.000000  0.500000  0.000000  1
  Os  Os32  1  0.500000  0.000000  0.500000  1
  Os  Os33  1  0.500000  0.500000  0.000000  1
  Os  Os34  1  0.000000  0.500000  0.500000  1
  Os  Os35  1  0.500000  0.500000  0.500000  1
  Os  Os36  1  0.000000  0.000000  0.000000  1
  Os  Os37  1  0.000000  0.000000  0.500000  1
