# generated using pymatgen
data_NiSnPRu
_symmetry_space_group_name_H-M   'P 1'
_cell_length_a   3.68044200
_cell_length_b   5.38646400
_cell_length_c   12.61472800
_cell_angle_alpha   90.00000000
_cell_angle_beta   90.00000000
_cell_angle_gamma   90.00000000
_symmetry_Int_Tables_number   1
_chemical_formula_structural   NiSnPRu
_chemical_formula_sum   'Ni4 Sn4 P4 Ru4'
_cell_volume   250.08153729
_cell_formula_units_Z   4
loop_
 _symmetry_equiv_pos_site_id
 _symmetry_equiv_pos_as_xyz
  1  'x, y, z'
loop_
 _atom_site_type_symbol
 _atom_site_label
 _atom_site_symmetry_multiplicity
 _atom_site_fract_x
 _atom_site_fract_y
 _atom_site_fract_z
 _atom_site_occupancy
  Ni  Ni0  1  0.750000  0.505617  0.411881  1
  Ni  Ni1  1  0.250000  0.494383  0.588119  1
  Ni  Ni2  1  0.250000  0.005617  0.088119  1
  Ni  Ni3  1  0.750000  0.994383  0.911881  1
  Sn  Sn4  1  0.250000  0.268351  0.290413  1
  Sn  Sn5  1  0.750000  0.731649  0.709587  1
  Sn  Sn6  1  0.750000  0.768351  0.209587  1
  Sn  Sn7  1  0.250000  0.231649  0.790413  1
  P  P8  1  0.750000  0.241520  0.054448  1
  P  P9  1  0.250000  0.758480  0.945552  1
  P  P10  1  0.250000  0.741520  0.445552  1
  P  P11  1  0.750000  0.258480  0.554448  1
  Ru  Ru12  1  0.250000  0.494184  0.093052  1
  Ru  Ru13  1  0.750000  0.505816  0.906948  1
  Ru  Ru14  1  0.750000  0.994184  0.406948  1
  Ru  Ru15  1  0.250000  0.005816  0.593052  1
