# generated using pymatgen
data_Rb2Np2(PO4)3
_symmetry_space_group_name_H-M   'P 1'
_cell_length_a   10.80361200
_cell_length_b   10.80361200
_cell_length_c   10.80361200
_cell_angle_alpha   90.00000000
_cell_angle_beta   90.00000000
_cell_angle_gamma   90.00000000
_symmetry_Int_Tables_number   1
_chemical_formula_structural   Rb2Np2(PO4)3
_chemical_formula_sum   'Rb8 Np8 P12 O48'
_cell_volume   1260.97633380
_cell_formula_units_Z   4
loop_
 _symmetry_equiv_pos_site_id
 _symmetry_equiv_pos_as_xyz
  1  'x, y, z'
loop_
 _atom_site_type_symbol
 _atom_site_label
 _atom_site_symmetry_multiplicity
 _atom_site_fract_x
 _atom_site_fract_y
 _atom_site_fract_z
 _atom_site_occupancy
  Rb  Rb0  1  0.046495  0.046495  0.046495  1
  Rb  Rb1  1  0.453505  0.953505  0.546495  1
  Rb  Rb2  1  0.953505  0.546495  0.453505  1
  Rb  Rb3  1  0.546495  0.453505  0.953505  1
  Rb  Rb4  1  0.815871  0.815871  0.815871  1
  Rb  Rb5  1  0.684129  0.184129  0.315871  1
  Rb  Rb6  1  0.184129  0.315871  0.684129  1
  Rb  Rb7  1  0.315871  0.684129  0.184129  1
  Np  Np8  1  0.597095  0.597095  0.597095  1
  Np  Np9  1  0.902905  0.402905  0.097095  1
  Np  Np10  1  0.402905  0.097095  0.902905  1
  Np  Np11  1  0.097095  0.902905  0.402905  1
  Np  Np12  1  0.332378  0.332378  0.332378  1
  Np  Np13  1  0.167622  0.667622  0.832378  1
  Np  Np14  1  0.667622  0.832378  0.167622  1
  Np  Np15  1  0.832378  0.167622  0.667622  1
  P  P16  1  0.013029  0.217786  0.374222  1
  P  P17  1  0.486971  0.782214  0.874222  1
  P  P18  1  0.986971  0.717786  0.125778  1
  P  P19  1  0.374222  0.013029  0.217786  1
  P  P20  1  0.513029  0.282214  0.625778  1
  P  P21  1  0.874222  0.486971  0.782214  1
  P  P22  1  0.125778  0.986971  0.717786  1
  P  P23  1  0.625778  0.513029  0.282214  1
  P  P24  1  0.217786  0.374222  0.013029  1
  P  P25  1  0.717786  0.125778  0.986971  1
  P  P26  1  0.282214  0.625778  0.513029  1
  P  P27  1  0.782214  0.874222  0.486971  1
  O  O28  1  0.147605  0.257031  0.404046  1
  O  O29  1  0.352395  0.742969  0.904046  1
  O  O30  1  0.852395  0.757031  0.095954  1
  O  O31  1  0.404046  0.147605  0.257031  1
  O  O32  1  0.647605  0.242969  0.595954  1
  O  O33  1  0.904046  0.352395  0.742969  1
  O  O34  1  0.095954  0.852395  0.757031  1
  O  O35  1  0.595954  0.647605  0.242969  1
  O  O36  1  0.257031  0.404046  0.147605  1
  O  O37  1  0.757031  0.095954  0.852395  1
  O  O38  1  0.242969  0.595954  0.647605  1
  O  O39  1  0.742969  0.904046  0.352395  1
  O  O40  1  0.044905  0.805806  0.223041  1
  O  O41  1  0.455095  0.194194  0.723041  1
  O  O42  1  0.955095  0.305806  0.276959  1
  O  O43  1  0.223041  0.044905  0.805806  1
  O  O44  1  0.544905  0.694194  0.776959  1
  O  O45  1  0.723041  0.455095  0.194194  1
  O  O46  1  0.276959  0.955095  0.305806  1
  O  O47  1  0.776959  0.544905  0.694194  1
  O  O48  1  0.805806  0.223041  0.044905  1
  O  O49  1  0.305806  0.276959  0.955095  1
  O  O50  1  0.694194  0.776959  0.544905  1
  O  O51  1  0.194194  0.723041  0.455095  1
  O  O52  1  0.010263  0.082777  0.324970  1
  O  O53  1  0.489737  0.917223  0.824970  1
  O  O54  1  0.989737  0.582777  0.175030  1
  O  O55  1  0.324970  0.010263  0.082777  1
  O  O56  1  0.510263  0.417223  0.675030  1
  O  O57  1  0.824970  0.489737  0.917223  1
  O  O58  1  0.175030  0.989737  0.582777  1
  O  O59  1  0.675030  0.510263  0.417223  1
  O  O60  1  0.082777  0.324970  0.010263  1
  O  O61  1  0.582777  0.175030  0.989737  1
  O  O62  1  0.417223  0.675030  0.510263  1
  O  O63  1  0.917223  0.824970  0.489737  1
  O  O64  1  0.270624  0.506357  0.434231  1
  O  O65  1  0.229376  0.493643  0.934231  1
  O  O66  1  0.729376  0.006357  0.065769  1
  O  O67  1  0.434231  0.270624  0.506357  1
  O  O68  1  0.770624  0.993643  0.565769  1
  O  O69  1  0.934231  0.229376  0.493643  1
  O  O70  1  0.065769  0.729376  0.006357  1
  O  O71  1  0.565769  0.770624  0.993643  1
  O  O72  1  0.506357  0.434231  0.270624  1
  O  O73  1  0.006357  0.065769  0.729376  1
  O  O74  1  0.993643  0.565769  0.770624  1
  O  O75  1  0.493643  0.934231  0.229376  1
