# generated using pymatgen
data_Na3LiTc2F12
_symmetry_space_group_name_H-M   'P 1'
_cell_length_a   5.27621800
_cell_length_b   5.27621800
_cell_length_c   18.56565800
_cell_angle_alpha   90.00000000
_cell_angle_beta   90.00000000
_cell_angle_gamma   90.00000000
_symmetry_Int_Tables_number   1
_chemical_formula_structural   Na3LiTc2F12
_chemical_formula_sum   'Na6 Li2 Tc4 F24'
_cell_volume   516.83963178
_cell_formula_units_Z   2
loop_
 _symmetry_equiv_pos_site_id
 _symmetry_equiv_pos_as_xyz
  1  'x, y, z'
loop_
 _atom_site_type_symbol
 _atom_site_label
 _atom_site_symmetry_multiplicity
 _atom_site_fract_x
 _atom_site_fract_y
 _atom_site_fract_z
 _atom_site_occupancy
  Na  Na0  1  0.000000  0.500000  0.308239  1
  Na  Na1  1  0.500000  0.000000  0.691761  1
  Na  Na2  1  0.500000  0.000000  0.191761  1
  Na  Na3  1  0.000000  0.500000  0.808239  1
  Na  Na4  1  0.000000  0.000000  0.500000  1
  Na  Na5  1  0.500000  0.500000  0.000000  1
  Li  Li6  1  0.000000  0.000000  0.000000  1
  Li  Li7  1  0.500000  0.500000  0.500000  1
  Tc  Tc8  1  0.000000  0.500000  0.123478  1
  Tc  Tc9  1  0.500000  0.000000  0.876522  1
  Tc  Tc10  1  0.500000  0.000000  0.376522  1
  Tc  Tc11  1  0.000000  0.500000  0.623478  1
  F  F12  1  0.198336  0.216272  0.382570  1
  F  F13  1  0.801664  0.783728  0.382570  1
  F  F14  1  0.216272  0.801664  0.617430  1
  F  F15  1  0.301664  0.716272  0.117430  1
  F  F16  1  0.783728  0.198336  0.617430  1
  F  F17  1  0.698336  0.283728  0.117430  1
  F  F18  1  0.283728  0.301664  0.882570  1
  F  F19  1  0.716272  0.698336  0.882570  1
  F  F20  1  0.151450  0.292036  0.199376  1
  F  F21  1  0.848550  0.707964  0.199376  1
  F  F22  1  0.292036  0.848550  0.800624  1
  F  F23  1  0.348550  0.792036  0.300624  1
  F  F24  1  0.707964  0.151450  0.800624  1
  F  F25  1  0.651450  0.207964  0.300624  1
  F  F26  1  0.207964  0.348550  0.699376  1
  F  F27  1  0.792036  0.651450  0.699376  1
  F  F28  1  0.153679  0.282477  0.047401  1
  F  F29  1  0.846321  0.717523  0.047401  1
  F  F30  1  0.282477  0.846321  0.952599  1
  F  F31  1  0.346321  0.782477  0.452599  1
  F  F32  1  0.717523  0.153679  0.952599  1
  F  F33  1  0.653679  0.217523  0.452599  1
  F  F34  1  0.217523  0.346321  0.547401  1
  F  F35  1  0.782477  0.653679  0.547401  1
