# generated using pymatgen
data_Ta2Ti2V4Si3P
_symmetry_space_group_name_H-M   'P 1'
_cell_length_a   3.35304300
_cell_length_b   6.53590958
_cell_length_c   7.87372622
_cell_angle_alpha   90.15729352
_cell_angle_beta   90.00000000
_cell_angle_gamma   90.00000000
_symmetry_Int_Tables_number   1
_chemical_formula_structural   Ta2Ti2V4Si3P
_chemical_formula_sum   'Ta2 Ti2 V4 Si3 P1'
_cell_volume   172.55352327
_cell_formula_units_Z   1
loop_
 _symmetry_equiv_pos_site_id
 _symmetry_equiv_pos_as_xyz
  1  'x, y, z'
loop_
 _atom_site_type_symbol
 _atom_site_label
 _atom_site_symmetry_multiplicity
 _atom_site_fract_x
 _atom_site_fract_y
 _atom_site_fract_z
 _atom_site_occupancy
  Ta  Ta0  1  0.250000  0.547955  0.165921  1
  Ta  Ta1  1  0.750000  0.450925  0.830092  1
  Ti  Ti2  1  0.750000  0.959840  0.666802  1
  Ti  Ti3  1  0.250000  0.047362  0.334340  1
  V  V4  1  0.250000  0.624296  0.562092  1
  V  V5  1  0.750000  0.367953  0.442820  1
  V  V6  1  0.750000  0.869082  0.061342  1
  V  V7  1  0.250000  0.132817  0.935695  1
  Si  Si8  1  0.250000  0.757674  0.858205  1
  Si  Si9  1  0.750000  0.242957  0.141637  1
  Si  Si10  1  0.750000  0.750901  0.364802  1
  P  P11  1  0.250000  0.248236  0.636253  1
