# generated using pymatgen
data_TbLu4(FeB3)2
_symmetry_space_group_name_H-M   'P 1'
_cell_length_a   5.37263059
_cell_length_b   5.37262977
_cell_length_c   8.08169274
_cell_angle_alpha   70.58578065
_cell_angle_beta   70.58578518
_cell_angle_gamma   59.99999264
_symmetry_Int_Tables_number   1
_chemical_formula_structural   TbLu4(FeB3)2
_chemical_formula_sum   'Tb1 Lu4 Fe2 B6'
_cell_volume   186.55248668
_cell_formula_units_Z   1
loop_
 _symmetry_equiv_pos_site_id
 _symmetry_equiv_pos_as_xyz
  1  'x, y, z'
loop_
 _atom_site_type_symbol
 _atom_site_label
 _atom_site_symmetry_multiplicity
 _atom_site_fract_x
 _atom_site_fract_y
 _atom_site_fract_z
 _atom_site_occupancy
  Tb  Tb0  1  0.000000  0.000000  0.000000  1
  Lu  Lu1  1  0.749298  0.749298  0.752107  1
  Lu  Lu2  1  0.250702  0.250702  0.247893  1
  Lu  Lu3  1  0.583108  0.583108  0.250679  1
  Lu  Lu4  1  0.416892  0.416892  0.749321  1
  Fe  Fe5  1  0.884233  0.884233  0.347301  1
  Fe  Fe6  1  0.115767  0.115767  0.652699  1
  B  B7  1  0.500000  0.168809  0.500000  1
  B  B8  1  0.831191  0.500000  0.500000  1
  B  B9  1  0.168809  0.831191  0.500000  1
  B  B10  1  0.168809  0.500000  0.500000  1
  B  B11  1  0.831191  0.168809  0.500000  1
  B  B12  1  0.500000  0.831191  0.500000  1
