# generated using pymatgen
data_Hf5Co19(As3P)3
_symmetry_space_group_name_H-M   'P 1'
_cell_length_a   12.14396900
_cell_length_b   12.14397005
_cell_length_c   3.66878100
_cell_angle_alpha   90.00000000
_cell_angle_beta   90.00000000
_cell_angle_gamma   120.00000532
_symmetry_Int_Tables_number   1
_chemical_formula_structural   Hf5Co19(As3P)3
_chemical_formula_sum   'Hf5 Co19 As9 P3'
_cell_volume   468.56919550
_cell_formula_units_Z   1
loop_
 _symmetry_equiv_pos_site_id
 _symmetry_equiv_pos_as_xyz
  1  'x, y, z'
loop_
 _atom_site_type_symbol
 _atom_site_label
 _atom_site_symmetry_multiplicity
 _atom_site_fract_x
 _atom_site_fract_y
 _atom_site_fract_z
 _atom_site_occupancy
  Hf  Hf0  1  0.333333  0.666667  0.000000  1
  Hf  Hf1  1  0.666667  0.333333  0.000000  1
  Hf  Hf2  1  0.000000  0.174998  0.500000  1
  Hf  Hf3  1  0.825002  0.825002  0.500000  1
  Hf  Hf4  1  0.174998  0.000000  0.500000  1
  Co  Co5  1  0.633389  0.828385  0.000000  1
  Co  Co6  1  0.171615  0.805004  0.000000  1
  Co  Co7  1  0.194996  0.366611  0.000000  1
  Co  Co8  1  0.366611  0.194996  0.000000  1
  Co  Co9  1  0.828385  0.633389  0.000000  1
  Co  Co10  1  0.805004  0.171615  0.000000  1
  Co  Co11  1  0.000000  0.551165  0.000000  1
  Co  Co12  1  0.448835  0.448835  0.000000  1
  Co  Co13  1  0.551165  0.000000  0.000000  1
  Co  Co14  1  0.520182  0.648307  0.500000  1
  Co  Co15  1  0.351693  0.871876  0.500000  1
  Co  Co16  1  0.128124  0.479818  0.500000  1
  Co  Co17  1  0.479818  0.128124  0.500000  1
  Co  Co18  1  0.648307  0.520182  0.500000  1
  Co  Co19  1  0.871876  0.351693  0.500000  1
  Co  Co20  1  0.000000  0.727088  0.500000  1
  Co  Co21  1  0.272912  0.272912  0.500000  1
  Co  Co22  1  0.727088  0.000000  0.500000  1
  Co  Co23  1  0.000000  0.000000  0.000000  1
  As  As24  1  0.000000  0.356997  0.000000  1
  As  As25  1  0.643003  0.643003  0.000000  1
  As  As26  1  0.356997  0.000000  0.000000  1
  As  As27  1  0.517752  0.837567  0.500000  1
  As  As28  1  0.162433  0.680185  0.500000  1
  As  As29  1  0.319815  0.482248  0.500000  1
  As  As30  1  0.482248  0.319815  0.500000  1
  As  As31  1  0.837567  0.517752  0.500000  1
  As  As32  1  0.680185  0.162433  0.500000  1
  P  P33  1  0.000000  0.826698  0.000000  1
  P  P34  1  0.173302  0.173302  0.000000  1
  P  P35  1  0.826698  0.000000  0.000000  1
