# generated using pymatgen
data_Tb2Sm(AgGe)3
_symmetry_space_group_name_H-M   'P 1'
_cell_length_a   7.25757480
_cell_length_b   7.25757503
_cell_length_c   4.22714900
_cell_angle_alpha   90.00000000
_cell_angle_beta   90.00000000
_cell_angle_gamma   120.15686540
_symmetry_Int_Tables_number   1
_chemical_formula_structural   Tb2Sm(AgGe)3
_chemical_formula_sum   'Tb2 Sm1 Ag3 Ge3'
_cell_volume   192.51855343
_cell_formula_units_Z   1
loop_
 _symmetry_equiv_pos_site_id
 _symmetry_equiv_pos_as_xyz
  1  'x, y, z'
loop_
 _atom_site_type_symbol
 _atom_site_label
 _atom_site_symmetry_multiplicity
 _atom_site_fract_x
 _atom_site_fract_y
 _atom_site_fract_z
 _atom_site_occupancy
  Tb  Tb0  1  0.586920  0.000389  0.000000  1
  Tb  Tb1  1  0.000389  0.586920  0.000000  1
  Sm  Sm2  1  0.414097  0.414097  0.000000  1
  Ag  Ag3  1  0.251628  0.999028  0.500000  1
  Ag  Ag4  1  0.999028  0.251628  0.500000  1
  Ag  Ag5  1  0.749045  0.749045  0.500000  1
  Ge  Ge6  1  0.332506  0.668167  0.500000  1
  Ge  Ge7  1  0.668167  0.332506  0.500000  1
  Ge  Ge8  1  0.998220  0.998220  0.000000  1
