# generated using pymatgen
data_Tb8Sc3Si16Mo9
_symmetry_space_group_name_H-M   'P 1'
_cell_length_a   7.00701487
_cell_length_b   7.00701466
_cell_length_c   12.93920399
_cell_angle_alpha   89.98157183
_cell_angle_beta   90.01842987
_cell_angle_gamma   89.89894604
_symmetry_Int_Tables_number   1
_chemical_formula_structural   Tb8Sc3Si16Mo9
_chemical_formula_sum   'Tb8 Sc3 Si16 Mo9'
_cell_volume   635.29129564
_cell_formula_units_Z   1
loop_
 _symmetry_equiv_pos_site_id
 _symmetry_equiv_pos_as_xyz
  1  'x, y, z'
loop_
 _atom_site_type_symbol
 _atom_site_label
 _atom_site_symmetry_multiplicity
 _atom_site_fract_x
 _atom_site_fract_y
 _atom_site_fract_z
 _atom_site_occupancy
  Tb  Tb0  1  0.998794  0.337807  0.215706  1
  Tb  Tb1  1  0.005376  0.660932  0.719790  1
  Tb  Tb2  1  0.161774  0.495128  0.468294  1
  Tb  Tb3  1  0.500959  0.841716  0.031091  1
  Tb  Tb4  1  0.841716  0.500959  0.968909  1
  Tb  Tb5  1  0.495128  0.161774  0.531706  1
  Tb  Tb6  1  0.337807  0.998794  0.784294  1
  Tb  Tb7  1  0.660932  0.005376  0.280210  1
  Sc  Sc8  1  0.831297  0.831297  0.500000  1
  Sc  Sc9  1  0.329580  0.669672  0.247663  1
  Sc  Sc10  1  0.669672  0.329580  0.752337  1
  Si  Si11  1  0.372462  0.295641  0.315966  1
  Si  Si12  1  0.626473  0.705233  0.816645  1
  Si  Si13  1  0.205327  0.872912  0.567351  1
  Si  Si14  1  0.124443  0.803158  0.934943  1
  Si  Si15  1  0.803158  0.124443  0.065057  1
  Si  Si16  1  0.872912  0.205327  0.432649  1
  Si  Si17  1  0.295641  0.372462  0.684034  1
  Si  Si18  1  0.705233  0.626473  0.183355  1
  Si  Si19  1  0.285708  0.046375  0.183428  1
  Si  Si20  1  0.711280  0.957093  0.689483  1
  Si  Si21  1  0.456297  0.788956  0.438601  1
  Si  Si22  1  0.213545  0.533676  0.058507  1
  Si  Si23  1  0.533676  0.213545  0.941493  1
  Si  Si24  1  0.788956  0.456297  0.561399  1
  Si  Si25  1  0.046375  0.285708  0.816572  1
  Si  Si26  1  0.957093  0.711280  0.310517  1
  Mo  Mo27  1  0.167760  0.167760  0.000000  1
  Mo  Mo28  1  0.160105  0.997336  0.375214  1
  Mo  Mo29  1  0.834900  0.004531  0.877542  1
  Mo  Mo30  1  0.505183  0.658898  0.625976  1
  Mo  Mo31  1  0.341406  0.498267  0.873199  1
  Mo  Mo32  1  0.498267  0.341406  0.126801  1
  Mo  Mo33  1  0.658898  0.505183  0.374024  1
  Mo  Mo34  1  0.997336  0.160105  0.624786  1
  Mo  Mo35  1  0.004531  0.834900  0.122458  1
