# generated using pymatgen
data_AcEu3(Ga2Ag)4
_symmetry_space_group_name_H-M   'P 1'
_cell_length_a   4.53675900
_cell_length_b   7.17505676
_cell_length_c   10.74005167
_cell_angle_alpha   90.45463473
_cell_angle_beta   90.00000000
_cell_angle_gamma   90.00000000
_symmetry_Int_Tables_number   1
_chemical_formula_structural   AcEu3(Ga2Ag)4
_chemical_formula_sum   'Ac1 Eu3 Ga8 Ag4'
_cell_volume   349.59382188
_cell_formula_units_Z   1
loop_
 _symmetry_equiv_pos_site_id
 _symmetry_equiv_pos_as_xyz
  1  'x, y, z'
loop_
 _atom_site_type_symbol
 _atom_site_label
 _atom_site_symmetry_multiplicity
 _atom_site_fract_x
 _atom_site_fract_y
 _atom_site_fract_z
 _atom_site_occupancy
  Ac  Ac0  1  0.250000  0.282456  0.672134  1
  Eu  Eu1  1  0.250000  0.781372  0.830673  1
  Eu  Eu2  1  0.750000  0.217662  0.170881  1
  Eu  Eu3  1  0.750000  0.717567  0.328205  1
  Ga  Ga4  1  0.250000  0.708424  0.533069  1
  Ga  Ga5  1  0.750000  0.299402  0.458615  1
  Ga  Ga6  1  0.750000  0.795619  0.036665  1
  Ga  Ga7  1  0.250000  0.198115  0.970974  1
  Ga  Ga8  1  0.250000  0.916958  0.150047  1
  Ga  Ga9  1  0.750000  0.075036  0.858755  1
  Ga  Ga10  1  0.750000  0.591293  0.646003  1
  Ga  Ga11  1  0.250000  0.418964  0.348181  1
  Ag  Ag12  1  0.250000  0.537950  0.098431  1
  Ag  Ag13  1  0.750000  0.462166  0.902430  1
  Ag  Ag14  1  0.750000  0.960702  0.596950  1
  Ag  Ag15  1  0.250000  0.036312  0.397987  1
