# generated using pymatgen
data_Zr10ZnIn6P
_symmetry_space_group_name_H-M   'P 1'
_cell_length_a   8.76424000
_cell_length_b   8.76424045
_cell_length_c   5.88533900
_cell_angle_alpha   90.00000000
_cell_angle_beta   90.00000000
_cell_angle_gamma   119.99999832
_symmetry_Int_Tables_number   1
_chemical_formula_structural   Zr10ZnIn6P
_chemical_formula_sum   'Zr10 Zn1 In6 P1'
_cell_volume   391.49901012
_cell_formula_units_Z   1
loop_
 _symmetry_equiv_pos_site_id
 _symmetry_equiv_pos_as_xyz
  1  'x, y, z'
loop_
 _atom_site_type_symbol
 _atom_site_label
 _atom_site_symmetry_multiplicity
 _atom_site_fract_x
 _atom_site_fract_y
 _atom_site_fract_z
 _atom_site_occupancy
  Zr  Zr0  1  0.333333  0.666667  0.000000  1
  Zr  Zr1  1  0.666667  0.333333  0.500000  1
  Zr  Zr2  1  0.666667  0.333333  0.000000  1
  Zr  Zr3  1  0.333333  0.666667  0.500000  1
  Zr  Zr4  1  0.255152  0.000000  0.237605  1
  Zr  Zr5  1  0.255152  0.255152  0.762395  1
  Zr  Zr6  1  0.000000  0.744848  0.762395  1
  Zr  Zr7  1  0.000000  0.255152  0.237605  1
  Zr  Zr8  1  0.744848  0.744848  0.237605  1
  Zr  Zr9  1  0.744848  0.000000  0.762395  1
  Zn  Zn10  1  0.000000  0.000000  0.500000  1
  In  In11  1  0.610325  0.000000  0.257048  1
  In  In12  1  0.610325  0.610325  0.742952  1
  In  In13  1  0.000000  0.389675  0.742952  1
  In  In14  1  0.000000  0.610325  0.257048  1
  In  In15  1  0.389675  0.389675  0.257048  1
  In  In16  1  0.389675  0.000000  0.742952  1
  P  P17  1  0.000000  0.000000  0.000000  1
