# generated using pymatgen
data_Lu10In8NiAu3
_symmetry_space_group_name_H-M   'P 1'
_cell_length_a   3.56135700
_cell_length_b   8.07686799
_cell_length_c   18.04100517
_cell_angle_alpha   89.94348363
_cell_angle_beta   90.00000000
_cell_angle_gamma   90.00000000
_symmetry_Int_Tables_number   1
_chemical_formula_structural   Lu10In8NiAu3
_chemical_formula_sum   'Lu10 In8 Ni1 Au3'
_cell_volume   518.94223186
_cell_formula_units_Z   1
loop_
 _symmetry_equiv_pos_site_id
 _symmetry_equiv_pos_as_xyz
  1  'x, y, z'
loop_
 _atom_site_type_symbol
 _atom_site_label
 _atom_site_symmetry_multiplicity
 _atom_site_fract_x
 _atom_site_fract_y
 _atom_site_fract_z
 _atom_site_occupancy
  Lu  Lu0  1  0.000000  0.878538  0.082163  1
  Lu  Lu1  1  0.000000  0.738009  0.282013  1
  Lu  Lu2  1  0.000000  0.739829  0.781132  1
  Lu  Lu3  1  0.000000  0.386722  0.411523  1
  Lu  Lu4  1  0.000000  0.121082  0.921518  1
  Lu  Lu5  1  0.000000  0.239286  0.717077  1
  Lu  Lu6  1  0.000000  0.499258  0.002070  1
  Lu  Lu7  1  0.000000  0.275264  0.225295  1
  Lu  Lu8  1  0.000000  0.621162  0.577472  1
  Lu  Lu9  1  0.000000  0.000152  0.497927  1
  In  In10  1  0.500000  0.209387  0.069207  1
  In  In11  1  0.500000  0.422206  0.854135  1
  In  In12  1  0.500000  0.573928  0.150569  1
  In  In13  1  0.500000  0.080522  0.352639  1
  In  In14  1  0.500000  0.921618  0.644639  1
  In  In15  1  0.500000  0.788588  0.935067  1
  In  In16  1  0.500000  0.706747  0.430526  1
  In  In17  1  0.500000  0.291311  0.562469  1
  Ni  Ni18  1  0.500000  0.475344  0.304586  1
  Au  Au19  1  0.500000  0.971836  0.199209  1
  Au  Au20  1  0.500000  0.029765  0.803635  1
  Au  Au21  1  0.500000  0.529447  0.695130  1
