# generated using pymatgen
data_Ac12Ni3IrI12
_symmetry_space_group_name_H-M   'P 1'
_cell_length_a   11.37295599
_cell_length_b   11.33835994
_cell_length_c   11.33836100
_cell_angle_alpha   109.40932702
_cell_angle_beta   109.53303501
_cell_angle_gamma   109.53303926
_symmetry_Int_Tables_number   1
_chemical_formula_structural   Ac12Ni3IrI12
_chemical_formula_sum   'Ac12 Ni3 Ir1 I12'
_cell_volume   1124.65710435
_cell_formula_units_Z   1
loop_
 _symmetry_equiv_pos_site_id
 _symmetry_equiv_pos_as_xyz
  1  'x, y, z'
loop_
 _atom_site_type_symbol
 _atom_site_label
 _atom_site_symmetry_multiplicity
 _atom_site_fract_x
 _atom_site_fract_y
 _atom_site_fract_z
 _atom_site_occupancy
  Ac  Ac0  1  0.458411  0.480151  0.229154  1
  Ac  Ac1  1  0.750000  0.228648  0.271352  1
  Ac  Ac2  1  0.750000  0.022227  0.477773  1
  Ac  Ac3  1  0.227773  0.455547  0.477773  1
  Ac  Ac4  1  0.270744  0.749003  0.229154  1
  Ac  Ac5  1  0.041589  0.270846  0.019849  1
  Ac  Ac6  1  0.021352  0.042701  0.271352  1
  Ac  Ac7  1  0.478259  0.749003  0.019849  1
  Ac  Ac8  1  0.478648  0.228648  0.457299  1
  Ac  Ac9  1  0.021741  0.480151  0.750997  1
  Ac  Ac10  1  0.272227  0.022227  0.044453  1
  Ac  Ac11  1  0.229256  0.270846  0.750997  1
  Ni  Ni12  1  0.250000  0.249571  0.250429  1
  Ni  Ni13  1  0.500429  0.000860  0.250429  1
  Ni  Ni14  1  0.999571  0.249571  0.499140  1
  Ir  Ir15  1  0.250000  0.500000  0.000000  1
  I  I16  1  0.250000  0.761611  0.738389  1
  I  I17  1  0.522931  0.511016  0.760686  1
  I  I18  1  0.977069  0.739314  0.988984  1
  I  I19  1  0.737755  0.249672  0.760686  1
  I  I20  1  0.988389  0.976780  0.738389  1
  I  I21  1  0.250000  0.988804  0.511196  1
  I  I22  1  0.761196  0.522391  0.511196  1
  I  I23  1  0.511917  0.249672  0.988984  1
  I  I24  1  0.762245  0.739314  0.250328  1
  I  I25  1  0.738804  0.988804  0.977609  1
  I  I26  1  0.988083  0.511016  0.250328  1
  I  I27  1  0.511611  0.761611  0.523220  1
