# generated using pymatgen
data_U3Fe6AsC2
_symmetry_space_group_name_H-M   'P 1'
_cell_length_a   5.12706800
_cell_length_b   5.12706788
_cell_length_c   13.10804100
_cell_angle_alpha   90.00000000
_cell_angle_beta   90.00000000
_cell_angle_gamma   120.00000075
_symmetry_Int_Tables_number   1
_chemical_formula_structural   U3Fe6AsC2
_chemical_formula_sum   'U6 Fe12 As2 C4'
_cell_volume   298.40532213
_cell_formula_units_Z   2
loop_
 _symmetry_equiv_pos_site_id
 _symmetry_equiv_pos_as_xyz
  1  'x, y, z'
loop_
 _atom_site_type_symbol
 _atom_site_label
 _atom_site_symmetry_multiplicity
 _atom_site_fract_x
 _atom_site_fract_y
 _atom_site_fract_z
 _atom_site_occupancy
  U  U0  1  0.333333  0.666667  0.250000  1
  U  U1  1  0.666667  0.333333  0.750000  1
  U  U2  1  0.333333  0.666667  0.040595  1
  U  U3  1  0.666667  0.333333  0.540595  1
  U  U4  1  0.666667  0.333333  0.959405  1
  U  U5  1  0.333333  0.666667  0.459405  1
  Fe  Fe6  1  0.832423  0.664844  0.149119  1
  Fe  Fe7  1  0.167577  0.832423  0.649119  1
  Fe  Fe8  1  0.664844  0.832423  0.649119  1
  Fe  Fe9  1  0.335156  0.167577  0.149119  1
  Fe  Fe10  1  0.832423  0.167577  0.149119  1
  Fe  Fe11  1  0.167577  0.335156  0.850881  1
  Fe  Fe12  1  0.167577  0.832423  0.850881  1
  Fe  Fe13  1  0.167577  0.335156  0.649119  1
  Fe  Fe14  1  0.664844  0.832423  0.850881  1
  Fe  Fe15  1  0.335156  0.167577  0.350881  1
  Fe  Fe16  1  0.832423  0.664844  0.350881  1
  Fe  Fe17  1  0.832423  0.167577  0.350881  1
  As  As18  1  0.000000  0.000000  0.000000  1
  As  As19  1  0.000000  0.000000  0.500000  1
  C  C20  1  0.000000  0.000000  0.250000  1
  C  C21  1  0.000000  0.000000  0.750000  1
  C  C22  1  0.333333  0.666667  0.750000  1
  C  C23  1  0.666667  0.333333  0.250000  1
