# generated using pymatgen
data_Mg5P12IrRu18
_symmetry_space_group_name_H-M   'P 1'
_cell_length_a   12.42752100
_cell_length_b   12.42752084
_cell_length_c   3.93054800
_cell_angle_alpha   90.00000000
_cell_angle_beta   90.00000000
_cell_angle_gamma   119.99999775
_symmetry_Int_Tables_number   1
_chemical_formula_structural   Mg5P12IrRu18
_chemical_formula_sum   'Mg5 P12 Ir1 Ru18'
_cell_volume   525.71788457
_cell_formula_units_Z   1
loop_
 _symmetry_equiv_pos_site_id
 _symmetry_equiv_pos_as_xyz
  1  'x, y, z'
loop_
 _atom_site_type_symbol
 _atom_site_label
 _atom_site_symmetry_multiplicity
 _atom_site_fract_x
 _atom_site_fract_y
 _atom_site_fract_z
 _atom_site_occupancy
  Mg  Mg0  1  0.333333  0.666667  0.000000  1
  Mg  Mg1  1  0.666667  0.333333  0.000000  1
  Mg  Mg2  1  0.820414  0.000000  0.500000  1
  Mg  Mg3  1  0.000000  0.820414  0.500000  1
  Mg  Mg4  1  0.179586  0.179586  0.500000  1
  P  P5  1  0.181235  0.000000  0.000000  1
  P  P6  1  0.000000  0.181235  0.000000  1
  P  P7  1  0.818765  0.818765  0.000000  1
  P  P8  1  0.171080  0.471483  0.500000  1
  P  P9  1  0.528517  0.699597  0.500000  1
  P  P10  1  0.300403  0.828920  0.500000  1
  P  P11  1  0.699597  0.528517  0.500000  1
  P  P12  1  0.828920  0.300403  0.500000  1
  P  P13  1  0.471483  0.171080  0.500000  1
  P  P14  1  0.615520  0.000000  0.000000  1
  P  P15  1  0.000000  0.615520  0.000000  1
  P  P16  1  0.384480  0.384480  0.000000  1
  Ir  Ir17  1  0.000000  0.000000  0.000000  1
  Ru  Ru18  1  0.434807  0.000000  0.000000  1
  Ru  Ru19  1  0.000000  0.434807  0.000000  1
  Ru  Ru20  1  0.565193  0.565193  0.000000  1
  Ru  Ru21  1  0.370753  0.499655  0.500000  1
  Ru  Ru22  1  0.500345  0.871098  0.500000  1
  Ru  Ru23  1  0.128902  0.629247  0.500000  1
  Ru  Ru24  1  0.871098  0.500345  0.500000  1
  Ru  Ru25  1  0.629247  0.128902  0.500000  1
  Ru  Ru26  1  0.499655  0.370753  0.500000  1
  Ru  Ru27  1  0.189783  0.370170  0.000000  1
  Ru  Ru28  1  0.629830  0.819614  0.000000  1
  Ru  Ru29  1  0.180386  0.810217  0.000000  1
  Ru  Ru30  1  0.819614  0.629830  0.000000  1
  Ru  Ru31  1  0.810217  0.180386  0.000000  1
  Ru  Ru32  1  0.370170  0.189783  0.000000  1
  Ru  Ru33  1  0.272780  0.000000  0.500000  1
  Ru  Ru34  1  0.000000  0.272780  0.500000  1
  Ru  Ru35  1  0.727220  0.727220  0.500000  1
