# generated using pymatgen
data_Tb3ErTm2(Si3Ru)8
_symmetry_space_group_name_H-M   'P 1'
_cell_length_a   10.10536853
_cell_length_b   10.10536838
_cell_length_c   8.14196380
_cell_angle_alpha   90.01855937
_cell_angle_beta   89.98144084
_cell_angle_gamma   132.56846621
_symmetry_Int_Tables_number   1
_chemical_formula_structural   Tb3ErTm2(Si3Ru)8
_chemical_formula_sum   'Tb3 Er1 Tm2 Si24 Ru8'
_cell_volume   612.33377651
_cell_formula_units_Z   1
loop_
 _symmetry_equiv_pos_site_id
 _symmetry_equiv_pos_as_xyz
  1  'x, y, z'
loop_
 _atom_site_type_symbol
 _atom_site_label
 _atom_site_symmetry_multiplicity
 _atom_site_fract_x
 _atom_site_fract_y
 _atom_site_fract_z
 _atom_site_occupancy
  Tb  Tb0  1  0.497494  0.997494  0.250000  1
  Tb  Tb1  1  0.002526  0.502526  0.750000  1
  Tb  Tb2  1  0.502442  0.002442  0.750000  1
  Er  Er3  1  0.997744  0.497744  0.250000  1
  Tm  Tm4  1  0.500002  0.499976  0.499938  1
  Tm  Tm5  1  0.999976  0.000002  0.000062  1
  Si  Si6  1  0.387857  0.155040  0.004423  1
  Si  Si7  1  0.655040  0.887857  0.495577  1
  Si  Si8  1  0.112294  0.345413  0.504277  1
  Si  Si9  1  0.845413  0.612294  0.995723  1
  Si  Si10  1  0.612173  0.845001  0.995567  1
  Si  Si11  1  0.345001  0.112173  0.504433  1
  Si  Si12  1  0.887768  0.654500  0.494876  1
  Si  Si13  1  0.154500  0.387768  0.005124  1
  Si  Si14  1  0.613324  0.379381  0.228656  1
  Si  Si15  1  0.879381  0.113324  0.271344  1
  Si  Si16  1  0.887478  0.121477  0.728801  1
  Si  Si17  1  0.621477  0.387478  0.771199  1
  Si  Si18  1  0.386958  0.621084  0.771159  1
  Si  Si19  1  0.121084  0.886958  0.728841  1
  Si  Si20  1  0.706262  0.295600  0.000728  1
  Si  Si21  1  0.795600  0.206262  0.499272  1
  Si  Si22  1  0.293731  0.704476  0.000498  1
  Si  Si23  1  0.204476  0.793731  0.499502  1
  Si  Si24  1  0.167966  0.168020  0.333189  1
  Si  Si25  1  0.668020  0.667966  0.166811  1
  Si  Si26  1  0.331995  0.331985  0.833175  1
  Si  Si27  1  0.831985  0.831995  0.666825  1
  Si  Si28  1  0.377975  0.612146  0.228526  1
  Si  Si29  1  0.112146  0.877975  0.271474  1
  Ru  Ru30  1  0.625963  0.625925  0.872643  1
  Ru  Ru31  1  0.125925  0.125963  0.627357  1
  Ru  Ru32  1  0.874024  0.873988  0.372697  1
  Ru  Ru33  1  0.373988  0.374024  0.127303  1
  Ru  Ru34  1  0.331428  0.668556  0.499329  1
  Ru  Ru35  1  0.168556  0.831428  0.000671  1
  Ru  Ru36  1  0.668613  0.331413  0.499336  1
  Ru  Ru37  1  0.831413  0.168613  0.000664  1
