# generated using pymatgen
data_TbNd2Hf(Al3Ir)6
_symmetry_space_group_name_H-M   'P 1'
_cell_length_a   7.57121689
_cell_length_b   7.55979111
_cell_length_c   9.47776400
_cell_angle_alpha   90.00000000
_cell_angle_beta   90.00000000
_cell_angle_gamma   119.45785007
_symmetry_Int_Tables_number   1
_chemical_formula_structural   TbNd2Hf(Al3Ir)6
_chemical_formula_sum   'Tb1 Nd2 Hf1 Al18 Ir6'
_cell_volume   472.34438062
_cell_formula_units_Z   1
loop_
 _symmetry_equiv_pos_site_id
 _symmetry_equiv_pos_as_xyz
  1  'x, y, z'
loop_
 _atom_site_type_symbol
 _atom_site_label
 _atom_site_symmetry_multiplicity
 _atom_site_fract_x
 _atom_site_fract_y
 _atom_site_fract_z
 _atom_site_occupancy
  Tb  Tb0  1  0.671224  0.995738  0.250000  1
  Nd  Nd1  1  0.004945  0.327467  0.750000  1
  Nd  Nd2  1  0.329454  0.006235  0.750000  1
  Hf  Hf3  1  0.997914  0.674239  0.250000  1
  Al  Al4  1  0.125597  0.123131  0.250000  1
  Al  Al5  1  0.868182  0.866655  0.750000  1
  Al  Al6  1  0.000434  0.338904  0.081546  1
  Al  Al7  1  0.997770  0.664844  0.933909  1
  Al  Al8  1  0.997770  0.664844  0.566091  1
  Al  Al9  1  0.332330  0.998064  0.418505  1
  Al  Al10  1  0.000434  0.338904  0.418454  1
  Al  Al11  1  0.664415  0.996101  0.570353  1
  Al  Al12  1  0.664415  0.996101  0.929647  1
  Al  Al13  1  0.332330  0.998064  0.081495  1
  Al  Al14  1  0.334668  0.334840  0.543852  1
  Al  Al15  1  0.669256  0.666852  0.442088  1
  Al  Al16  1  0.669256  0.666852  0.057912  1
  Al  Al17  1  0.334668  0.334840  0.956148  1
  Al  Al18  1  0.336098  0.549905  0.250000  1
  Al  Al19  1  0.661015  0.454620  0.750000  1
  Al  Al20  1  0.556321  0.345479  0.250000  1
  Al  Al21  1  0.453092  0.659403  0.750000  1
  Ir  Ir22  1  0.672858  0.329125  0.002568  1
  Ir  Ir23  1  0.328039  0.672325  0.003360  1
  Ir  Ir24  1  0.328039  0.672325  0.496640  1
  Ir  Ir25  1  0.672858  0.329125  0.497432  1
  Ir  Ir26  1  0.998308  0.997509  0.003263  1
  Ir  Ir27  1  0.998308  0.997509  0.496737  1
