# generated using pymatgen
data_NdLu12Th7Sn16
_symmetry_space_group_name_H-M   'P 1'
_cell_length_a   8.10645796
_cell_length_b   8.18797144
_cell_length_c   15.40145900
_cell_angle_alpha   90.02281203
_cell_angle_beta   90.04895241
_cell_angle_gamma   89.97477533
_symmetry_Int_Tables_number   1
_chemical_formula_structural   NdLu12Th7Sn16
_chemical_formula_sum   'Nd1 Lu12 Th7 Sn16'
_cell_volume   1022.27816106
_cell_formula_units_Z   1
loop_
 _symmetry_equiv_pos_site_id
 _symmetry_equiv_pos_as_xyz
  1  'x, y, z'
loop_
 _atom_site_type_symbol
 _atom_site_label
 _atom_site_symmetry_multiplicity
 _atom_site_fract_x
 _atom_site_fract_y
 _atom_site_fract_z
 _atom_site_occupancy
  Nd  Nd0  1  0.516933  0.323263  0.903460  1
  Lu  Lu1  1  0.352589  0.837574  0.874490  1
  Lu  Lu2  1  0.852783  0.661224  0.625224  1
  Lu  Lu3  1  0.646369  0.162470  0.374877  1
  Lu  Lu4  1  0.145744  0.338083  0.125242  1
  Lu  Lu5  1  0.647742  0.161653  0.125328  1
  Lu  Lu6  1  0.147522  0.338871  0.374857  1
  Lu  Lu7  1  0.352649  0.839086  0.625206  1
  Lu  Lu8  1  0.854841  0.660985  0.874380  1
  Lu  Lu9  1  0.183412  0.500755  0.749944  1
  Lu  Lu10  1  0.683924  0.998545  0.749687  1
  Lu  Lu11  1  0.816665  0.499915  0.250279  1
  Lu  Lu12  1  0.316355  0.000337  0.250091  1
  Th  Th13  1  0.016135  0.176864  0.594793  1
  Th  Th14  1  0.484424  0.677133  0.404658  1
  Th  Th15  1  0.984159  0.823134  0.095140  1
  Th  Th16  1  0.484675  0.678065  0.096137  1
  Th  Th17  1  0.984658  0.823161  0.405514  1
  Th  Th18  1  0.514667  0.322332  0.594902  1
  Th  Th19  1  0.014548  0.175297  0.905075  1
  Sn  Sn20  1  0.304774  0.040255  0.043066  1
  Sn  Sn21  1  0.805058  0.458426  0.457784  1
  Sn  Sn22  1  0.694539  0.958669  0.542223  1
  Sn  Sn23  1  0.195245  0.541297  0.957962  1
  Sn  Sn24  1  0.694090  0.956139  0.957711  1
  Sn  Sn25  1  0.194663  0.542978  0.542011  1
  Sn  Sn26  1  0.305315  0.042222  0.457504  1
  Sn  Sn27  1  0.805168  0.459050  0.043108  1
  Sn  Sn28  1  0.548604  0.625378  0.748906  1
  Sn  Sn29  1  0.048109  0.875818  0.749701  1
  Sn  Sn30  1  0.451451  0.375229  0.249612  1
  Sn  Sn31  1  0.951560  0.124810  0.250462  1
  Sn  Sn32  1  0.321809  0.146333  0.750320  1
  Sn  Sn33  1  0.822262  0.353735  0.749624  1
  Sn  Sn34  1  0.679012  0.855060  0.250443  1
  Sn  Sn35  1  0.177550  0.645855  0.250279  1
