# generated using pymatgen
data_Lu4MnFeB12
_symmetry_space_group_name_H-M   'P 1'
_cell_length_a   3.47933700
_cell_length_b   8.97281314
_cell_length_c   11.33634016
_cell_angle_alpha   90.16282521
_cell_angle_beta   90.00000000
_cell_angle_gamma   90.00000000
_symmetry_Int_Tables_number   1
_chemical_formula_structural   Lu4MnFeB12
_chemical_formula_sum   'Lu8 Mn2 Fe2 B24'
_cell_volume   353.91277075
_cell_formula_units_Z   2
loop_
 _symmetry_equiv_pos_site_id
 _symmetry_equiv_pos_as_xyz
  1  'x, y, z'
loop_
 _atom_site_type_symbol
 _atom_site_label
 _atom_site_symmetry_multiplicity
 _atom_site_fract_x
 _atom_site_fract_y
 _atom_site_fract_z
 _atom_site_occupancy
  Lu  Lu0  1  0.000000  0.322198  0.413461  1
  Lu  Lu1  1  0.000000  0.677802  0.586539  1
  Lu  Lu2  1  0.000000  0.825318  0.084161  1
  Lu  Lu3  1  0.000000  0.174682  0.915839  1
  Lu  Lu4  1  0.000000  0.942887  0.368773  1
  Lu  Lu5  1  0.000000  0.057113  0.631227  1
  Lu  Lu6  1  0.000000  0.441570  0.130708  1
  Lu  Lu7  1  0.000000  0.558430  0.869292  1
  Mn  Mn8  1  0.000000  0.138319  0.180260  1
  Mn  Mn9  1  0.000000  0.861681  0.819740  1
  Fe  Fe10  1  0.000000  0.638163  0.320859  1
  Fe  Fe11  1  0.000000  0.361837  0.679141  1
  B  B12  1  0.500000  0.553970  0.432909  1
  B  B13  1  0.500000  0.446030  0.567091  1
  B  B14  1  0.500000  0.053423  0.067349  1
  B  B15  1  0.500000  0.946577  0.932651  1
  B  B16  1  0.500000  0.747429  0.418340  1
  B  B17  1  0.500000  0.252571  0.581660  1
  B  B18  1  0.500000  0.247096  0.081887  1
  B  B19  1  0.500000  0.752904  0.918113  1
  B  B20  1  0.500000  0.790215  0.265325  1
  B  B21  1  0.500000  0.209785  0.734675  1
  B  B22  1  0.500000  0.290959  0.235178  1
  B  B23  1  0.500000  0.709041  0.764822  1
  B  B24  1  0.500000  0.630897  0.185944  1
  B  B25  1  0.500000  0.369103  0.814056  1
  B  B26  1  0.500000  0.131410  0.314557  1
  B  B27  1  0.500000  0.868590  0.685443  1
  B  B28  1  0.500000  0.983610  0.211423  1
  B  B29  1  0.500000  0.016390  0.788577  1
  B  B30  1  0.500000  0.483907  0.288888  1
  B  B31  1  0.500000  0.516093  0.711112  1
  B  B32  1  0.500000  0.603223  0.028695  1
  B  B33  1  0.500000  0.396777  0.971305  1
  B  B34  1  0.500000  0.103633  0.471698  1
  B  B35  1  0.500000  0.896367  0.528302  1
