# generated using pymatgen
data_Rb4Ti6CCl18
_symmetry_space_group_name_H-M   'P 1'
_cell_length_a   10.15038223
_cell_length_b   10.15038302
_cell_length_c   9.84458611
_cell_angle_alpha   77.23415108
_cell_angle_beta   77.23414434
_cell_angle_gamma   117.36958741
_symmetry_Int_Tables_number   1
_chemical_formula_structural   Rb4Ti6CCl18
_chemical_formula_sum   'Rb4 Ti6 C1 Cl18'
_cell_volume   815.29182394
_cell_formula_units_Z   1
loop_
 _symmetry_equiv_pos_site_id
 _symmetry_equiv_pos_as_xyz
  1  'x, y, z'
loop_
 _atom_site_type_symbol
 _atom_site_label
 _atom_site_symmetry_multiplicity
 _atom_site_fract_x
 _atom_site_fract_y
 _atom_site_fract_z
 _atom_site_occupancy
  Rb  Rb0  1  0.767952  0.445706  0.685663  1
  Rb  Rb1  1  0.554294  0.232048  0.314337  1
  Rb  Rb2  1  0.232048  0.554294  0.314337  1
  Rb  Rb3  1  0.445706  0.767952  0.685663  1
  Ti  Ti4  1  0.115559  0.115559  0.135862  1
  Ti  Ti5  1  0.884441  0.884441  0.864138  1
  Ti  Ti6  1  0.951081  0.776582  0.141884  1
  Ti  Ti7  1  0.223418  0.048919  0.858116  1
  Ti  Ti8  1  0.048919  0.223418  0.858116  1
  Ti  Ti9  1  0.776582  0.951081  0.141884  1
  C  C10  1  0.000000  0.000000  0.000000  1
  Cl  Cl11  1  0.817419  0.620792  0.007797  1
  Cl  Cl12  1  0.379209  0.182581  0.992203  1
  Cl  Cl13  1  0.182581  0.379209  0.992203  1
  Cl  Cl14  1  0.620791  0.817419  0.007797  1
  Cl  Cl15  1  0.195344  0.804656  0.000000  1
  Cl  Cl16  1  0.804656  0.195344  0.000000  1
  Cl  Cl17  1  0.305287  0.305287  0.685330  1
  Cl  Cl18  1  0.694713  0.694713  0.314670  1
  Cl  Cl19  1  0.892330  0.510146  0.313227  1
  Cl  Cl20  1  0.489854  0.107670  0.686773  1
  Cl  Cl21  1  0.107670  0.489854  0.686773  1
  Cl  Cl22  1  0.510146  0.892330  0.313227  1
  Cl  Cl23  1  0.250072  0.250072  0.292897  1
  Cl  Cl24  1  0.749928  0.749928  0.707103  1
  Cl  Cl25  1  0.073559  0.878731  0.306737  1
  Cl  Cl26  1  0.121269  0.926441  0.693263  1
  Cl  Cl27  1  0.926441  0.121269  0.693263  1
  Cl  Cl28  1  0.878731  0.073559  0.306737  1
