# generated using pymatgen
data_Tb8Hg3Au
_symmetry_space_group_name_H-M   'P 1'
_cell_length_a   5.07274400
_cell_length_b   7.10203970
_cell_length_c   9.28252102
_cell_angle_alpha   90.27399976
_cell_angle_beta   90.00000000
_cell_angle_gamma   90.00000000
_symmetry_Int_Tables_number   1
_chemical_formula_structural   Tb8Hg3Au
_chemical_formula_sum   'Tb8 Hg3 Au1'
_cell_volume   334.41597609
_cell_formula_units_Z   1
loop_
 _symmetry_equiv_pos_site_id
 _symmetry_equiv_pos_as_xyz
  1  'x, y, z'
loop_
 _atom_site_type_symbol
 _atom_site_label
 _atom_site_symmetry_multiplicity
 _atom_site_fract_x
 _atom_site_fract_y
 _atom_site_fract_z
 _atom_site_occupancy
  Tb  Tb0  1  0.250000  0.838778  0.922793  1
  Tb  Tb1  1  0.250000  0.332921  0.572029  1
  Tb  Tb2  1  0.750000  0.168648  0.087365  1
  Tb  Tb3  1  0.750000  0.650911  0.422542  1
  Tb  Tb4  1  0.250000  0.487259  0.187886  1
  Tb  Tb5  1  0.250000  0.990644  0.314666  1
  Tb  Tb6  1  0.750000  0.513737  0.809567  1
  Tb  Tb7  1  0.750000  0.018913  0.681511  1
  Hg  Hg8  1  0.250000  0.263042  0.896100  1
  Hg  Hg9  1  0.250000  0.757423  0.602635  1
  Hg  Hg10  1  0.750000  0.739147  0.102331  1
  Au  Au11  1  0.750000  0.238576  0.400575  1
