# generated using pymatgen
data_Er16Lu4Sn3Pb13
_symmetry_space_group_name_H-M   'P 1'
_cell_length_a   8.11816018
_cell_length_b   8.16487939
_cell_length_c   15.46442500
_cell_angle_alpha   90.00000000
_cell_angle_beta   90.00000000
_cell_angle_gamma   89.83419336
_symmetry_Int_Tables_number   1
_chemical_formula_structural   Er16Lu4Sn3Pb13
_chemical_formula_sum   'Er16 Lu4 Sn3 Pb13'
_cell_volume   1025.03654304
_cell_formula_units_Z   1
loop_
 _symmetry_equiv_pos_site_id
 _symmetry_equiv_pos_as_xyz
  1  'x, y, z'
loop_
 _atom_site_type_symbol
 _atom_site_label
 _atom_site_symmetry_multiplicity
 _atom_site_fract_x
 _atom_site_fract_y
 _atom_site_fract_z
 _atom_site_occupancy
  Er  Er0  1  0.379524  0.838847  0.876590  1
  Er  Er1  1  0.878869  0.661762  0.623334  1
  Er  Er2  1  0.618549  0.161802  0.377701  1
  Er  Er3  1  0.123322  0.340766  0.121238  1
  Er  Er4  1  0.618549  0.161802  0.122299  1
  Er  Er5  1  0.123322  0.340766  0.378762  1
  Er  Er6  1  0.379524  0.838847  0.623410  1
  Er  Er7  1  0.878869  0.661762  0.876666  1
  Er  Er8  1  0.538205  0.327433  0.898360  1
  Er  Er9  1  0.037720  0.172185  0.601666  1
  Er  Er10  1  0.462312  0.672206  0.399568  1
  Er  Er11  1  0.962206  0.824209  0.099842  1
  Er  Er12  1  0.462312  0.672206  0.100432  1
  Er  Er13  1  0.962206  0.824209  0.400158  1
  Er  Er14  1  0.538205  0.327433  0.601640  1
  Er  Er15  1  0.037720  0.172185  0.898334  1
  Lu  Lu16  1  0.211402  0.507732  0.750000  1
  Lu  Lu17  1  0.711592  0.992552  0.750000  1
  Lu  Lu18  1  0.787491  0.494381  0.250000  1
  Lu  Lu19  1  0.290781  0.006774  0.250000  1
  Sn  Sn20  1  0.574550  0.624124  0.750000  1
  Sn  Sn21  1  0.074261  0.875809  0.750000  1
  Sn  Sn22  1  0.425177  0.375913  0.250000  1
  Pb  Pb23  1  0.281425  0.031735  0.041729  1
  Pb  Pb24  1  0.781902  0.467159  0.458452  1
  Pb  Pb25  1  0.717843  0.967939  0.541984  1
  Pb  Pb26  1  0.217993  0.532977  0.957249  1
  Pb  Pb27  1  0.717843  0.967939  0.958016  1
  Pb  Pb28  1  0.217993  0.532977  0.542751  1
  Pb  Pb29  1  0.281425  0.031735  0.458271  1
  Pb  Pb30  1  0.781902  0.467159  0.041548  1
  Pb  Pb31  1  0.927029  0.125287  0.250000  1
  Pb  Pb32  1  0.349251  0.153824  0.750000  1
  Pb  Pb33  1  0.848274  0.346585  0.750000  1
  Pb  Pb34  1  0.649814  0.845265  0.250000  1
  Pb  Pb35  1  0.150635  0.653719  0.250000  1
