# generated using pymatgen
data_Dy3Bi3(MoO7)2
_symmetry_space_group_name_H-M   'P 1'
_cell_length_a   6.41410533
_cell_length_b   6.71474700
_cell_length_c   7.65369136
_cell_angle_alpha   106.75436694
_cell_angle_beta   89.87372854
_cell_angle_gamma   98.04764662
_symmetry_Int_Tables_number   1
_chemical_formula_structural   Dy3Bi3(MoO7)2
_chemical_formula_sum   'Dy3 Bi3 Mo2 O14'
_cell_volume   312.28262749
_cell_formula_units_Z   1
loop_
 _symmetry_equiv_pos_site_id
 _symmetry_equiv_pos_as_xyz
  1  'x, y, z'
loop_
 _atom_site_type_symbol
 _atom_site_label
 _atom_site_symmetry_multiplicity
 _atom_site_fract_x
 _atom_site_fract_y
 _atom_site_fract_z
 _atom_site_occupancy
  Dy  Dy0  1  0.549383  0.990933  0.748394  1
  Dy  Dy1  1  0.454687  0.007248  0.255588  1
  Dy  Dy2  1  0.252725  0.537196  0.885375  1
  Bi  Bi3  1  0.746100  0.481128  0.111595  1
  Bi  Bi4  1  0.726146  0.455944  0.615754  1
  Bi  Bi5  1  0.264909  0.539357  0.386291  1
  Mo  Mo6  1  0.004329  0.007406  0.502071  1
  Mo  Mo7  1  0.005512  0.004863  0.000018  1
  O  O8  1  0.443431  0.651917  0.164201  1
  O  O9  1  0.544396  0.343100  0.828041  1
  O  O10  1  0.289243  0.922346  0.949013  1
  O  O11  1  0.713948  0.044960  0.050046  1
  O  O12  1  0.295733  0.914610  0.508491  1
  O  O13  1  0.705491  0.089159  0.494309  1
  O  O14  1  0.528960  0.358341  0.346995  1
  O  O15  1  0.454102  0.639315  0.662018  1
  O  O16  1  0.933031  0.674878  0.953118  1
  O  O17  1  0.084219  0.310296  0.033773  1
  O  O18  1  0.096508  0.299538  0.625649  1
  O  O19  1  0.898956  0.718054  0.377801  1
  O  O20  1  0.902822  0.944698  0.736632  1
  O  O21  1  0.105369  0.064714  0.264827  1
