# generated using pymatgen
data_Nd8Lu12Bi3Pb13
_symmetry_space_group_name_H-M   'P 1'
_cell_length_a   8.27324109
_cell_length_b   8.30498730
_cell_length_c   15.54147318
_cell_angle_alpha   90.03114673
_cell_angle_beta   89.84905790
_cell_angle_gamma   90.07931636
_symmetry_Int_Tables_number   1
_chemical_formula_structural   Nd8Lu12Bi3Pb13
_chemical_formula_sum   'Nd8 Lu12 Bi3 Pb13'
_cell_volume   1067.83671609
_cell_formula_units_Z   1
loop_
 _symmetry_equiv_pos_site_id
 _symmetry_equiv_pos_as_xyz
  1  'x, y, z'
loop_
 _atom_site_type_symbol
 _atom_site_label
 _atom_site_symmetry_multiplicity
 _atom_site_fract_x
 _atom_site_fract_y
 _atom_site_fract_z
 _atom_site_occupancy
  Nd  Nd0  1  0.471238  0.673254  0.598339  1
  Nd  Nd1  1  0.966958  0.825098  0.900403  1
  Nd  Nd2  1  0.532948  0.325613  0.099603  1
  Nd  Nd3  1  0.030714  0.176002  0.401538  1
  Nd  Nd4  1  0.527889  0.325764  0.402621  1
  Nd  Nd5  1  0.025298  0.174765  0.098422  1
  Nd  Nd6  1  0.475052  0.675813  0.901325  1
  Nd  Nd7  1  0.975418  0.821496  0.598027  1
  Lu  Lu8  1  0.634660  0.158981  0.624726  1
  Lu  Lu9  1  0.131611  0.344319  0.874567  1
  Lu  Lu10  1  0.367646  0.844652  0.125662  1
  Lu  Lu11  1  0.866404  0.654553  0.375220  1
  Lu  Lu12  1  0.358285  0.842700  0.376010  1
  Lu  Lu13  1  0.859495  0.657743  0.124279  1
  Lu  Lu14  1  0.640088  0.157470  0.876198  1
  Lu  Lu15  1  0.137264  0.342643  0.624609  1
  Lu  Lu16  1  0.803913  0.494796  0.749651  1
  Lu  Lu17  1  0.304293  0.004355  0.746761  1
  Lu  Lu18  1  0.196363  0.504598  0.252327  1
  Lu  Lu19  1  0.696140  0.995651  0.248303  1
  Bi  Bi20  1  0.704738  0.957823  0.455441  1
  Bi  Bi21  1  0.205906  0.541173  0.044502  1
  Bi  Bi22  1  0.293726  0.041415  0.955505  1
  Pb  Pb23  1  0.795249  0.458857  0.543842  1
  Pb  Pb24  1  0.293708  0.040553  0.543648  1
  Pb  Pb25  1  0.793035  0.460022  0.955836  1
  Pb  Pb26  1  0.706149  0.959496  0.044101  1
  Pb  Pb27  1  0.204914  0.540195  0.456408  1
  Pb  Pb28  1  0.441686  0.367974  0.752416  1
  Pb  Pb29  1  0.941924  0.130155  0.749285  1
  Pb  Pb30  1  0.557318  0.631743  0.251333  1
  Pb  Pb31  1  0.057590  0.868923  0.248392  1
  Pb  Pb32  1  0.660609  0.847950  0.749072  1
  Pb  Pb33  1  0.161185  0.652704  0.751091  1
  Pb  Pb34  1  0.340334  0.153287  0.250109  1
  Pb  Pb35  1  0.840250  0.347462  0.250428  1
