# generated using pymatgen
data_Ca4Al5Ni9
_symmetry_space_group_name_H-M   'P 1'
_cell_length_a   5.26988907
_cell_length_b   5.26988931
_cell_length_c   12.05563515
_cell_angle_alpha   77.37520602
_cell_angle_beta   77.37520433
_cell_angle_gamma   60.00000313
_symmetry_Int_Tables_number   1
_chemical_formula_structural   Ca4Al5Ni9
_chemical_formula_sum   'Ca4 Al5 Ni9'
_cell_volume   280.56435067
_cell_formula_units_Z   1
loop_
 _symmetry_equiv_pos_site_id
 _symmetry_equiv_pos_as_xyz
  1  'x, y, z'
loop_
 _atom_site_type_symbol
 _atom_site_label
 _atom_site_symmetry_multiplicity
 _atom_site_fract_x
 _atom_site_fract_y
 _atom_site_fract_z
 _atom_site_occupancy
  Ca  Ca0  1  0.951232  0.951232  0.146303  1
  Ca  Ca1  1  0.048768  0.048768  0.853697  1
  Ca  Ca2  1  0.854614  0.854614  0.436160  1
  Ca  Ca3  1  0.145386  0.145386  0.563840  1
  Al  Al4  1  0.500000  0.500000  0.500000  1
  Al  Al5  1  0.721997  0.721997  0.834007  1
  Al  Al6  1  0.278003  0.278003  0.165993  1
  Al  Al7  1  0.611255  0.611255  0.166234  1
  Al  Al8  1  0.388745  0.388745  0.833766  1
  Ni  Ni9  1  0.000000  0.500000  0.000000  1
  Ni  Ni10  1  0.500000  0.000000  0.000000  1
  Ni  Ni11  1  0.500000  0.500000  0.000000  1
  Ni  Ni12  1  0.389326  0.389326  0.329553  1
  Ni  Ni13  1  0.891795  0.389326  0.329553  1
  Ni  Ni14  1  0.389326  0.891795  0.329553  1
  Ni  Ni15  1  0.610674  0.610674  0.670447  1
  Ni  Ni16  1  0.108205  0.610674  0.670447  1
  Ni  Ni17  1  0.610674  0.108205  0.670447  1
