# generated using pymatgen
data_Tb4Ho4Cd2PdRu
_symmetry_space_group_name_H-M   'P 1'
_cell_length_a   9.64625257
_cell_length_b   9.64625338
_cell_length_c   9.69710700
_cell_angle_alpha   59.82545133
_cell_angle_beta   59.82544854
_cell_angle_gamma   59.75035712
_symmetry_Int_Tables_number   1
_chemical_formula_structural   Tb4Ho4Cd2PdRu
_chemical_formula_sum   'Tb8 Ho8 Cd4 Pd2 Ru2'
_cell_volume   635.14352912
_cell_formula_units_Z   2
loop_
 _symmetry_equiv_pos_site_id
 _symmetry_equiv_pos_as_xyz
  1  'x, y, z'
loop_
 _atom_site_type_symbol
 _atom_site_label
 _atom_site_symmetry_multiplicity
 _atom_site_fract_x
 _atom_site_fract_y
 _atom_site_fract_z
 _atom_site_occupancy
  Tb  Tb0  1  0.187466  0.187466  0.812534  1
  Tb  Tb1  1  0.809216  0.809216  0.190784  1
  Tb  Tb2  1  0.936590  0.559234  0.567109  1
  Tb  Tb3  1  0.559234  0.936590  0.937066  1
  Tb  Tb4  1  0.559234  0.936590  0.567109  1
  Tb  Tb5  1  0.936590  0.559234  0.937066  1
  Tb  Tb6  1  0.564457  0.564457  0.935543  1
  Tb  Tb7  1  0.937966  0.937966  0.562034  1
  Ho  Ho8  1  0.349257  0.349257  0.354520  1
  Ho  Ho9  1  0.349257  0.349257  0.946967  1
  Ho  Ho10  1  0.344735  0.954348  0.350460  1
  Ho  Ho11  1  0.954348  0.344735  0.350460  1
  Ho  Ho12  1  0.816904  0.187538  0.189795  1
  Ho  Ho13  1  0.187538  0.816904  0.805764  1
  Ho  Ho14  1  0.187538  0.816904  0.189795  1
  Ho  Ho15  1  0.816904  0.187538  0.805764  1
  Cd  Cd16  1  0.580055  0.580055  0.581382  1
  Cd  Cd17  1  0.580055  0.580055  0.258507  1
  Cd  Cd18  1  0.581490  0.255371  0.581568  1
  Cd  Cd19  1  0.255371  0.581490  0.581568  1
  Pd  Pd20  1  0.145845  0.571242  0.141456  1
  Pd  Pd21  1  0.571242  0.145845  0.141456  1
  Ru  Ru22  1  0.144354  0.144354  0.138314  1
  Ru  Ru23  1  0.144354  0.144354  0.572978  1
