# generated using pymatgen
data_Y2AlSi4Ir2Rh
_symmetry_space_group_name_H-M   'P 1'
_cell_length_a   8.17497460
_cell_length_b   8.17497429
_cell_length_c   5.72074677
_cell_angle_alpha   71.56750965
_cell_angle_beta   71.56750299
_cell_angle_gamma   93.46421135
_symmetry_Int_Tables_number   1
_chemical_formula_structural   Y2AlSi4Ir2Rh
_chemical_formula_sum   'Y4 Al2 Si8 Ir4 Rh2'
_cell_volume   338.58811705
_cell_formula_units_Z   2
loop_
 _symmetry_equiv_pos_site_id
 _symmetry_equiv_pos_as_xyz
  1  'x, y, z'
loop_
 _atom_site_type_symbol
 _atom_site_label
 _atom_site_symmetry_multiplicity
 _atom_site_fract_x
 _atom_site_fract_y
 _atom_site_fract_z
 _atom_site_occupancy
  Y  Y0  1  0.866531  0.600045  0.756982  1
  Y  Y1  1  0.133469  0.399955  0.243018  1
  Y  Y2  1  0.399955  0.133469  0.743018  1
  Y  Y3  1  0.600045  0.866531  0.256982  1
  Al  Al4  1  0.772626  0.227374  0.750000  1
  Al  Al5  1  0.227374  0.772626  0.250000  1
  Si  Si6  1  0.518524  0.481476  0.750000  1
  Si  Si7  1  0.481476  0.518524  0.250000  1
  Si  Si8  1  0.211279  0.788721  0.750000  1
  Si  Si9  1  0.788721  0.211279  0.250000  1
  Si  Si10  1  0.265044  0.060310  0.338388  1
  Si  Si11  1  0.734956  0.939690  0.661612  1
  Si  Si12  1  0.939690  0.734956  0.161612  1
  Si  Si13  1  0.060310  0.265044  0.838388  1
  Ir  Ir14  1  0.533966  0.260131  0.140569  1
  Ir  Ir15  1  0.739869  0.466034  0.359431  1
  Ir  Ir16  1  0.466034  0.739869  0.859431  1
  Ir  Ir17  1  0.260131  0.533966  0.640569  1
  Rh  Rh18  1  0.994589  0.005411  0.250000  1
  Rh  Rh19  1  0.005411  0.994589  0.750000  1
