# generated using pymatgen
data_La10Zn4Ir5Ru
_symmetry_space_group_name_H-M   'P 1'
_cell_length_a   8.67495590
_cell_length_b   8.67495684
_cell_length_c   8.63277713
_cell_angle_alpha   109.09729340
_cell_angle_beta   109.79355032
_cell_angle_gamma   109.72048725
_symmetry_Int_Tables_number   1
_chemical_formula_structural   La10Zn4Ir5Ru
_chemical_formula_sum   'La10 Zn4 Ir5 Ru1'
_cell_volume   498.86696213
_cell_formula_units_Z   1
loop_
 _symmetry_equiv_pos_site_id
 _symmetry_equiv_pos_as_xyz
  1  'x, y, z'
loop_
 _atom_site_type_symbol
 _atom_site_label
 _atom_site_symmetry_multiplicity
 _atom_site_fract_x
 _atom_site_fract_y
 _atom_site_fract_z
 _atom_site_occupancy
  La  La0  1  0.252109  0.683361  0.438547  1
  La  La1  1  0.744815  0.813563  0.061454  1
  La  La2  1  0.435297  0.247683  0.684689  1
  La  La3  1  0.684389  0.434390  0.250000  1
  La  La4  1  0.062994  0.750608  0.815311  1
  La  La5  1  0.815009  0.065009  0.750000  1
  La  La6  1  0.221914  0.222002  0.222053  1
  La  La7  1  0.499949  0.999861  0.277947  1
  La  La8  1  0.279976  0.503041  0.998149  1
  La  La9  1  0.004891  0.281827  0.501852  1
  Zn  Zn10  1  0.497857  0.998721  0.905930  1
  Zn  Zn11  1  0.592791  0.591926  0.594070  1
  Zn  Zn12  1  0.906745  0.500714  0.000917  1
  Zn  Zn13  1  0.999796  0.905828  0.499084  1
  Ir  Ir14  1  0.249895  0.129740  0.879434  1
  Ir  Ir15  1  0.750307  0.370460  0.620565  1
  Ir  Ir16  1  0.877089  0.250784  0.126914  1
  Ir  Ir17  1  0.127832  0.877832  0.250001  1
  Ir  Ir18  1  0.623867  0.750174  0.373085  1
  Ru  Ru19  1  0.372476  0.622476  0.750000  1
