# generated using pymatgen
data_EuFeP3N5O2
_symmetry_space_group_name_H-M   'P 1'
_cell_length_a   6.63475000
_cell_length_b   7.09857013
_cell_length_c   14.27842300
_cell_angle_alpha   60.76946360
_cell_angle_beta   90.00000000
_cell_angle_gamma   90.00000000
_symmetry_Int_Tables_number   1
_chemical_formula_structural   EuFeP3N5O2
_chemical_formula_sum   'Eu4 Fe4 P12 N20 O8'
_cell_volume   586.84271921
_cell_formula_units_Z   4
loop_
 _symmetry_equiv_pos_site_id
 _symmetry_equiv_pos_as_xyz
  1  'x, y, z'
loop_
 _atom_site_type_symbol
 _atom_site_label
 _atom_site_symmetry_multiplicity
 _atom_site_fract_x
 _atom_site_fract_y
 _atom_site_fract_z
 _atom_site_occupancy
  Eu  Eu0  1  0.745807  0.514860  0.612851  1
  Eu  Eu1  1  0.245807  0.485140  0.887149  1
  Eu  Eu2  1  0.254193  0.485140  0.387149  1
  Eu  Eu3  1  0.754193  0.514860  0.112851  1
  Fe  Fe4  1  0.505254  0.985139  0.879571  1
  Fe  Fe5  1  0.005254  0.014861  0.620429  1
  Fe  Fe6  1  0.494746  0.014861  0.120429  1
  Fe  Fe7  1  0.994746  0.985139  0.379571  1
  P  P8  1  0.013692  0.937977  0.881157  1
  P  P9  1  0.513692  0.062023  0.618843  1
  P  P10  1  0.986308  0.062023  0.118843  1
  P  P11  1  0.486308  0.937977  0.381157  1
  P  P12  1  0.277148  0.738244  0.589643  1
  P  P13  1  0.777148  0.261756  0.910357  1
  P  P14  1  0.722852  0.261756  0.410357  1
  P  P15  1  0.222852  0.738244  0.089643  1
  P  P16  1  0.758699  0.722966  0.791693  1
  P  P17  1  0.258699  0.277034  0.708307  1
  P  P18  1  0.241301  0.277034  0.208307  1
  P  P19  1  0.741301  0.722966  0.291693  1
  N  N20  1  0.308063  0.936811  0.616241  1
  N  N21  1  0.808063  0.063189  0.883759  1
  N  N22  1  0.691937  0.063189  0.383759  1
  N  N23  1  0.191937  0.936811  0.116241  1
  N  N24  1  0.704927  0.893326  0.664189  1
  N  N25  1  0.204927  0.106674  0.835811  1
  N  N26  1  0.295073  0.106674  0.335811  1
  N  N27  1  0.795073  0.893326  0.164189  1
  N  N28  1  0.973400  0.820929  0.808236  1
  N  N29  1  0.473400  0.179071  0.691764  1
  N  N30  1  0.026600  0.179071  0.191764  1
  N  N31  1  0.526600  0.820929  0.308236  1
  N  N32  1  0.805666  0.490032  0.799106  1
  N  N33  1  0.305666  0.509968  0.700894  1
  N  N34  1  0.194334  0.509968  0.200894  1
  N  N35  1  0.694334  0.490032  0.299106  1
  N  N36  1  0.571634  0.262426  0.500015  1
  N  N37  1  0.071634  0.737574  0.999985  1
  N  N38  1  0.428366  0.737574  0.499985  1
  N  N39  1  0.928366  0.262426  0.000015  1
  O  O40  1  0.051609  0.771069  0.550857  1
  O  O41  1  0.551609  0.228931  0.949143  1
  O  O42  1  0.948391  0.228931  0.449143  1
  O  O43  1  0.448391  0.771069  0.050857  1
  O  O44  1  0.587346  0.704089  0.870659  1
  O  O45  1  0.087346  0.295911  0.629341  1
  O  O46  1  0.412654  0.295911  0.129341  1
  O  O47  1  0.912654  0.704089  0.370659  1
