# generated using pymatgen
data_CaMn5(PO4)4
_symmetry_space_group_name_H-M   'P 1'
_cell_length_a   5.26681534
_cell_length_b   8.89876361
_cell_length_c   8.01296677
_cell_angle_alpha   90.11217701
_cell_angle_beta   87.38061818
_cell_angle_gamma   89.99388568
_symmetry_Int_Tables_number   1
_chemical_formula_structural   CaMn5(PO4)4
_chemical_formula_sum   'Ca1 Mn5 P4 O16'
_cell_volume   375.15977001
_cell_formula_units_Z   1
loop_
 _symmetry_equiv_pos_site_id
 _symmetry_equiv_pos_as_xyz
  1  'x, y, z'
loop_
 _atom_site_type_symbol
 _atom_site_label
 _atom_site_symmetry_multiplicity
 _atom_site_fract_x
 _atom_site_fract_y
 _atom_site_fract_z
 _atom_site_occupancy
  Ca  Ca0  1  0.500005  0.500008  0.500026  1
  Mn  Mn1  1  0.405902  0.139055  0.617150  1
  Mn  Mn2  1  0.594159  0.860902  0.382859  1
  Mn  Mn3  1  0.999914  0.000035  0.999899  1
  Mn  Mn4  1  0.083204  0.644576  0.885887  1
  Mn  Mn5  1  0.916768  0.355423  0.114126  1
  P  P6  1  0.035213  0.699783  0.289016  1
  P  P7  1  0.473002  0.190339  0.201986  1
  P  P8  1  0.526948  0.809674  0.798048  1
  P  P9  1  0.964822  0.300216  0.710969  1
  O  O10  1  0.033366  0.582609  0.142921  1
  O  O11  1  0.468083  0.082321  0.355934  1
  O  O12  1  0.531941  0.917649  0.644057  1
  O  O13  1  0.966677  0.417365  0.857074  1
  O  O14  1  0.053754  0.142986  0.772359  1
  O  O15  1  0.442003  0.649360  0.742828  1
  O  O16  1  0.557999  0.350639  0.257215  1
  O  O17  1  0.946260  0.857010  0.227626  1
  O  O18  1  0.203990  0.192962  0.131341  1
  O  O19  1  0.305505  0.703752  0.355953  1
  O  O20  1  0.694527  0.296230  0.644038  1
  O  O21  1  0.795984  0.807058  0.868707  1
  O  O22  1  0.162702  0.344890  0.570825  1
  O  O23  1  0.322289  0.859617  0.931853  1
  O  O24  1  0.677644  0.140465  0.068142  1
  O  O25  1  0.837342  0.655077  0.429162  1
