# generated using pymatgen
data_CeHoEr2(Si3Rh)2
_symmetry_space_group_name_H-M   'P 1'
_cell_length_a   8.15700004
_cell_length_b   8.15554239
_cell_length_c   7.95224100
_cell_angle_alpha   90.00000000
_cell_angle_beta   90.00000000
_cell_angle_gamma   119.99408412
_symmetry_Int_Tables_number   1
_chemical_formula_structural   CeHoEr2(Si3Rh)2
_chemical_formula_sum   'Ce2 Ho2 Er4 Si12 Rh4'
_cell_volume   458.17286525
_cell_formula_units_Z   2
loop_
 _symmetry_equiv_pos_site_id
 _symmetry_equiv_pos_as_xyz
  1  'x, y, z'
loop_
 _atom_site_type_symbol
 _atom_site_label
 _atom_site_symmetry_multiplicity
 _atom_site_fract_x
 _atom_site_fract_y
 _atom_site_fract_z
 _atom_site_occupancy
  Ce  Ce0  1  0.999898  0.999949  0.250000  1
  Ce  Ce1  1  0.000040  0.000020  0.750000  1
  Ho  Ho2  1  0.492707  0.507191  0.250000  1
  Ho  Ho3  1  0.492707  0.985514  0.250000  1
  Er  Er4  1  0.013908  0.506953  0.250000  1
  Er  Er5  1  0.507337  0.492724  0.750000  1
  Er  Er6  1  0.985505  0.492753  0.750000  1
  Er  Er7  1  0.507337  0.014615  0.750000  1
  Si  Si8  1  0.832706  0.167544  0.503156  1
  Si  Si9  1  0.832706  0.665163  0.503156  1
  Si  Si10  1  0.335014  0.167507  0.503161  1
  Si  Si11  1  0.832706  0.167544  0.996844  1
  Si  Si12  1  0.832706  0.665163  0.996844  1
  Si  Si13  1  0.335014  0.167507  0.996839  1
  Si  Si14  1  0.167383  0.832304  0.002400  1
  Si  Si15  1  0.664861  0.832430  0.001949  1
  Si  Si16  1  0.167383  0.335078  0.002400  1
  Si  Si17  1  0.167383  0.832304  0.497600  1
  Si  Si18  1  0.664861  0.832430  0.498051  1
  Si  Si19  1  0.167383  0.335078  0.497600  1
  Rh  Rh20  1  0.667062  0.333531  0.470347  1
  Rh  Rh21  1  0.667062  0.333531  0.029653  1
  Rh  Rh22  1  0.333165  0.666583  0.967931  1
  Rh  Rh23  1  0.333165  0.666583  0.532069  1
