# generated using pymatgen
data_TbEr4In4PdRh
_symmetry_space_group_name_H-M   'P 1'
_cell_length_a   8.10335801
_cell_length_b   18.25287305
_cell_length_c   3.59686900
_cell_angle_alpha   90.00000000
_cell_angle_beta   90.00000000
_cell_angle_gamma   90.00109696
_symmetry_Int_Tables_number   1
_chemical_formula_structural   TbEr4In4PdRh
_chemical_formula_sum   'Tb2 Er8 In8 Pd2 Rh2'
_cell_volume   532.01132907
_cell_formula_units_Z   2
loop_
 _symmetry_equiv_pos_site_id
 _symmetry_equiv_pos_as_xyz
  1  'x, y, z'
loop_
 _atom_site_type_symbol
 _atom_site_label
 _atom_site_symmetry_multiplicity
 _atom_site_fract_x
 _atom_site_fract_y
 _atom_site_fract_z
 _atom_site_occupancy
  Tb  Tb0  1  0.500000  0.500000  0.000000  1
  Tb  Tb1  1  0.000000  0.000000  0.000000  1
  Er  Er2  1  0.733662  0.277870  0.000000  1
  Er  Er3  1  0.266338  0.722130  0.000000  1
  Er  Er4  1  0.745270  0.779694  0.000000  1
  Er  Er5  1  0.254730  0.220306  0.000000  1
  Er  Er6  1  0.616198  0.087159  0.000000  1
  Er  Er7  1  0.383802  0.912841  0.000000  1
  Er  Er8  1  0.882096  0.584620  0.000000  1
  Er  Er9  1  0.117904  0.415380  0.000000  1
  In  In10  1  0.707227  0.931237  0.500000  1
  In  In11  1  0.292773  0.068763  0.500000  1
  In  In12  1  0.793312  0.431730  0.500000  1
  In  In13  1  0.206688  0.568270  0.500000  1
  In  In14  1  0.575128  0.649658  0.500000  1
  In  In15  1  0.424872  0.350342  0.500000  1
  In  In16  1  0.924714  0.150172  0.500000  1
  In  In17  1  0.075286  0.849828  0.500000  1
  Pd  Pd18  1  0.976097  0.696521  0.500000  1
  Pd  Pd19  1  0.023903  0.303479  0.500000  1
  Rh  Rh20  1  0.523046  0.195236  0.500000  1
  Rh  Rh21  1  0.476954  0.804764  0.500000  1
