# generated using pymatgen
data_CaLa(AsPd)2
_symmetry_space_group_name_H-M   'P 1'
_cell_length_a   4.33765500
_cell_length_b   4.33765438
_cell_length_c   8.20201100
_cell_angle_alpha   90.00000000
_cell_angle_beta   90.00000000
_cell_angle_gamma   119.99999707
_symmetry_Int_Tables_number   1
_chemical_formula_structural   CaLa(AsPd)2
_chemical_formula_sum   'Ca1 La1 As2 Pd2'
_cell_volume   133.64753227
_cell_formula_units_Z   1
loop_
 _symmetry_equiv_pos_site_id
 _symmetry_equiv_pos_as_xyz
  1  'x, y, z'
loop_
 _atom_site_type_symbol
 _atom_site_label
 _atom_site_symmetry_multiplicity
 _atom_site_fract_x
 _atom_site_fract_y
 _atom_site_fract_z
 _atom_site_occupancy
  Ca  Ca0  1  0.000000  0.000000  0.500000  1
  La  La1  1  0.000000  0.000000  0.000000  1
  As  As2  1  0.666667  0.333333  0.246520  1
  As  As3  1  0.333333  0.666667  0.753480  1
  Pd  Pd4  1  0.333333  0.666667  0.258355  1
  Pd  Pd5  1  0.666667  0.333333  0.741645  1
