# generated using pymatgen
data_Ac3Yb2(Sn5Pt2)2
_symmetry_space_group_name_H-M   'P 1'
_cell_length_a   14.38176200
_cell_length_b   14.38176200
_cell_length_c   4.71953600
_cell_angle_alpha   90.00000000
_cell_angle_beta   90.00000000
_cell_angle_gamma   90.00000000
_symmetry_Int_Tables_number   1
_chemical_formula_structural   Ac3Yb2(Sn5Pt2)2
_chemical_formula_sum   'Ac6 Yb4 Sn20 Pt8'
_cell_volume   976.16559774
_cell_formula_units_Z   2
loop_
 _symmetry_equiv_pos_site_id
 _symmetry_equiv_pos_as_xyz
  1  'x, y, z'
loop_
 _atom_site_type_symbol
 _atom_site_label
 _atom_site_symmetry_multiplicity
 _atom_site_fract_x
 _atom_site_fract_y
 _atom_site_fract_z
 _atom_site_occupancy
  Ac  Ac0  1  0.500000  0.500000  0.000000  1
  Ac  Ac1  1  0.000000  0.000000  0.000000  1
  Ac  Ac2  1  0.889176  0.389176  0.500000  1
  Ac  Ac3  1  0.110824  0.610824  0.500000  1
  Ac  Ac4  1  0.389176  0.110824  0.500000  1
  Ac  Ac5  1  0.610824  0.889176  0.500000  1
  Yb  Yb6  1  0.675299  0.175299  0.500000  1
  Yb  Yb7  1  0.324701  0.824701  0.500000  1
  Yb  Yb8  1  0.175299  0.324701  0.500000  1
  Yb  Yb9  1  0.824701  0.675299  0.500000  1
  Sn  Sn10  1  0.569815  0.069815  0.000000  1
  Sn  Sn11  1  0.430185  0.930185  0.000000  1
  Sn  Sn12  1  0.069815  0.430185  0.000000  1
  Sn  Sn13  1  0.930185  0.569815  0.000000  1
  Sn  Sn14  1  0.658047  0.696250  0.000000  1
  Sn  Sn15  1  0.341953  0.303750  0.000000  1
  Sn  Sn16  1  0.158047  0.803750  0.000000  1
  Sn  Sn17  1  0.841953  0.196250  0.000000  1
  Sn  Sn18  1  0.303750  0.658047  0.000000  1
  Sn  Sn19  1  0.696250  0.341953  0.000000  1
  Sn  Sn20  1  0.196250  0.158047  0.000000  1
  Sn  Sn21  1  0.803750  0.841953  0.000000  1
  Sn  Sn22  1  0.663850  0.509287  0.500000  1
  Sn  Sn23  1  0.336150  0.490713  0.500000  1
  Sn  Sn24  1  0.163850  0.990713  0.500000  1
  Sn  Sn25  1  0.836150  0.009287  0.500000  1
  Sn  Sn26  1  0.490713  0.663850  0.500000  1
  Sn  Sn27  1  0.509287  0.336150  0.500000  1
  Sn  Sn28  1  0.009287  0.163850  0.500000  1
  Sn  Sn29  1  0.990713  0.836150  0.500000  1
  Pt  Pt30  1  0.747822  0.525842  0.000000  1
  Pt  Pt31  1  0.252178  0.474158  0.000000  1
  Pt  Pt32  1  0.247822  0.974158  0.000000  1
  Pt  Pt33  1  0.752178  0.025842  0.000000  1
  Pt  Pt34  1  0.474158  0.747822  0.000000  1
  Pt  Pt35  1  0.525842  0.252178  0.000000  1
  Pt  Pt36  1  0.025842  0.247822  0.000000  1
  Pt  Pt37  1  0.974158  0.752178  0.000000  1
