# generated using pymatgen
data_FeAg3F7
_symmetry_space_group_name_H-M   'P 1'
_cell_length_a   7.76560392
_cell_length_b   7.77256775
_cell_length_c   7.77024047
_cell_angle_alpha   118.73172715
_cell_angle_beta   121.46570867
_cell_angle_gamma   89.86579441
_symmetry_Int_Tables_number   1
_chemical_formula_structural   FeAg3F7
_chemical_formula_sum   'Fe2 Ag6 F14'
_cell_volume   330.84292560
_cell_formula_units_Z   2
loop_
 _symmetry_equiv_pos_site_id
 _symmetry_equiv_pos_as_xyz
  1  'x, y, z'
loop_
 _atom_site_type_symbol
 _atom_site_label
 _atom_site_symmetry_multiplicity
 _atom_site_fract_x
 _atom_site_fract_y
 _atom_site_fract_z
 _atom_site_occupancy
  Fe  Fe0  1  0.000000  0.000000  0.500000  1
  Fe  Fe1  1  0.000000  0.500000  0.000000  1
  Ag  Ag2  1  0.500000  0.000000  0.500000  1
  Ag  Ag3  1  0.000000  0.500000  0.500000  1
  Ag  Ag4  1  0.000000  0.000000  0.000000  1
  Ag  Ag5  1  0.500000  0.500000  0.000000  1
  Ag  Ag6  1  0.500000  0.000000  0.000000  1
  Ag  Ag7  1  0.500000  0.500000  0.500000  1
  F  F8  1  0.354878  0.103928  0.250737  1
  F  F9  1  0.644973  0.396116  0.249057  1
  F  F10  1  0.692635  0.375051  0.815196  1
  F  F11  1  0.940124  0.124689  0.317719  1
  F  F12  1  0.940125  0.622315  0.815345  1
  F  F13  1  0.692635  0.877372  0.317519  1
  F  F14  1  0.307365  0.122628  0.682481  1
  F  F15  1  0.059875  0.377685  0.184655  1
  F  F16  1  0.059876  0.875311  0.682281  1
  F  F17  1  0.307365  0.624949  0.184804  1
  F  F18  1  0.996951  0.749998  0.246949  1
  F  F19  1  0.645122  0.896072  0.749263  1
  F  F20  1  0.355027  0.603884  0.750943  1
  F  F21  1  0.003049  0.250002  0.753051  1
