# generated using pymatgen
data_RbAlSe3O8
_symmetry_space_group_name_H-M   'P 1'
_cell_length_a   9.40651427
_cell_length_b   7.96457182
_cell_length_c   8.63509446
_cell_angle_alpha   114.91900053
_cell_angle_beta   117.21872106
_cell_angle_gamma   92.94205848
_symmetry_Int_Tables_number   1
_chemical_formula_structural   RbAlSe3O8
_chemical_formula_sum   'Rb2 Al2 Se6 O16'
_cell_volume   497.27708965
_cell_formula_units_Z   2
loop_
 _symmetry_equiv_pos_site_id
 _symmetry_equiv_pos_as_xyz
  1  'x, y, z'
loop_
 _atom_site_type_symbol
 _atom_site_label
 _atom_site_symmetry_multiplicity
 _atom_site_fract_x
 _atom_site_fract_y
 _atom_site_fract_z
 _atom_site_occupancy
  Rb  Rb0  1  0.149046  0.355970  0.327661  1
  Rb  Rb1  1  0.850954  0.644030  0.672339  1
  Al  Al2  1  0.224290  0.852205  0.254166  1
  Al  Al3  1  0.775710  0.147795  0.745834  1
  Se  Se4  1  0.162157  0.147733  0.816834  1
  Se  Se5  1  0.837843  0.852267  0.183166  1
  Se  Se6  1  0.287075  0.574482  0.903880  1
  Se  Se7  1  0.466777  0.886411  0.684440  1
  Se  Se8  1  0.712925  0.425518  0.096120  1
  Se  Se9  1  0.533223  0.113589  0.315560  1
  O  O10  1  0.231140  0.642367  0.733181  1
  O  O11  1  0.768860  0.357633  0.266819  1
  O  O12  1  0.357328  0.077919  0.337291  1
  O  O13  1  0.289702  0.293392  0.062375  1
  O  O14  1  0.642672  0.922081  0.662709  1
  O  O15  1  0.710298  0.706608  0.937625  1
  O  O16  1  0.303215  0.765902  0.426788  1
  O  O17  1  0.134015  0.319475  0.721336  1
  O  O18  1  0.696785  0.234098  0.573212  1
  O  O19  1  0.865985  0.680525  0.278664  1
  O  O20  1  0.167917  0.667129  0.010150  1
  O  O21  1  0.452771  0.112377  0.781299  1
  O  O22  1  0.832083  0.332871  0.989850  1
  O  O23  1  0.547229  0.887623  0.218701  1
  O  O24  1  0.036648  0.913804  0.215935  1
  O  O25  1  0.963352  0.086196  0.784065  1
