# generated using pymatgen
data_NaCr2(Sb6Pt)2
_symmetry_space_group_name_H-M   'P 1'
_cell_length_a   8.20294257
_cell_length_b   8.26557314
_cell_length_c   8.26557270
_cell_angle_alpha   109.79944147
_cell_angle_beta   109.44531266
_cell_angle_gamma   109.47606015
_symmetry_Int_Tables_number   1
_chemical_formula_structural   NaCr2(Sb6Pt)2
_chemical_formula_sum   'Na1 Cr2 Sb12 Pt2'
_cell_volume   429.76657049
_cell_formula_units_Z   1
loop_
 _symmetry_equiv_pos_site_id
 _symmetry_equiv_pos_as_xyz
  1  'x, y, z'
loop_
 _atom_site_type_symbol
 _atom_site_label
 _atom_site_symmetry_multiplicity
 _atom_site_fract_x
 _atom_site_fract_y
 _atom_site_fract_z
 _atom_site_occupancy
  Na  Na0  1  0.000000  0.000000  0.000000  1
  Cr  Cr1  1  0.500000  0.000000  0.000000  1
  Cr  Cr2  1  0.500000  0.500000  0.500000  1
  Sb  Sb3  1  0.344390  0.186416  0.850186  1
  Sb  Sb4  1  0.655610  0.813584  0.149814  1
  Sb  Sb5  1  0.655610  0.505797  0.842025  1
  Sb  Sb6  1  0.344390  0.494203  0.157975  1
  Sb  Sb7  1  0.195336  0.848709  0.346627  1
  Sb  Sb8  1  0.804664  0.151291  0.653373  1
  Sb  Sb9  1  0.506931  0.841953  0.664977  1
  Sb  Sb10  1  0.493069  0.158047  0.335023  1
  Sb  Sb11  1  0.843032  0.337573  0.185913  1
  Sb  Sb12  1  0.156968  0.662427  0.814087  1
  Sb  Sb13  1  0.843032  0.657120  0.505461  1
  Sb  Sb14  1  0.156968  0.342880  0.494539  1
  Pt  Pt15  1  0.000000  0.000000  0.500000  1
  Pt  Pt16  1  0.000000  0.500000  0.000000  1
