# generated using pymatgen
data_NaSrGaPt3
_symmetry_space_group_name_H-M   'P 1'
_cell_length_a   5.61691237
_cell_length_b   5.61691290
_cell_length_c   5.31642800
_cell_angle_alpha   58.11203963
_cell_angle_beta   58.11203626
_cell_angle_gamma   60.00000612
_symmetry_Int_Tables_number   1
_chemical_formula_structural   NaSrGaPt3
_chemical_formula_sum   'Na1 Sr1 Ga1 Pt3'
_cell_volume   115.10620571
_cell_formula_units_Z   1
loop_
 _symmetry_equiv_pos_site_id
 _symmetry_equiv_pos_as_xyz
  1  'x, y, z'
loop_
 _atom_site_type_symbol
 _atom_site_label
 _atom_site_symmetry_multiplicity
 _atom_site_fract_x
 _atom_site_fract_y
 _atom_site_fract_z
 _atom_site_occupancy
  Na  Na0  1  0.998769  0.998769  0.003694  1
  Sr  Sr1  1  0.246107  0.246107  0.261680  1
  Ga  Ga2  1  0.626601  0.626601  0.120197  1
  Pt  Pt3  1  0.626980  0.124564  0.621477  1
  Pt  Pt4  1  0.124564  0.626980  0.621477  1
  Pt  Pt5  1  0.626980  0.626980  0.621477  1
