# generated using pymatgen
data_Y3Mg3IrPdRu
_symmetry_space_group_name_H-M   'P 1'
_cell_length_a   7.30666600
_cell_length_b   7.30666604
_cell_length_c   4.08223900
_cell_angle_alpha   90.00000000
_cell_angle_beta   90.00000000
_cell_angle_gamma   119.99999075
_symmetry_Int_Tables_number   1
_chemical_formula_structural   Y3Mg3IrPdRu
_chemical_formula_sum   'Y3 Mg3 Ir1 Pd1 Ru1'
_cell_volume   188.74159165
_cell_formula_units_Z   1
loop_
 _symmetry_equiv_pos_site_id
 _symmetry_equiv_pos_as_xyz
  1  'x, y, z'
loop_
 _atom_site_type_symbol
 _atom_site_label
 _atom_site_symmetry_multiplicity
 _atom_site_fract_x
 _atom_site_fract_y
 _atom_site_fract_z
 _atom_site_occupancy
  Y  Y0  1  0.417010  0.418840  0.500000  1
  Y  Y1  1  0.001830  0.582990  0.500000  1
  Y  Y2  1  0.581160  0.998170  0.500000  1
  Mg  Mg3  1  0.752704  0.752650  0.000000  1
  Mg  Mg4  1  0.247350  0.000054  0.000000  1
  Mg  Mg5  1  0.999946  0.247296  0.000000  1
  Ir  Ir6  1  0.666667  0.333333  0.000000  1
  Pd  Pd7  1  0.000000  0.000000  0.500000  1
  Ru  Ru8  1  0.333333  0.666667  0.000000  1
