# generated using pymatgen
data_Yb3ErIrRu3O14
_symmetry_space_group_name_H-M   'P 1'
_cell_length_a   7.18765816
_cell_length_b   7.20553371
_cell_length_c   7.20553314
_cell_angle_alpha   60.24553783
_cell_angle_beta   60.16237365
_cell_angle_gamma   60.16238257
_symmetry_Int_Tables_number   1
_chemical_formula_structural   Yb3ErIrRu3O14
_chemical_formula_sum   'Yb3 Er1 Ir1 Ru3 O14'
_cell_volume   265.01449175
_cell_formula_units_Z   1
loop_
 _symmetry_equiv_pos_site_id
 _symmetry_equiv_pos_as_xyz
  1  'x, y, z'
loop_
 _atom_site_type_symbol
 _atom_site_label
 _atom_site_symmetry_multiplicity
 _atom_site_fract_x
 _atom_site_fract_y
 _atom_site_fract_z
 _atom_site_occupancy
  Yb  Yb0  1  0.125000  0.125000  0.125000  1
  Yb  Yb1  1  0.125000  0.125000  0.625000  1
  Yb  Yb2  1  0.125000  0.625000  0.125000  1
  Er  Er3  1  0.625000  0.125000  0.125000  1
  Ir  Ir4  1  0.625000  0.625000  0.625000  1
  Ru  Ru5  1  0.125000  0.625000  0.625000  1
  Ru  Ru6  1  0.625000  0.625000  0.125000  1
  Ru  Ru7  1  0.625000  0.125000  0.625000  1
  O  O8  1  0.989938  0.003302  0.003302  1
  O  O9  1  0.260062  0.246698  0.246698  1
  O  O10  1  0.305037  0.302301  0.696984  1
  O  O11  1  0.549526  0.541489  0.954414  1
  O  O12  1  0.700474  0.295586  0.708511  1
  O  O13  1  0.701342  0.298575  0.298575  1
  O  O14  1  0.298495  0.701590  0.701590  1
  O  O15  1  0.305037  0.696984  0.302301  1
  O  O16  1  0.700474  0.708511  0.295586  1
  O  O17  1  0.951505  0.548410  0.548410  1
  O  O18  1  0.548658  0.951425  0.951425  1
  O  O19  1  0.944963  0.947699  0.553016  1
  O  O20  1  0.944963  0.553016  0.947699  1
  O  O21  1  0.549526  0.954414  0.541489  1
