# generated using pymatgen
data_K2Cu(PPd2)3
_symmetry_space_group_name_H-M   'P 1'
_cell_length_a   6.98204052
_cell_length_b   6.98158289
_cell_length_c   6.98204062
_cell_angle_alpha   128.48065966
_cell_angle_beta   120.89805194
_cell_angle_gamma   82.19912805
_symmetry_Int_Tables_number   1
_chemical_formula_structural   K2Cu(PPd2)3
_chemical_formula_sum   'K2 Cu1 P3 Pd6'
_cell_volume   219.89194753
_cell_formula_units_Z   1
loop_
 _symmetry_equiv_pos_site_id
 _symmetry_equiv_pos_as_xyz
  1  'x, y, z'
loop_
 _atom_site_type_symbol
 _atom_site_label
 _atom_site_symmetry_multiplicity
 _atom_site_fract_x
 _atom_site_fract_y
 _atom_site_fract_z
 _atom_site_occupancy
  K  K0  1  0.015343  0.009984  0.994641  1
  K  K1  1  0.493874  0.997711  0.503838  1
  Cu  Cu2  1  0.342368  0.352370  0.010001  1
  P  P3  1  0.830267  0.326175  0.495908  1
  P  P4  1  0.622013  0.626080  0.004066  1
  P  P5  1  0.197489  0.683948  0.486460  1
  Pd  Pd6  1  0.955435  0.503111  0.968265  1
  Pd  Pd7  1  0.534845  0.503111  0.547676  1
  Pd  Pd8  1  0.965204  0.987516  0.459187  1
  Pd  Pd9  1  0.804622  0.503740  0.293529  1
  Pd  Pd10  1  0.210211  0.503740  0.699117  1
  Pd  Pd11  1  0.528329  0.987516  0.022311  1
