# generated using pymatgen
data_HoCo(PIr)2
_symmetry_space_group_name_H-M   'P 1'
_cell_length_a   3.84341200
_cell_length_b   11.01427668
_cell_length_c   12.56301766
_cell_angle_alpha   90.10721251
_cell_angle_beta   90.00000000
_cell_angle_gamma   90.00000000
_symmetry_Int_Tables_number   1
_chemical_formula_structural   HoCo(PIr)2
_chemical_formula_sum   'Ho6 Co6 P12 Ir12'
_cell_volume   531.82179752
_cell_formula_units_Z   6
loop_
 _symmetry_equiv_pos_site_id
 _symmetry_equiv_pos_as_xyz
  1  'x, y, z'
loop_
 _atom_site_type_symbol
 _atom_site_label
 _atom_site_symmetry_multiplicity
 _atom_site_fract_x
 _atom_site_fract_y
 _atom_site_fract_z
 _atom_site_occupancy
  Ho  Ho0  1  0.000000  0.499932  0.521284  1
  Ho  Ho1  1  0.500000  0.000678  0.476818  1
  Ho  Ho2  1  0.500000  0.823419  0.196080  1
  Ho  Ho3  1  0.500000  0.179571  0.198105  1
  Ho  Ho4  1  0.000000  0.684574  0.803963  1
  Ho  Ho5  1  0.000000  0.317188  0.803234  1
  Co  Co6  1  0.500000  0.002151  0.008881  1
  Co  Co7  1  0.000000  0.369907  0.284989  1
  Co  Co8  1  0.500000  0.332408  0.996299  1
  Co  Co9  1  0.500000  0.667438  0.999933  1
  Co  Co10  1  0.000000  0.167751  0.005741  1
  Co  Co11  1  0.000000  0.838233  0.001402  1
  P  P12  1  0.500000  0.316816  0.620117  1
  P  P13  1  0.500000  0.684411  0.620078  1
  P  P14  1  0.000000  0.187528  0.375369  1
  P  P15  1  0.000000  0.813901  0.376427  1
  P  P16  1  0.500000  0.501088  0.888048  1
  P  P17  1  0.000000  0.001313  0.106684  1
  P  P18  1  0.500000  0.841359  0.904510  1
  P  P19  1  0.500000  0.160627  0.904927  1
  P  P20  1  0.000000  0.672547  0.099215  1
  P  P21  1  0.000000  0.333541  0.107979  1
  P  P22  1  0.500000  0.493469  0.348395  1
  P  P23  1  0.000000  0.000415  0.648568  1
  Ir  Ir24  1  0.000000  0.499244  0.993198  1
  Ir  Ir25  1  0.500000  0.296221  0.425974  1
  Ir  Ir26  1  0.500000  0.704285  0.425695  1
  Ir  Ir27  1  0.000000  0.205162  0.570070  1
  Ir  Ir28  1  0.000000  0.793778  0.570576  1
  Ir  Ir29  1  0.500000  0.872837  0.719102  1
  Ir  Ir30  1  0.500000  0.130760  0.719122  1
  Ir  Ir31  1  0.000000  0.619810  0.279078  1
  Ir  Ir32  1  0.500000  0.483227  0.164751  1
  Ir  Ir33  1  0.000000  0.003492  0.836427  1
  Ir  Ir34  1  0.500000  0.500986  0.705687  1
  Ir  Ir35  1  0.000000  0.999934  0.293275  1
