# generated using pymatgen
data_CeNd2In3PdRh2
_symmetry_space_group_name_H-M   'P 1'
_cell_length_a   7.64207996
_cell_length_b   7.64207866
_cell_length_c   4.00105000
_cell_angle_alpha   90.00000000
_cell_angle_beta   90.00000000
_cell_angle_gamma   117.99311625
_symmetry_Int_Tables_number   1
_chemical_formula_structural   CeNd2In3PdRh2
_chemical_formula_sum   'Ce1 Nd2 In3 Pd1 Rh2'
_cell_volume   206.32873987
_cell_formula_units_Z   1
loop_
 _symmetry_equiv_pos_site_id
 _symmetry_equiv_pos_as_xyz
  1  'x, y, z'
loop_
 _atom_site_type_symbol
 _atom_site_label
 _atom_site_symmetry_multiplicity
 _atom_site_fract_x
 _atom_site_fract_y
 _atom_site_fract_z
 _atom_site_occupancy
  Ce  Ce0  1  0.578621  0.578621  0.500000  1
  Nd  Nd1  1  0.412695  0.999407  0.500000  1
  Nd  Nd2  1  0.999407  0.412695  0.500000  1
  In  In3  1  0.745666  0.004659  0.000000  1
  In  In4  1  0.004659  0.745666  0.000000  1
  In  In5  1  0.246869  0.246869  0.000000  1
  Pd  Pd6  1  0.992352  0.992352  0.500000  1
  Rh  Rh7  1  0.358328  0.661402  0.000000  1
  Rh  Rh8  1  0.661402  0.358328  0.000000  1
