# generated using pymatgen
data_Pr12Os3Pt
_symmetry_space_group_name_H-M   'P 1'
_cell_length_a   6.59999238
_cell_length_b   7.52619946
_cell_length_c   9.90119400
_cell_angle_alpha   90.00000000
_cell_angle_beta   90.00000000
_cell_angle_gamma   90.18218547
_symmetry_Int_Tables_number   1
_chemical_formula_structural   Pr12Os3Pt
_chemical_formula_sum   'Pr12 Os3 Pt1'
_cell_volume   491.81812854
_cell_formula_units_Z   1
loop_
 _symmetry_equiv_pos_site_id
 _symmetry_equiv_pos_as_xyz
  1  'x, y, z'
loop_
 _atom_site_type_symbol
 _atom_site_label
 _atom_site_symmetry_multiplicity
 _atom_site_fract_x
 _atom_site_fract_y
 _atom_site_fract_z
 _atom_site_occupancy
  Pr  Pr0  1  0.334995  0.671314  0.064321  1
  Pr  Pr1  1  0.170412  0.181314  0.436639  1
  Pr  Pr2  1  0.673289  0.323351  0.567925  1
  Pr  Pr3  1  0.825320  0.825134  0.929605  1
  Pr  Pr4  1  0.673289  0.323351  0.932075  1
  Pr  Pr5  1  0.825320  0.825134  0.570395  1
  Pr  Pr6  1  0.334995  0.671314  0.435679  1
  Pr  Pr7  1  0.170412  0.181314  0.063361  1
  Pr  Pr8  1  0.854606  0.533256  0.250000  1
  Pr  Pr9  1  0.635708  0.043271  0.250000  1
  Pr  Pr10  1  0.141957  0.462935  0.750000  1
  Pr  Pr11  1  0.354373  0.960493  0.750000  1
  Os  Os12  1  0.442295  0.383974  0.250000  1
  Os  Os13  1  0.947996  0.114225  0.750000  1
  Os  Os14  1  0.554120  0.615161  0.750000  1
  Pt  Pt15  1  0.060915  0.884459  0.250000  1
