# generated using pymatgen
data_Mg2Cd2OF6
_symmetry_space_group_name_H-M   'P 1'
_cell_length_a   7.32457500
_cell_length_b   7.32457425
_cell_length_c   7.32457500
_cell_angle_alpha   119.99999889
_cell_angle_beta   90.00000000
_cell_angle_gamma   119.99998986
_symmetry_Int_Tables_number   1
_chemical_formula_structural   Mg2Cd2OF6
_chemical_formula_sum   'Mg4 Cd4 O2 F12'
_cell_volume   277.86402496
_cell_formula_units_Z   2
loop_
 _symmetry_equiv_pos_site_id
 _symmetry_equiv_pos_as_xyz
  1  'x, y, z'
loop_
 _atom_site_type_symbol
 _atom_site_label
 _atom_site_symmetry_multiplicity
 _atom_site_fract_x
 _atom_site_fract_y
 _atom_site_fract_z
 _atom_site_occupancy
  Mg  Mg0  1  0.500000  0.500000  0.500000  1
  Mg  Mg1  1  0.500000  0.000000  0.000000  1
  Mg  Mg2  1  0.000000  0.000000  0.000000  1
  Mg  Mg3  1  0.500000  0.500000  0.000000  1
  Cd  Cd4  1  0.500000  0.000000  0.500000  1
  Cd  Cd5  1  0.000000  0.500000  0.500000  1
  Cd  Cd6  1  0.000000  0.500000  0.000000  1
  Cd  Cd7  1  0.000000  0.000000  0.500000  1
  O  O8  1  0.125000  0.750000  0.375000  1
  O  O9  1  0.875000  0.250000  0.625000  1
  F  F10  1  0.573863  0.250000  0.926137  1
  F  F11  1  0.426137  0.750000  0.676137  1
  F  F12  1  0.823863  0.750000  0.073863  1
  F  F13  1  0.823863  0.750000  0.676137  1
  F  F14  1  0.426137  0.352275  0.676137  1
  F  F15  1  0.823863  0.147725  0.073863  1
  F  F16  1  0.573863  0.647725  0.323863  1
  F  F17  1  0.573863  0.250000  0.323863  1
  F  F18  1  0.176137  0.250000  0.926137  1
  F  F19  1  0.176137  0.852275  0.926137  1
  F  F20  1  0.426137  0.750000  0.073863  1
  F  F21  1  0.176137  0.250000  0.323863  1
