# generated using pymatgen
data_YHoHf3Co9As7
_symmetry_space_group_name_H-M   'P 1'
_cell_length_a   3.80696500
_cell_length_b   9.68595107
_cell_length_c   9.68595200
_cell_angle_alpha   119.99999633
_cell_angle_beta   90.00000000
_cell_angle_gamma   90.00000000
_symmetry_Int_Tables_number   1
_chemical_formula_structural   YHoHf3Co9As7
_chemical_formula_sum   'Y1 Ho1 Hf3 Co9 As7'
_cell_volume   309.31010993
_cell_formula_units_Z   1
loop_
 _symmetry_equiv_pos_site_id
 _symmetry_equiv_pos_as_xyz
  1  'x, y, z'
loop_
 _atom_site_type_symbol
 _atom_site_label
 _atom_site_symmetry_multiplicity
 _atom_site_fract_x
 _atom_site_fract_y
 _atom_site_fract_z
 _atom_site_occupancy
  Y  Y0  1  0.500000  0.333333  0.666667  1
  Ho  Ho1  1  0.000000  0.666667  0.333333  1
  Hf  Hf2  1  0.500000  0.768670  0.887984  1
  Hf  Hf3  1  0.500000  0.119313  0.231330  1
  Hf  Hf4  1  0.500000  0.112016  0.880687  1
  Co  Co5  1  0.000000  0.577327  0.935997  1
  Co  Co6  1  0.000000  0.358670  0.422673  1
  Co  Co7  1  0.000000  0.064003  0.641330  1
  Co  Co8  1  0.000000  0.878359  0.163046  1
  Co  Co9  1  0.000000  0.284687  0.121641  1
  Co  Co10  1  0.000000  0.836954  0.715313  1
  Co  Co11  1  0.500000  0.947971  0.390584  1
  Co  Co12  1  0.500000  0.442613  0.052029  1
  Co  Co13  1  0.500000  0.609416  0.557387  1
  As  As14  1  0.000000  0.000000  0.000000  1
  As  As15  1  0.500000  0.713031  0.133231  1
  As  As16  1  0.500000  0.420199  0.286969  1
  As  As17  1  0.500000  0.866769  0.579801  1
  As  As18  1  0.000000  0.572740  0.681315  1
  As  As19  1  0.000000  0.108575  0.427260  1
  As  As20  1  0.000000  0.318685  0.891425  1
