# generated using pymatgen
data_Er5In2BiCl
_symmetry_space_group_name_H-M   'P 1'
_cell_length_a   9.21391400
_cell_length_b   9.21391310
_cell_length_c   6.54709300
_cell_angle_alpha   90.00000000
_cell_angle_beta   90.00000000
_cell_angle_gamma   120.47184779
_symmetry_Int_Tables_number   1
_chemical_formula_structural   Er5In2BiCl
_chemical_formula_sum   'Er10 In4 Bi2 Cl2'
_cell_volume   479.05214660
_cell_formula_units_Z   2
loop_
 _symmetry_equiv_pos_site_id
 _symmetry_equiv_pos_as_xyz
  1  'x, y, z'
loop_
 _atom_site_type_symbol
 _atom_site_label
 _atom_site_symmetry_multiplicity
 _atom_site_fract_x
 _atom_site_fract_y
 _atom_site_fract_z
 _atom_site_occupancy
  Er  Er0  1  0.259171  0.991895  0.750000  1
  Er  Er1  1  0.740829  0.008105  0.250000  1
  Er  Er2  1  0.991895  0.259171  0.750000  1
  Er  Er3  1  0.008105  0.740829  0.250000  1
  Er  Er4  1  0.742595  0.742595  0.750000  1
  Er  Er5  1  0.257405  0.257405  0.250000  1
  Er  Er6  1  0.327535  0.672465  0.500000  1
  Er  Er7  1  0.672465  0.327535  0.500000  1
  Er  Er8  1  0.672465  0.327535  0.000000  1
  Er  Er9  1  0.327535  0.672465  0.000000  1
  In  In10  1  0.607496  0.996485  0.750000  1
  In  In11  1  0.392504  0.003515  0.250000  1
  In  In12  1  0.996485  0.607496  0.750000  1
  In  In13  1  0.003515  0.392504  0.250000  1
  Bi  Bi14  1  0.387380  0.387380  0.750000  1
  Bi  Bi15  1  0.612620  0.612620  0.250000  1
  Cl  Cl16  1  0.000000  0.000000  0.500000  1
  Cl  Cl17  1  0.000000  0.000000  0.000000  1
