# generated using pymatgen
data_Th8Si12IrPd3
_symmetry_space_group_name_H-M   'P 1'
_cell_length_a   8.24907300
_cell_length_b   8.24907381
_cell_length_c   8.51246300
_cell_angle_alpha   90.00000000
_cell_angle_beta   90.00000000
_cell_angle_gamma   119.99999274
_symmetry_Int_Tables_number   1
_chemical_formula_structural   Th8Si12IrPd3
_chemical_formula_sum   'Th8 Si12 Ir1 Pd3'
_cell_volume   501.64471038
_cell_formula_units_Z   1
loop_
 _symmetry_equiv_pos_site_id
 _symmetry_equiv_pos_as_xyz
  1  'x, y, z'
loop_
 _atom_site_type_symbol
 _atom_site_label
 _atom_site_symmetry_multiplicity
 _atom_site_fract_x
 _atom_site_fract_y
 _atom_site_fract_z
 _atom_site_occupancy
  Th  Th0  1  0.502059  0.497941  0.751943  1
  Th  Th1  1  0.502000  0.498000  0.248073  1
  Th  Th2  1  0.995881  0.497941  0.751943  1
  Th  Th3  1  0.996000  0.498000  0.248073  1
  Th  Th4  1  0.502059  0.004119  0.751943  1
  Th  Th5  1  0.502000  0.004000  0.248073  1
  Th  Th6  1  0.000000  0.000000  0.749799  1
  Th  Th7  1  0.000000  0.000000  0.250159  1
  Si  Si8  1  0.833657  0.166343  0.000122  1
  Si  Si9  1  0.165202  0.834798  0.999919  1
  Si  Si10  1  0.332686  0.166343  0.000122  1
  Si  Si11  1  0.166321  0.833679  0.500150  1
  Si  Si12  1  0.669597  0.834798  0.999919  1
  Si  Si13  1  0.834451  0.165549  0.499735  1
  Si  Si14  1  0.833657  0.667314  0.000122  1
  Si  Si15  1  0.667359  0.833679  0.500150  1
  Si  Si16  1  0.165202  0.330403  0.999919  1
  Si  Si17  1  0.331097  0.165549  0.499735  1
  Si  Si18  1  0.166321  0.332641  0.500150  1
  Si  Si19  1  0.834451  0.668903  0.499735  1
  Ir  Ir20  1  0.666667  0.333333  0.999313  1
  Pd  Pd21  1  0.333333  0.666667  0.000608  1
  Pd  Pd22  1  0.333333  0.666667  0.500670  1
  Pd  Pd23  1  0.666667  0.333333  0.499623  1
