# generated using pymatgen
data_Tm4MgNi2Sb
_symmetry_space_group_name_H-M   'P 1'
_cell_length_a   8.43942317
_cell_length_b   8.43942319
_cell_length_c   8.43942309
_cell_angle_alpha   128.47065086
_cell_angle_beta   128.47064674
_cell_angle_gamma   75.86382830
_symmetry_Int_Tables_number   1
_chemical_formula_structural   Tm4MgNi2Sb
_chemical_formula_sum   'Tm8 Mg2 Ni4 Sb2'
_cell_volume   358.31447570
_cell_formula_units_Z   2
loop_
 _symmetry_equiv_pos_site_id
 _symmetry_equiv_pos_as_xyz
  1  'x, y, z'
loop_
 _atom_site_type_symbol
 _atom_site_label
 _atom_site_symmetry_multiplicity
 _atom_site_fract_x
 _atom_site_fract_y
 _atom_site_fract_z
 _atom_site_occupancy
  Tm  Tm0  1  0.795605  0.295605  0.829299  1
  Tm  Tm1  1  0.204395  0.704395  0.170701  1
  Tm  Tm2  1  0.466306  0.966306  0.170701  1
  Tm  Tm3  1  0.295605  0.466306  0.500000  1
  Tm  Tm4  1  0.033694  0.204395  0.500000  1
  Tm  Tm5  1  0.533694  0.033694  0.829299  1
  Tm  Tm6  1  0.704395  0.533694  0.500000  1
  Tm  Tm7  1  0.966306  0.795605  0.500000  1
  Mg  Mg8  1  0.000000  0.000000  0.000000  1
  Mg  Mg9  1  0.500000  0.500000  0.000000  1
  Ni  Ni10  1  0.127683  0.627683  0.755365  1
  Ni  Ni11  1  0.872317  0.372317  0.244635  1
  Ni  Ni12  1  0.627683  0.872317  0.500000  1
  Ni  Ni13  1  0.372317  0.127683  0.500000  1
  Sb  Sb14  1  0.250000  0.250000  0.000000  1
  Sb  Sb15  1  0.750000  0.750000  0.000000  1
