# generated using pymatgen
data_Y8TaW3C8
_symmetry_space_group_name_H-M   'P 1'
_cell_length_a   5.78036103
_cell_length_b   5.78036038
_cell_length_c   9.92029500
_cell_angle_alpha   90.00000000
_cell_angle_beta   90.00000000
_cell_angle_gamma   90.47349852
_symmetry_Int_Tables_number   1
_chemical_formula_structural   Y8TaW3C8
_chemical_formula_sum   'Y8 Ta1 W3 C8'
_cell_volume   331.45123166
_cell_formula_units_Z   1
loop_
 _symmetry_equiv_pos_site_id
 _symmetry_equiv_pos_as_xyz
  1  'x, y, z'
loop_
 _atom_site_type_symbol
 _atom_site_label
 _atom_site_symmetry_multiplicity
 _atom_site_fract_x
 _atom_site_fract_y
 _atom_site_fract_z
 _atom_site_occupancy
  Y  Y0  1  0.198943  0.198943  0.343043  1
  Y  Y1  1  0.799471  0.799471  0.656685  1
  Y  Y2  1  0.298760  0.700907  0.841023  1
  Y  Y3  1  0.799471  0.799471  0.343315  1
  Y  Y4  1  0.198943  0.198943  0.656957  1
  Y  Y5  1  0.700907  0.298760  0.158977  1
  Y  Y6  1  0.700907  0.298760  0.841023  1
  Y  Y7  1  0.298760  0.700907  0.158977  1
  Ta  Ta8  1  0.183240  0.183240  0.000000  1
  W  W9  1  0.824949  0.824949  0.000000  1
  W  W10  1  0.322224  0.676742  0.500000  1
  W  W11  1  0.676742  0.322224  0.500000  1
  C  C12  1  0.998786  0.998786  0.153330  1
  C  C13  1  0.499926  0.499926  0.347398  1
  C  C14  1  0.499926  0.499926  0.652602  1
  C  C15  1  0.506520  0.992576  0.000000  1
  C  C16  1  0.992576  0.506520  0.000000  1
  C  C17  1  0.998786  0.998786  0.846670  1
  C  C18  1  0.500304  0.999859  0.500000  1
  C  C19  1  0.999859  0.500304  0.500000  1
