# generated using pymatgen
data_Ca3Yb6Lu(Sn3H)2
_symmetry_space_group_name_H-M   'P 1'
_cell_length_a   9.35443349
_cell_length_b   9.35443376
_cell_length_c   9.35453141
_cell_angle_alpha   128.77165396
_cell_angle_beta   128.77315729
_cell_angle_gamma   75.37628941
_symmetry_Int_Tables_number   1
_chemical_formula_structural   Ca3Yb6Lu(Sn3H)2
_chemical_formula_sum   'Ca3 Yb6 Lu1 Sn6 H2'
_cell_volume   484.24145168
_cell_formula_units_Z   1
loop_
 _symmetry_equiv_pos_site_id
 _symmetry_equiv_pos_as_xyz
  1  'x, y, z'
loop_
 _atom_site_type_symbol
 _atom_site_label
 _atom_site_symmetry_multiplicity
 _atom_site_fract_x
 _atom_site_fract_y
 _atom_site_fract_z
 _atom_site_occupancy
  Ca  Ca0  1  0.999920  0.999920  0.000000  1
  Ca  Ca1  1  0.990523  0.814031  0.499909  1
  Ca  Ca2  1  0.314122  0.490613  0.500091  1
  Yb  Yb3  1  0.509622  0.009821  0.823612  1
  Yb  Yb4  1  0.186209  0.686009  0.176388  1
  Yb  Yb5  1  0.009669  0.186190  0.500152  1
  Yb  Yb6  1  0.686038  0.509518  0.499848  1
  Yb  Yb7  1  0.490657  0.990552  0.176686  1
  Yb  Yb8  1  0.813866  0.313971  0.823314  1
  Lu  Lu9  1  0.499895  0.499895  0.000000  1
  Sn  Sn10  1  0.252725  0.252725  0.000000  1
  Sn  Sn11  1  0.747828  0.747828  0.000000  1
  Sn  Sn12  1  0.864370  0.374800  0.239831  1
  Sn  Sn13  1  0.134969  0.624539  0.760169  1
  Sn  Sn14  1  0.375345  0.134871  0.510565  1
  Sn  Sn15  1  0.624305  0.864780  0.489435  1
  H  H16  1  0.249917  0.749917  0.500000  1
  H  H17  1  0.750021  0.250021  0.500000  1
