# generated using pymatgen
data_Pr16Cd2CoHg2Pt3
_symmetry_space_group_name_H-M   'P 1'
_cell_length_a   10.01119503
_cell_length_b   10.01119529
_cell_length_c   10.02966536
_cell_angle_alpha   60.12288810
_cell_angle_beta   60.12288818
_cell_angle_gamma   60.11746934
_symmetry_Int_Tables_number   1
_chemical_formula_structural   Pr16Cd2CoHg2Pt3
_chemical_formula_sum   'Pr16 Cd2 Co1 Hg2 Pt3'
_cell_volume   712.74305052
_cell_formula_units_Z   1
loop_
 _symmetry_equiv_pos_site_id
 _symmetry_equiv_pos_as_xyz
  1  'x, y, z'
loop_
 _atom_site_type_symbol
 _atom_site_label
 _atom_site_symmetry_multiplicity
 _atom_site_fract_x
 _atom_site_fract_y
 _atom_site_fract_z
 _atom_site_occupancy
  Pr  Pr0  1  0.351224  0.351224  0.350617  1
  Pr  Pr1  1  0.346118  0.346118  0.951792  1
  Pr  Pr2  1  0.346787  0.950227  0.346384  1
  Pr  Pr3  1  0.950227  0.346787  0.346384  1
  Pr  Pr4  1  0.819730  0.189015  0.189919  1
  Pr  Pr5  1  0.190661  0.808215  0.808427  1
  Pr  Pr6  1  0.189015  0.819730  0.189919  1
  Pr  Pr7  1  0.808215  0.190661  0.808427  1
  Pr  Pr8  1  0.189005  0.189005  0.819979  1
  Pr  Pr9  1  0.807429  0.807429  0.191870  1
  Pr  Pr10  1  0.938286  0.561716  0.562049  1
  Pr  Pr11  1  0.561691  0.935222  0.936488  1
  Pr  Pr12  1  0.561716  0.938286  0.562049  1
  Pr  Pr13  1  0.935222  0.561691  0.936488  1
  Pr  Pr14  1  0.561565  0.561565  0.939569  1
  Pr  Pr15  1  0.935548  0.935548  0.562466  1
  Cd  Cd16  1  0.580116  0.259260  0.581094  1
  Cd  Cd17  1  0.259260  0.580116  0.581094  1
  Co  Co18  1  0.142684  0.142684  0.142710  1
  Hg  Hg19  1  0.582734  0.582734  0.584694  1
  Hg  Hg20  1  0.583643  0.583643  0.248699  1
  Pt  Pt21  1  0.143769  0.143769  0.571203  1
  Pt  Pt22  1  0.143723  0.571630  0.143839  1
  Pt  Pt23  1  0.571630  0.143723  0.143839  1
