# generated using pymatgen
data_Er6AlOsPd
_symmetry_space_group_name_H-M   'P 1'
_cell_length_a   8.42680626
_cell_length_b   8.42680603
_cell_length_c   8.42680600
_cell_angle_alpha   112.90893826
_cell_angle_beta   111.49438901
_cell_angle_gamma   104.14178602
_symmetry_Int_Tables_number   1
_chemical_formula_structural   Er6AlOsPd
_chemical_formula_sum   'Er12 Al2 Os2 Pd2'
_cell_volume   457.61672747
_cell_formula_units_Z   2
loop_
 _symmetry_equiv_pos_site_id
 _symmetry_equiv_pos_as_xyz
  1  'x, y, z'
loop_
 _atom_site_type_symbol
 _atom_site_label
 _atom_site_symmetry_multiplicity
 _atom_site_fract_x
 _atom_site_fract_y
 _atom_site_fract_z
 _atom_site_occupancy
  Er  Er0  1  0.045807  0.739372  0.306435  1
  Er  Er1  1  0.954193  0.260628  0.693565  1
  Er  Er2  1  0.567062  0.260628  0.306435  1
  Er  Er3  1  0.432938  0.739372  0.693565  1
  Er  Er4  1  0.663221  0.853199  0.189977  1
  Er  Er5  1  0.336779  0.526755  0.189977  1
  Er  Er6  1  0.336779  0.146801  0.810023  1
  Er  Er7  1  0.663221  0.473245  0.810023  1
  Er  Er8  1  0.183325  0.225233  0.408560  1
  Er  Er9  1  0.816675  0.225233  0.041908  1
  Er  Er10  1  0.183325  0.774767  0.958092  1
  Er  Er11  1  0.816675  0.774767  0.591440  1
  Al  Al12  1  0.000000  0.500000  0.500000  1
  Al  Al13  1  0.500000  0.000000  0.500000  1
  Os  Os14  1  0.674198  0.500000  0.174198  1
  Os  Os15  1  0.325802  0.500000  0.825802  1
  Pd  Pd16  1  0.870910  0.870910  0.000000  1
  Pd  Pd17  1  0.129090  0.129090  0.000000  1
