# generated using pymatgen
data_Hf9TaCoTc2W
_symmetry_space_group_name_H-M   'P 1'
_cell_length_a   8.66069536
_cell_length_b   8.66069404
_cell_length_c   8.46329400
_cell_angle_alpha   90.00000000
_cell_angle_beta   90.00000000
_cell_angle_gamma   119.84745564
_symmetry_Int_Tables_number   1
_chemical_formula_structural   Hf9TaCoTc2W
_chemical_formula_sum   'Hf18 Ta2 Co2 Tc4 W2'
_cell_volume   550.60612539
_cell_formula_units_Z   2
loop_
 _symmetry_equiv_pos_site_id
 _symmetry_equiv_pos_as_xyz
  1  'x, y, z'
loop_
 _atom_site_type_symbol
 _atom_site_label
 _atom_site_symmetry_multiplicity
 _atom_site_fract_x
 _atom_site_fract_y
 _atom_site_fract_z
 _atom_site_occupancy
  Hf  Hf0  1  0.202208  0.797792  0.440784  1
  Hf  Hf1  1  0.201628  0.404030  0.440997  1
  Hf  Hf2  1  0.595970  0.798372  0.440997  1
  Hf  Hf3  1  0.798712  0.201288  0.559568  1
  Hf  Hf4  1  0.797755  0.596457  0.559215  1
  Hf  Hf5  1  0.403543  0.202245  0.559215  1
  Hf  Hf6  1  0.798712  0.201288  0.940432  1
  Hf  Hf7  1  0.797755  0.596457  0.940785  1
  Hf  Hf8  1  0.403543  0.202245  0.940785  1
  Hf  Hf9  1  0.202208  0.797792  0.059216  1
  Hf  Hf10  1  0.201628  0.404030  0.059003  1
  Hf  Hf11  1  0.595970  0.798372  0.059003  1
  Hf  Hf12  1  0.542824  0.457176  0.250000  1
  Hf  Hf13  1  0.542677  0.085492  0.250000  1
  Hf  Hf14  1  0.914508  0.457323  0.250000  1
  Hf  Hf15  1  0.457705  0.542295  0.750000  1
  Hf  Hf16  1  0.457608  0.915367  0.750000  1
  Hf  Hf17  1  0.084633  0.542392  0.750000  1
  Ta  Ta18  1  0.000981  0.999019  0.494895  1
  Ta  Ta19  1  0.000981  0.999019  0.005105  1
  Co  Co20  1  0.332798  0.667202  0.250000  1
  Co  Co21  1  0.666117  0.333883  0.750000  1
  Tc  Tc22  1  0.884848  0.115152  0.250000  1
  Tc  Tc23  1  0.885697  0.769649  0.250000  1
  Tc  Tc24  1  0.230351  0.114303  0.250000  1
  Tc  Tc25  1  0.113263  0.886737  0.750000  1
  W  W26  1  0.113352  0.227979  0.750000  1
  W  W27  1  0.772021  0.886648  0.750000  1
