# generated using pymatgen
data_Ca2La3(Nd5Ir4)3
_symmetry_space_group_name_H-M   'P 1'
_cell_length_a   11.31388039
_cell_length_b   11.29697651
_cell_length_c   6.56553547
_cell_angle_alpha   90.23197739
_cell_angle_beta   90.01667015
_cell_angle_gamma   90.14667066
_symmetry_Int_Tables_number   1
_chemical_formula_structural   Ca2La3(Nd5Ir4)3
_chemical_formula_sum   'Ca2 La3 Nd15 Ir12'
_cell_volume   839.14876196
_cell_formula_units_Z   1
loop_
 _symmetry_equiv_pos_site_id
 _symmetry_equiv_pos_as_xyz
  1  'x, y, z'
loop_
 _atom_site_type_symbol
 _atom_site_label
 _atom_site_symmetry_multiplicity
 _atom_site_fract_x
 _atom_site_fract_y
 _atom_site_fract_z
 _atom_site_occupancy
  Ca  Ca0  1  0.999926  0.999896  0.499619  1
  Ca  Ca1  1  0.999490  0.999168  0.000398  1
  La  La2  1  0.908954  0.288008  0.610162  1
  La  La3  1  0.089747  0.711832  0.610222  1
  La  La4  1  0.090760  0.288401  0.109976  1
  Nd  Nd5  1  0.289539  0.088326  0.388519  1
  Nd  Nd6  1  0.289619  0.911760  0.888987  1
  Nd  Nd7  1  0.710546  0.087886  0.888098  1
  Nd  Nd8  1  0.710905  0.910979  0.387706  1
  Nd  Nd9  1  0.589217  0.791950  0.886112  1
  Nd  Nd10  1  0.588738  0.207942  0.385679  1
  Nd  Nd11  1  0.411326  0.791924  0.385764  1
  Nd  Nd12  1  0.411482  0.207914  0.885902  1
  Nd  Nd13  1  0.210143  0.410215  0.614132  1
  Nd  Nd14  1  0.208864  0.590052  0.113569  1
  Nd  Nd15  1  0.790486  0.411356  0.113923  1
  Nd  Nd16  1  0.790725  0.590729  0.613895  1
  Nd  Nd17  1  0.909935  0.710797  0.112254  1
  Nd  Nd18  1  0.500024  0.500358  0.998690  1
  Nd  Nd19  1  0.500019  0.499908  0.498731  1
  Ir  Ir20  1  0.841421  0.158362  0.252173  1
  Ir  Ir21  1  0.840829  0.842360  0.750627  1
  Ir  Ir22  1  0.158654  0.158294  0.752329  1
  Ir  Ir23  1  0.157886  0.841213  0.251836  1
  Ir  Ir24  1  0.653401  0.346416  0.750568  1
  Ir  Ir25  1  0.654079  0.653835  0.249921  1
  Ir  Ir26  1  0.346766  0.345979  0.250266  1
  Ir  Ir27  1  0.346570  0.653904  0.750321  1
  Ir  Ir28  1  0.500197  0.999843  0.119227  1
  Ir  Ir29  1  0.499779  0.000006  0.619050  1
  Ir  Ir30  1  0.999566  0.500640  0.880260  1
  Ir  Ir31  1  0.000405  0.499747  0.381084  1
