# generated using pymatgen
data_LiLa6PtRh16
_symmetry_space_group_name_H-M   'P 1'
_cell_length_a   5.38742300
_cell_length_b   5.39404541
_cell_length_c   17.65168117
_cell_angle_alpha   90.07612646
_cell_angle_beta   90.00000000
_cell_angle_gamma   119.95937707
_symmetry_Int_Tables_number   1
_chemical_formula_structural   LiLa6PtRh16
_chemical_formula_sum   'Li1 La6 Pt1 Rh16'
_cell_volume   444.41580939
_cell_formula_units_Z   1
loop_
 _symmetry_equiv_pos_site_id
 _symmetry_equiv_pos_as_xyz
  1  'x, y, z'
loop_
 _atom_site_type_symbol
 _atom_site_label
 _atom_site_symmetry_multiplicity
 _atom_site_fract_x
 _atom_site_fract_y
 _atom_site_fract_z
 _atom_site_occupancy
  Li  Li0  1  0.999479  0.998959  0.249983  1
  La  La1  1  0.333494  0.666990  0.539025  1
  La  La2  1  0.665979  0.331958  0.043686  1
  La  La3  1  0.666458  0.332915  0.456051  1
  La  La4  1  0.333402  0.666804  0.960327  1
  La  La5  1  0.333382  0.666765  0.749708  1
  La  La6  1  0.667141  0.334280  0.250781  1
  Pt  Pt7  1  0.165527  0.331053  0.128999  1
  Rh  Rh8  1  0.833296  0.666591  0.626456  1
  Rh  Rh9  1  0.666146  0.832278  0.128228  1
  Rh  Rh10  1  0.166133  0.832278  0.128228  1
  Rh  Rh11  1  0.833248  0.166898  0.626962  1
  Rh  Rh12  1  0.333650  0.166898  0.626962  1
  Rh  Rh13  1  0.833540  0.667079  0.873399  1
  Rh  Rh14  1  0.833079  0.166955  0.872954  1
  Rh  Rh15  1  0.333877  0.166955  0.872954  1
  Rh  Rh16  1  0.668219  0.834830  0.371646  1
  Rh  Rh17  1  0.166612  0.834830  0.371646  1
  Rh  Rh18  1  0.166632  0.333264  0.371386  1
  Rh  Rh19  1  0.999010  0.998021  0.749980  1
  Rh  Rh20  1  0.335113  0.670227  0.250943  1
  Rh  Rh21  1  0.667644  0.335287  0.749936  1
  Rh  Rh22  1  0.998373  0.996746  0.001322  1
  Rh  Rh23  1  0.000568  0.001137  0.498436  1
