# generated using pymatgen
data_Eu2Ga3Si2Pt3
_symmetry_space_group_name_H-M   'P 1'
_cell_length_a   8.55561870
_cell_length_b   8.55367271
_cell_length_c   8.55251289
_cell_angle_alpha   138.41860809
_cell_angle_beta   106.95372413
_cell_angle_gamma   87.73104752
_symmetry_Int_Tables_number   1
_chemical_formula_structural   Eu2Ga3Si2Pt3
_chemical_formula_sum   'Eu4 Ga6 Si4 Pt6'
_cell_volume   381.30447237
_cell_formula_units_Z   2
loop_
 _symmetry_equiv_pos_site_id
 _symmetry_equiv_pos_as_xyz
  1  'x, y, z'
loop_
 _atom_site_type_symbol
 _atom_site_label
 _atom_site_symmetry_multiplicity
 _atom_site_fract_x
 _atom_site_fract_y
 _atom_site_fract_z
 _atom_site_occupancy
  Eu  Eu0  1  0.105331  0.869693  0.235625  1
  Eu  Eu1  1  0.894669  0.130307  0.764375  1
  Eu  Eu2  1  0.634035  0.369700  0.264355  1
  Eu  Eu3  1  0.365965  0.630300  0.735645  1
  Ga  Ga4  1  0.000024  0.750089  0.750061  1
  Ga  Ga5  1  0.999976  0.249911  0.249939  1
  Ga  Ga6  1  0.270537  0.020542  0.749927  1
  Ga  Ga7  1  0.729444  0.479396  0.750004  1
  Ga  Ga8  1  0.729463  0.979458  0.250073  1
  Ga  Ga9  1  0.270556  0.520604  0.249996  1
  Si  Si10  1  0.752179  0.605402  0.146846  1
  Si  Si11  1  0.247821  0.394598  0.853154  1
  Si  Si12  1  0.458545  0.105311  0.353175  1
  Si  Si13  1  0.541455  0.894689  0.646825  1
  Pt  Pt14  1  0.499974  0.749936  0.249898  1
  Pt  Pt15  1  0.500026  0.250064  0.750102  1
  Pt  Pt16  1  0.012353  0.635372  0.376893  1
  Pt  Pt17  1  0.987647  0.364628  0.623107  1
  Pt  Pt18  1  0.258441  0.135366  0.123052  1
  Pt  Pt19  1  0.741559  0.864634  0.876948  1
