# generated using pymatgen
data_V2Ag(PO4)3
_symmetry_space_group_name_H-M   'P 1'
_cell_length_a   8.56017613
_cell_length_b   8.56017640
_cell_length_c   8.86141539
_cell_angle_alpha   61.32417264
_cell_angle_beta   61.32417571
_cell_angle_gamma   60.00650138
_symmetry_Int_Tables_number   1
_chemical_formula_structural   V2Ag(PO4)3
_chemical_formula_sum   'V4 Ag2 P6 O24'
_cell_volume   468.14893122
_cell_formula_units_Z   2
loop_
 _symmetry_equiv_pos_site_id
 _symmetry_equiv_pos_as_xyz
  1  'x, y, z'
loop_
 _atom_site_type_symbol
 _atom_site_label
 _atom_site_symmetry_multiplicity
 _atom_site_fract_x
 _atom_site_fract_y
 _atom_site_fract_z
 _atom_site_occupancy
  V  V0  1  0.352570  0.850840  0.934475  1
  V  V1  1  0.850840  0.352570  0.434475  1
  V  V2  1  0.144276  0.644964  0.555962  1
  V  V3  1  0.644964  0.144276  0.055962  1
  Ag  Ag4  1  0.004174  0.482145  0.995232  1
  Ag  Ag5  1  0.482145  0.004174  0.495232  1
  P  P6  1  0.033436  0.961475  0.745981  1
  P  P7  1  0.748115  0.534402  0.745493  1
  P  P8  1  0.534402  0.748115  0.245493  1
  P  P9  1  0.961475  0.033436  0.245981  1
  P  P10  1  0.462380  0.247494  0.744298  1
  P  P11  1  0.247494  0.462380  0.244298  1
  O  O12  1  0.935967  0.214832  0.267364  1
  O  O13  1  0.720467  0.363286  0.916950  1
  O  O14  1  0.507405  0.775788  0.072840  1
  O  O15  1  0.363286  0.720467  0.416950  1
  O  O16  1  0.214832  0.935967  0.767364  1
  O  O17  1  0.925100  0.559091  0.724750  1
  O  O18  1  0.559091  0.925100  0.224750  1
  O  O19  1  0.716035  0.571985  0.265498  1
  O  O20  1  0.132977  0.006076  0.074588  1
  O  O21  1  0.987138  0.863228  0.418619  1
  O  O22  1  0.571985  0.716035  0.765498  1
  O  O23  1  0.219852  0.490119  0.416381  1
  O  O24  1  0.775788  0.507405  0.572840  1
  O  O25  1  0.060858  0.780174  0.723862  1
  O  O26  1  0.006076  0.132977  0.574588  1
  O  O27  1  0.280653  0.424031  0.723894  1
  O  O28  1  0.863228  0.987138  0.918619  1
  O  O29  1  0.780174  0.060858  0.223862  1
  O  O30  1  0.071347  0.436063  0.265539  1
  O  O31  1  0.632496  0.276180  0.572188  1
  O  O32  1  0.490119  0.219852  0.916381  1
  O  O33  1  0.276180  0.632496  0.072188  1
  O  O34  1  0.424031  0.280653  0.223894  1
  O  O35  1  0.436063  0.071347  0.765539  1
