# generated using pymatgen
data_Li4Eu4SiP3
_symmetry_space_group_name_H-M   'P 1'
_cell_length_a   4.27711900
_cell_length_b   7.37145459
_cell_length_c   8.15963263
_cell_angle_alpha   89.95453001
_cell_angle_beta   90.00000000
_cell_angle_gamma   90.00000000
_symmetry_Int_Tables_number   1
_chemical_formula_structural   Li4Eu4SiP3
_chemical_formula_sum   'Li4 Eu4 Si1 P3'
_cell_volume   257.26161842
_cell_formula_units_Z   1
loop_
 _symmetry_equiv_pos_site_id
 _symmetry_equiv_pos_as_xyz
  1  'x, y, z'
loop_
 _atom_site_type_symbol
 _atom_site_label
 _atom_site_symmetry_multiplicity
 _atom_site_fract_x
 _atom_site_fract_y
 _atom_site_fract_z
 _atom_site_occupancy
  Li  Li0  1  0.250000  0.641954  0.560700  1
  Li  Li1  1  0.750000  0.359373  0.438813  1
  Li  Li2  1  0.750000  0.862389  0.065775  1
  Li  Li3  1  0.250000  0.142584  0.940762  1
  Eu  Eu4  1  0.250000  0.519364  0.194423  1
  Eu  Eu5  1  0.750000  0.475952  0.807796  1
  Eu  Eu6  1  0.750000  0.981343  0.687129  1
  Eu  Eu7  1  0.250000  0.018549  0.306511  1
  Si  Si8  1  0.250000  0.769249  0.891886  1
  P  P9  1  0.750000  0.229151  0.110497  1
  P  P10  1  0.750000  0.729350  0.392598  1
  P  P11  1  0.250000  0.270744  0.603110  1
