# generated using pymatgen
data_TaTi2Mo(PRu)4
_symmetry_space_group_name_H-M   'P 1'
_cell_length_a   3.76717300
_cell_length_b   6.23474150
_cell_length_c   7.12432836
_cell_angle_alpha   89.85696607
_cell_angle_beta   90.00000000
_cell_angle_gamma   90.00000000
_symmetry_Int_Tables_number   1
_chemical_formula_structural   TaTi2Mo(PRu)4
_chemical_formula_sum   'Ta1 Ti2 Mo1 P4 Ru4'
_cell_volume   167.33107114
_cell_formula_units_Z   1
loop_
 _symmetry_equiv_pos_site_id
 _symmetry_equiv_pos_as_xyz
  1  'x, y, z'
loop_
 _atom_site_type_symbol
 _atom_site_label
 _atom_site_symmetry_multiplicity
 _atom_site_fract_x
 _atom_site_fract_y
 _atom_site_fract_z
 _atom_site_occupancy
  Ta  Ta0  1  0.750000  0.974318  0.824487  1
  Ti  Ti1  1  0.250000  0.024987  0.178333  1
  Ti  Ti2  1  0.250000  0.524378  0.324335  1
  Mo  Mo3  1  0.750000  0.476750  0.670472  1
  P  P4  1  0.250000  0.762932  0.622306  1
  P  P5  1  0.250000  0.270700  0.875118  1
  P  P6  1  0.750000  0.237747  0.379433  1
  P  P7  1  0.750000  0.733059  0.124965  1
  Ru  Ru8  1  0.250000  0.145207  0.564051  1
  Ru  Ru9  1  0.250000  0.648362  0.939419  1
  Ru  Ru10  1  0.750000  0.852298  0.436788  1
  Ru  Ru11  1  0.750000  0.349262  0.060294  1
