# generated using pymatgen
data_NdY5(Si3Pt2)4
_symmetry_space_group_name_H-M   'P 1'
_cell_length_a   4.26223900
_cell_length_b   8.59059275
_cell_length_c   12.92308400
_cell_angle_alpha   80.09984348
_cell_angle_beta   90.00000000
_cell_angle_gamma   90.00000000
_symmetry_Int_Tables_number   1
_chemical_formula_structural   NdY5(Si3Pt2)4
_chemical_formula_sum   'Nd1 Y5 Si12 Pt8'
_cell_volume   466.13457832
_cell_formula_units_Z   1
loop_
 _symmetry_equiv_pos_site_id
 _symmetry_equiv_pos_as_xyz
  1  'x, y, z'
loop_
 _atom_site_type_symbol
 _atom_site_label
 _atom_site_symmetry_multiplicity
 _atom_site_fract_x
 _atom_site_fract_y
 _atom_site_fract_z
 _atom_site_occupancy
  Nd  Nd0  1  0.250000  0.075801  0.184426  1
  Y  Y1  1  0.250000  0.765537  0.440084  1
  Y  Y2  1  0.250000  0.582967  0.186252  1
  Y  Y3  1  0.750000  0.233607  0.560435  1
  Y  Y4  1  0.750000  0.415754  0.814806  1
  Y  Y5  1  0.750000  0.927648  0.816910  1
  Si  Si6  1  0.750000  0.587442  0.571894  1
  Si  Si7  1  0.750000  0.127356  0.002956  1
  Si  Si8  1  0.750000  0.871863  0.575667  1
  Si  Si9  1  0.250000  0.695441  0.712966  1
  Si  Si10  1  0.750000  0.304129  0.286163  1
  Si  Si11  1  0.750000  0.804223  0.276958  1
  Si  Si12  1  0.250000  0.873565  0.994460  1
  Si  Si13  1  0.250000  0.194382  0.722766  1
  Si  Si14  1  0.250000  0.379966  0.000179  1
  Si  Si15  1  0.250000  0.126414  0.426862  1
  Si  Si16  1  0.750000  0.622939  0.997208  1
  Si  Si17  1  0.250000  0.410435  0.427023  1
  Pt  Pt18  1  0.750000  0.355224  0.096739  1
  Pt  Pt19  1  0.250000  0.969684  0.626076  1
  Pt  Pt20  1  0.750000  0.848314  0.087251  1
  Pt  Pt21  1  0.750000  0.027680  0.379266  1
  Pt  Pt22  1  0.250000  0.649013  0.900061  1
  Pt  Pt23  1  0.250000  0.151484  0.910865  1
  Pt  Pt24  1  0.750000  0.532279  0.377356  1
  Pt  Pt25  1  0.250000  0.466856  0.624370  1
