# generated using pymatgen
data_Hf8V12Si7Ge9
_symmetry_space_group_name_H-M   'P 1'
_cell_length_a   6.53318801
_cell_length_b   6.65642607
_cell_length_c   12.72947800
_cell_angle_alpha   90.00000000
_cell_angle_beta   90.00000000
_cell_angle_gamma   90.10997260
_symmetry_Int_Tables_number   1
_chemical_formula_structural   Hf8V12Si7Ge9
_chemical_formula_sum   'Hf8 V12 Si7 Ge9'
_cell_volume   553.57448368
_cell_formula_units_Z   1
loop_
 _symmetry_equiv_pos_site_id
 _symmetry_equiv_pos_as_xyz
  1  'x, y, z'
loop_
 _atom_site_type_symbol
 _atom_site_label
 _atom_site_symmetry_multiplicity
 _atom_site_fract_x
 _atom_site_fract_y
 _atom_site_fract_z
 _atom_site_occupancy
  Hf  Hf0  1  0.990400  0.172443  0.097515  1
  Hf  Hf1  1  0.010848  0.823330  0.904211  1
  Hf  Hf2  1  0.510280  0.672121  0.904515  1
  Hf  Hf3  1  0.010848  0.823330  0.595789  1
  Hf  Hf4  1  0.490472  0.326509  0.096444  1
  Hf  Hf5  1  0.990400  0.172443  0.402485  1
  Hf  Hf6  1  0.490472  0.326509  0.403556  1
  Hf  Hf7  1  0.510280  0.672121  0.595485  1
  V  V8  1  0.165348  0.498456  0.750000  1
  V  V9  1  0.834889  0.505605  0.250000  1
  V  V10  1  0.334158  0.994779  0.250000  1
  V  V11  1  0.661618  0.005212  0.750000  1
  V  V12  1  0.345135  0.161332  0.627161  1
  V  V13  1  0.661076  0.838268  0.371559  1
  V  V14  1  0.160995  0.660824  0.372011  1
  V  V15  1  0.661076  0.838268  0.128441  1
  V  V16  1  0.831840  0.344485  0.626845  1
  V  V17  1  0.345135  0.161332  0.872839  1
  V  V18  1  0.831840  0.344485  0.873155  1
  V  V19  1  0.160995  0.660824  0.127989  1
  Si  Si20  1  0.963403  0.874832  0.250000  1
  Si  Si21  1  0.462098  0.625682  0.250000  1
  Si  Si22  1  0.534997  0.376612  0.750000  1
  Si  Si23  1  0.307171  0.861013  0.750000  1
  Si  Si24  1  0.694397  0.135407  0.250000  1
  Si  Si25  1  0.196007  0.364369  0.250000  1
  Si  Si26  1  0.804285  0.637940  0.750000  1
  Ge  Ge27  1  0.035111  0.127515  0.750000  1
  Ge  Ge28  1  0.177862  0.451380  0.541752  1
  Ge  Ge29  1  0.821308  0.546457  0.457520  1
  Ge  Ge30  1  0.321619  0.953367  0.458369  1
  Ge  Ge31  1  0.821308  0.546457  0.042480  1
  Ge  Ge32  1  0.681423  0.045772  0.540991  1
  Ge  Ge33  1  0.177862  0.451380  0.958248  1
  Ge  Ge34  1  0.681423  0.045772  0.959009  1
  Ge  Ge35  1  0.321619  0.953367  0.041631  1
