# generated using pymatgen
data_YbDy3Er3Co6Sn23
_symmetry_space_group_name_H-M   'P 1'
_cell_length_a   9.70291427
_cell_length_b   9.70393395
_cell_length_c   9.93359017
_cell_angle_alpha   90.01533224
_cell_angle_beta   89.97959383
_cell_angle_gamma   120.01344840
_symmetry_Int_Tables_number   1
_chemical_formula_structural   YbDy3Er3Co6Sn23
_chemical_formula_sum   'Yb1 Dy3 Er3 Co6 Sn23'
_cell_volume   809.89365460
_cell_formula_units_Z   1
loop_
 _symmetry_equiv_pos_site_id
 _symmetry_equiv_pos_as_xyz
  1  'x, y, z'
loop_
 _atom_site_type_symbol
 _atom_site_label
 _atom_site_symmetry_multiplicity
 _atom_site_fract_x
 _atom_site_fract_y
 _atom_site_fract_z
 _atom_site_occupancy
  Yb  Yb0  1  0.999889  0.999702  0.000001  1
  Dy  Dy1  1  0.520442  0.040822  0.694044  1
  Dy  Dy2  1  0.040888  0.520466  0.305972  1
  Dy  Dy3  1  0.959373  0.479553  0.694049  1
  Er  Er4  1  0.479977  0.519713  0.305635  1
  Er  Er5  1  0.519793  0.480130  0.694303  1
  Er  Er6  1  0.480077  0.960512  0.305775  1
  Co  Co7  1  0.830810  0.168143  0.198654  1
  Co  Co8  1  0.168625  0.831587  0.801436  1
  Co  Co9  1  0.830659  0.662719  0.199019  1
  Co  Co10  1  0.169388  0.337522  0.801186  1
  Co  Co11  1  0.337894  0.169045  0.198962  1
  Co  Co12  1  0.662231  0.830598  0.801166  1
  Sn  Sn13  1  0.345939  0.000102  0.999813  1
  Sn  Sn14  1  0.653800  0.999570  0.000239  1
  Sn  Sn15  1  0.000496  0.346062  0.999918  1
  Sn  Sn16  1  0.000016  0.654207  0.000048  1
  Sn  Sn17  1  0.653990  0.654168  0.000290  1
  Sn  Sn18  1  0.345989  0.346008  0.999757  1
  Sn  Sn19  1  0.333682  0.666564  0.817267  1
  Sn  Sn20  1  0.666640  0.333003  0.182788  1
  Sn  Sn21  1  0.999525  0.999044  0.500016  1
  Sn  Sn22  1  0.780946  0.218549  0.453208  1
  Sn  Sn23  1  0.219357  0.781537  0.546349  1
  Sn  Sn24  1  0.780115  0.562166  0.453628  1
  Sn  Sn25  1  0.219875  0.437729  0.546304  1
  Sn  Sn26  1  0.437684  0.219368  0.453382  1
  Sn  Sn27  1  0.562322  0.780667  0.546134  1
  Sn  Sn28  1  0.335228  0.667634  0.120931  1
  Sn  Sn29  1  0.665836  0.334153  0.879918  1
  Sn  Sn30  1  0.117415  0.882808  0.273240  1
  Sn  Sn31  1  0.882701  0.116726  0.726614  1
  Sn  Sn32  1  0.117092  0.234591  0.273430  1
  Sn  Sn33  1  0.882171  0.764782  0.726542  1
  Sn  Sn34  1  0.763772  0.882327  0.273951  1
  Sn  Sn35  1  0.235363  0.117724  0.726031  1
