# generated using pymatgen
data_CeEr11Co4
_symmetry_space_group_name_H-M   'P 1'
_cell_length_a   6.17723004
_cell_length_b   6.83868495
_cell_length_c   9.38164600
_cell_angle_alpha   90.00000000
_cell_angle_beta   90.00000000
_cell_angle_gamma   91.99819405
_symmetry_Int_Tables_number   1
_chemical_formula_structural   CeEr11Co4
_chemical_formula_sum   'Ce1 Er11 Co4'
_cell_volume   396.07848311
_cell_formula_units_Z   1
loop_
 _symmetry_equiv_pos_site_id
 _symmetry_equiv_pos_as_xyz
  1  'x, y, z'
loop_
 _atom_site_type_symbol
 _atom_site_label
 _atom_site_symmetry_multiplicity
 _atom_site_fract_x
 _atom_site_fract_y
 _atom_site_fract_z
 _atom_site_occupancy
  Ce  Ce0  1  0.352116  0.559524  0.250000  1
  Er  Er1  1  0.672869  0.175412  0.069300  1
  Er  Er2  1  0.137119  0.044191  0.250000  1
  Er  Er3  1  0.826780  0.674151  0.435226  1
  Er  Er4  1  0.324722  0.827098  0.931363  1
  Er  Er5  1  0.177974  0.325394  0.567201  1
  Er  Er6  1  0.672869  0.175412  0.430700  1
  Er  Er7  1  0.177974  0.325394  0.932799  1
  Er  Er8  1  0.324722  0.827098  0.568637  1
  Er  Er9  1  0.859625  0.958211  0.750000  1
  Er  Er10  1  0.643983  0.455820  0.750000  1
  Er  Er11  1  0.826780  0.674151  0.064774  1
  Co  Co12  1  0.977400  0.395566  0.250000  1
  Co  Co13  1  0.448649  0.112900  0.750000  1
  Co  Co14  1  0.530490  0.857609  0.250000  1
  Co  Co15  1  0.045926  0.612069  0.750000  1
