# generated using pymatgen
data_Ho15ErZnIn3Rh4
_symmetry_space_group_name_H-M   'P 1'
_cell_length_a   9.57741951
_cell_length_b   9.56680276
_cell_length_c   9.57742025
_cell_angle_alpha   59.96420021
_cell_angle_beta   59.91134705
_cell_angle_gamma   59.96420195
_symmetry_Int_Tables_number   1
_chemical_formula_structural   Ho15ErZnIn3Rh4
_chemical_formula_sum   'Ho15 Er1 Zn1 In3 Rh4'
_cell_volume   619.75803114
_cell_formula_units_Z   1
loop_
 _symmetry_equiv_pos_site_id
 _symmetry_equiv_pos_as_xyz
  1  'x, y, z'
loop_
 _atom_site_type_symbol
 _atom_site_label
 _atom_site_symmetry_multiplicity
 _atom_site_fract_x
 _atom_site_fract_y
 _atom_site_fract_z
 _atom_site_occupancy
  Ho  Ho0  1  0.189920  0.189999  0.812159  1
  Ho  Ho1  1  0.437399  0.056584  0.067404  1
  Ho  Ho2  1  0.435708  0.057884  0.435708  1
  Ho  Ho3  1  0.062307  0.436594  0.062307  1
  Ho  Ho4  1  0.648425  0.050651  0.648425  1
  Ho  Ho5  1  0.190926  0.810451  0.810437  1
  Ho  Ho6  1  0.067404  0.056584  0.437399  1
  Ho  Ho7  1  0.812159  0.189999  0.189920  1
  Ho  Ho8  1  0.810437  0.810451  0.190926  1
  Ho  Ho9  1  0.646541  0.648621  0.053273  1
  Ho  Ho10  1  0.650678  0.651302  0.650678  1
  Ho  Ho11  1  0.063743  0.434934  0.437200  1
  Ho  Ho12  1  0.053273  0.648621  0.646541  1
  Ho  Ho13  1  0.809783  0.191771  0.809783  1
  Ho  Ho14  1  0.437200  0.434934  0.063743  1
  Er  Er15  1  0.189377  0.813478  0.189377  1
  Zn  Zn16  1  0.416622  0.751646  0.416622  1
  In  In17  1  0.417151  0.422316  0.744305  1
  In  In18  1  0.744305  0.422316  0.417151  1
  In  In19  1  0.417056  0.421446  0.417056  1
  Rh  Rh20  1  0.857269  0.428212  0.857269  1
  Rh  Rh21  1  0.858286  0.857177  0.426845  1
  Rh  Rh22  1  0.426845  0.857177  0.858286  1
  Rh  Rh23  1  0.857189  0.856854  0.857189  1
