# generated using pymatgen
data_La7ThH24
_symmetry_space_group_name_H-M   'P 1'
_cell_length_a   7.06911900
_cell_length_b   7.06911900
_cell_length_c   7.06911900
_cell_angle_alpha   90.00000000
_cell_angle_beta   90.00000000
_cell_angle_gamma   90.00000000
_symmetry_Int_Tables_number   1
_chemical_formula_structural   La7ThH24
_chemical_formula_sum   'La7 Th1 H24'
_cell_volume   353.26114937
_cell_formula_units_Z   1
loop_
 _symmetry_equiv_pos_site_id
 _symmetry_equiv_pos_as_xyz
  1  'x, y, z'
loop_
 _atom_site_type_symbol
 _atom_site_label
 _atom_site_symmetry_multiplicity
 _atom_site_fract_x
 _atom_site_fract_y
 _atom_site_fract_z
 _atom_site_occupancy
  La  La0  1  0.000000  0.000000  0.000000  1
  La  La1  1  0.248514  0.000000  0.500000  1
  La  La2  1  0.751486  0.000000  0.500000  1
  La  La3  1  0.000000  0.500000  0.248514  1
  La  La4  1  0.000000  0.500000  0.751486  1
  La  La5  1  0.500000  0.751486  0.000000  1
  La  La6  1  0.500000  0.248514  0.000000  1
  Th  Th7  1  0.500000  0.500000  0.500000  1
  H  H8  1  0.000000  0.155091  0.309266  1
  H  H9  1  0.500000  0.204757  0.652159  1
  H  H10  1  0.500000  0.795243  0.347841  1
  H  H11  1  0.795243  0.652159  0.500000  1
  H  H12  1  0.204757  0.652159  0.500000  1
  H  H13  1  0.347841  0.500000  0.795243  1
  H  H14  1  0.652159  0.500000  0.795243  1
  H  H15  1  0.309266  0.000000  0.155091  1
  H  H16  1  0.155091  0.309266  0.000000  1
  H  H17  1  0.844909  0.690734  0.000000  1
  H  H18  1  0.309266  0.000000  0.844909  1
  H  H19  1  0.844909  0.309266  0.000000  1
  H  H20  1  0.690734  0.000000  0.155091  1
  H  H21  1  0.690734  0.000000  0.844909  1
  H  H22  1  0.155091  0.690734  0.000000  1
  H  H23  1  0.000000  0.844909  0.690734  1
  H  H24  1  0.000000  0.155091  0.690734  1
  H  H25  1  0.000000  0.844909  0.309266  1
  H  H26  1  0.652159  0.500000  0.204757  1
  H  H27  1  0.347841  0.500000  0.204757  1
  H  H28  1  0.795243  0.347841  0.500000  1
  H  H29  1  0.204757  0.347841  0.500000  1
  H  H30  1  0.500000  0.795243  0.652159  1
  H  H31  1  0.500000  0.204757  0.347841  1
