# generated using pymatgen
data_In2B(PdPt)3
_symmetry_space_group_name_H-M   'P 1'
_cell_length_a   5.85302222
_cell_length_b   5.85302166
_cell_length_c   5.85249801
_cell_angle_alpha   59.99703732
_cell_angle_beta   59.99704472
_cell_angle_gamma   59.99999764
_symmetry_Int_Tables_number   1
_chemical_formula_structural   In2B(PdPt)3
_chemical_formula_sum   'In2 B1 Pd3 Pt3'
_cell_volume   141.76438827
_cell_formula_units_Z   1
loop_
 _symmetry_equiv_pos_site_id
 _symmetry_equiv_pos_as_xyz
  1  'x, y, z'
loop_
 _atom_site_type_symbol
 _atom_site_label
 _atom_site_symmetry_multiplicity
 _atom_site_fract_x
 _atom_site_fract_y
 _atom_site_fract_z
 _atom_site_occupancy
  In  In0  1  0.249993  0.249993  0.250021  1
  In  In1  1  0.749594  0.749594  0.751217  1
  B  B2  1  0.501275  0.501275  0.496171  1
  Pd  Pd3  1  0.245275  0.245275  0.755344  1
  Pd  Pd4  1  0.754104  0.245275  0.755344  1
  Pd  Pd5  1  0.245275  0.754104  0.755344  1
  Pt  Pt6  1  0.755845  0.242790  0.245518  1
  Pt  Pt7  1  0.242790  0.755845  0.245518  1
  Pt  Pt8  1  0.755845  0.755845  0.245518  1
