# generated using pymatgen
data_Dy5Tm5Si5Pb
_symmetry_space_group_name_H-M   'P 1'
_cell_length_a   8.50156848
_cell_length_b   8.51446841
_cell_length_c   6.34050200
_cell_angle_alpha   90.00000000
_cell_angle_beta   90.00000000
_cell_angle_gamma   120.25178642
_symmetry_Int_Tables_number   1
_chemical_formula_structural   Dy5Tm5Si5Pb
_chemical_formula_sum   'Dy5 Tm5 Si5 Pb1'
_cell_volume   396.46366688
_cell_formula_units_Z   1
loop_
 _symmetry_equiv_pos_site_id
 _symmetry_equiv_pos_as_xyz
  1  'x, y, z'
loop_
 _atom_site_type_symbol
 _atom_site_label
 _atom_site_symmetry_multiplicity
 _atom_site_fract_x
 _atom_site_fract_y
 _atom_site_fract_z
 _atom_site_occupancy
  Dy  Dy0  1  0.766861  0.767090  0.250000  1
  Dy  Dy1  1  0.240404  0.987761  0.250000  1
  Dy  Dy2  1  0.240070  0.240367  0.750000  1
  Dy  Dy3  1  0.755947  0.998671  0.750000  1
  Dy  Dy4  1  0.998421  0.755205  0.750000  1
  Tm  Tm5  1  0.675405  0.331113  0.503600  1
  Tm  Tm6  1  0.331087  0.675001  0.503693  1
  Tm  Tm7  1  0.331087  0.675001  0.996307  1
  Tm  Tm8  1  0.675405  0.331113  0.996400  1
  Tm  Tm9  1  0.987251  0.240558  0.250000  1
  Si  Si10  1  0.604176  0.999052  0.250000  1
  Si  Si11  1  0.998210  0.602285  0.250000  1
  Si  Si12  1  0.605081  0.605162  0.750000  1
  Si  Si13  1  0.394517  0.001746  0.750000  1
  Si  Si14  1  0.001621  0.394659  0.750000  1
  Pb  Pb15  1  0.394457  0.395216  0.250000  1
