# generated using pymatgen
data_YTh3Co10(Ni2B3)2
_symmetry_space_group_name_H-M   'P 1'
_cell_length_a   5.03513338
_cell_length_b   5.02801812
_cell_length_c   13.10366084
_cell_angle_alpha   90.02279497
_cell_angle_beta   89.95949079
_cell_angle_gamma   119.65688480
_symmetry_Int_Tables_number   1
_chemical_formula_structural   YTh3Co10(Ni2B3)2
_chemical_formula_sum   'Y1 Th3 Co10 Ni4 B6'
_cell_volume   288.28508581
_cell_formula_units_Z   1
loop_
 _symmetry_equiv_pos_site_id
 _symmetry_equiv_pos_as_xyz
  1  'x, y, z'
loop_
 _atom_site_type_symbol
 _atom_site_label
 _atom_site_symmetry_multiplicity
 _atom_site_fract_x
 _atom_site_fract_y
 _atom_site_fract_z
 _atom_site_occupancy
  Y  Y0  1  0.000236  0.999984  0.499996  1
  Th  Th1  1  0.999459  0.000011  0.000041  1
  Th  Th2  1  0.999823  0.999644  0.261403  1
  Th  Th3  1  0.000310  0.000366  0.738538  1
  Co  Co4  1  0.499797  0.999614  0.159635  1
  Co  Co5  1  0.999688  0.499710  0.159710  1
  Co  Co6  1  0.500055  0.000424  0.840428  1
  Co  Co7  1  0.000164  0.500390  0.840352  1
  Co  Co8  1  0.500067  0.999859  0.384511  1
  Co  Co9  1  0.500058  0.499863  0.387039  1
  Co  Co10  1  0.000061  0.499856  0.384477  1
  Co  Co11  1  0.500305  0.000149  0.615462  1
  Co  Co12  1  0.500298  0.500137  0.612972  1
  Co  Co13  1  0.000294  0.500126  0.615501  1
  Ni  Ni14  1  0.323830  0.675030  0.000143  1
  Ni  Ni15  1  0.675119  0.324939  0.000194  1
  Ni  Ni16  1  0.499775  0.498973  0.153945  1
  Ni  Ni17  1  0.499803  0.500792  0.845673  1
  B  B18  1  0.332307  0.667912  0.500000  1
  B  B19  1  0.668087  0.332095  0.499997  1
  B  B20  1  0.334266  0.665478  0.269964  1
  B  B21  1  0.665441  0.333958  0.269964  1
  B  B22  1  0.665912  0.334521  0.730030  1
  B  B23  1  0.334645  0.666167  0.730025  1
