# generated using pymatgen
data_Y9Ho5Rh6
_symmetry_space_group_name_H-M   'P 1'
_cell_length_a   9.81408200
_cell_length_b   9.81408085
_cell_length_c   6.23784800
_cell_angle_alpha   90.00000000
_cell_angle_beta   90.00000000
_cell_angle_gamma   120.00000387
_symmetry_Int_Tables_number   1
_chemical_formula_structural   Y9Ho5Rh6
_chemical_formula_sum   'Y9 Ho5 Rh6'
_cell_volume   520.31304750
_cell_formula_units_Z   1
loop_
 _symmetry_equiv_pos_site_id
 _symmetry_equiv_pos_as_xyz
  1  'x, y, z'
loop_
 _atom_site_type_symbol
 _atom_site_label
 _atom_site_symmetry_multiplicity
 _atom_site_fract_x
 _atom_site_fract_y
 _atom_site_fract_z
 _atom_site_occupancy
  Y  Y0  1  0.876119  0.123881  0.754629  1
  Y  Y1  1  0.247764  0.123881  0.754629  1
  Y  Y2  1  0.876119  0.752236  0.754629  1
  Y  Y3  1  0.540727  0.459273  0.445040  1
  Y  Y4  1  0.918546  0.459273  0.445040  1
  Y  Y5  1  0.540727  0.081454  0.445040  1
  Y  Y6  1  0.459102  0.540898  0.945202  1
  Y  Y7  1  0.081798  0.540898  0.945202  1
  Y  Y8  1  0.459102  0.918202  0.945202  1
  Ho  Ho9  1  0.333333  0.666667  0.457035  1
  Ho  Ho10  1  0.666667  0.333333  0.958794  1
  Ho  Ho11  1  0.123831  0.876169  0.256350  1
  Ho  Ho12  1  0.752338  0.876169  0.256350  1
  Ho  Ho13  1  0.123831  0.247662  0.256350  1
  Rh  Rh14  1  0.810678  0.189322  0.179240  1
  Rh  Rh15  1  0.378644  0.189322  0.179240  1
  Rh  Rh16  1  0.810678  0.621356  0.179240  1
  Rh  Rh17  1  0.190276  0.809724  0.676147  1
  Rh  Rh18  1  0.619447  0.809724  0.676147  1
  Rh  Rh19  1  0.190276  0.380553  0.676147  1
