# generated using pymatgen
data_La12Fe(PtBr4)3
_symmetry_space_group_name_H-M   'P 1'
_cell_length_a   10.77748449
_cell_length_b   10.61803159
_cell_length_c   10.61803112
_cell_angle_alpha   109.16502411
_cell_angle_beta   109.77570119
_cell_angle_gamma   109.77571115
_symmetry_Int_Tables_number   1
_chemical_formula_structural   La12Fe(PtBr4)3
_chemical_formula_sum   'La12 Fe1 Pt3 Br12'
_cell_volume   931.83226671
_cell_formula_units_Z   1
loop_
 _symmetry_equiv_pos_site_id
 _symmetry_equiv_pos_as_xyz
  1  'x, y, z'
loop_
 _atom_site_type_symbol
 _atom_site_label
 _atom_site_symmetry_multiplicity
 _atom_site_fract_x
 _atom_site_fract_y
 _atom_site_fract_z
 _atom_site_occupancy
  La  La0  1  0.465242  0.490738  0.226353  1
  La  La1  1  0.750000  0.236693  0.263307  1
  La  La2  1  0.750000  0.013666  0.486334  1
  La  La3  1  0.236334  0.472667  0.486334  1
  La  La4  1  0.261111  0.735614  0.226353  1
  La  La5  1  0.034758  0.273647  0.009262  1
  La  La6  1  0.013307  0.026615  0.263307  1
  La  La7  1  0.474504  0.735614  0.009262  1
  La  La8  1  0.486693  0.236693  0.473385  1
  La  La9  1  0.025496  0.490738  0.764386  1
  La  La10  1  0.263666  0.013666  0.027333  1
  La  La11  1  0.238889  0.273647  0.764386  1
  Fe  Fe12  1  0.250000  0.500000  0.000000  1
  Pt  Pt13  1  0.250000  0.249581  0.250419  1
  Pt  Pt14  1  0.500419  0.000839  0.250419  1
  Pt  Pt15  1  0.999581  0.249581  0.499161  1
  Br  Br16  1  0.250000  0.755908  0.744092  1
  Br  Br17  1  0.510182  0.505173  0.755738  1
  Br  Br18  1  0.989818  0.744262  0.994827  1
  Br  Br19  1  0.745558  0.250565  0.755738  1
  Br  Br20  1  0.994092  0.988183  0.744092  1
  Br  Br21  1  0.250000  0.996926  0.503074  1
  Br  Br22  1  0.753074  0.506149  0.503074  1
  Br  Br23  1  0.505007  0.250565  0.994827  1
  Br  Br24  1  0.754442  0.744262  0.249435  1
  Br  Br25  1  0.746926  0.996926  0.993851  1
  Br  Br26  1  0.994993  0.505173  0.249435  1
  Br  Br27  1  0.505908  0.755908  0.511817  1
