# generated using pymatgen
data_Lu8B24IrRuW2
_symmetry_space_group_name_H-M   'P 1'
_cell_length_a   3.58588000
_cell_length_b   9.10386526
_cell_length_c   11.47352900
_cell_angle_alpha   90.03170402
_cell_angle_beta   90.00000000
_cell_angle_gamma   90.00000000
_symmetry_Int_Tables_number   1
_chemical_formula_structural   Lu8B24IrRuW2
_chemical_formula_sum   'Lu8 B24 Ir1 Ru1 W2'
_cell_volume   374.55752330
_cell_formula_units_Z   1
loop_
 _symmetry_equiv_pos_site_id
 _symmetry_equiv_pos_as_xyz
  1  'x, y, z'
loop_
 _atom_site_type_symbol
 _atom_site_label
 _atom_site_symmetry_multiplicity
 _atom_site_fract_x
 _atom_site_fract_y
 _atom_site_fract_z
 _atom_site_occupancy
  Lu  Lu0  1  0.000000  0.316179  0.413973  1
  Lu  Lu1  1  0.000000  0.679146  0.588940  1
  Lu  Lu2  1  0.000000  0.823997  0.082545  1
  Lu  Lu3  1  0.000000  0.180197  0.912436  1
  Lu  Lu4  1  0.000000  0.943573  0.373258  1
  Lu  Lu5  1  0.000000  0.053771  0.628325  1
  Lu  Lu6  1  0.000000  0.444348  0.126568  1
  Lu  Lu7  1  0.000000  0.558317  0.872880  1
  B  B8  1  0.500000  0.554152  0.433499  1
  B  B9  1  0.500000  0.449537  0.563371  1
  B  B10  1  0.500000  0.050290  0.063459  1
  B  B11  1  0.500000  0.946035  0.932231  1
  B  B12  1  0.500000  0.749516  0.421280  1
  B  B13  1  0.500000  0.247241  0.577825  1
  B  B14  1  0.500000  0.252411  0.077633  1
  B  B15  1  0.500000  0.751585  0.919953  1
  B  B16  1  0.500000  0.792020  0.265739  1
  B  B17  1  0.500000  0.204528  0.736726  1
  B  B18  1  0.500000  0.295844  0.236831  1
  B  B19  1  0.500000  0.708542  0.766398  1
  B  B20  1  0.500000  0.632405  0.183583  1
  B  B21  1  0.500000  0.369907  0.817493  1
  B  B22  1  0.500000  0.130207  0.317853  1
  B  B23  1  0.500000  0.867908  0.685187  1
  B  B24  1  0.500000  0.976634  0.212667  1
  B  B25  1  0.500000  0.016970  0.787363  1
  B  B26  1  0.500000  0.482296  0.287180  1
  B  B27  1  0.500000  0.523410  0.712977  1
  B  B28  1  0.500000  0.606589  0.029594  1
  B  B29  1  0.500000  0.399012  0.971801  1
  B  B30  1  0.500000  0.100513  0.471889  1
  B  B31  1  0.500000  0.893367  0.529354  1
  Ir  Ir32  1  0.000000  0.638579  0.320801  1
  Ru  Ru33  1  0.000000  0.860765  0.820315  1
  W  W34  1  0.000000  0.362209  0.678696  1
  W  W35  1  0.000000  0.138003  0.179375  1
