# generated using pymatgen
data_Yb10Zn2Cd2CuOs
_symmetry_space_group_name_H-M   'P 1'
_cell_length_a   9.15682949
_cell_length_b   9.15683066
_cell_length_c   9.12899501
_cell_angle_alpha   129.37490108
_cell_angle_beta   129.20667217
_cell_angle_gamma   74.77194739
_symmetry_Int_Tables_number   1
_chemical_formula_structural   Yb10Zn2Cd2CuOs
_chemical_formula_sum   'Yb10 Zn2 Cd2 Cu1 Os1'
_cell_volume   446.09106786
_cell_formula_units_Z   1
loop_
 _symmetry_equiv_pos_site_id
 _symmetry_equiv_pos_as_xyz
  1  'x, y, z'
loop_
 _atom_site_type_symbol
 _atom_site_label
 _atom_site_symmetry_multiplicity
 _atom_site_fract_x
 _atom_site_fract_y
 _atom_site_fract_z
 _atom_site_occupancy
  Yb  Yb0  1  0.485661  0.499306  0.984967  1
  Yb  Yb1  1  0.006842  0.989312  0.996154  1
  Yb  Yb2  1  0.524298  0.029309  0.831127  1
  Yb  Yb3  1  0.182499  0.686417  0.137930  1
  Yb  Yb4  1  0.037770  0.206321  0.516648  1
  Yb  Yb5  1  0.708736  0.532934  0.517459  1
  Yb  Yb6  1  0.451514  0.955432  0.137930  1
  Yb  Yb7  1  0.801818  0.306828  0.831127  1
  Yb  Yb8  1  0.984524  0.808722  0.517459  1
  Yb  Yb9  1  0.310326  0.478876  0.516648  1
  Zn  Zn10  1  0.884022  0.383970  0.267989  1
  Zn  Zn11  1  0.615544  0.879902  0.495447  1
  Cd  Cd12  1  0.253706  0.255574  0.009460  1
  Cd  Cd13  1  0.753885  0.755754  0.009460  1
  Cu  Cu14  1  0.382912  0.115836  0.498749  1
  Os  Os15  1  0.115943  0.615504  0.731448  1
