# generated using pymatgen
data_Dy5Mg(ScC2)2
_symmetry_space_group_name_H-M   'P 1'
_cell_length_a   11.46810200
_cell_length_b   11.46810200
_cell_length_c   3.62425000
_cell_angle_alpha   90.00000000
_cell_angle_beta   90.00000000
_cell_angle_gamma   90.00000000
_symmetry_Int_Tables_number   1
_chemical_formula_structural   Dy5Mg(ScC2)2
_chemical_formula_sum   'Dy10 Mg2 Sc4 C8'
_cell_volume   476.65180460
_cell_formula_units_Z   2
loop_
 _symmetry_equiv_pos_site_id
 _symmetry_equiv_pos_as_xyz
  1  'x, y, z'
loop_
 _atom_site_type_symbol
 _atom_site_label
 _atom_site_symmetry_multiplicity
 _atom_site_fract_x
 _atom_site_fract_y
 _atom_site_fract_z
 _atom_site_occupancy
  Dy  Dy0  1  0.547268  0.745215  0.500000  1
  Dy  Dy1  1  0.452732  0.254785  0.500000  1
  Dy  Dy2  1  0.047268  0.754785  0.500000  1
  Dy  Dy3  1  0.952732  0.245215  0.500000  1
  Dy  Dy4  1  0.254785  0.547268  0.500000  1
  Dy  Dy5  1  0.745215  0.452732  0.500000  1
  Dy  Dy6  1  0.245215  0.047268  0.500000  1
  Dy  Dy7  1  0.754785  0.952732  0.500000  1
  Dy  Dy8  1  0.500000  0.000000  0.000000  1
  Dy  Dy9  1  0.000000  0.500000  0.000000  1
  Mg  Mg10  1  0.500000  0.500000  0.000000  1
  Mg  Mg11  1  0.000000  0.000000  0.000000  1
  Sc  Sc12  1  0.703432  0.203432  0.000000  1
  Sc  Sc13  1  0.296568  0.796568  0.000000  1
  Sc  Sc14  1  0.203432  0.296568  0.000000  1
  Sc  Sc15  1  0.796568  0.703432  0.000000  1
  C  C16  1  0.621589  0.121589  0.500000  1
  C  C17  1  0.378411  0.878411  0.500000  1
  C  C18  1  0.121589  0.378411  0.500000  1
  C  C19  1  0.878411  0.621589  0.500000  1
  C  C20  1  0.157362  0.657362  0.000000  1
  C  C21  1  0.842638  0.342638  0.000000  1
  C  C22  1  0.657362  0.842638  0.000000  1
  C  C23  1  0.342638  0.157362  0.000000  1
