# generated using pymatgen
data_Ho6Al24Fe4Ru3Au
_symmetry_space_group_name_H-M   'P 1'
_cell_length_a   8.72613634
_cell_length_b   8.72613659
_cell_length_c   9.43001859
_cell_angle_alpha   90.08443139
_cell_angle_beta   89.91556014
_cell_angle_gamma   119.93107794
_symmetry_Int_Tables_number   1
_chemical_formula_structural   Ho6Al24Fe4Ru3Au
_chemical_formula_sum   'Ho6 Al24 Fe4 Ru3 Au1'
_cell_volume   622.28273719
_cell_formula_units_Z   1
loop_
 _symmetry_equiv_pos_site_id
 _symmetry_equiv_pos_as_xyz
  1  'x, y, z'
loop_
 _atom_site_type_symbol
 _atom_site_label
 _atom_site_symmetry_multiplicity
 _atom_site_fract_x
 _atom_site_fract_y
 _atom_site_fract_z
 _atom_site_occupancy
  Ho  Ho0  1  0.191195  0.386264  0.247562  1
  Ho  Ho1  1  0.808805  0.613736  0.752438  1
  Ho  Ho2  1  0.613736  0.808805  0.247562  1
  Ho  Ho3  1  0.386264  0.191195  0.752438  1
  Ho  Ho4  1  0.194065  0.805935  0.252079  1
  Ho  Ho5  1  0.805935  0.194065  0.747921  1
  Al  Al6  1  0.325103  0.674897  0.019354  1
  Al  Al7  1  0.674897  0.325103  0.980646  1
  Al  Al8  1  0.666564  0.333436  0.517341  1
  Al  Al9  1  0.333436  0.666564  0.482659  1
  Al  Al10  1  0.159158  0.318605  0.575760  1
  Al  Al11  1  0.840842  0.681395  0.424240  1
  Al  Al12  1  0.681395  0.840842  0.575760  1
  Al  Al13  1  0.853236  0.681589  0.077076  1
  Al  Al14  1  0.318605  0.159158  0.424240  1
  Al  Al15  1  0.146764  0.318411  0.922924  1
  Al  Al16  1  0.159887  0.840113  0.577323  1
  Al  Al17  1  0.318411  0.146764  0.077076  1
  Al  Al18  1  0.840113  0.159887  0.422677  1
  Al  Al19  1  0.681589  0.853236  0.922924  1
  Al  Al20  1  0.839126  0.160874  0.075994  1
  Al  Al21  1  0.160874  0.839126  0.924006  1
  Al  Al22  1  0.560216  0.119785  0.243745  1
  Al  Al23  1  0.439784  0.880215  0.756255  1
  Al  Al24  1  0.880215  0.439784  0.243745  1
  Al  Al25  1  0.119785  0.560216  0.756255  1
  Al  Al26  1  0.564888  0.435112  0.255304  1
  Al  Al27  1  0.435112  0.564888  0.744696  1
  Al  Al28  1  0.999507  0.000493  0.250149  1
  Al  Al29  1  0.000493  0.999507  0.749851  1
  Fe  Fe30  1  0.500000  0.000000  0.000000  1
  Fe  Fe31  1  0.000000  0.500000  0.000000  1
  Fe  Fe32  1  0.000000  0.000000  0.000000  1
  Fe  Fe33  1  0.000000  0.000000  0.500000  1
  Ru  Ru34  1  0.500000  0.000000  0.500000  1
  Ru  Ru35  1  0.000000  0.500000  0.500000  1
  Ru  Ru36  1  0.500000  0.500000  0.500000  1
  Au  Au37  1  0.500000  0.500000  0.000000  1
