# generated using pymatgen
data_Tm2FeCo16
_symmetry_space_group_name_H-M   'P 1'
_cell_length_a   6.25723614
_cell_length_b   6.25723593
_cell_length_c   6.25723718
_cell_angle_alpha   97.00578759
_cell_angle_beta   97.00579104
_cell_angle_gamma   82.99421665
_symmetry_Int_Tables_number   1
_chemical_formula_structural   Tm2FeCo16
_chemical_formula_sum   'Tm2 Fe1 Co16'
_cell_volume   239.91468006
_cell_formula_units_Z   1
loop_
 _symmetry_equiv_pos_site_id
 _symmetry_equiv_pos_as_xyz
  1  'x, y, z'
loop_
 _atom_site_type_symbol
 _atom_site_label
 _atom_site_symmetry_multiplicity
 _atom_site_fract_x
 _atom_site_fract_y
 _atom_site_fract_z
 _atom_site_occupancy
  Tm  Tm0  1  0.654761  0.654761  0.345238  1
  Tm  Tm1  1  0.344273  0.344273  0.655725  1
  Fe  Fe2  1  0.903783  0.903783  0.096215  1
  Co  Co3  1  0.498358  0.000604  0.999396  1
  Co  Co4  1  0.709299  0.290901  0.999065  1
  Co  Co5  1  0.000604  0.498358  0.999396  1
  Co  Co6  1  0.290901  0.709299  0.999065  1
  Co  Co7  1  0.347074  0.347074  0.150973  1
  Co  Co8  1  0.290901  0.000935  0.290701  1
  Co  Co9  1  0.000935  0.290901  0.290701  1
  Co  Co10  1  0.651669  0.151211  0.348329  1
  Co  Co11  1  0.151211  0.651669  0.348329  1
  Co  Co12  1  0.000604  0.000604  0.501641  1
  Co  Co13  1  0.849027  0.347074  0.652927  1
  Co  Co14  1  0.347074  0.849027  0.652927  1
  Co  Co15  1  0.709300  0.000935  0.709100  1
  Co  Co16  1  0.000935  0.709300  0.709100  1
  Co  Co17  1  0.651671  0.651671  0.848789  1
  Co  Co18  1  0.097617  0.097617  0.902382  1
