# generated using pymatgen
data_Ho2Mn4Fe(NiP)7
_symmetry_space_group_name_H-M   'P 1'
_cell_length_a   9.10041233
_cell_length_b   9.12917592
_cell_length_c   3.64284100
_cell_angle_alpha   90.00000000
_cell_angle_beta   90.00000000
_cell_angle_gamma   120.24740485
_symmetry_Int_Tables_number   1
_chemical_formula_structural   Ho2Mn4Fe(NiP)7
_chemical_formula_sum   'Ho2 Mn4 Fe1 Ni7 P7'
_cell_volume   261.44201592
_cell_formula_units_Z   1
loop_
 _symmetry_equiv_pos_site_id
 _symmetry_equiv_pos_as_xyz
  1  'x, y, z'
loop_
 _atom_site_type_symbol
 _atom_site_label
 _atom_site_symmetry_multiplicity
 _atom_site_fract_x
 _atom_site_fract_y
 _atom_site_fract_z
 _atom_site_occupancy
  Ho  Ho0  1  0.668912  0.335090  0.000000  1
  Ho  Ho1  1  0.331517  0.665419  0.500000  1
  Mn  Mn2  1  0.880425  0.726505  0.000000  1
  Mn  Mn3  1  0.097379  0.220151  0.500000  1
  Mn  Mn4  1  0.777604  0.878100  0.500000  1
  Mn  Mn5  1  0.121052  0.902384  0.500000  1
  Fe  Fe6  1  0.952831  0.566178  0.500000  1
  Ni  Ni7  1  0.060653  0.430710  0.000000  1
  Ni  Ni8  1  0.565004  0.627941  0.000000  1
  Ni  Ni9  1  0.368314  0.935707  0.000000  1
  Ni  Ni10  1  0.278724  0.156294  0.000000  1
  Ni  Ni11  1  0.843045  0.122364  0.000000  1
  Ni  Ni12  1  0.438713  0.385131  0.500000  1
  Ni  Ni13  1  0.613250  0.051217  0.500000  1
  P  P14  1  0.295666  0.408722  0.000000  1
  P  P15  1  0.589744  0.885526  0.000000  1
  P  P16  1  0.106899  0.698698  0.000000  1
  P  P17  1  0.405467  0.114257  0.500000  1
  P  P18  1  0.887335  0.295041  0.500000  1
  P  P19  1  0.718761  0.594687  0.500000  1
  P  P20  1  0.998700  0.999880  0.000000  1
