# generated using pymatgen
data_Tb6Ho4InSb5
_symmetry_space_group_name_H-M   'P 1'
_cell_length_a   9.03651300
_cell_length_b   9.00192748
_cell_length_c   6.35441000
_cell_angle_alpha   90.00000000
_cell_angle_beta   90.00000000
_cell_angle_gamma   120.12717805
_symmetry_Int_Tables_number   1
_chemical_formula_structural   Tb6Ho4InSb5
_chemical_formula_sum   'Tb6 Ho4 In1 Sb5'
_cell_volume   447.07899171
_cell_formula_units_Z   1
loop_
 _symmetry_equiv_pos_site_id
 _symmetry_equiv_pos_as_xyz
  1  'x, y, z'
loop_
 _atom_site_type_symbol
 _atom_site_label
 _atom_site_symmetry_multiplicity
 _atom_site_fract_x
 _atom_site_fract_y
 _atom_site_fract_z
 _atom_site_occupancy
  Tb  Tb0  1  0.757049  0.000000  0.750000  1
  Tb  Tb1  1  0.753476  0.754696  0.250000  1
  Tb  Tb2  1  0.998780  0.245304  0.250000  1
  Tb  Tb3  1  0.003315  0.757554  0.750000  1
  Tb  Tb4  1  0.245761  0.242446  0.750000  1
  Tb  Tb5  1  0.242087  0.000000  0.250000  1
  Ho  Ho6  1  0.333848  0.668487  0.000471  1
  Ho  Ho7  1  0.665363  0.331513  0.499529  1
  Ho  Ho8  1  0.665363  0.331513  0.000471  1
  Ho  Ho9  1  0.333848  0.668487  0.499529  1
  In  In10  1  0.395929  0.000000  0.750000  1
  Sb  Sb11  1  0.389152  0.391099  0.250000  1
  Sb  Sb12  1  0.998054  0.608901  0.250000  1
  Sb  Sb13  1  0.001102  0.391405  0.750000  1
  Sb  Sb14  1  0.609698  0.608595  0.750000  1
  Sb  Sb15  1  0.607176  0.000000  0.250000  1
