# generated using pymatgen
data_Al4Fe5Co3Si4
_symmetry_space_group_name_H-M   'P 1'
_cell_length_a   5.61875011
_cell_length_b   5.61875011
_cell_length_c   5.59778200
_cell_angle_alpha   89.99804893
_cell_angle_beta   89.99804893
_cell_angle_gamma   90.02267866
_symmetry_Int_Tables_number   1
_chemical_formula_structural   Al4Fe5Co3Si4
_chemical_formula_sum   'Al4 Fe5 Co3 Si4'
_cell_volume   176.72393869
_cell_formula_units_Z   1
loop_
 _symmetry_equiv_pos_site_id
 _symmetry_equiv_pos_as_xyz
  1  'x, y, z'
loop_
 _atom_site_type_symbol
 _atom_site_label
 _atom_site_symmetry_multiplicity
 _atom_site_fract_x
 _atom_site_fract_y
 _atom_site_fract_z
 _atom_site_occupancy
  Al  Al0  1  0.500604  0.500604  0.998755  1
  Al  Al1  1  0.500551  0.999728  0.502283  1
  Al  Al2  1  0.999728  0.500551  0.502283  1
  Al  Al3  1  0.500965  0.500965  0.503542  1
  Fe  Fe4  1  0.760051  0.760051  0.242422  1
  Fe  Fe5  1  0.242606  0.242606  0.759480  1
  Fe  Fe6  1  0.756772  0.243129  0.758740  1
  Fe  Fe7  1  0.243129  0.756772  0.758740  1
  Fe  Fe8  1  0.756532  0.756532  0.756508  1
  Co  Co9  1  0.241020  0.241020  0.243170  1
  Co  Co10  1  0.758344  0.243492  0.243472  1
  Co  Co11  1  0.243492  0.758344  0.243472  1
  Si  Si12  1  0.998290  0.998290  0.994177  1
  Si  Si13  1  0.502583  0.997606  0.992181  1
  Si  Si14  1  0.997606  0.502583  0.992181  1
  Si  Si15  1  0.997731  0.997731  0.508599  1
