# generated using pymatgen
data_Tm4Co16Si5Tc4P7
_symmetry_space_group_name_H-M   'P 1'
_cell_length_a   3.71127500
_cell_length_b   10.35745312
_cell_length_c   11.83924713
_cell_angle_alpha   89.98277265
_cell_angle_beta   90.00000000
_cell_angle_gamma   90.00000000
_symmetry_Int_Tables_number   1
_chemical_formula_structural   Tm4Co16Si5Tc4P7
_chemical_formula_sum   'Tm4 Co16 Si5 Tc4 P7'
_cell_volume   455.09302445
_cell_formula_units_Z   1
loop_
 _symmetry_equiv_pos_site_id
 _symmetry_equiv_pos_as_xyz
  1  'x, y, z'
loop_
 _atom_site_type_symbol
 _atom_site_label
 _atom_site_symmetry_multiplicity
 _atom_site_fract_x
 _atom_site_fract_y
 _atom_site_fract_z
 _atom_site_occupancy
  Tm  Tm0  1  0.250000  0.581865  0.702486  1
  Tm  Tm1  1  0.250000  0.916987  0.202472  1
  Tm  Tm2  1  0.750000  0.416841  0.297177  1
  Tm  Tm3  1  0.750000  0.080270  0.797838  1
  Co  Co4  1  0.250000  0.407929  0.485594  1
  Co  Co5  1  0.250000  0.088659  0.990495  1
  Co  Co6  1  0.750000  0.592564  0.512222  1
  Co  Co7  1  0.750000  0.906073  0.013331  1
  Co  Co8  1  0.250000  0.214256  0.177350  1
  Co  Co9  1  0.250000  0.287162  0.672319  1
  Co  Co10  1  0.750000  0.785581  0.823457  1
  Co  Co11  1  0.750000  0.714784  0.323503  1
  Co  Co12  1  0.250000  0.882559  0.701313  1
  Co  Co13  1  0.250000  0.617149  0.202068  1
  Co  Co14  1  0.750000  0.116165  0.298240  1
  Co  Co15  1  0.750000  0.385520  0.797240  1
  Co  Co16  1  0.250000  0.469021  0.932413  1
  Co  Co17  1  0.250000  0.035159  0.430997  1
  Co  Co18  1  0.750000  0.536515  0.070104  1
  Co  Co19  1  0.750000  0.964507  0.569220  1
  Si  Si20  1  0.250000  0.417739  0.114327  1
  Si  Si21  1  0.250000  0.082616  0.615183  1
  Si  Si22  1  0.750000  0.582094  0.885566  1
  Si  Si23  1  0.750000  0.918023  0.385401  1
  Si  Si24  1  0.250000  0.269533  0.865056  1
  Tc  Tc25  1  0.250000  0.709986  0.989208  1
  Tc  Tc26  1  0.250000  0.790750  0.488309  1
  Tc  Tc27  1  0.750000  0.291304  0.012136  1
  Tc  Tc28  1  0.750000  0.209134  0.510146  1
  P  P29  1  0.250000  0.230134  0.364416  1
  P  P30  1  0.750000  0.730679  0.135712  1
  P  P31  1  0.750000  0.769290  0.635470  1
  P  P32  1  0.250000  0.596975  0.390069  1
  P  P33  1  0.250000  0.902659  0.890799  1
  P  P34  1  0.750000  0.402620  0.609294  1
  P  P35  1  0.750000  0.096898  0.109068  1
