# generated using pymatgen
data_Sb(OsCl6)5
_symmetry_space_group_name_H-M   'P 1'
_cell_length_a   13.52583724
_cell_length_b   13.52565633
_cell_length_c   6.39728914
_cell_angle_alpha   88.78313873
_cell_angle_beta   88.84337751
_cell_angle_gamma   86.27172578
_symmetry_Int_Tables_number   1
_chemical_formula_structural   Sb(OsCl6)5
_chemical_formula_sum   'Sb1 Os5 Cl30'
_cell_volume   1167.40964799
_cell_formula_units_Z   1
loop_
 _symmetry_equiv_pos_site_id
 _symmetry_equiv_pos_as_xyz
  1  'x, y, z'
loop_
 _atom_site_type_symbol
 _atom_site_label
 _atom_site_symmetry_multiplicity
 _atom_site_fract_x
 _atom_site_fract_y
 _atom_site_fract_z
 _atom_site_occupancy
  Sb  Sb0  1  0.773424  0.560502  0.524587  1
  Os  Os1  1  0.434098  0.232097  0.475234  1
  Os  Os2  1  0.231972  0.433980  0.475432  1
  Os  Os3  1  0.564448  0.769399  0.524467  1
  Os  Os4  1  0.101045  0.898981  0.000087  1
  Os  Os5  1  0.899053  0.101048  0.999986  1
  Cl  Cl6  1  0.666101  0.473725  0.747872  1
  Cl  Cl7  1  0.523353  0.330915  0.258125  1
  Cl  Cl8  1  0.331084  0.523461  0.258843  1
  Cl  Cl9  1  0.474914  0.670678  0.741244  1
  Cl  Cl10  1  0.799538  0.426754  0.299998  1
  Cl  Cl11  1  0.564163  0.202243  0.686421  1
  Cl  Cl12  1  0.952132  0.951924  0.206329  1
  Cl  Cl13  1  0.048056  0.048010  0.793900  1
  Cl  Cl14  1  0.768332  0.130162  0.218041  1
  Cl  Cl15  1  0.870094  0.231683  0.781655  1
  Cl  Cl16  1  0.231638  0.870005  0.781653  1
  Cl  Cl17  1  0.130065  0.768233  0.218578  1
  Cl  Cl18  1  0.810471  0.002493  0.797106  1
  Cl  Cl19  1  0.997606  0.189424  0.203180  1
  Cl  Cl20  1  0.189811  0.997341  0.203087  1
  Cl  Cl21  1  0.002606  0.810293  0.797320  1
  Cl  Cl22  1  0.710958  0.719406  0.727683  1
  Cl  Cl23  1  0.285686  0.285712  0.276204  1
  Cl  Cl24  1  0.534575  0.899847  0.735591  1
  Cl  Cl25  1  0.102085  0.463391  0.264107  1
  Cl  Cl26  1  0.463418  0.102078  0.264089  1
  Cl  Cl27  1  0.906947  0.534908  0.750161  1
  Cl  Cl28  1  0.663248  0.858826  0.307847  1
  Cl  Cl29  1  0.143160  0.334729  0.692234  1
  Cl  Cl30  1  0.335057  0.142695  0.691908  1
  Cl  Cl31  1  0.860060  0.667948  0.301296  1
  Cl  Cl32  1  0.614306  0.622918  0.321606  1
  Cl  Cl33  1  0.380580  0.380345  0.674263  1
  Cl  Cl34  1  0.433870  0.799845  0.313543  1
  Cl  Cl35  1  0.202044  0.564002  0.686320  1
