# generated using pymatgen
data_La6Y2SiPd24
_symmetry_space_group_name_H-M   'P 1'
_cell_length_a   8.48856632
_cell_length_b   8.48856632
_cell_length_c   8.48856632
_cell_angle_alpha   89.95478120
_cell_angle_beta   90.04521880
_cell_angle_gamma   90.04521880
_symmetry_Int_Tables_number   1
_chemical_formula_structural   La6Y2SiPd24
_chemical_formula_sum   'La6 Y2 Si1 Pd24'
_cell_volume   611.64951107
_cell_formula_units_Z   1
loop_
 _symmetry_equiv_pos_site_id
 _symmetry_equiv_pos_as_xyz
  1  'x, y, z'
loop_
 _atom_site_type_symbol
 _atom_site_label
 _atom_site_symmetry_multiplicity
 _atom_site_fract_x
 _atom_site_fract_y
 _atom_site_fract_z
 _atom_site_occupancy
  La  La0  1  0.254210  0.253645  0.253645  1
  La  La1  1  0.745790  0.746355  0.746355  1
  La  La2  1  0.746355  0.745790  0.253645  1
  La  La3  1  0.746355  0.253645  0.745790  1
  La  La4  1  0.253645  0.254210  0.746355  1
  La  La5  1  0.253645  0.746355  0.254210  1
  Y  Y6  1  0.253244  0.746756  0.746756  1
  Y  Y7  1  0.746756  0.253244  0.253244  1
  Si  Si8  1  0.000000  0.000000  0.000000  1
  Pd  Pd9  1  0.257221  0.501865  0.997700  1
  Pd  Pd10  1  0.742779  0.498135  0.002300  1
  Pd  Pd11  1  0.997700  0.257221  0.498135  1
  Pd  Pd12  1  0.501865  0.257221  0.002300  1
  Pd  Pd13  1  0.002300  0.742779  0.501865  1
  Pd  Pd14  1  0.498135  0.742779  0.997700  1
  Pd  Pd15  1  0.501865  0.002300  0.257221  1
  Pd  Pd16  1  0.257221  0.997700  0.501865  1
  Pd  Pd17  1  0.498135  0.997700  0.742779  1
  Pd  Pd18  1  0.742779  0.002300  0.498135  1
  Pd  Pd19  1  0.997700  0.498135  0.257221  1
  Pd  Pd20  1  0.002300  0.501865  0.742779  1
  Pd  Pd21  1  0.252245  0.502174  0.502174  1
  Pd  Pd22  1  0.747755  0.497826  0.497826  1
  Pd  Pd23  1  0.502174  0.252245  0.497826  1
  Pd  Pd24  1  0.497826  0.747755  0.502174  1
  Pd  Pd25  1  0.502174  0.497826  0.252245  1
  Pd  Pd26  1  0.497826  0.502174  0.747755  1
  Pd  Pd27  1  0.280727  0.997547  0.997547  1
  Pd  Pd28  1  0.719273  0.002453  0.002453  1
  Pd  Pd29  1  0.997547  0.280727  0.002453  1
  Pd  Pd30  1  0.002453  0.719273  0.997547  1
  Pd  Pd31  1  0.997547  0.002453  0.280727  1
  Pd  Pd32  1  0.002453  0.997547  0.719273  1
