# generated using pymatgen
data_CaPrAl20(FeRh)2
_symmetry_space_group_name_H-M   'P 1'
_cell_length_a   6.84084386
_cell_length_b   6.84084438
_cell_length_c   9.12483042
_cell_angle_alpha   90.10056972
_cell_angle_beta   90.10056539
_cell_angle_gamma   97.13638697
_symmetry_Int_Tables_number   1
_chemical_formula_structural   CaPrAl20(FeRh)2
_chemical_formula_sum   'Ca1 Pr1 Al20 Fe2 Rh2'
_cell_volume   423.70656176
_cell_formula_units_Z   1
loop_
 _symmetry_equiv_pos_site_id
 _symmetry_equiv_pos_as_xyz
  1  'x, y, z'
loop_
 _atom_site_type_symbol
 _atom_site_label
 _atom_site_symmetry_multiplicity
 _atom_site_fract_x
 _atom_site_fract_y
 _atom_site_fract_z
 _atom_site_occupancy
  Ca  Ca0  1  0.875900  0.124100  0.750000  1
  Pr  Pr1  1  0.123062  0.876938  0.250000  1
  Al  Al2  1  0.619943  0.373015  0.549693  1
  Al  Al3  1  0.381281  0.625484  0.449232  1
  Al  Al4  1  0.374516  0.618719  0.050768  1
  Al  Al5  1  0.626985  0.380057  0.950307  1
  Al  Al6  1  0.230436  0.224579  0.497849  1
  Al  Al7  1  0.768746  0.777435  0.504240  1
  Al  Al8  1  0.775421  0.769564  0.002151  1
  Al  Al9  1  0.222565  0.231254  0.995760  1
  Al  Al10  1  0.845078  0.163805  0.099504  1
  Al  Al11  1  0.155360  0.835406  0.898996  1
  Al  Al12  1  0.164594  0.844640  0.601004  1
  Al  Al13  1  0.836195  0.154922  0.400496  1
  Al  Al14  1  0.861218  0.586708  0.753749  1
  Al  Al15  1  0.137321  0.410730  0.246291  1
  Al  Al16  1  0.413292  0.138782  0.746251  1
  Al  Al17  1  0.589270  0.862679  0.253709  1
  Al  Al18  1  0.221787  0.478358  0.754841  1
  Al  Al19  1  0.776378  0.518215  0.244953  1
  Al  Al20  1  0.521642  0.778213  0.745159  1
  Al  Al21  1  0.481785  0.223622  0.255047  1
  Fe  Fe22  1  0.000056  0.501606  0.999943  1
  Fe  Fe23  1  0.498394  0.999944  0.500057  1
  Rh  Rh24  1  0.999861  0.501089  0.500471  1
  Rh  Rh25  1  0.498911  0.000139  0.999529  1
