# generated using pymatgen
data_Nd8Cu2Si12IrPd
_symmetry_space_group_name_H-M   'P 1'
_cell_length_a   8.18584400
_cell_length_b   8.18584499
_cell_length_c   8.51609800
_cell_angle_alpha   90.00000000
_cell_angle_beta   90.00000000
_cell_angle_gamma   119.99999599
_symmetry_Int_Tables_number   1
_chemical_formula_structural   Nd8Cu2Si12IrPd
_chemical_formula_sum   'Nd8 Cu2 Si12 Ir1 Pd1'
_cell_volume   494.19492376
_cell_formula_units_Z   1
loop_
 _symmetry_equiv_pos_site_id
 _symmetry_equiv_pos_as_xyz
  1  'x, y, z'
loop_
 _atom_site_type_symbol
 _atom_site_label
 _atom_site_symmetry_multiplicity
 _atom_site_fract_x
 _atom_site_fract_y
 _atom_site_fract_z
 _atom_site_occupancy
  Nd  Nd0  1  0.501701  0.498299  0.752531  1
  Nd  Nd1  1  0.501704  0.498296  0.247473  1
  Nd  Nd2  1  0.996598  0.498299  0.752531  1
  Nd  Nd3  1  0.996591  0.498296  0.247473  1
  Nd  Nd4  1  0.501701  0.003402  0.752531  1
  Nd  Nd5  1  0.501704  0.003409  0.247473  1
  Nd  Nd6  1  0.000000  0.000000  0.749448  1
  Nd  Nd7  1  0.000000  0.000000  0.250502  1
  Cu  Cu8  1  0.333333  0.666667  0.500405  1
  Cu  Cu9  1  0.666667  0.333333  0.499815  1
  Si  Si10  1  0.832758  0.167242  0.000052  1
  Si  Si11  1  0.165213  0.834787  0.999984  1
  Si  Si12  1  0.334486  0.167242  0.000052  1
  Si  Si13  1  0.168751  0.831249  0.500182  1
  Si  Si14  1  0.669574  0.834787  0.999984  1
  Si  Si15  1  0.831437  0.168563  0.499727  1
  Si  Si16  1  0.832758  0.665514  0.000052  1
  Si  Si17  1  0.662499  0.831249  0.500182  1
  Si  Si18  1  0.165213  0.330426  0.999984  1
  Si  Si19  1  0.337125  0.168563  0.499727  1
  Si  Si20  1  0.168751  0.337501  0.500182  1
  Si  Si21  1  0.831437  0.662875  0.499727  1
  Ir  Ir22  1  0.666667  0.333333  0.999611  1
  Pd  Pd23  1  0.333333  0.666667  0.000371  1
