# generated using pymatgen
data_Er3TmGe3Sb3Rh7
_symmetry_space_group_name_H-M   'P 1'
_cell_length_a   7.40383996
_cell_length_b   7.40383944
_cell_length_c   7.44817900
_cell_angle_alpha   109.59258596
_cell_angle_beta   109.59258451
_cell_angle_gamma   109.34959372
_symmetry_Int_Tables_number   1
_chemical_formula_structural   Er3TmGe3Sb3Rh7
_chemical_formula_sum   'Er3 Tm1 Ge3 Sb3 Rh7'
_cell_volume   313.82641508
_cell_formula_units_Z   1
loop_
 _symmetry_equiv_pos_site_id
 _symmetry_equiv_pos_as_xyz
  1  'x, y, z'
loop_
 _atom_site_type_symbol
 _atom_site_label
 _atom_site_symmetry_multiplicity
 _atom_site_fract_x
 _atom_site_fract_y
 _atom_site_fract_z
 _atom_site_occupancy
  Er  Er0  1  0.000000  0.478851  0.987699  1
  Er  Er1  1  0.478851  0.000000  0.987699  1
  Er  Er2  1  0.521149  0.521149  0.508848  1
  Tm  Tm3  1  0.000000  0.000000  0.545906  1
  Ge  Ge4  1  0.332691  0.332691  0.005826  1
  Ge  Ge5  1  0.667309  0.000000  0.673136  1
  Ge  Ge6  1  0.000000  0.667309  0.673136  1
  Sb  Sb7  1  0.697148  0.697148  0.009580  1
  Sb  Sb8  1  0.302852  0.000000  0.312432  1
  Sb  Sb9  1  0.000000  0.302852  0.312432  1
  Rh  Rh10  1  0.749527  0.249137  0.503094  1
  Rh  Rh11  1  0.750863  0.500391  0.253957  1
  Rh  Rh12  1  0.499609  0.250473  0.753567  1
  Rh  Rh13  1  0.250473  0.499609  0.753567  1
  Rh  Rh14  1  0.249137  0.749527  0.503094  1
  Rh  Rh15  1  0.500391  0.750863  0.253957  1
  Rh  Rh16  1  0.000000  0.000000  0.962067  1
