# generated using pymatgen
data_Ho2Fe3Ni6P7W3
_symmetry_space_group_name_H-M   'P 1'
_cell_length_a   9.13632600
_cell_length_b   9.13632601
_cell_length_c   3.73122500
_cell_angle_alpha   90.00000000
_cell_angle_beta   90.00000000
_cell_angle_gamma   120.00000527
_symmetry_Int_Tables_number   1
_chemical_formula_structural   Ho2Fe3Ni6P7W3
_chemical_formula_sum   'Ho2 Fe3 Ni6 P7 W3'
_cell_volume   269.72749730
_cell_formula_units_Z   1
loop_
 _symmetry_equiv_pos_site_id
 _symmetry_equiv_pos_as_xyz
  1  'x, y, z'
loop_
 _atom_site_type_symbol
 _atom_site_label
 _atom_site_symmetry_multiplicity
 _atom_site_fract_x
 _atom_site_fract_y
 _atom_site_fract_z
 _atom_site_occupancy
  Ho  Ho0  1  0.000000  0.000000  0.000000  1
  Ho  Ho1  1  0.333333  0.666667  0.500000  1
  Fe  Fe2  1  0.789647  0.178867  0.000000  1
  Fe  Fe3  1  0.389220  0.210353  0.000000  1
  Fe  Fe4  1  0.821133  0.610780  0.000000  1
  Ni  Ni5  1  0.297384  0.899915  0.000000  1
  Ni  Ni6  1  0.602531  0.702616  0.000000  1
  Ni  Ni7  1  0.100085  0.397469  0.000000  1
  Ni  Ni8  1  0.722489  0.946572  0.500000  1
  Ni  Ni9  1  0.224084  0.277511  0.500000  1
  Ni  Ni10  1  0.053428  0.775916  0.500000  1
  P  P11  1  0.556825  0.923111  0.000000  1
  P  P12  1  0.366287  0.443175  0.000000  1
  P  P13  1  0.076889  0.633713  0.000000  1
  P  P14  1  0.951613  0.211486  0.500000  1
  P  P15  1  0.259874  0.048387  0.500000  1
  P  P16  1  0.788514  0.740126  0.500000  1
  P  P17  1  0.666667  0.333333  0.000000  1
  W  W18  1  0.547187  0.112420  0.500000  1
  W  W19  1  0.565234  0.452813  0.500000  1
  W  W20  1  0.887580  0.434766  0.500000  1
