# generated using pymatgen
data_Ho16Sc4Si15Ge
_symmetry_space_group_name_H-M   'P 1'
_cell_length_a   7.26485994
_cell_length_b   7.60226785
_cell_length_c   14.36473650
_cell_angle_alpha   90.02611979
_cell_angle_beta   89.83354781
_cell_angle_gamma   90.01380058
_symmetry_Int_Tables_number   1
_chemical_formula_structural   Ho16Sc4Si15Ge
_chemical_formula_sum   'Ho16 Sc4 Si15 Ge1'
_cell_volume   793.35248576
_cell_formula_units_Z   1
loop_
 _symmetry_equiv_pos_site_id
 _symmetry_equiv_pos_as_xyz
  1  'x, y, z'
loop_
 _atom_site_type_symbol
 _atom_site_label
 _atom_site_symmetry_multiplicity
 _atom_site_fract_x
 _atom_site_fract_y
 _atom_site_fract_z
 _atom_site_occupancy
  Ho  Ho0  1  0.976545  0.817675  0.099075  1
  Ho  Ho1  1  0.475180  0.683192  0.401612  1
  Ho  Ho2  1  0.521463  0.315501  0.901306  1
  Ho  Ho3  1  0.024930  0.183065  0.598081  1
  Ho  Ho4  1  0.025215  0.182188  0.901552  1
  Ho  Ho5  1  0.524665  0.316638  0.598139  1
  Ho  Ho6  1  0.475713  0.683912  0.098904  1
  Ho  Ho7  1  0.974963  0.816452  0.401720  1
  Ho  Ho8  1  0.679860  0.825240  0.873962  1
  Ho  Ho9  1  0.181936  0.677380  0.624873  1
  Ho  Ho10  1  0.820253  0.321592  0.125542  1
  Ho  Ho11  1  0.318672  0.177593  0.375093  1
  Ho  Ho12  1  0.319145  0.176650  0.125666  1
  Ho  Ho13  1  0.818312  0.322669  0.375026  1
  Ho  Ho14  1  0.181877  0.677347  0.875118  1
  Ho  Ho15  1  0.681702  0.822782  0.624851  1
  Sc  Sc16  1  0.649849  0.986053  0.250225  1
  Sc  Sc17  1  0.150081  0.513794  0.250098  1
  Sc  Sc18  1  0.850072  0.486249  0.748374  1
  Sc  Sc19  1  0.350108  0.013798  0.749593  1
  Si  Si20  1  0.772498  0.634721  0.250018  1
  Si  Si21  1  0.272360  0.865129  0.250432  1
  Si  Si22  1  0.727964  0.135455  0.749687  1
  Si  Si23  1  0.227192  0.365319  0.749976  1
  Si  Si24  1  0.014972  0.095496  0.250543  1
  Si  Si25  1  0.515482  0.403935  0.250095  1
  Si  Si26  1  0.484957  0.595859  0.749884  1
  Si  Si27  1  0.985069  0.903642  0.749909  1
  Si  Si28  1  0.351641  0.972040  0.541171  1
  Si  Si29  1  0.649398  0.028000  0.041177  1
  Si  Si30  1  0.148457  0.472226  0.458598  1
  Si  Si31  1  0.153955  0.471398  0.042223  1
  Si  Si32  1  0.648469  0.027831  0.458553  1
  Si  Si33  1  0.350672  0.971624  0.959312  1
  Si  Si34  1  0.851663  0.527824  0.541153  1
  Ge  Ge35  1  0.844714  0.529733  0.958458  1
