# generated using pymatgen
data_CaLu2Ga9Pd2
_symmetry_space_group_name_H-M   'P 1'
_cell_length_a   8.14002862
_cell_length_b   8.14002866
_cell_length_c   8.14002955
_cell_angle_alpha   149.25516900
_cell_angle_beta   108.94454626
_cell_angle_gamma   79.39102384
_symmetry_Int_Tables_number   1
_chemical_formula_structural   CaLu2Ga9Pd2
_chemical_formula_sum   'Ca1 Lu2 Ga9 Pd2'
_cell_volume   255.71903048
_cell_formula_units_Z   1
loop_
 _symmetry_equiv_pos_site_id
 _symmetry_equiv_pos_as_xyz
  1  'x, y, z'
loop_
 _atom_site_type_symbol
 _atom_site_label
 _atom_site_symmetry_multiplicity
 _atom_site_fract_x
 _atom_site_fract_y
 _atom_site_fract_z
 _atom_site_occupancy
  Ca  Ca0  1  0.500000  0.500000  0.000000  1
  Lu  Lu1  1  0.200295  0.200295  0.000000  1
  Lu  Lu2  1  0.799705  0.799705  0.000000  1
  Ga  Ga3  1  0.643209  0.358778  0.284431  1
  Ga  Ga4  1  0.356791  0.641222  0.715569  1
  Ga  Ga5  1  0.074346  0.358778  0.715569  1
  Ga  Ga6  1  0.925654  0.641222  0.284431  1
  Ga  Ga7  1  0.522977  0.157311  0.365665  1
  Ga  Ga8  1  0.477023  0.842689  0.634335  1
  Ga  Ga9  1  0.791646  0.157311  0.634335  1
  Ga  Ga10  1  0.208354  0.842689  0.365665  1
  Ga  Ga11  1  0.000000  0.500000  0.500000  1
  Pd  Pd12  1  0.177993  0.000000  0.177993  1
  Pd  Pd13  1  0.822007  0.000000  0.822007  1
