# generated using pymatgen
data_Sm4BeB15Ru14
_symmetry_space_group_name_H-M   'P 1'
_cell_length_a   6.46161201
_cell_length_b   6.48639701
_cell_length_c   10.06245200
_cell_angle_alpha   90.00000000
_cell_angle_beta   90.00000000
_cell_angle_gamma   89.99287553
_symmetry_Int_Tables_number   1
_chemical_formula_structural   Sm4BeB15Ru14
_chemical_formula_sum   'Sm4 Be1 B15 Ru14'
_cell_volume   421.74332978
_cell_formula_units_Z   1
loop_
 _symmetry_equiv_pos_site_id
 _symmetry_equiv_pos_as_xyz
  1  'x, y, z'
loop_
 _atom_site_type_symbol
 _atom_site_label
 _atom_site_symmetry_multiplicity
 _atom_site_fract_x
 _atom_site_fract_y
 _atom_site_fract_z
 _atom_site_occupancy
  Sm  Sm0  1  0.733754  0.875182  0.000985  1
  Sm  Sm1  1  0.128976  0.735303  0.498185  1
  Sm  Sm2  1  0.871024  0.264697  0.498185  1
  Sm  Sm3  1  0.266246  0.124818  0.000985  1
  Be  Be4  1  0.500000  0.500000  0.349896  1
  B  B5  1  0.500000  0.000000  0.589359  1
  B  B6  1  0.500000  0.000000  0.410486  1
  B  B7  1  0.896742  0.275975  0.169847  1
  B  B8  1  0.101922  0.724934  0.831518  1
  B  B9  1  0.500000  0.500000  0.840411  1
  B  B10  1  0.273250  0.099314  0.670797  1
  B  B11  1  0.103258  0.724025  0.169847  1
  B  B12  1  0.276355  0.103710  0.328961  1
  B  B13  1  0.898078  0.275066  0.831518  1
  B  B14  1  0.500000  0.500000  0.655532  1
  B  B15  1  0.500000  0.500000  0.158296  1
  B  B16  1  0.000000  0.500000  0.910791  1
  B  B17  1  0.726750  0.900686  0.670797  1
  B  B18  1  0.723645  0.896290  0.328961  1
  B  B19  1  0.000000  0.500000  0.087538  1
  Ru  Ru20  1  0.204374  0.398580  0.753079  1
  Ru  Ru21  1  0.387354  0.277428  0.504353  1
  Ru  Ru22  1  0.399900  0.798593  0.249331  1
  Ru  Ru23  1  0.201746  0.397203  0.244047  1
  Ru  Ru24  1  0.612646  0.722572  0.504353  1
  Ru  Ru25  1  0.600853  0.204198  0.748117  1
  Ru  Ru26  1  0.286830  0.600395  0.999156  1
  Ru  Ru27  1  0.713170  0.399605  0.999156  1
  Ru  Ru28  1  0.798254  0.602797  0.244047  1
  Ru  Ru29  1  0.795626  0.601420  0.753079  1
  Ru  Ru30  1  0.399147  0.795802  0.748117  1
  Ru  Ru31  1  0.000000  0.000000  0.248579  1
  Ru  Ru32  1  0.600100  0.201407  0.249331  1
  Ru  Ru33  1  0.000000  0.000000  0.752360  1
