# generated using pymatgen
data_Tb2LuAl12RuRh3
_symmetry_space_group_name_H-M   'P 1'
_cell_length_a   8.80249700
_cell_length_b   8.81650890
_cell_length_c   9.52452600
_cell_angle_alpha   90.00000000
_cell_angle_beta   90.00000000
_cell_angle_gamma   119.94744469
_symmetry_Int_Tables_number   1
_chemical_formula_structural   Tb2LuAl12RuRh3
_chemical_formula_sum   'Tb4 Lu2 Al24 Ru2 Rh6'
_cell_volume   640.48105866
_cell_formula_units_Z   2
loop_
 _symmetry_equiv_pos_site_id
 _symmetry_equiv_pos_as_xyz
  1  'x, y, z'
loop_
 _atom_site_type_symbol
 _atom_site_label
 _atom_site_symmetry_multiplicity
 _atom_site_fract_x
 _atom_site_fract_y
 _atom_site_fract_z
 _atom_site_occupancy
  Tb  Tb0  1  0.808418  0.616835  0.250000  1
  Tb  Tb1  1  0.617135  0.808813  0.750000  1
  Tb  Tb2  1  0.191677  0.808813  0.750000  1
  Tb  Tb3  1  0.190933  0.381867  0.750000  1
  Lu  Lu4  1  0.388687  0.193443  0.250000  1
  Lu  Lu5  1  0.804758  0.193443  0.250000  1
  Al  Al6  1  0.438562  0.877124  0.250000  1
  Al  Al7  1  0.124246  0.560971  0.250000  1
  Al  Al8  1  0.436725  0.560971  0.250000  1
  Al  Al9  1  0.562438  0.124877  0.750000  1
  Al  Al10  1  0.874723  0.437183  0.750000  1
  Al  Al11  1  0.562460  0.437183  0.750000  1
  Al  Al12  1  0.163772  0.837103  0.422001  1
  Al  Al13  1  0.162911  0.325824  0.421867  1
  Al  Al14  1  0.673330  0.837103  0.422001  1
  Al  Al15  1  0.836690  0.164092  0.574953  1
  Al  Al16  1  0.836144  0.672286  0.575678  1
  Al  Al17  1  0.327404  0.164092  0.574953  1
  Al  Al18  1  0.836690  0.164092  0.925047  1
  Al  Al19  1  0.836144  0.672286  0.924322  1
  Al  Al20  1  0.327404  0.164092  0.925047  1
  Al  Al21  1  0.163772  0.837103  0.077999  1
  Al  Al22  1  0.162911  0.325824  0.078133  1
  Al  Al23  1  0.673330  0.837103  0.077999  1
  Al  Al24  1  0.333237  0.666475  0.527835  1
  Al  Al25  1  0.666199  0.332396  0.468562  1
  Al  Al26  1  0.666199  0.332396  0.031438  1
  Al  Al27  1  0.333237  0.666475  0.972165  1
  Al  Al28  1  0.001607  0.003213  0.250000  1
  Al  Al29  1  0.000075  0.000150  0.750000  1
  Ru  Ru30  1  0.999856  0.999713  0.500020  1
  Ru  Ru31  1  0.999856  0.999713  0.999980  1
  Rh  Rh32  1  0.500440  0.000881  0.498606  1
  Rh  Rh33  1  0.999026  0.498795  0.499129  1
  Rh  Rh34  1  0.499768  0.498795  0.499129  1
  Rh  Rh35  1  0.500440  0.000881  0.001394  1
  Rh  Rh36  1  0.999026  0.498795  0.000871  1
  Rh  Rh37  1  0.499768  0.498795  0.000871  1
