# generated using pymatgen
data_AgSb(S2O7)2
_symmetry_space_group_name_H-M   'P 1'
_cell_length_a   5.35759268
_cell_length_b   7.11839425
_cell_length_c   9.35328500
_cell_angle_alpha   91.40818926
_cell_angle_beta   96.22321938
_cell_angle_gamma   106.35079997
_symmetry_Int_Tables_number   1
_chemical_formula_structural   AgSb(S2O7)2
_chemical_formula_sum   'Ag1 Sb1 S4 O14'
_cell_volume   339.69872002
_cell_formula_units_Z   1
loop_
 _symmetry_equiv_pos_site_id
 _symmetry_equiv_pos_as_xyz
  1  'x, y, z'
loop_
 _atom_site_type_symbol
 _atom_site_label
 _atom_site_symmetry_multiplicity
 _atom_site_fract_x
 _atom_site_fract_y
 _atom_site_fract_z
 _atom_site_occupancy
  Ag  Ag0  1  0.000000  0.500000  0.000000  1
  Sb  Sb1  1  0.500000  0.000000  0.500000  1
  S  S2  1  0.481384  0.643805  0.765014  1
  S  S3  1  0.518616  0.356195  0.234986  1
  S  S4  1  0.133512  0.250803  0.687161  1
  S  S5  1  0.866488  0.749197  0.312839  1
  O  O6  1  0.660514  0.540786  0.824795  1
  O  O7  1  0.339486  0.459214  0.175205  1
  O  O8  1  0.330788  0.717710  0.859185  1
  O  O9  1  0.669212  0.282290  0.140815  1
  O  O10  1  0.595352  0.784234  0.657970  1
  O  O11  1  0.404648  0.215766  0.342030  1
  O  O12  1  0.255500  0.475566  0.646964  1
  O  O13  1  0.744500  0.524434  0.353036  1
  O  O14  1  0.919596  0.188347  0.566298  1
  O  O15  1  0.080404  0.811653  0.433702  1
  O  O16  1  0.338789  0.150960  0.673003  1
  O  O17  1  0.661211  0.849040  0.326997  1
  O  O18  1  0.054561  0.244252  0.829402  1
  O  O19  1  0.945439  0.755748  0.170598  1
