# generated using pymatgen
data_Nd5Ho11Cd2Hg2(IrPt)2
_symmetry_space_group_name_H-M   'P 1'
_cell_length_a   9.69106525
_cell_length_b   9.70224057
_cell_length_c   9.67587533
_cell_angle_alpha   60.25858013
_cell_angle_beta   59.96169906
_cell_angle_gamma   60.30701101
_symmetry_Int_Tables_number   1
_chemical_formula_structural   Nd5Ho11Cd2Hg2(IrPt)2
_chemical_formula_sum   'Nd5 Ho11 Cd2 Hg2 Ir2 Pt2'
_cell_volume   645.85487790
_cell_formula_units_Z   1
loop_
 _symmetry_equiv_pos_site_id
 _symmetry_equiv_pos_as_xyz
  1  'x, y, z'
loop_
 _atom_site_type_symbol
 _atom_site_label
 _atom_site_symmetry_multiplicity
 _atom_site_fract_x
 _atom_site_fract_y
 _atom_site_fract_z
 _atom_site_occupancy
  Nd  Nd0  1  0.557848  0.942446  0.941860  1
  Nd  Nd1  1  0.565201  0.939380  0.559483  1
  Nd  Nd2  1  0.941349  0.558994  0.937000  1
  Nd  Nd3  1  0.562899  0.559633  0.939040  1
  Nd  Nd4  1  0.940131  0.937373  0.558959  1
  Ho  Ho5  1  0.350015  0.348174  0.346358  1
  Ho  Ho6  1  0.349632  0.353646  0.952721  1
  Ho  Ho7  1  0.357628  0.941082  0.354585  1
  Ho  Ho8  1  0.941953  0.357441  0.351290  1
  Ho  Ho9  1  0.808683  0.188992  0.186103  1
  Ho  Ho10  1  0.185543  0.809232  0.816086  1
  Ho  Ho11  1  0.187119  0.808555  0.189653  1
  Ho  Ho12  1  0.808651  0.187603  0.814192  1
  Ho  Ho13  1  0.185201  0.190358  0.812254  1
  Ho  Ho14  1  0.812904  0.812530  0.184439  1
  Ho  Ho15  1  0.943272  0.558436  0.555088  1
  Cd  Cd16  1  0.577606  0.263146  0.579441  1
  Cd  Cd17  1  0.260090  0.578402  0.578907  1
  Hg  Hg18  1  0.587325  0.581869  0.583133  1
  Hg  Hg19  1  0.581880  0.583439  0.250122  1
  Ir  Ir20  1  0.138732  0.573465  0.147667  1
  Ir  Ir21  1  0.573106  0.140276  0.143122  1
  Pt  Pt22  1  0.142729  0.142013  0.146363  1
  Pt  Pt23  1  0.140502  0.143513  0.572132  1
