# generated using pymatgen
data_TbEr3(Al3Ir)6
_symmetry_space_group_name_H-M   'P 1'
_cell_length_a   7.54758442
_cell_length_b   7.54556354
_cell_length_c   9.46014000
_cell_angle_alpha   90.00000000
_cell_angle_beta   90.00000000
_cell_angle_gamma   119.55267702
_symmetry_Int_Tables_number   1
_chemical_formula_structural   TbEr3(Al3Ir)6
_chemical_formula_sum   'Tb1 Er3 Al18 Ir6'
_cell_volume   468.67075283
_cell_formula_units_Z   1
loop_
 _symmetry_equiv_pos_site_id
 _symmetry_equiv_pos_as_xyz
  1  'x, y, z'
loop_
 _atom_site_type_symbol
 _atom_site_label
 _atom_site_symmetry_multiplicity
 _atom_site_fract_x
 _atom_site_fract_y
 _atom_site_fract_z
 _atom_site_occupancy
  Tb  Tb0  1  0.329182  0.005340  0.750000  1
  Er  Er1  1  0.994585  0.670713  0.250000  1
  Er  Er2  1  0.005112  0.329415  0.750000  1
  Er  Er3  1  0.670726  0.994633  0.250000  1
  Al  Al4  1  0.127934  0.128060  0.250000  1
  Al  Al5  1  0.871211  0.871736  0.750000  1
  Al  Al6  1  0.000631  0.334845  0.074116  1
  Al  Al7  1  0.998850  0.664574  0.926497  1
  Al  Al8  1  0.998850  0.664574  0.573503  1
  Al  Al9  1  0.334879  0.000616  0.425211  1
  Al  Al10  1  0.000631  0.334845  0.425884  1
  Al  Al11  1  0.665763  0.999394  0.573452  1
  Al  Al12  1  0.665763  0.999394  0.926548  1
  Al  Al13  1  0.334879  0.000616  0.074789  1
  Al  Al14  1  0.333172  0.333671  0.552009  1
  Al  Al15  1  0.666795  0.666801  0.447153  1
  Al  Al16  1  0.666795  0.666801  0.052847  1
  Al  Al17  1  0.333172  0.333671  0.947991  1
  Al  Al18  1  0.339087  0.548273  0.250000  1
  Al  Al19  1  0.661679  0.452532  0.750000  1
  Al  Al20  1  0.548477  0.339265  0.250000  1
  Al  Al21  1  0.451790  0.660286  0.750000  1
  Ir  Ir22  1  0.672475  0.328096  0.000342  1
  Ir  Ir23  1  0.327925  0.672052  0.000278  1
  Ir  Ir24  1  0.327925  0.672052  0.499722  1
  Ir  Ir25  1  0.672475  0.328096  0.499658  1
  Ir  Ir26  1  0.999618  0.999824  0.000369  1
  Ir  Ir27  1  0.999618  0.999824  0.499631  1
