# generated using pymatgen
data_Sc5InNi2(BIr2)4
_symmetry_space_group_name_H-M   'P 1'
_cell_length_a   3.13967900
_cell_length_b   9.39100800
_cell_length_c   9.39100800
_cell_angle_alpha   90.00000000
_cell_angle_beta   90.00000000
_cell_angle_gamma   90.00000000
_symmetry_Int_Tables_number   1
_chemical_formula_structural   Sc5InNi2(BIr2)4
_chemical_formula_sum   'Sc5 In1 Ni2 B4 Ir8'
_cell_volume   276.89152882
_cell_formula_units_Z   1
loop_
 _symmetry_equiv_pos_site_id
 _symmetry_equiv_pos_as_xyz
  1  'x, y, z'
loop_
 _atom_site_type_symbol
 _atom_site_label
 _atom_site_symmetry_multiplicity
 _atom_site_fract_x
 _atom_site_fract_y
 _atom_site_fract_z
 _atom_site_occupancy
  Sc  Sc0  1  0.000000  0.178257  0.678622  1
  Sc  Sc1  1  0.000000  0.821743  0.321378  1
  Sc  Sc2  1  0.000000  0.321378  0.178257  1
  Sc  Sc3  1  0.000000  0.678622  0.821743  1
  Sc  Sc4  1  0.000000  0.500000  0.500000  1
  In  In5  1  0.000000  0.000000  0.000000  1
  Ni  Ni6  1  0.500000  0.000000  0.500000  1
  Ni  Ni7  1  0.500000  0.500000  0.000000  1
  B  B8  1  0.000000  0.610764  0.109717  1
  B  B9  1  0.000000  0.389236  0.890283  1
  B  B10  1  0.000000  0.890283  0.610764  1
  B  B11  1  0.000000  0.109717  0.389236  1
  Ir  Ir12  1  0.500000  0.064529  0.231771  1
  Ir  Ir13  1  0.500000  0.935471  0.768229  1
  Ir  Ir14  1  0.500000  0.768229  0.064529  1
  Ir  Ir15  1  0.500000  0.437762  0.729306  1
  Ir  Ir16  1  0.500000  0.231771  0.935471  1
  Ir  Ir17  1  0.500000  0.562238  0.270694  1
  Ir  Ir18  1  0.500000  0.729306  0.562238  1
  Ir  Ir19  1  0.500000  0.270694  0.437762  1
