# generated using pymatgen
data_TbY5Al24(CoRu3)2
_symmetry_space_group_name_H-M   'P 1'
_cell_length_a   8.76709500
_cell_length_b   8.76405952
_cell_length_c   9.53354700
_cell_angle_alpha   90.00000000
_cell_angle_beta   90.00000000
_cell_angle_gamma   120.01145424
_symmetry_Int_Tables_number   1
_chemical_formula_structural   TbY5Al24(CoRu3)2
_chemical_formula_sum   'Tb1 Y5 Al24 Co2 Ru6'
_cell_volume   634.30193515
_cell_formula_units_Z   1
loop_
 _symmetry_equiv_pos_site_id
 _symmetry_equiv_pos_as_xyz
  1  'x, y, z'
loop_
 _atom_site_type_symbol
 _atom_site_label
 _atom_site_symmetry_multiplicity
 _atom_site_fract_x
 _atom_site_fract_y
 _atom_site_fract_z
 _atom_site_occupancy
  Tb  Tb0  1  0.193001  0.386001  0.750000  1
  Y  Y1  1  0.386844  0.193534  0.250000  1
  Y  Y2  1  0.806690  0.193534  0.250000  1
  Y  Y3  1  0.806535  0.613069  0.250000  1
  Y  Y4  1  0.613401  0.806744  0.750000  1
  Y  Y5  1  0.193343  0.806744  0.750000  1
  Al  Al6  1  0.438678  0.877355  0.250000  1
  Al  Al7  1  0.122734  0.561384  0.250000  1
  Al  Al8  1  0.438650  0.561384  0.250000  1
  Al  Al9  1  0.561315  0.122631  0.750000  1
  Al  Al10  1  0.877191  0.438679  0.750000  1
  Al  Al11  1  0.561488  0.438679  0.750000  1
  Al  Al12  1  0.159824  0.840236  0.423655  1
  Al  Al13  1  0.159804  0.319609  0.423642  1
  Al  Al14  1  0.680411  0.840236  0.423655  1
  Al  Al15  1  0.840058  0.159738  0.576455  1
  Al  Al16  1  0.840214  0.680426  0.576500  1
  Al  Al17  1  0.319682  0.159738  0.576455  1
  Al  Al18  1  0.840058  0.159738  0.923545  1
  Al  Al19  1  0.840214  0.680426  0.923500  1
  Al  Al20  1  0.319682  0.159738  0.923545  1
  Al  Al21  1  0.159824  0.840236  0.076345  1
  Al  Al22  1  0.159804  0.319609  0.076358  1
  Al  Al23  1  0.680411  0.840236  0.076345  1
  Al  Al24  1  0.333352  0.666705  0.514696  1
  Al  Al25  1  0.666638  0.333275  0.485339  1
  Al  Al26  1  0.666638  0.333275  0.014661  1
  Al  Al27  1  0.333352  0.666705  0.985304  1
  Al  Al28  1  0.000008  0.000015  0.250000  1
  Al  Al29  1  0.999973  0.999947  0.750000  1
  Co  Co30  1  0.000064  0.000127  0.499858  1
  Co  Co31  1  0.000064  0.000127  0.000142  1
  Ru  Ru32  1  0.500002  0.000004  0.499955  1
  Ru  Ru33  1  0.999902  0.500027  0.499858  1
  Ru  Ru34  1  0.500126  0.500027  0.499858  1
  Ru  Ru35  1  0.500002  0.000004  0.000045  1
  Ru  Ru36  1  0.999902  0.500027  0.000142  1
  Ru  Ru37  1  0.500126  0.500027  0.000142  1
