# generated using pymatgen
data_Hf4Ti2Ga2P
_symmetry_space_group_name_H-M   'P 1'
_cell_length_a   7.18605261
_cell_length_b   7.21725496
_cell_length_c   3.65344900
_cell_angle_alpha   90.00000000
_cell_angle_beta   90.00000000
_cell_angle_gamma   120.14371930
_symmetry_Int_Tables_number   1
_chemical_formula_structural   Hf4Ti2Ga2P
_chemical_formula_sum   'Hf4 Ti2 Ga2 P1'
_cell_volume   163.85713150
_cell_formula_units_Z   1
loop_
 _symmetry_equiv_pos_site_id
 _symmetry_equiv_pos_as_xyz
  1  'x, y, z'
loop_
 _atom_site_type_symbol
 _atom_site_label
 _atom_site_symmetry_multiplicity
 _atom_site_fract_x
 _atom_site_fract_y
 _atom_site_fract_z
 _atom_site_occupancy
  Hf  Hf0  1  0.000000  0.248553  0.500000  1
  Hf  Hf1  1  0.601748  0.996824  0.000000  1
  Hf  Hf2  1  0.398252  0.395076  0.000000  1
  Hf  Hf3  1  0.000000  0.610620  0.000000  1
  Ti  Ti4  1  0.246659  0.999100  0.500000  1
  Ti  Ti5  1  0.753341  0.752440  0.500000  1
  Ga  Ga6  1  0.662251  0.334659  0.500000  1
  Ga  Ga7  1  0.337749  0.672409  0.500000  1
  P  P8  1  0.000000  0.990320  0.000000  1
