# generated using pymatgen
data_Gd2HoEr(ReB6)2
_symmetry_space_group_name_H-M   'P 1'
_cell_length_a   3.68274900
_cell_length_b   9.18023401
_cell_length_c   11.58105901
_cell_angle_alpha   89.99418254
_cell_angle_beta   90.00000000
_cell_angle_gamma   90.00000000
_symmetry_Int_Tables_number   1
_chemical_formula_structural   Gd2HoEr(ReB6)2
_chemical_formula_sum   'Gd4 Ho2 Er2 Re4 B24'
_cell_volume   391.53820420
_cell_formula_units_Z   2
loop_
 _symmetry_equiv_pos_site_id
 _symmetry_equiv_pos_as_xyz
  1  'x, y, z'
loop_
 _atom_site_type_symbol
 _atom_site_label
 _atom_site_symmetry_multiplicity
 _atom_site_fract_x
 _atom_site_fract_y
 _atom_site_fract_z
 _atom_site_occupancy
  Gd  Gd0  1  0.000000  0.323256  0.414022  1
  Gd  Gd1  1  0.000000  0.676744  0.585978  1
  Gd  Gd2  1  0.000000  0.823352  0.086080  1
  Gd  Gd3  1  0.000000  0.176648  0.913920  1
  Ho  Ho4  1  0.000000  0.443091  0.130178  1
  Ho  Ho5  1  0.000000  0.556909  0.869822  1
  Er  Er6  1  0.000000  0.943086  0.369922  1
  Er  Er7  1  0.000000  0.056914  0.630078  1
  Re  Re8  1  0.000000  0.639299  0.320357  1
  Re  Re9  1  0.000000  0.360701  0.679643  1
  Re  Re10  1  0.000000  0.138886  0.179984  1
  Re  Re11  1  0.000000  0.861114  0.820016  1
  B  B12  1  0.500000  0.553760  0.432348  1
  B  B13  1  0.500000  0.446240  0.567652  1
  B  B14  1  0.500000  0.053714  0.067702  1
  B  B15  1  0.500000  0.946286  0.932298  1
  B  B16  1  0.500000  0.749713  0.418038  1
  B  B17  1  0.500000  0.250287  0.581962  1
  B  B18  1  0.500000  0.249392  0.082001  1
  B  B19  1  0.500000  0.750608  0.917999  1
  B  B20  1  0.500000  0.792312  0.265634  1
  B  B21  1  0.500000  0.207688  0.734366  1
  B  B22  1  0.500000  0.292003  0.234485  1
  B  B23  1  0.500000  0.707997  0.765515  1
  B  B24  1  0.500000  0.630692  0.185767  1
  B  B25  1  0.500000  0.369308  0.814233  1
  B  B26  1  0.500000  0.130413  0.314450  1
  B  B27  1  0.500000  0.869587  0.685550  1
  B  B28  1  0.500000  0.982649  0.212446  1
  B  B29  1  0.500000  0.017351  0.787554  1
  B  B30  1  0.500000  0.482831  0.287773  1
  B  B31  1  0.500000  0.517169  0.712227  1
  B  B32  1  0.500000  0.598874  0.027551  1
  B  B33  1  0.500000  0.401126  0.972449  1
  B  B34  1  0.500000  0.098513  0.472532  1
  B  B35  1  0.500000  0.901487  0.527468  1
