# generated using pymatgen
data_CeTh7AlSi12Ru2Rh
_symmetry_space_group_name_H-M   'P 1'
_cell_length_a   8.27565903
_cell_length_b   8.25643285
_cell_length_c   8.31587300
_cell_angle_alpha   89.99991673
_cell_angle_beta   89.99473129
_cell_angle_gamma   119.92329280
_symmetry_Int_Tables_number   1
_chemical_formula_structural   CeTh7AlSi12Ru2Rh
_chemical_formula_sum   'Ce1 Th7 Al1 Si12 Ru2 Rh1'
_cell_volume   492.45742496
_cell_formula_units_Z   1
loop_
 _symmetry_equiv_pos_site_id
 _symmetry_equiv_pos_as_xyz
  1  'x, y, z'
loop_
 _atom_site_type_symbol
 _atom_site_label
 _atom_site_symmetry_multiplicity
 _atom_site_fract_x
 _atom_site_fract_y
 _atom_site_fract_z
 _atom_site_occupancy
  Ce  Ce0  1  0.992242  0.496121  0.748213  1
  Th  Th1  1  0.999811  0.999905  0.250284  1
  Th  Th2  1  0.999843  0.999922  0.749776  1
  Th  Th3  1  0.504817  0.495460  0.249740  1
  Th  Th4  1  0.504817  0.009357  0.249740  1
  Th  Th5  1  0.991251  0.495625  0.249959  1
  Th  Th6  1  0.504984  0.495245  0.750341  1
  Th  Th7  1  0.504984  0.009740  0.750341  1
  Al  Al8  1  0.333704  0.666852  0.501349  1
  Si  Si9  1  0.163911  0.834214  0.501284  1
  Si  Si10  1  0.163912  0.329699  0.501283  1
  Si  Si11  1  0.671630  0.835814  0.499576  1
  Si  Si12  1  0.833601  0.168279  0.501595  1
  Si  Si13  1  0.833600  0.665321  0.501596  1
  Si  Si14  1  0.332007  0.166003  0.499410  1
  Si  Si15  1  0.834888  0.167550  0.998321  1
  Si  Si16  1  0.834887  0.667338  0.998322  1
  Si  Si17  1  0.329613  0.164807  0.000566  1
  Si  Si18  1  0.166201  0.831566  0.998142  1
  Si  Si19  1  0.166201  0.334635  0.998142  1
  Si  Si20  1  0.668397  0.834198  0.000394  1
  Ru  Ru21  1  0.664548  0.332274  0.500346  1
  Ru  Ru22  1  0.664171  0.332086  0.000333  1
  Rh  Rh23  1  0.335978  0.667989  0.000951  1
