# generated using pymatgen
data_Ac2In(Si3Pd10)2
_symmetry_space_group_name_H-M   'P 1'
_cell_length_a   8.73532890
_cell_length_b   8.73532846
_cell_length_c   8.73532900
_cell_angle_alpha   60.00000173
_cell_angle_beta   60.00000342
_cell_angle_gamma   60.00000278
_symmetry_Int_Tables_number   1
_chemical_formula_structural   Ac2In(Si3Pd10)2
_chemical_formula_sum   'Ac2 In1 Si6 Pd20'
_cell_volume   471.32751748
_cell_formula_units_Z   1
loop_
 _symmetry_equiv_pos_site_id
 _symmetry_equiv_pos_as_xyz
  1  'x, y, z'
loop_
 _atom_site_type_symbol
 _atom_site_label
 _atom_site_symmetry_multiplicity
 _atom_site_fract_x
 _atom_site_fract_y
 _atom_site_fract_z
 _atom_site_occupancy
  Ac  Ac0  1  0.250000  0.250000  0.250000  1
  Ac  Ac1  1  0.750000  0.750000  0.750000  1
  In  In2  1  0.000000  0.000000  0.000000  1
  Si  Si3  1  0.732681  0.267319  0.267319  1
  Si  Si4  1  0.267319  0.732681  0.732681  1
  Si  Si5  1  0.267319  0.732681  0.267319  1
  Si  Si6  1  0.732681  0.267319  0.732681  1
  Si  Si7  1  0.267319  0.267319  0.732681  1
  Si  Si8  1  0.732681  0.732681  0.267319  1
  Pd  Pd9  1  0.343190  0.000000  0.000000  1
  Pd  Pd10  1  0.656810  0.000000  0.000000  1
  Pd  Pd11  1  0.000000  0.343190  0.656810  1
  Pd  Pd12  1  0.000000  0.656810  0.343190  1
  Pd  Pd13  1  0.000000  0.343190  0.000000  1
  Pd  Pd14  1  0.656810  0.000000  0.343190  1
  Pd  Pd15  1  0.000000  0.656810  0.000000  1
  Pd  Pd16  1  0.343190  0.000000  0.656810  1
  Pd  Pd17  1  0.000000  0.000000  0.343190  1
  Pd  Pd18  1  0.000000  0.000000  0.656810  1
  Pd  Pd19  1  0.656810  0.343190  0.000000  1
  Pd  Pd20  1  0.343190  0.656810  0.000000  1
  Pd  Pd21  1  0.386419  0.386419  0.386419  1
  Pd  Pd22  1  0.613581  0.613581  0.613581  1
  Pd  Pd23  1  0.386419  0.386419  0.840745  1
  Pd  Pd24  1  0.386419  0.840745  0.386419  1
  Pd  Pd25  1  0.613581  0.613581  0.159255  1
  Pd  Pd26  1  0.613581  0.159255  0.613581  1
  Pd  Pd27  1  0.840745  0.386419  0.386419  1
  Pd  Pd28  1  0.159255  0.613581  0.613581  1
