# generated using pymatgen
data_MgNi(Se2O7)2
_symmetry_space_group_name_H-M   'P 1'
_cell_length_a   5.14548668
_cell_length_b   7.43958275
_cell_length_c   8.58600483
_cell_angle_alpha   92.12662238
_cell_angle_beta   93.94423752
_cell_angle_gamma   105.05697588
_symmetry_Int_Tables_number   1
_chemical_formula_structural   MgNi(Se2O7)2
_chemical_formula_sum   'Mg1 Ni1 Se4 O14'
_cell_volume   316.12279430
_cell_formula_units_Z   1
loop_
 _symmetry_equiv_pos_site_id
 _symmetry_equiv_pos_as_xyz
  1  'x, y, z'
loop_
 _atom_site_type_symbol
 _atom_site_label
 _atom_site_symmetry_multiplicity
 _atom_site_fract_x
 _atom_site_fract_y
 _atom_site_fract_z
 _atom_site_occupancy
  Mg  Mg0  1  0.500000  0.000000  0.500000  1
  Ni  Ni1  1  0.000000  0.500000  0.000000  1
  Se  Se2  1  0.510450  0.648734  0.770596  1
  Se  Se3  1  0.489550  0.351266  0.229404  1
  Se  Se4  1  0.122395  0.247093  0.689400  1
  Se  Se5  1  0.877605  0.752907  0.310600  1
  O  O6  1  0.754311  0.548491  0.813899  1
  O  O7  1  0.245689  0.451509  0.186101  1
  O  O8  1  0.330001  0.687902  0.913726  1
  O  O9  1  0.669999  0.312098  0.086274  1
  O  O10  1  0.615107  0.827691  0.664012  1
  O  O11  1  0.384893  0.172309  0.335988  1
  O  O12  1  0.281400  0.481445  0.629010  1
  O  O13  1  0.718600  0.518555  0.370990  1
  O  O14  1  0.873920  0.190951  0.551560  1
  O  O15  1  0.126080  0.809049  0.448440  1
  O  O16  1  0.344938  0.124791  0.681922  1
  O  O17  1  0.655062  0.875209  0.318078  1
  O  O18  1  0.048315  0.271011  0.872087  1
  O  O19  1  0.951685  0.728989  0.127913  1
