# generated using pymatgen
data_Ca6LaDy(Si3Pd)4
_symmetry_space_group_name_H-M   'P 1'
_cell_length_a   8.26566600
_cell_length_b   8.26566536
_cell_length_c   8.39929100
_cell_angle_alpha   90.00000000
_cell_angle_beta   90.00000000
_cell_angle_gamma   120.00000255
_symmetry_Int_Tables_number   1
_chemical_formula_structural   Ca6LaDy(Si3Pd)4
_chemical_formula_sum   'Ca6 La1 Dy1 Si12 Pd4'
_cell_volume   496.96856578
_cell_formula_units_Z   1
loop_
 _symmetry_equiv_pos_site_id
 _symmetry_equiv_pos_as_xyz
  1  'x, y, z'
loop_
 _atom_site_type_symbol
 _atom_site_label
 _atom_site_symmetry_multiplicity
 _atom_site_fract_x
 _atom_site_fract_y
 _atom_site_fract_z
 _atom_site_occupancy
  Ca  Ca0  1  0.500633  0.001269  0.250000  1
  Ca  Ca1  1  0.499262  0.998523  0.750000  1
  Ca  Ca2  1  0.998731  0.499367  0.250000  1
  Ca  Ca3  1  0.001477  0.500738  0.750000  1
  Ca  Ca4  1  0.500633  0.499367  0.250000  1
  Ca  Ca5  1  0.499262  0.500738  0.750000  1
  La  La6  1  0.000000  0.000000  0.250000  1
  Dy  Dy7  1  0.000000  0.000000  0.750000  1
  Si  Si8  1  0.165130  0.330259  0.995628  1
  Si  Si9  1  0.834878  0.669756  0.993997  1
  Si  Si10  1  0.669741  0.834870  0.995628  1
  Si  Si11  1  0.834878  0.669756  0.506003  1
  Si  Si12  1  0.330244  0.165122  0.993997  1
  Si  Si13  1  0.165130  0.330259  0.504372  1
  Si  Si14  1  0.165130  0.834870  0.995628  1
  Si  Si15  1  0.330244  0.165122  0.506003  1
  Si  Si16  1  0.834878  0.165122  0.993997  1
  Si  Si17  1  0.669741  0.834870  0.504372  1
  Si  Si18  1  0.834878  0.165122  0.506003  1
  Si  Si19  1  0.165130  0.834870  0.504372  1
  Pd  Pd20  1  0.333333  0.666667  0.999045  1
  Pd  Pd21  1  0.666667  0.333333  0.997022  1
  Pd  Pd22  1  0.666667  0.333333  0.502978  1
  Pd  Pd23  1  0.333333  0.666667  0.500955  1
