# generated using pymatgen
data_Th8AlSi11Pd4
_symmetry_space_group_name_H-M   'P 1'
_cell_length_a   8.29454503
_cell_length_b   8.29454570
_cell_length_c   8.50337500
_cell_angle_alpha   89.99975438
_cell_angle_beta   90.00024545
_cell_angle_gamma   119.99045035
_symmetry_Int_Tables_number   1
_chemical_formula_structural   Th8AlSi11Pd4
_chemical_formula_sum   'Th8 Al1 Si11 Pd4'
_cell_volume   506.69768547
_cell_formula_units_Z   1
loop_
 _symmetry_equiv_pos_site_id
 _symmetry_equiv_pos_as_xyz
  1  'x, y, z'
loop_
 _atom_site_type_symbol
 _atom_site_label
 _atom_site_symmetry_multiplicity
 _atom_site_fract_x
 _atom_site_fract_y
 _atom_site_fract_z
 _atom_site_occupancy
  Th  Th0  1  0.500367  0.499633  0.749860  1
  Th  Th1  1  0.500623  0.499377  0.250124  1
  Th  Th2  1  0.001055  0.502560  0.748616  1
  Th  Th3  1  0.000507  0.502280  0.251392  1
  Th  Th4  1  0.497440  0.998945  0.748616  1
  Th  Th5  1  0.497720  0.999493  0.251392  1
  Th  Th6  1  0.001162  0.998838  0.748482  1
  Th  Th7  1  0.001127  0.998873  0.251504  1
  Al  Al8  1  0.833104  0.166896  0.999741  1
  Si  Si9  1  0.165685  0.834315  0.000236  1
  Si  Si10  1  0.332052  0.165699  0.999771  1
  Si  Si11  1  0.165795  0.834205  0.499747  1
  Si  Si12  1  0.667809  0.830414  0.000247  1
  Si  Si13  1  0.834343  0.165657  0.500251  1
  Si  Si14  1  0.834301  0.667948  0.999771  1
  Si  Si15  1  0.668376  0.834141  0.499773  1
  Si  Si16  1  0.169586  0.332191  0.000247  1
  Si  Si17  1  0.332045  0.166096  0.500231  1
  Si  Si18  1  0.165859  0.331624  0.499773  1
  Si  Si19  1  0.833904  0.667955  0.500231  1
  Pd  Pd20  1  0.664022  0.335978  0.999682  1
  Pd  Pd21  1  0.332845  0.667155  0.000321  1
  Pd  Pd22  1  0.333408  0.666592  0.499676  1
  Pd  Pd23  1  0.666865  0.333135  0.500317  1
