# generated using pymatgen
data_Ho5Tl3S
_symmetry_space_group_name_H-M   'P 1'
_cell_length_a   9.08463600
_cell_length_b   9.08463465
_cell_length_c   6.67371900
_cell_angle_alpha   90.00000000
_cell_angle_beta   90.00000000
_cell_angle_gamma   120.00000492
_symmetry_Int_Tables_number   1
_chemical_formula_structural   Ho5Tl3S
_chemical_formula_sum   'Ho10 Tl6 S2'
_cell_volume   476.99466734
_cell_formula_units_Z   2
loop_
 _symmetry_equiv_pos_site_id
 _symmetry_equiv_pos_as_xyz
  1  'x, y, z'
loop_
 _atom_site_type_symbol
 _atom_site_label
 _atom_site_symmetry_multiplicity
 _atom_site_fract_x
 _atom_site_fract_y
 _atom_site_fract_z
 _atom_site_occupancy
  Ho  Ho0  1  0.666667  0.333333  0.000000  1
  Ho  Ho1  1  0.333333  0.666667  0.000000  1
  Ho  Ho2  1  0.333333  0.666667  0.500000  1
  Ho  Ho3  1  0.666667  0.333333  0.500000  1
  Ho  Ho4  1  0.758311  0.758311  0.750000  1
  Ho  Ho5  1  0.241689  0.000000  0.750000  1
  Ho  Ho6  1  0.000000  0.241689  0.750000  1
  Ho  Ho7  1  0.241689  0.241689  0.250000  1
  Ho  Ho8  1  0.758311  0.000000  0.250000  1
  Ho  Ho9  1  0.000000  0.758311  0.250000  1
  Tl  Tl10  1  0.400253  0.400253  0.750000  1
  Tl  Tl11  1  0.599747  0.000000  0.750000  1
  Tl  Tl12  1  0.000000  0.599747  0.750000  1
  Tl  Tl13  1  0.599747  0.599747  0.250000  1
  Tl  Tl14  1  0.400253  0.000000  0.250000  1
  Tl  Tl15  1  0.000000  0.400253  0.250000  1
  S  S16  1  0.000000  0.000000  0.000000  1
  S  S17  1  0.000000  0.000000  0.500000  1
