# generated using pymatgen
data_SrLi4Pr3Si8
_symmetry_space_group_name_H-M   'P 1'
_cell_length_a   3.88672000
_cell_length_b   7.89807638
_cell_length_c   10.68889675
_cell_angle_alpha   89.71176567
_cell_angle_beta   90.00000000
_cell_angle_gamma   90.00000000
_symmetry_Int_Tables_number   1
_chemical_formula_structural   SrLi4Pr3Si8
_chemical_formula_sum   'Sr1 Li4 Pr3 Si8'
_cell_volume   328.11944678
_cell_formula_units_Z   1
loop_
 _symmetry_equiv_pos_site_id
 _symmetry_equiv_pos_as_xyz
  1  'x, y, z'
loop_
 _atom_site_type_symbol
 _atom_site_label
 _atom_site_symmetry_multiplicity
 _atom_site_fract_x
 _atom_site_fract_y
 _atom_site_fract_z
 _atom_site_occupancy
  Sr  Sr0  1  0.750000  0.361688  0.365691  1
  Li  Li1  1  0.250000  0.998993  0.391514  1
  Li  Li2  1  0.750000  0.005019  0.610695  1
  Li  Li3  1  0.250000  0.494159  0.110293  1
  Li  Li4  1  0.750000  0.504003  0.890632  1
  Pr  Pr5  1  0.250000  0.131475  0.864417  1
  Pr  Pr6  1  0.750000  0.865839  0.132796  1
  Pr  Pr7  1  0.250000  0.634338  0.634737  1
  Si  Si8  1  0.750000  0.267396  0.066085  1
  Si  Si9  1  0.250000  0.727876  0.929076  1
  Si  Si10  1  0.750000  0.777657  0.430171  1
  Si  Si11  1  0.250000  0.229890  0.576736  1
  Si  Si12  1  0.750000  0.831897  0.821151  1
  Si  Si13  1  0.250000  0.160197  0.170018  1
  Si  Si14  1  0.750000  0.333465  0.682951  1
  Si  Si15  1  0.250000  0.676110  0.323038  1
