# generated using pymatgen
data_La6IrPd2Au5
_symmetry_space_group_name_H-M   'P 1'
_cell_length_a   8.48220131
_cell_length_b   8.42332564
_cell_length_c   8.47599188
_cell_angle_alpha   114.51587900
_cell_angle_beta   114.81236388
_cell_angle_gamma   114.36475411
_symmetry_Int_Tables_number   1
_chemical_formula_structural   La6IrPd2Au5
_chemical_formula_sum   'La6 Ir1 Pd2 Au5'
_cell_volume   352.00150314
_cell_formula_units_Z   1
loop_
 _symmetry_equiv_pos_site_id
 _symmetry_equiv_pos_as_xyz
  1  'x, y, z'
loop_
 _atom_site_type_symbol
 _atom_site_label
 _atom_site_symmetry_multiplicity
 _atom_site_fract_x
 _atom_site_fract_y
 _atom_site_fract_z
 _atom_site_occupancy
  La  La0  1  0.976762  0.609875  0.732184  1
  La  La1  1  0.720413  0.968657  0.603220  1
  La  La2  1  0.615553  0.730500  0.974552  1
  La  La3  1  0.031586  0.388575  0.269202  1
  La  La4  1  0.269462  0.026114  0.384857  1
  La  La5  1  0.382305  0.273943  0.028722  1
  Ir  Ir6  1  0.997513  0.997323  0.997061  1
  Pd  Pd7  1  0.501852  0.501443  0.501332  1
  Pd  Pd8  1  0.224924  0.562963  0.059862  1
  Au  Au9  1  0.940841  0.773319  0.438875  1
  Au  Au10  1  0.437310  0.941177  0.775107  1
  Au  Au11  1  0.775908  0.436806  0.937727  1
  Au  Au12  1  0.064049  0.232196  0.569478  1
  Au  Au13  1  0.561521  0.057109  0.227823  1
