# generated using pymatgen
data_Y4Er2Fe7Co11
_symmetry_space_group_name_H-M   'P 1'
_cell_length_a   5.08623561
_cell_length_b   5.10941364
_cell_length_c   15.81825525
_cell_angle_alpha   90.00000169
_cell_angle_beta   90.03827814
_cell_angle_gamma   120.15085633
_symmetry_Int_Tables_number   1
_chemical_formula_structural   Y4Er2Fe7Co11
_chemical_formula_sum   'Y4 Er2 Fe7 Co11'
_cell_volume   355.46301975
_cell_formula_units_Z   1
loop_
 _symmetry_equiv_pos_site_id
 _symmetry_equiv_pos_as_xyz
  1  'x, y, z'
loop_
 _atom_site_type_symbol
 _atom_site_label
 _atom_site_symmetry_multiplicity
 _atom_site_fract_x
 _atom_site_fract_y
 _atom_site_fract_z
 _atom_site_occupancy
  Y  Y0  1  0.666697  0.333348  0.460836  1
  Y  Y1  1  0.334516  0.667259  0.539760  1
  Y  Y2  1  0.333936  0.666968  0.750404  1
  Y  Y3  1  0.665116  0.332557  0.248902  1
  Er  Er4  1  0.333889  0.666945  0.959207  1
  Er  Er5  1  0.667768  0.333884  0.036338  1
  Fe  Fe6  1  0.662026  0.831013  0.126159  1
  Fe  Fe7  1  0.330142  0.665071  0.252344  1
  Fe  Fe8  1  0.667033  0.333516  0.750304  1
  Fe  Fe9  1  0.000169  0.000084  0.251502  1
  Fe  Fe10  1  0.001127  0.000563  0.750802  1
  Fe  Fe11  1  0.000438  0.000219  0.500435  1
  Fe  Fe12  1  0.003892  0.001946  0.998850  1
  Co  Co13  1  0.166461  0.833349  0.373207  1
  Co  Co14  1  0.166461  0.333113  0.373207  1
  Co  Co15  1  0.667316  0.833659  0.372853  1
  Co  Co16  1  0.834209  0.167180  0.628144  1
  Co  Co17  1  0.834209  0.667029  0.628144  1
  Co  Co18  1  0.332575  0.166288  0.628097  1
  Co  Co19  1  0.833729  0.167200  0.872613  1
  Co  Co20  1  0.833729  0.666529  0.872613  1
  Co  Co21  1  0.333338  0.166669  0.872599  1
  Co  Co22  1  0.165612  0.832610  0.126341  1
  Co  Co23  1  0.165612  0.333003  0.126341  1
