# generated using pymatgen
data_Pr5Nd(Dy2Pb3)2
_symmetry_space_group_name_H-M   'P 1'
_cell_length_a   9.31232080
_cell_length_b   9.31899490
_cell_length_c   6.80717300
_cell_angle_alpha   90.00000000
_cell_angle_beta   90.00000000
_cell_angle_gamma   120.02371637
_symmetry_Int_Tables_number   1
_chemical_formula_structural   Pr5Nd(Dy2Pb3)2
_chemical_formula_sum   'Pr5 Nd1 Dy4 Pb6'
_cell_volume   511.47049291
_cell_formula_units_Z   1
loop_
 _symmetry_equiv_pos_site_id
 _symmetry_equiv_pos_as_xyz
  1  'x, y, z'
loop_
 _atom_site_type_symbol
 _atom_site_label
 _atom_site_symmetry_multiplicity
 _atom_site_fract_x
 _atom_site_fract_y
 _atom_site_fract_z
 _atom_site_occupancy
  Pr  Pr0  1  0.759277  0.759205  0.750000  1
  Pr  Pr1  1  0.240723  0.999928  0.750000  1
  Pr  Pr2  1  0.000000  0.240920  0.750000  1
  Pr  Pr3  1  0.240766  0.240725  0.250000  1
  Pr  Pr4  1  0.759234  0.999959  0.250000  1
  Nd  Nd5  1  0.000000  0.758948  0.250000  1
  Dy  Dy6  1  0.666731  0.333419  0.000056  1
  Dy  Dy7  1  0.333269  0.666689  0.000056  1
  Dy  Dy8  1  0.333269  0.666689  0.499944  1
  Dy  Dy9  1  0.666731  0.333419  0.499944  1
  Pb  Pb10  1  0.397865  0.397831  0.750000  1
  Pb  Pb11  1  0.602135  0.999966  0.750000  1
  Pb  Pb12  1  0.000000  0.602129  0.750000  1
  Pb  Pb13  1  0.602640  0.602312  0.250000  1
  Pb  Pb14  1  0.397360  0.999673  0.250000  1
  Pb  Pb15  1  0.000000  0.398188  0.250000  1
