# generated using pymatgen
data_Tb2Tm18(GaBi3)3
_symmetry_space_group_name_H-M   'P 1'
_cell_length_a   8.08668900
_cell_length_b   9.25792800
_cell_length_c   11.92969655
_cell_angle_alpha   90.00000000
_cell_angle_beta   89.98164396
_cell_angle_gamma   90.00000000
_symmetry_Int_Tables_number   1
_chemical_formula_structural   Tb2Tm18(GaBi3)3
_chemical_formula_sum   'Tb2 Tm18 Ga3 Bi9'
_cell_volume   893.12843129
_cell_formula_units_Z   1
loop_
 _symmetry_equiv_pos_site_id
 _symmetry_equiv_pos_as_xyz
  1  'x, y, z'
loop_
 _atom_site_type_symbol
 _atom_site_label
 _atom_site_symmetry_multiplicity
 _atom_site_fract_x
 _atom_site_fract_y
 _atom_site_fract_z
 _atom_site_occupancy
  Tb  Tb0  1  0.684626  0.250000  0.729940  1
  Tb  Tb1  1  0.830534  0.250000  0.213943  1
  Tm  Tm2  1  0.682968  0.930018  0.436505  1
  Tm  Tm3  1  0.820075  0.556434  0.938900  1
  Tm  Tm4  1  0.311099  0.453581  0.566357  1
  Tm  Tm5  1  0.177617  0.054935  0.059398  1
  Tm  Tm6  1  0.311099  0.046419  0.566357  1
  Tm  Tm7  1  0.177617  0.445065  0.059398  1
  Tm  Tm8  1  0.682968  0.569982  0.436505  1
  Tm  Tm9  1  0.820075  0.943566  0.938900  1
  Tm  Tm10  1  0.330110  0.750000  0.284239  1
  Tm  Tm11  1  0.173946  0.750000  0.785217  1
  Tm  Tm12  1  0.039226  0.750000  0.496297  1
  Tm  Tm13  1  0.462761  0.750000  0.996992  1
  Tm  Tm14  1  0.979912  0.250000  0.504389  1
  Tm  Tm15  1  0.532183  0.250000  0.004620  1
  Tm  Tm16  1  0.856946  0.750000  0.205107  1
  Tm  Tm17  1  0.642841  0.750000  0.707013  1
  Tm  Tm18  1  0.144867  0.250000  0.792273  1
  Tm  Tm19  1  0.340469  0.250000  0.285320  1
  Ga  Ga20  1  0.094936  0.750000  0.023788  1
  Ga  Ga21  1  0.407221  0.750000  0.524887  1
  Ga  Ga22  1  0.903339  0.250000  0.970353  1
  Bi  Bi23  1  0.595867  0.250000  0.472186  1
  Bi  Bi24  1  0.562514  0.989360  0.175275  1
  Bi  Bi25  1  0.935765  0.513243  0.673939  1
  Bi  Bi26  1  0.435085  0.489951  0.826020  1
  Bi  Bi27  1  0.064984  0.007774  0.325322  1
  Bi  Bi28  1  0.435085  0.010049  0.826020  1
  Bi  Bi29  1  0.064984  0.492226  0.325322  1
  Bi  Bi30  1  0.562514  0.510640  0.175275  1
  Bi  Bi31  1  0.935765  0.986757  0.673939  1
