# generated using pymatgen
data_Ho8Sc2Si5Sb
_symmetry_space_group_name_H-M   'P 1'
_cell_length_a   8.34846100
_cell_length_b   8.34846016
_cell_length_c   6.11999200
_cell_angle_alpha   89.99954704
_cell_angle_beta   89.99954018
_cell_angle_gamma   120.16641626
_symmetry_Int_Tables_number   1
_chemical_formula_structural   Ho8Sc2Si5Sb
_chemical_formula_sum   'Ho8 Sc2 Si5 Sb1'
_cell_volume   368.77677761
_cell_formula_units_Z   1
loop_
 _symmetry_equiv_pos_site_id
 _symmetry_equiv_pos_as_xyz
  1  'x, y, z'
loop_
 _atom_site_type_symbol
 _atom_site_label
 _atom_site_symmetry_multiplicity
 _atom_site_fract_x
 _atom_site_fract_y
 _atom_site_fract_z
 _atom_site_occupancy
  Ho  Ho0  1  0.330948  0.675035  0.995664  1
  Ho  Ho1  1  0.675035  0.330948  0.995664  1
  Ho  Ho2  1  0.765384  0.765384  0.252341  1
  Ho  Ho3  1  0.240818  0.987840  0.253726  1
  Ho  Ho4  1  0.987840  0.240818  0.253726  1
  Ho  Ho5  1  0.241208  0.241208  0.750540  1
  Ho  Ho6  1  0.754741  0.999013  0.746110  1
  Ho  Ho7  1  0.999013  0.754741  0.746110  1
  Sc  Sc8  1  0.673922  0.331704  0.503165  1
  Sc  Sc9  1  0.331704  0.673922  0.503165  1
  Si  Si10  1  0.601100  0.998407  0.265217  1
  Si  Si11  1  0.998407  0.601100  0.265217  1
  Si  Si12  1  0.604057  0.604057  0.739444  1
  Si  Si13  1  0.396689  0.002515  0.734474  1
  Si  Si14  1  0.002515  0.396689  0.734474  1
  Sb  Sb15  1  0.396619  0.396619  0.260963  1
