# generated using pymatgen
data_LuAl2Cu3
_symmetry_space_group_name_H-M   'P 1'
_cell_length_a   5.06733404
_cell_length_b   5.06733347
_cell_length_c   4.14881200
_cell_angle_alpha   90.00000000
_cell_angle_beta   90.00000000
_cell_angle_gamma   117.72704130
_symmetry_Int_Tables_number   1
_chemical_formula_structural   LuAl2Cu3
_chemical_formula_sum   'Lu1 Al2 Cu3'
_cell_volume   94.29995657
_cell_formula_units_Z   1
loop_
 _symmetry_equiv_pos_site_id
 _symmetry_equiv_pos_as_xyz
  1  'x, y, z'
loop_
 _atom_site_type_symbol
 _atom_site_label
 _atom_site_symmetry_multiplicity
 _atom_site_fract_x
 _atom_site_fract_y
 _atom_site_fract_z
 _atom_site_occupancy
  Lu  Lu0  1  0.000000  0.000000  0.000000  1
  Al  Al1  1  0.500000  0.000000  0.500000  1
  Al  Al2  1  0.000000  0.500000  0.500000  1
  Cu  Cu3  1  0.664996  0.335004  0.000000  1
  Cu  Cu4  1  0.335004  0.664996  0.000000  1
  Cu  Cu5  1  0.500000  0.500000  0.500000  1
