# generated using pymatgen
data_Ho2Sc3Tl4
_symmetry_space_group_name_H-M   'P 1'
_cell_length_a   7.68824500
_cell_length_b   7.99292400
_cell_length_c   15.15175000
_cell_angle_alpha   90.00000000
_cell_angle_beta   90.00000000
_cell_angle_gamma   90.00000000
_symmetry_Int_Tables_number   1
_chemical_formula_structural   Ho2Sc3Tl4
_chemical_formula_sum   'Ho8 Sc12 Tl16'
_cell_volume   931.09864360
_cell_formula_units_Z   4
loop_
 _symmetry_equiv_pos_site_id
 _symmetry_equiv_pos_as_xyz
  1  'x, y, z'
loop_
 _atom_site_type_symbol
 _atom_site_label
 _atom_site_symmetry_multiplicity
 _atom_site_fract_x
 _atom_site_fract_y
 _atom_site_fract_z
 _atom_site_occupancy
  Ho  Ho0  1  0.997509  0.183775  0.093031  1
  Ho  Ho1  1  0.002491  0.816225  0.906969  1
  Ho  Ho2  1  0.502491  0.683775  0.906969  1
  Ho  Ho3  1  0.002491  0.816225  0.593031  1
  Ho  Ho4  1  0.497509  0.316225  0.093031  1
  Ho  Ho5  1  0.997509  0.183775  0.406969  1
  Ho  Ho6  1  0.497509  0.316225  0.406969  1
  Ho  Ho7  1  0.502491  0.683775  0.593031  1
  Sc  Sc8  1  0.167120  0.496190  0.750000  1
  Sc  Sc9  1  0.832880  0.503810  0.250000  1
  Sc  Sc10  1  0.332880  0.996190  0.250000  1
  Sc  Sc11  1  0.667120  0.003810  0.750000  1
  Sc  Sc12  1  0.335744  0.158325  0.626093  1
  Sc  Sc13  1  0.664256  0.841675  0.373907  1
  Sc  Sc14  1  0.164256  0.658325  0.373907  1
  Sc  Sc15  1  0.664256  0.841675  0.126093  1
  Sc  Sc16  1  0.835744  0.341675  0.626093  1
  Sc  Sc17  1  0.335744  0.158325  0.873907  1
  Sc  Sc18  1  0.835744  0.341675  0.873907  1
  Sc  Sc19  1  0.164256  0.658325  0.126093  1
  Tl  Tl20  1  0.027565  0.122376  0.750000  1
  Tl  Tl21  1  0.972435  0.877624  0.250000  1
  Tl  Tl22  1  0.472435  0.622376  0.250000  1
  Tl  Tl23  1  0.527565  0.377624  0.750000  1
  Tl  Tl24  1  0.301467  0.852486  0.750000  1
  Tl  Tl25  1  0.698533  0.147514  0.250000  1
  Tl  Tl26  1  0.198533  0.352486  0.250000  1
  Tl  Tl27  1  0.801467  0.647514  0.750000  1
  Tl  Tl28  1  0.183492  0.457645  0.541821  1
  Tl  Tl29  1  0.816508  0.542355  0.458179  1
  Tl  Tl30  1  0.316508  0.957645  0.458179  1
  Tl  Tl31  1  0.816508  0.542355  0.041821  1
  Tl  Tl32  1  0.683492  0.042355  0.541821  1
  Tl  Tl33  1  0.183492  0.457645  0.958179  1
  Tl  Tl34  1  0.683492  0.042355  0.958179  1
  Tl  Tl35  1  0.316508  0.957645  0.041821  1
