# generated using pymatgen
data_HoZn2Cu2Ag
_symmetry_space_group_name_H-M   'P 1'
_cell_length_a   5.12035524
_cell_length_b   5.12035482
_cell_length_c   5.14811843
_cell_angle_alpha   59.85334657
_cell_angle_beta   59.85333768
_cell_angle_gamma   60.31737512
_symmetry_Int_Tables_number   1
_chemical_formula_structural   HoZn2Cu2Ag
_chemical_formula_sum   'Ho1 Zn2 Cu2 Ag1'
_cell_volume   95.45388091
_cell_formula_units_Z   1
loop_
 _symmetry_equiv_pos_site_id
 _symmetry_equiv_pos_as_xyz
  1  'x, y, z'
loop_
 _atom_site_type_symbol
 _atom_site_label
 _atom_site_symmetry_multiplicity
 _atom_site_fract_x
 _atom_site_fract_y
 _atom_site_fract_z
 _atom_site_occupancy
  Ho  Ho0  1  0.246788  0.246788  0.251995  1
  Zn  Zn1  1  0.627954  0.627954  0.626503  1
  Zn  Zn2  1  0.627072  0.627072  0.120466  1
  Cu  Cu3  1  0.626055  0.124526  0.624700  1
  Cu  Cu4  1  0.124526  0.626055  0.624700  1
  Ag  Ag5  1  0.997605  0.997605  0.001635  1
