# generated using pymatgen
data_SmDy(Ho2Rh9)2
_symmetry_space_group_name_H-M   'P 1'
_cell_length_a   5.26251700
_cell_length_b   5.26251776
_cell_length_c   17.56392300
_cell_angle_alpha   90.00000000
_cell_angle_beta   90.00000000
_cell_angle_gamma   120.00000150
_symmetry_Int_Tables_number   1
_chemical_formula_structural   SmDy(Ho2Rh9)2
_chemical_formula_sum   'Sm1 Dy1 Ho4 Rh18'
_cell_volume   421.24934249
_cell_formula_units_Z   1
loop_
 _symmetry_equiv_pos_site_id
 _symmetry_equiv_pos_as_xyz
  1  'x, y, z'
loop_
 _atom_site_type_symbol
 _atom_site_label
 _atom_site_symmetry_multiplicity
 _atom_site_fract_x
 _atom_site_fract_y
 _atom_site_fract_z
 _atom_site_occupancy
  Sm  Sm0  1  0.666667  0.333333  0.250000  1
  Dy  Dy1  1  0.333333  0.666667  0.750000  1
  Ho  Ho2  1  0.333333  0.666667  0.957754  1
  Ho  Ho3  1  0.666667  0.333333  0.041813  1
  Ho  Ho4  1  0.666667  0.333333  0.458187  1
  Ho  Ho5  1  0.333333  0.666667  0.542246  1
  Rh  Rh6  1  0.167266  0.832734  0.374931  1
  Rh  Rh7  1  0.167266  0.334531  0.374931  1
  Rh  Rh8  1  0.665469  0.832734  0.374931  1
  Rh  Rh9  1  0.832740  0.167260  0.625563  1
  Rh  Rh10  1  0.832740  0.665479  0.625563  1
  Rh  Rh11  1  0.334521  0.167260  0.625563  1
  Rh  Rh12  1  0.832740  0.167260  0.874437  1
  Rh  Rh13  1  0.832740  0.665479  0.874437  1
  Rh  Rh14  1  0.334521  0.167260  0.874437  1
  Rh  Rh15  1  0.167266  0.832734  0.125069  1
  Rh  Rh16  1  0.167266  0.334531  0.125069  1
  Rh  Rh17  1  0.665469  0.832734  0.125069  1
  Rh  Rh18  1  0.333333  0.666667  0.250000  1
  Rh  Rh19  1  0.666667  0.333333  0.750000  1
  Rh  Rh20  1  0.000000  0.000000  0.250000  1
  Rh  Rh21  1  0.000000  0.000000  0.750000  1
  Rh  Rh22  1  0.000000  0.000000  0.500175  1
  Rh  Rh23  1  0.000000  0.000000  0.999825  1
