# generated using pymatgen
data_PrGa4Cu9
_symmetry_space_group_name_H-M   'P 1'
_cell_length_a   8.28795536
_cell_length_b   8.28795529
_cell_length_c   8.36474152
_cell_angle_alpha   119.69679872
_cell_angle_beta   119.69679723
_cell_angle_gamma   90.00000718
_symmetry_Int_Tables_number   1
_chemical_formula_structural   PrGa4Cu9
_chemical_formula_sum   'Pr2 Ga8 Cu18'
_cell_volume   409.98209998
_cell_formula_units_Z   2
loop_
 _symmetry_equiv_pos_site_id
 _symmetry_equiv_pos_as_xyz
  1  'x, y, z'
loop_
 _atom_site_type_symbol
 _atom_site_label
 _atom_site_symmetry_multiplicity
 _atom_site_fract_x
 _atom_site_fract_y
 _atom_site_fract_z
 _atom_site_occupancy
  Pr  Pr0  1  0.250000  0.250000  0.500000  1
  Pr  Pr1  1  0.750000  0.750000  0.500000  1
  Ga  Ga2  1  0.801190  0.301190  0.244367  1
  Ga  Ga3  1  0.301190  0.443176  0.244367  1
  Ga  Ga4  1  0.943176  0.801190  0.244367  1
  Ga  Ga5  1  0.443176  0.943176  0.244367  1
  Ga  Ga6  1  0.556823  0.056824  0.755633  1
  Ga  Ga7  1  0.056824  0.198810  0.755633  1
  Ga  Ga8  1  0.698810  0.556823  0.755633  1
  Ga  Ga9  1  0.198810  0.698810  0.755633  1
  Cu  Cu10  1  0.500000  0.000000  0.000000  1
  Cu  Cu11  1  0.202441  0.063031  0.000000  1
  Cu  Cu12  1  0.936969  0.202441  0.000000  1
  Cu  Cu13  1  0.436969  0.297558  0.000000  1
  Cu  Cu14  1  0.702441  0.436969  0.000000  1
  Cu  Cu15  1  0.000000  0.500000  0.000000  1
  Cu  Cu16  1  0.297558  0.563031  0.000000  1
  Cu  Cu17  1  0.563031  0.702441  0.000000  1
  Cu  Cu18  1  0.063031  0.797558  0.000000  1
  Cu  Cu19  1  0.797558  0.936969  0.000000  1
  Cu  Cu20  1  0.797542  0.061008  0.358551  1
  Cu  Cu21  1  0.561008  0.297542  0.358551  1
  Cu  Cu22  1  0.061008  0.561008  0.358551  1
  Cu  Cu23  1  0.297542  0.797542  0.358551  1
  Cu  Cu24  1  0.702457  0.202457  0.641448  1
  Cu  Cu25  1  0.938992  0.438992  0.641448  1
  Cu  Cu26  1  0.438992  0.702457  0.641448  1
  Cu  Cu27  1  0.202457  0.938992  0.641448  1
