# generated using pymatgen
data_PrErTmRuI3
_symmetry_space_group_name_H-M   'P 1'
_cell_length_a   4.25149900
_cell_length_b   9.07729791
_cell_length_c   12.38600856
_cell_angle_alpha   94.08746299
_cell_angle_beta   90.00000000
_cell_angle_gamma   90.00000000
_symmetry_Int_Tables_number   1
_chemical_formula_structural   PrErTmRuI3
_chemical_formula_sum   'Pr2 Er2 Tm2 Ru2 I6'
_cell_volume   476.78652085
_cell_formula_units_Z   2
loop_
 _symmetry_equiv_pos_site_id
 _symmetry_equiv_pos_as_xyz
  1  'x, y, z'
loop_
 _atom_site_type_symbol
 _atom_site_label
 _atom_site_symmetry_multiplicity
 _atom_site_fract_x
 _atom_site_fract_y
 _atom_site_fract_z
 _atom_site_occupancy
  Pr  Pr0  1  0.750000  0.271096  0.601386  1
  Pr  Pr1  1  0.250000  0.728904  0.398614  1
  Er  Er2  1  0.750000  0.903322  0.186092  1
  Er  Er3  1  0.250000  0.096678  0.813908  1
  Tm  Tm4  1  0.750000  0.882903  0.626143  1
  Tm  Tm5  1  0.250000  0.117097  0.373857  1
  Ru  Ru6  1  0.750000  0.943865  0.406186  1
  Ru  Ru7  1  0.250000  0.056135  0.593814  1
  I  I8  1  0.750000  0.412247  0.357879  1
  I  I9  1  0.250000  0.587753  0.642121  1
  I  I10  1  0.750000  0.867134  0.890114  1
  I  I11  1  0.250000  0.132866  0.109886  1
  I  I12  1  0.750000  0.339961  0.868841  1
  I  I13  1  0.250000  0.660039  0.131159  1
