# generated using pymatgen
data_Sc16In6CuOs
_symmetry_space_group_name_H-M   'P 1'
_cell_length_a   9.82228901
_cell_length_b   9.82245580
_cell_length_c   6.44202200
_cell_angle_alpha   90.00154578
_cell_angle_beta   89.99755004
_cell_angle_gamma   119.99988623
_symmetry_Int_Tables_number   1
_chemical_formula_structural   Sc16In6CuOs
_chemical_formula_sum   'Sc16 In6 Cu1 Os1'
_cell_volume   538.25258531
_cell_formula_units_Z   1
loop_
 _symmetry_equiv_pos_site_id
 _symmetry_equiv_pos_as_xyz
  1  'x, y, z'
loop_
 _atom_site_type_symbol
 _atom_site_label
 _atom_site_symmetry_multiplicity
 _atom_site_fract_x
 _atom_site_fract_y
 _atom_site_fract_z
 _atom_site_occupancy
  Sc  Sc0  1  0.522620  0.045241  0.525251  1
  Sc  Sc1  1  0.954787  0.477402  0.525248  1
  Sc  Sc2  1  0.522612  0.477408  0.525272  1
  Sc  Sc3  1  0.472198  0.944400  0.021814  1
  Sc  Sc4  1  0.055622  0.527823  0.021817  1
  Sc  Sc5  1  0.472182  0.527837  0.021820  1
  Sc  Sc6  1  0.177818  0.355635  0.739447  1
  Sc  Sc7  1  0.644392  0.822202  0.739447  1
  Sc  Sc8  1  0.177832  0.822195  0.739422  1
  Sc  Sc9  1  0.822736  0.645494  0.236109  1
  Sc  Sc10  1  0.354533  0.177289  0.236109  1
  Sc  Sc11  1  0.822747  0.177276  0.236099  1
  Sc  Sc12  1  0.666685  0.333340  0.890280  1
  Sc  Sc13  1  0.333340  0.666689  0.394766  1
  Sc  Sc14  1  0.000006  0.000009  0.506702  1
  Sc  Sc15  1  0.000009  0.000005  0.012904  1
  In  In16  1  0.835909  0.671814  0.760613  1
  In  In17  1  0.328173  0.164103  0.760636  1
  In  In18  1  0.835891  0.164110  0.760596  1
  In  In19  1  0.162409  0.324821  0.263536  1
  In  In20  1  0.675222  0.837628  0.263525  1
  In  In21  1  0.162403  0.837636  0.263527  1
  Cu  Cu22  1  0.666527  0.332964  0.302982  1
  Os  Os23  1  0.333344  0.666683  0.807760  1
