# generated using pymatgen
data_Zr6Zn18SiRh5
_symmetry_space_group_name_H-M   'P 1'
_cell_length_a   8.77899226
_cell_length_b   8.77899113
_cell_length_c   8.77899183
_cell_angle_alpha   59.79409175
_cell_angle_beta   59.79409129
_cell_angle_gamma   59.79408745
_symmetry_Int_Tables_number   1
_chemical_formula_structural   Zr6Zn18SiRh5
_chemical_formula_sum   'Zr6 Zn18 Si1 Rh5'
_cell_volume   476.19414765
_cell_formula_units_Z   1
loop_
 _symmetry_equiv_pos_site_id
 _symmetry_equiv_pos_as_xyz
  1  'x, y, z'
loop_
 _atom_site_type_symbol
 _atom_site_label
 _atom_site_symmetry_multiplicity
 _atom_site_fract_x
 _atom_site_fract_y
 _atom_site_fract_z
 _atom_site_occupancy
  Zr  Zr0  1  0.713976  0.283834  0.283834  1
  Zr  Zr1  1  0.286024  0.716166  0.716166  1
  Zr  Zr2  1  0.283834  0.713976  0.283834  1
  Zr  Zr3  1  0.716166  0.286024  0.716166  1
  Zr  Zr4  1  0.283834  0.283834  0.713976  1
  Zr  Zr5  1  0.716166  0.716166  0.286024  1
  Zn  Zn6  1  0.121711  0.121711  0.631010  1
  Zn  Zn7  1  0.121711  0.631010  0.121711  1
  Zn  Zn8  1  0.878289  0.878289  0.368990  1
  Zn  Zn9  1  0.878289  0.368990  0.878289  1
  Zn  Zn10  1  0.631010  0.121711  0.121711  1
  Zn  Zn11  1  0.368990  0.878289  0.878289  1
  Zn  Zn12  1  0.500000  0.000000  0.000000  1
  Zn  Zn13  1  0.000000  0.500000  0.000000  1
  Zn  Zn14  1  0.000000  0.000000  0.500000  1
  Zn  Zn15  1  0.336322  0.336322  0.336322  1
  Zn  Zn16  1  0.663678  0.663678  0.663678  1
  Zn  Zn17  1  0.333802  0.333802  0.990453  1
  Zn  Zn18  1  0.333802  0.990453  0.333802  1
  Zn  Zn19  1  0.666198  0.666198  0.009547  1
  Zn  Zn20  1  0.666198  0.009547  0.666198  1
  Zn  Zn21  1  0.990453  0.333802  0.333802  1
  Zn  Zn22  1  0.009547  0.666198  0.666198  1
  Zn  Zn23  1  0.000000  0.000000  0.000000  1
  Si  Si24  1  0.500000  0.500000  0.500000  1
  Rh  Rh25  1  0.119634  0.119634  0.119634  1
  Rh  Rh26  1  0.880366  0.880366  0.880366  1
  Rh  Rh27  1  0.000000  0.500000  0.500000  1
  Rh  Rh28  1  0.500000  0.000000  0.500000  1
  Rh  Rh29  1  0.500000  0.500000  0.000000  1
