# generated using pymatgen
data_Lu2ZnGa2Co
_symmetry_space_group_name_H-M   'P 1'
_cell_length_a   4.30114500
_cell_length_b   6.87268195
_cell_length_c   7.42698367
_cell_angle_alpha   89.90421731
_cell_angle_beta   90.00000000
_cell_angle_gamma   90.00000000
_symmetry_Int_Tables_number   1
_chemical_formula_structural   Lu2ZnGa2Co
_chemical_formula_sum   'Lu4 Zn2 Ga4 Co2'
_cell_volume   219.54431338
_cell_formula_units_Z   2
loop_
 _symmetry_equiv_pos_site_id
 _symmetry_equiv_pos_as_xyz
  1  'x, y, z'
loop_
 _atom_site_type_symbol
 _atom_site_label
 _atom_site_symmetry_multiplicity
 _atom_site_fract_x
 _atom_site_fract_y
 _atom_site_fract_z
 _atom_site_occupancy
  Lu  Lu0  1  0.250000  0.493588  0.212965  1
  Lu  Lu1  1  0.750000  0.506412  0.787035  1
  Lu  Lu2  1  0.750000  0.010635  0.690138  1
  Lu  Lu3  1  0.250000  0.989365  0.309862  1
  Zn  Zn4  1  0.750000  0.826595  0.068623  1
  Zn  Zn5  1  0.250000  0.173405  0.931377  1
  Ga  Ga6  1  0.250000  0.785261  0.876502  1
  Ga  Ga7  1  0.750000  0.214739  0.123498  1
  Ga  Ga8  1  0.750000  0.697962  0.410904  1
  Ga  Ga9  1  0.250000  0.302038  0.589096  1
  Co  Co10  1  0.250000  0.663665  0.556327  1
  Co  Co11  1  0.750000  0.336335  0.443673  1
