# generated using pymatgen
data_Cs4Yb(AsS4)2
_symmetry_space_group_name_H-M   'P 1'
_cell_length_a   9.69210871
_cell_length_b   9.77953546
_cell_length_c   11.91988161
_cell_angle_alpha   105.36819340
_cell_angle_beta   103.99127205
_cell_angle_gamma   92.90202604
_symmetry_Int_Tables_number   1
_chemical_formula_structural   Cs4Yb(AsS4)2
_chemical_formula_sum   'Cs8 Yb2 As4 S16'
_cell_volume   1049.12456166
_cell_formula_units_Z   2
loop_
 _symmetry_equiv_pos_site_id
 _symmetry_equiv_pos_as_xyz
  1  'x, y, z'
loop_
 _atom_site_type_symbol
 _atom_site_label
 _atom_site_symmetry_multiplicity
 _atom_site_fract_x
 _atom_site_fract_y
 _atom_site_fract_z
 _atom_site_occupancy
  Cs  Cs0  1  0.933916  0.521836  0.250271  1
  Cs  Cs1  1  0.066084  0.478164  0.749729  1
  Cs  Cs2  1  0.762182  0.985059  0.457174  1
  Cs  Cs3  1  0.237818  0.014941  0.542826  1
  Cs  Cs4  1  0.598716  0.741466  0.018150  1
  Cs  Cs5  1  0.401284  0.258534  0.981850  1
  Cs  Cs6  1  0.618826  0.679974  0.620326  1
  Cs  Cs7  1  0.381174  0.320026  0.379674  1
  Yb  Yb8  1  0.851519  0.132807  0.924281  1
  Yb  Yb9  1  0.148481  0.867193  0.075719  1
  As  As10  1  0.951032  0.109469  0.225395  1
  As  As11  1  0.048968  0.890531  0.774605  1
  As  As12  1  0.366442  0.690258  0.255375  1
  As  As13  1  0.633558  0.309742  0.744625  1
  S  S14  1  0.965326  0.887613  0.229260  1
  S  S15  1  0.034674  0.112387  0.770740  1
  S  S16  1  0.593277  0.082640  0.740803  1
  S  S17  1  0.406723  0.917360  0.259197  1
  S  S18  1  0.287311  0.670536  0.406714  1
  S  S19  1  0.712689  0.329464  0.593286  1
  S  S20  1  0.797408  0.411623  0.916139  1
  S  S21  1  0.202592  0.588377  0.083861  1
  S  S22  1  0.010683  0.252431  0.406316  1
  S  S23  1  0.989317  0.747569  0.593684  1
  S  S24  1  0.099393  0.163019  0.122374  1
  S  S25  1  0.900607  0.836981  0.877626  1
  S  S26  1  0.736962  0.130241  0.121983  1
  S  S27  1  0.263038  0.869759  0.878017  1
  S  S28  1  0.563325  0.589751  0.260205  1
  S  S29  1  0.436675  0.410249  0.739795  1
