# generated using pymatgen
data_Dy11Er9CoBi8Os3
_symmetry_space_group_name_H-M   'P 1'
_cell_length_a   7.94416968
_cell_length_b   8.99961900
_cell_length_c   12.43636054
_cell_angle_alpha   90.00000000
_cell_angle_beta   90.22819241
_cell_angle_gamma   90.00000000
_symmetry_Int_Tables_number   1
_chemical_formula_structural   Dy11Er9CoBi8Os3
_chemical_formula_sum   'Dy11 Er9 Co1 Bi8 Os3'
_cell_volume   889.12433148
_cell_formula_units_Z   1
loop_
 _symmetry_equiv_pos_site_id
 _symmetry_equiv_pos_as_xyz
  1  'x, y, z'
loop_
 _atom_site_type_symbol
 _atom_site_label
 _atom_site_symmetry_multiplicity
 _atom_site_fract_x
 _atom_site_fract_y
 _atom_site_fract_z
 _atom_site_occupancy
  Dy  Dy0  1  0.844798  0.750000  0.799512  1
  Dy  Dy1  1  0.341827  0.250000  0.709064  1
  Dy  Dy2  1  0.656964  0.750000  0.293263  1
  Dy  Dy3  1  0.376681  0.750000  0.693919  1
  Dy  Dy4  1  0.621771  0.250000  0.307004  1
  Dy  Dy5  1  0.876455  0.250000  0.807861  1
  Dy  Dy6  1  0.119067  0.750000  0.186360  1
  Dy  Dy7  1  0.942455  0.750000  0.504762  1
  Dy  Dy8  1  0.058187  0.250000  0.495626  1
  Dy  Dy9  1  0.444686  0.250000  0.996821  1
  Dy  Dy10  1  0.554654  0.750000  0.003804  1
  Er  Er11  1  0.158084  0.250000  0.206611  1
  Er  Er12  1  0.672579  0.042170  0.564459  1
  Er  Er13  1  0.325599  0.956785  0.435115  1
  Er  Er14  1  0.174079  0.957640  0.935750  1
  Er  Er15  1  0.325599  0.543215  0.435115  1
  Er  Er16  1  0.827658  0.039062  0.063185  1
  Er  Er17  1  0.672579  0.457830  0.564459  1
  Er  Er18  1  0.827658  0.460938  0.063185  1
  Er  Er19  1  0.174079  0.542360  0.935750  1
  Co  Co20  1  0.931213  0.750000  0.008545  1
  Bi  Bi21  1  0.569908  0.492905  0.828008  1
  Bi  Bi22  1  0.430789  0.507467  0.172099  1
  Bi  Bi23  1  0.068105  0.507555  0.672681  1
  Bi  Bi24  1  0.430789  0.992533  0.172099  1
  Bi  Bi25  1  0.932028  0.492853  0.326448  1
  Bi  Bi26  1  0.569908  0.007095  0.828008  1
  Bi  Bi27  1  0.932028  0.007147  0.326448  1
  Bi  Bi28  1  0.068105  0.992445  0.672681  1
  Os  Os29  1  0.574233  0.750000  0.510630  1
  Os  Os30  1  0.424559  0.250000  0.490133  1
  Os  Os31  1  0.072875  0.250000  0.990592  1
