# generated using pymatgen
data_La16MgHg3IrRh3
_symmetry_space_group_name_H-M   'P 1'
_cell_length_a   10.10825919
_cell_length_b   10.17159007
_cell_length_c   10.17158893
_cell_angle_alpha   59.79569763
_cell_angle_beta   59.68172106
_cell_angle_gamma   59.68172525
_symmetry_Int_Tables_number   1
_chemical_formula_structural   La16MgHg3IrRh3
_chemical_formula_sum   'La16 Mg1 Hg3 Ir1 Rh3'
_cell_volume   734.79190180
_cell_formula_units_Z   1
loop_
 _symmetry_equiv_pos_site_id
 _symmetry_equiv_pos_as_xyz
  1  'x, y, z'
loop_
 _atom_site_type_symbol
 _atom_site_label
 _atom_site_symmetry_multiplicity
 _atom_site_fract_x
 _atom_site_fract_y
 _atom_site_fract_z
 _atom_site_occupancy
  La  La0  1  0.347061  0.346036  0.346036  1
  La  La1  1  0.347716  0.347130  0.957596  1
  La  La2  1  0.347716  0.957596  0.347130  1
  La  La3  1  0.948898  0.350088  0.350088  1
  La  La4  1  0.808526  0.191436  0.191436  1
  La  La5  1  0.187027  0.810646  0.810646  1
  La  La6  1  0.187339  0.811612  0.188616  1
  La  La7  1  0.806061  0.192593  0.806870  1
  La  La8  1  0.187339  0.188616  0.811613  1
  La  La9  1  0.806060  0.806870  0.192593  1
  La  La10  1  0.940645  0.562401  0.562401  1
  La  La11  1  0.557404  0.940939  0.940939  1
  La  La12  1  0.560402  0.940762  0.562133  1
  La  La13  1  0.940369  0.558768  0.938626  1
  La  La14  1  0.560402  0.562133  0.940762  1
  La  La15  1  0.940369  0.938626  0.558768  1
  Mg  Mg16  1  0.287567  0.570102  0.570102  1
  Hg  Hg17  1  0.579392  0.586062  0.586062  1
  Hg  Hg18  1  0.580430  0.586427  0.247355  1
  Hg  Hg19  1  0.580430  0.247355  0.586427  1
  Ir  Ir20  1  0.140910  0.141913  0.141913  1
  Rh  Rh21  1  0.140656  0.142409  0.577665  1
  Rh  Rh22  1  0.140656  0.577665  0.142409  1
  Rh  Rh23  1  0.576627  0.141819  0.141819  1
