# generated using pymatgen
data_Pr3CuHg3PdRh
_symmetry_space_group_name_H-M   'P 1'
_cell_length_a   7.86389800
_cell_length_b   7.86389798
_cell_length_c   3.88466400
_cell_angle_alpha   90.00000000
_cell_angle_beta   90.00000000
_cell_angle_gamma   119.99999165
_symmetry_Int_Tables_number   1
_chemical_formula_structural   Pr3CuHg3PdRh
_chemical_formula_sum   'Pr3 Cu1 Hg3 Pd1 Rh1'
_cell_volume   208.04624027
_cell_formula_units_Z   1
loop_
 _symmetry_equiv_pos_site_id
 _symmetry_equiv_pos_as_xyz
  1  'x, y, z'
loop_
 _atom_site_type_symbol
 _atom_site_label
 _atom_site_symmetry_multiplicity
 _atom_site_fract_x
 _atom_site_fract_y
 _atom_site_fract_z
 _atom_site_occupancy
  Pr  Pr0  1  0.413723  0.401801  0.500000  1
  Pr  Pr1  1  0.598199  0.011922  0.500000  1
  Pr  Pr2  1  0.988078  0.586277  0.500000  1
  Cu  Cu3  1  0.000000  0.000000  0.500000  1
  Hg  Hg4  1  0.743710  0.745770  0.000000  1
  Hg  Hg5  1  0.254230  0.997939  0.000000  1
  Hg  Hg6  1  0.002061  0.256290  0.000000  1
  Pd  Pd7  1  0.333333  0.666667  0.000000  1
  Rh  Rh8  1  0.666667  0.333333  0.000000  1
