# generated using pymatgen
data_Ho9Er2Th5(MgRu)4
_symmetry_space_group_name_H-M   'P 1'
_cell_length_a   9.69581225
_cell_length_b   9.75554603
_cell_length_c   9.75822015
_cell_angle_alpha   59.83930360
_cell_angle_beta   60.13971867
_cell_angle_gamma   60.13635306
_symmetry_Int_Tables_number   1
_chemical_formula_structural   Ho9Er2Th5(MgRu)4
_chemical_formula_sum   'Ho9 Er2 Th5 Mg4 Ru4'
_cell_volume   653.22375950
_cell_formula_units_Z   1
loop_
 _symmetry_equiv_pos_site_id
 _symmetry_equiv_pos_as_xyz
  1  'x, y, z'
loop_
 _atom_site_type_symbol
 _atom_site_label
 _atom_site_symmetry_multiplicity
 _atom_site_fract_x
 _atom_site_fract_y
 _atom_site_fract_z
 _atom_site_occupancy
  Ho  Ho0  1  0.813826  0.184829  0.810292  1
  Ho  Ho1  1  0.190920  0.185174  0.809806  1
  Ho  Ho2  1  0.813945  0.810296  0.184829  1
  Ho  Ho3  1  0.933179  0.567369  0.567182  1
  Ho  Ho4  1  0.564746  0.935016  0.935148  1
  Ho  Ho5  1  0.563211  0.935299  0.565309  1
  Ho  Ho6  1  0.936365  0.565042  0.935219  1
  Ho  Ho7  1  0.563119  0.565413  0.935353  1
  Ho  Ho8  1  0.936480  0.935152  0.564928  1
  Er  Er9  1  0.185957  0.813843  0.813987  1
  Er  Er10  1  0.190951  0.809669  0.185300  1
  Th  Th11  1  0.342551  0.348634  0.348383  1
  Th  Th12  1  0.346733  0.347657  0.959331  1
  Th  Th13  1  0.346714  0.959249  0.347595  1
  Th  Th14  1  0.959655  0.348990  0.348993  1
  Th  Th15  1  0.815833  0.183716  0.183931  1
  Mg  Mg16  1  0.580914  0.579856  0.579858  1
  Mg  Mg17  1  0.579301  0.581966  0.258650  1
  Mg  Mg18  1  0.579383  0.258656  0.581924  1
  Mg  Mg19  1  0.259366  0.579601  0.579464  1
  Ru  Ru20  1  0.129923  0.146775  0.146990  1
  Ru  Ru21  1  0.145223  0.141840  0.568350  1
  Ru  Ru22  1  0.145218  0.568589  0.141869  1
  Ru  Ru23  1  0.576484  0.147372  0.147309  1
