# generated using pymatgen
data_Dy11In(Hg2Ru)4
_symmetry_space_group_name_H-M   'P 1'
_cell_length_a   3.73830900
_cell_length_b   12.90239779
_cell_length_c   12.90239784
_cell_angle_alpha   113.26863615
_cell_angle_beta   90.00000000
_cell_angle_gamma   90.00000000
_symmetry_Int_Tables_number   1
_chemical_formula_structural   Dy11In(Hg2Ru)4
_chemical_formula_sum   'Dy11 In1 Hg8 Ru4'
_cell_volume   571.70523286
_cell_formula_units_Z   1
loop_
 _symmetry_equiv_pos_site_id
 _symmetry_equiv_pos_as_xyz
  1  'x, y, z'
loop_
 _atom_site_type_symbol
 _atom_site_label
 _atom_site_symmetry_multiplicity
 _atom_site_fract_x
 _atom_site_fract_y
 _atom_site_fract_z
 _atom_site_occupancy
  Dy  Dy0  1  0.000000  0.908095  0.579445  1
  Dy  Dy1  1  0.000000  0.091905  0.420555  1
  Dy  Dy2  1  0.000000  0.579445  0.908095  1
  Dy  Dy3  1  0.000000  0.420555  0.091905  1
  Dy  Dy4  1  0.000000  0.165357  0.834643  1
  Dy  Dy5  1  0.000000  0.834643  0.165357  1
  Dy  Dy6  1  0.000000  0.363658  0.636342  1
  Dy  Dy7  1  0.000000  0.636342  0.363658  1
  Dy  Dy8  1  0.000000  0.707976  0.707976  1
  Dy  Dy9  1  0.000000  0.292024  0.292024  1
  Dy  Dy10  1  0.000000  0.000000  0.000000  1
  In  In11  1  0.500000  0.500000  0.500000  1
  Hg  Hg12  1  0.500000  0.147617  0.630840  1
  Hg  Hg13  1  0.500000  0.852383  0.369160  1
  Hg  Hg14  1  0.500000  0.630840  0.147617  1
  Hg  Hg15  1  0.500000  0.369160  0.852383  1
  Hg  Hg16  1  0.500000  0.938556  0.783761  1
  Hg  Hg17  1  0.500000  0.061444  0.216239  1
  Hg  Hg18  1  0.500000  0.783761  0.938556  1
  Hg  Hg19  1  0.500000  0.216239  0.061444  1
  Ru  Ru20  1  0.500000  0.730972  0.549336  1
  Ru  Ru21  1  0.500000  0.269028  0.450664  1
  Ru  Ru22  1  0.500000  0.549336  0.730972  1
  Ru  Ru23  1  0.500000  0.450664  0.269028  1
