# generated using pymatgen
data_PrNd2In3Ga2Cu
_symmetry_space_group_name_H-M   'P 1'
_cell_length_a   7.47728524
_cell_length_b   7.46522879
_cell_length_c   4.50036500
_cell_angle_alpha   90.00000000
_cell_angle_beta   90.00000000
_cell_angle_gamma   119.94667217
_symmetry_Int_Tables_number   1
_chemical_formula_structural   PrNd2In3Ga2Cu
_chemical_formula_sum   'Pr1 Nd2 In3 Ga2 Cu1'
_cell_volume   217.66999381
_cell_formula_units_Z   1
loop_
 _symmetry_equiv_pos_site_id
 _symmetry_equiv_pos_as_xyz
  1  'x, y, z'
loop_
 _atom_site_type_symbol
 _atom_site_label
 _atom_site_symmetry_multiplicity
 _atom_site_fract_x
 _atom_site_fract_y
 _atom_site_fract_z
 _atom_site_occupancy
  Pr  Pr0  1  0.000000  0.592220  0.500000  1
  Nd  Nd1  1  0.407249  0.407099  0.500000  1
  Nd  Nd2  1  0.592751  0.999850  0.500000  1
  In  In3  1  0.755190  0.755835  0.000000  1
  In  In4  1  0.000000  0.243728  0.000000  1
  In  In5  1  0.244810  0.000645  0.000000  1
  Ga  Ga6  1  0.334627  0.667188  0.000000  1
  Ga  Ga7  1  0.665373  0.332560  0.000000  1
  Cu  Cu8  1  0.000000  0.000875  0.500000  1
