# generated using pymatgen
data_DyHoPu2(Si5Ni3)2
_symmetry_space_group_name_H-M   'P 1'
_cell_length_a   7.87619450
_cell_length_b   7.88468788
_cell_length_c   7.88468863
_cell_angle_alpha   138.08857303
_cell_angle_beta   105.06043762
_cell_angle_gamma   89.78569775
_symmetry_Int_Tables_number   1
_chemical_formula_structural   DyHoPu2(Si5Ni3)2
_chemical_formula_sum   'Dy1 Ho1 Pu2 Si10 Ni6'
_cell_volume   301.88617439
_cell_formula_units_Z   1
loop_
 _symmetry_equiv_pos_site_id
 _symmetry_equiv_pos_as_xyz
  1  'x, y, z'
loop_
 _atom_site_type_symbol
 _atom_site_label
 _atom_site_symmetry_multiplicity
 _atom_site_fract_x
 _atom_site_fract_y
 _atom_site_fract_z
 _atom_site_occupancy
  Dy  Dy0  1  0.367200  0.631817  0.735384  1
  Ho  Ho1  1  0.633041  0.368266  0.264775  1
  Pu  Pu2  1  0.102504  0.866624  0.235881  1
  Pu  Pu3  1  0.897255  0.133346  0.763909  1
  Si  Si4  1  0.999745  0.762275  0.761361  1
  Si  Si5  1  0.999745  0.238384  0.237470  1
  Si  Si6  1  0.267951  0.017574  0.747531  1
  Si  Si7  1  0.732116  0.478888  0.749648  1
  Si  Si8  1  0.732116  0.982468  0.253228  1
  Si  Si9  1  0.267951  0.520420  0.250377  1
  Si  Si10  1  0.762906  0.606493  0.156413  1
  Si  Si11  1  0.451130  0.104210  0.346919  1
  Si  Si12  1  0.550340  0.897043  0.653297  1
  Si  Si13  1  0.236365  0.392336  0.844029  1
  Ni  Ni14  1  0.252233  0.138977  0.113255  1
  Ni  Ni15  1  0.500011  0.253822  0.753815  1
  Ni  Ni16  1  0.023507  0.631353  0.392154  1
  Ni  Ni17  1  0.976079  0.368453  0.607626  1
  Ni  Ni18  1  0.747794  0.861054  0.886739  1
  Ni  Ni19  1  0.500011  0.746196  0.246189  1
