# generated using pymatgen
data_Ca5CdSi9(Pb3O11)3
_symmetry_space_group_name_H-M   'P 1'
_cell_length_a   10.02995400
_cell_length_b   10.02995353
_cell_length_c   10.32464500
_cell_angle_alpha   90.00000000
_cell_angle_beta   90.00000000
_cell_angle_gamma   119.99999495
_symmetry_Int_Tables_number   1
_chemical_formula_structural   Ca5CdSi9(Pb3O11)3
_chemical_formula_sum   'Ca5 Cd1 Si9 Pb9 O33'
_cell_volume   899.50512878
_cell_formula_units_Z   1
loop_
 _symmetry_equiv_pos_site_id
 _symmetry_equiv_pos_as_xyz
  1  'x, y, z'
loop_
 _atom_site_type_symbol
 _atom_site_label
 _atom_site_symmetry_multiplicity
 _atom_site_fract_x
 _atom_site_fract_y
 _atom_site_fract_z
 _atom_site_occupancy
  Ca  Ca0  1  0.000000  0.000000  0.160110  1
  Ca  Ca1  1  0.333333  0.666667  0.176984  1
  Ca  Ca2  1  0.000000  0.000000  0.839890  1
  Ca  Ca3  1  0.333333  0.666667  0.823016  1
  Ca  Ca4  1  0.000000  0.000000  0.500000  1
  Cd  Cd5  1  0.333333  0.666667  0.500000  1
  Si  Si6  1  0.262554  0.952134  0.350333  1
  Si  Si7  1  0.047866  0.310420  0.350333  1
  Si  Si8  1  0.643260  0.924757  0.000000  1
  Si  Si9  1  0.689580  0.737446  0.649667  1
  Si  Si10  1  0.281498  0.356740  0.000000  1
  Si  Si11  1  0.262554  0.952134  0.649667  1
  Si  Si12  1  0.075243  0.718502  0.000000  1
  Si  Si13  1  0.047866  0.310420  0.649667  1
  Si  Si14  1  0.689580  0.737446  0.350333  1
  Pb  Pb15  1  0.938999  0.607793  0.677603  1
  Pb  Pb16  1  0.392207  0.331206  0.322397  1
  Pb  Pb17  1  0.649592  0.586499  0.000000  1
  Pb  Pb18  1  0.936907  0.350408  0.000000  1
  Pb  Pb19  1  0.668794  0.061001  0.677603  1
  Pb  Pb20  1  0.413501  0.063093  0.000000  1
  Pb  Pb21  1  0.938999  0.607793  0.322397  1
  Pb  Pb22  1  0.392207  0.331206  0.677603  1
  Pb  Pb23  1  0.668794  0.061001  0.322397  1
  O  O24  1  0.161832  0.174171  0.000000  1
  O  O25  1  0.293739  0.032126  0.500000  1
  O  O26  1  0.967874  0.261611  0.500000  1
  O  O27  1  0.403839  0.419706  0.123655  1
  O  O28  1  0.123976  0.197241  0.329949  1
  O  O29  1  0.355915  0.095441  0.751416  1
  O  O30  1  0.178793  0.489624  0.658934  1
  O  O31  1  0.015867  0.596161  0.123655  1
  O  O32  1  0.310831  0.821207  0.341066  1
  O  O33  1  0.178793  0.489624  0.341066  1
  O  O34  1  0.802759  0.926734  0.329949  1
  O  O35  1  0.310831  0.821207  0.658934  1
  O  O36  1  0.904559  0.260474  0.751416  1
  O  O37  1  0.355915  0.095441  0.248584  1
  O  O38  1  0.012340  0.838168  0.000000  1
  O  O39  1  0.739526  0.644085  0.751416  1
  O  O40  1  0.739526  0.644085  0.248584  1
  O  O41  1  0.738389  0.706261  0.500000  1
  O  O42  1  0.537223  0.734043  0.000000  1
  O  O43  1  0.123976  0.197241  0.670051  1
  O  O44  1  0.580294  0.984133  0.876345  1
  O  O45  1  0.073266  0.876024  0.329949  1
  O  O46  1  0.904559  0.260474  0.248584  1
  O  O47  1  0.510376  0.689169  0.658934  1
  O  O48  1  0.073266  0.876024  0.670051  1
  O  O49  1  0.580294  0.984133  0.123655  1
  O  O50  1  0.265957  0.803180  0.000000  1
  O  O51  1  0.196820  0.462777  0.000000  1
  O  O52  1  0.510376  0.689169  0.341066  1
  O  O53  1  0.802759  0.926734  0.670051  1
  O  O54  1  0.825829  0.987660  0.000000  1
  O  O55  1  0.015867  0.596161  0.876345  1
  O  O56  1  0.403839  0.419706  0.876345  1
