# generated using pymatgen
data_Y2HfPtF14
_symmetry_space_group_name_H-M   'P 1'
_cell_length_a   5.63059081
_cell_length_b   8.99499918
_cell_length_c   12.10039491
_cell_angle_alpha   62.29405708
_cell_angle_beta   90.16789786
_cell_angle_gamma   90.13391263
_symmetry_Int_Tables_number   1
_chemical_formula_structural   Y2HfPtF14
_chemical_formula_sum   'Y4 Hf2 Pt2 F28'
_cell_volume   542.58183426
_cell_formula_units_Z   2
loop_
 _symmetry_equiv_pos_site_id
 _symmetry_equiv_pos_as_xyz
  1  'x, y, z'
loop_
 _atom_site_type_symbol
 _atom_site_label
 _atom_site_symmetry_multiplicity
 _atom_site_fract_x
 _atom_site_fract_y
 _atom_site_fract_z
 _atom_site_occupancy
  Y  Y0  1  0.257451  0.812657  0.268935  1
  Y  Y1  1  0.742549  0.187343  0.731065  1
  Y  Y2  1  0.759913  0.183105  0.239363  1
  Y  Y3  1  0.240087  0.816895  0.760637  1
  Hf  Hf4  1  0.756039  0.725579  0.043961  1
  Hf  Hf5  1  0.243961  0.274421  0.956039  1
  Pt  Pt6  1  0.259766  0.273166  0.456102  1
  Pt  Pt7  1  0.740234  0.726834  0.543898  1
  F  F8  1  0.934255  0.703889  0.417594  1
  F  F9  1  0.065745  0.296111  0.582406  1
  F  F10  1  0.459204  0.290498  0.082077  1
  F  F11  1  0.540796  0.709502  0.917923  1
  F  F12  1  0.478888  0.731527  0.145501  1
  F  F13  1  0.521112  0.268473  0.854499  1
  F  F14  1  0.969508  0.272125  0.365294  1
  F  F15  1  0.030492  0.727875  0.634706  1
  F  F16  1  0.960815  0.748200  0.172242  1
  F  F17  1  0.039185  0.251800  0.827758  1
  F  F18  1  0.449517  0.257656  0.324833  1
  F  F19  1  0.550483  0.742344  0.675167  1
  F  F20  1  0.779054  0.475013  0.141577  1
  F  F21  1  0.220946  0.524987  0.858423  1
  F  F22  1  0.268018  0.519914  0.359341  1
  F  F23  1  0.731982  0.480086  0.640659  1
  F  F24  1  0.948210  0.274319  0.050580  1
  F  F25  1  0.051790  0.725681  0.949420  1
  F  F26  1  0.444041  0.717310  0.459955  1
  F  F27  1  0.555959  0.282690  0.540045  1
  F  F28  1  0.740489  0.973565  0.452201  1
  F  F29  1  0.259511  0.026435  0.547799  1
  F  F30  1  0.241328  0.024385  0.059289  1
  F  F31  1  0.758672  0.975615  0.940711  1
  F  F32  1  0.580991  0.969228  0.236416  1
  F  F33  1  0.419009  0.030772  0.763584  1
  F  F34  1  0.082081  0.027704  0.272294  1
  F  F35  1  0.917919  0.972296  0.727706  1
