# generated using pymatgen
data_Yb3YNi2(RuO6)2
_symmetry_space_group_name_H-M   'P 1'
_cell_length_a   5.62371683
_cell_length_b   5.31255989
_cell_length_c   9.23399783
_cell_angle_alpha   55.55712360
_cell_angle_beta   89.99035151
_cell_angle_gamma   89.87161551
_symmetry_Int_Tables_number   1
_chemical_formula_structural   Yb3YNi2(RuO6)2
_chemical_formula_sum   'Yb3 Y1 Ni2 Ru2 O12'
_cell_volume   227.51317890
_cell_formula_units_Z   1
loop_
 _symmetry_equiv_pos_site_id
 _symmetry_equiv_pos_as_xyz
  1  'x, y, z'
loop_
 _atom_site_type_symbol
 _atom_site_label
 _atom_site_symmetry_multiplicity
 _atom_site_fract_x
 _atom_site_fract_y
 _atom_site_fract_z
 _atom_site_occupancy
  Yb  Yb0  1  0.073250  0.724076  0.753300  1
  Yb  Yb1  1  0.928860  0.274204  0.247092  1
  Yb  Yb2  1  0.570422  0.272487  0.748146  1
  Y  Y3  1  0.426264  0.727862  0.252109  1
  Ni  Ni4  1  0.501419  0.500591  0.998422  1
  Ni  Ni5  1  0.995952  0.497959  0.501664  1
  Ru  Ru6  1  0.501760  0.994450  0.503755  1
  Ru  Ru7  1  0.998102  0.005059  0.996650  1
  O  O8  1  0.468304  0.859431  0.744273  1
  O  O9  1  0.533441  0.133637  0.254816  1
  O  O10  1  0.967004  0.137116  0.755831  1
  O  O11  1  0.033834  0.859237  0.245298  1
  O  O12  1  0.792199  0.760343  0.556671  1
  O  O13  1  0.212075  0.247508  0.441279  1
  O  O14  1  0.293359  0.236461  0.946829  1
  O  O15  1  0.702390  0.761364  0.057041  1
  O  O16  1  0.310270  0.649085  0.548473  1
  O  O17  1  0.687567  0.357544  0.446398  1
  O  O18  1  0.810218  0.351763  0.948543  1
  O  O19  1  0.193311  0.649825  0.053410  1
