# generated using pymatgen
data_Ta4Fe(RhSe6)2
_symmetry_space_group_name_H-M   'P 1'
_cell_length_a   7.44775981
_cell_length_b   7.44775851
_cell_length_c   19.77052200
_cell_angle_alpha   68.08701458
_cell_angle_beta   68.08701861
_cell_angle_gamma   27.73739955
_symmetry_Int_Tables_number   1
_chemical_formula_structural   Ta4Fe(RhSe6)2
_chemical_formula_sum   'Ta4 Fe1 Rh2 Se12'
_cell_volume   471.18729082
_cell_formula_units_Z   1
loop_
 _symmetry_equiv_pos_site_id
 _symmetry_equiv_pos_as_xyz
  1  'x, y, z'
loop_
 _atom_site_type_symbol
 _atom_site_label
 _atom_site_symmetry_multiplicity
 _atom_site_fract_x
 _atom_site_fract_y
 _atom_site_fract_z
 _atom_site_occupancy
  Ta  Ta0  1  0.622228  0.622228  0.853389  1
  Ta  Ta1  1  0.377772  0.377772  0.146611  1
  Ta  Ta2  1  0.744420  0.744420  0.596109  1
  Ta  Ta3  1  0.255580  0.255580  0.403891  1
  Fe  Fe4  1  0.000000  0.000000  0.000000  1
  Rh  Rh5  1  0.228831  0.228831  0.718707  1
  Rh  Rh6  1  0.771169  0.771169  0.281293  1
  Se  Se7  1  0.976557  0.976557  0.887163  1
  Se  Se8  1  0.023443  0.023443  0.112837  1
  Se  Se9  1  0.626361  0.626361  0.405484  1
  Se  Se10  1  0.373639  0.373639  0.594516  1
  Se  Se11  1  0.144855  0.144855  0.553135  1
  Se  Se12  1  0.855145  0.855145  0.446865  1
  Se  Se13  1  0.806213  0.806213  0.767493  1
  Se  Se14  1  0.193787  0.193787  0.232507  1
  Se  Se15  1  0.176877  0.176877  0.929360  1
  Se  Se16  1  0.823123  0.823123  0.070640  1
  Se  Se17  1  0.601944  0.601944  0.723876  1
  Se  Se18  1  0.398056  0.398056  0.276124  1
