# generated using pymatgen
data_DyHo2ErGa7Ag5
_symmetry_space_group_name_H-M   'P 1'
_cell_length_a   4.34530900
_cell_length_b   6.99912536
_cell_length_c   10.30152800
_cell_angle_alpha   89.98127236
_cell_angle_beta   90.00000000
_cell_angle_gamma   90.00000000
_symmetry_Int_Tables_number   1
_chemical_formula_structural   DyHo2ErGa7Ag5
_chemical_formula_sum   'Dy1 Ho2 Er1 Ga7 Ag5'
_cell_volume   313.30408786
_cell_formula_units_Z   1
loop_
 _symmetry_equiv_pos_site_id
 _symmetry_equiv_pos_as_xyz
  1  'x, y, z'
loop_
 _atom_site_type_symbol
 _atom_site_label
 _atom_site_symmetry_multiplicity
 _atom_site_fract_x
 _atom_site_fract_y
 _atom_site_fract_z
 _atom_site_occupancy
  Dy  Dy0  1  0.000000  0.216201  0.829080  1
  Ho  Ho1  1  0.500000  0.780971  0.173002  1
  Ho  Ho2  1  0.500000  0.277262  0.327842  1
  Er  Er3  1  0.000000  0.723015  0.670666  1
  Ga  Ga4  1  0.500000  0.923721  0.846226  1
  Ga  Ga5  1  0.500000  0.426664  0.655149  1
  Ga  Ga6  1  0.000000  0.077603  0.153597  1
  Ga  Ga7  1  0.000000  0.574368  0.344362  1
  Ga  Ga8  1  0.500000  0.202386  0.035891  1
  Ga  Ga9  1  0.000000  0.299789  0.535620  1
  Ga  Ga10  1  0.000000  0.796651  0.964309  1
  Ag  Ag11  1  0.500000  0.541282  0.903560  1
  Ag  Ag12  1  0.500000  0.046178  0.600611  1
  Ag  Ag13  1  0.000000  0.457319  0.096715  1
  Ag  Ag14  1  0.000000  0.960404  0.401146  1
  Ag  Ag15  1  0.500000  0.696188  0.462223  1
