# generated using pymatgen
data_Sm7Dy13Pb16
_symmetry_space_group_name_H-M   'P 1'
_cell_length_a   8.24559829
_cell_length_b   8.34048903
_cell_length_c   15.73369000
_cell_angle_alpha   90.02356271
_cell_angle_beta   90.11032379
_cell_angle_gamma   89.89013742
_symmetry_Int_Tables_number   1
_chemical_formula_structural   Sm7Dy13Pb16
_chemical_formula_sum   'Sm7 Dy13 Pb16'
_cell_volume   1082.03831016
_cell_formula_units_Z   1
loop_
 _symmetry_equiv_pos_site_id
 _symmetry_equiv_pos_as_xyz
  1  'x, y, z'
loop_
 _atom_site_type_symbol
 _atom_site_label
 _atom_site_symmetry_multiplicity
 _atom_site_fract_x
 _atom_site_fract_y
 _atom_site_fract_z
 _atom_site_occupancy
  Sm  Sm0  1  0.968023  0.822326  0.899783  1
  Sm  Sm1  1  0.531921  0.322600  0.099675  1
  Sm  Sm2  1  0.032595  0.177223  0.400300  1
  Sm  Sm3  1  0.532385  0.323192  0.400468  1
  Sm  Sm4  1  0.031823  0.177408  0.099657  1
  Sm  Sm5  1  0.468371  0.677288  0.900486  1
  Sm  Sm6  1  0.967771  0.822267  0.599727  1
  Dy  Dy7  1  0.624514  0.159078  0.620767  1
  Dy  Dy8  1  0.125089  0.340981  0.879047  1
  Dy  Dy9  1  0.375201  0.840878  0.120853  1
  Dy  Dy10  1  0.876016  0.659248  0.379460  1
  Dy  Dy11  1  0.376090  0.840624  0.379550  1
  Dy  Dy12  1  0.875009  0.659185  0.120772  1
  Dy  Dy13  1  0.624784  0.158730  0.878744  1
  Dy  Dy14  1  0.124549  0.340999  0.620638  1
  Dy  Dy15  1  0.465907  0.676399  0.600504  1
  Dy  Dy16  1  0.791657  0.495847  0.749559  1
  Dy  Dy17  1  0.292051  0.004384  0.749651  1
  Dy  Dy18  1  0.208218  0.504584  0.250276  1
  Dy  Dy19  1  0.708176  0.995364  0.250107  1
  Pb  Pb20  1  0.715757  0.964967  0.456775  1
  Pb  Pb21  1  0.215225  0.535830  0.043062  1
  Pb  Pb22  1  0.284802  0.035757  0.956975  1
  Pb  Pb23  1  0.782028  0.466667  0.543493  1
  Pb  Pb24  1  0.285421  0.034120  0.543244  1
  Pb  Pb25  1  0.784952  0.463720  0.957029  1
  Pb  Pb26  1  0.715227  0.964335  0.042879  1
  Pb  Pb27  1  0.216906  0.536942  0.458123  1
  Pb  Pb28  1  0.428484  0.372840  0.749926  1
  Pb  Pb29  1  0.928410  0.127850  0.749867  1
  Pb  Pb30  1  0.571526  0.627753  0.250094  1
  Pb  Pb31  1  0.071466  0.871978  0.250010  1
  Pb  Pb32  1  0.655335  0.848447  0.748767  1
  Pb  Pb33  1  0.157967  0.649975  0.749625  1
  Pb  Pb34  1  0.343265  0.150331  0.250085  1
  Pb  Pb35  1  0.843079  0.349885  0.250023  1
