# generated using pymatgen
data_MgAg3(NO3)8
_symmetry_space_group_name_H-M   'P 1'
_cell_length_a   7.93765343
_cell_length_b   7.93765343
_cell_length_c   7.93765343
_cell_angle_alpha   91.51234678
_cell_angle_beta   88.48765322
_cell_angle_gamma   88.48765322
_symmetry_Int_Tables_number   1
_chemical_formula_structural   MgAg3(NO3)8
_chemical_formula_sum   'Mg1 Ag3 N8 O24'
_cell_volume   499.59048348
_cell_formula_units_Z   1
loop_
 _symmetry_equiv_pos_site_id
 _symmetry_equiv_pos_as_xyz
  1  'x, y, z'
loop_
 _atom_site_type_symbol
 _atom_site_label
 _atom_site_symmetry_multiplicity
 _atom_site_fract_x
 _atom_site_fract_y
 _atom_site_fract_z
 _atom_site_occupancy
  Mg  Mg0  1  0.000000  0.000000  0.500000  1
  Ag  Ag1  1  0.500000  0.500000  0.500000  1
  Ag  Ag2  1  0.500000  0.000000  0.000000  1
  Ag  Ag3  1  0.000000  0.500000  0.000000  1
  N  N4  1  0.683612  0.154977  0.331699  1
  N  N5  1  0.666928  0.333072  0.833072  1
  N  N6  1  0.845023  0.831699  0.816388  1
  N  N7  1  0.831699  0.683612  0.345023  1
  N  N8  1  0.154977  0.168301  0.183612  1
  N  N9  1  0.168301  0.316388  0.654977  1
  N  N10  1  0.333072  0.666928  0.166928  1
  N  N11  1  0.316388  0.845023  0.668301  1
  O  O12  1  0.547897  0.232180  0.814950  1
  O  O13  1  0.569051  0.266788  0.319234  1
  O  O14  1  0.685050  0.452103  0.732180  1
  O  O15  1  0.693895  0.034186  0.224627  1
  O  O16  1  0.724627  0.693895  0.465814  1
  O  O17  1  0.733212  0.819234  0.930949  1
  O  O18  1  0.767820  0.314950  0.952103  1
  O  O19  1  0.787794  0.162512  0.449451  1
  O  O20  1  0.837488  0.949451  0.712206  1
  O  O21  1  0.819234  0.569051  0.233212  1
  O  O22  1  0.965814  0.724627  0.806105  1
  O  O23  1  0.949451  0.787794  0.337488  1
  O  O24  1  0.050549  0.212206  0.662512  1
  O  O25  1  0.034186  0.275373  0.193895  1
  O  O26  1  0.180766  0.430949  0.766788  1
  O  O27  1  0.162512  0.050549  0.287794  1
  O  O28  1  0.232180  0.685050  0.047897  1
  O  O29  1  0.212206  0.837488  0.550549  1
  O  O30  1  0.266788  0.180766  0.069051  1
  O  O31  1  0.275373  0.306105  0.534186  1
  O  O32  1  0.314950  0.547897  0.267820  1
  O  O33  1  0.306105  0.965814  0.775373  1
  O  O34  1  0.430949  0.733212  0.680766  1
  O  O35  1  0.452103  0.767820  0.185050  1
