# generated using pymatgen
data_Hf7ZrNb2(Sn3N)2
_symmetry_space_group_name_H-M   'P 1'
_cell_length_a   8.35216505
_cell_length_b   8.36639820
_cell_length_c   5.65938101
_cell_angle_alpha   90.00709181
_cell_angle_beta   89.99645539
_cell_angle_gamma   120.05638054
_symmetry_Int_Tables_number   1
_chemical_formula_structural   Hf7ZrNb2(Sn3N)2
_chemical_formula_sum   'Hf7 Zr1 Nb2 Sn6 N2'
_cell_volume   342.28679555
_cell_formula_units_Z   1
loop_
 _symmetry_equiv_pos_site_id
 _symmetry_equiv_pos_as_xyz
  1  'x, y, z'
loop_
 _atom_site_type_symbol
 _atom_site_label
 _atom_site_symmetry_multiplicity
 _atom_site_fract_x
 _atom_site_fract_y
 _atom_site_fract_z
 _atom_site_occupancy
  Hf  Hf0  1  0.333655  0.666708  0.500096  1
  Hf  Hf1  1  0.666345  0.333052  0.500096  1
  Hf  Hf2  1  0.778921  0.779438  0.749377  1
  Hf  Hf3  1  0.221079  0.000517  0.749377  1
  Hf  Hf4  1  0.000000  0.221846  0.749133  1
  Hf  Hf5  1  0.220907  0.220710  0.250807  1
  Hf  Hf6  1  0.779093  0.999803  0.250807  1
  Zr  Zr7  1  0.000000  0.774658  0.250939  1
  Nb  Nb8  1  0.666271  0.332868  0.999967  1
  Nb  Nb9  1  0.333729  0.666598  0.999967  1
  Sn  Sn10  1  0.406438  0.406441  0.755816  1
  Sn  Sn11  1  0.593562  0.000003  0.755816  1
  Sn  Sn12  1  0.000000  0.593498  0.755711  1
  Sn  Sn13  1  0.592972  0.593153  0.244069  1
  Sn  Sn14  1  0.407028  0.000180  0.244069  1
  Sn  Sn15  1  0.000000  0.405418  0.244119  1
  N  N16  1  0.000000  0.002709  0.997776  1
  N  N17  1  0.000000  0.002398  0.502059  1
