# generated using pymatgen
data_Tb4ReCl4
_symmetry_space_group_name_H-M   'P 1'
_cell_length_a   8.67757864
_cell_length_b   8.67757973
_cell_length_c   6.55937289
_cell_angle_alpha   89.89047315
_cell_angle_beta   89.89047195
_cell_angle_gamma   89.54098178
_symmetry_Int_Tables_number   1
_chemical_formula_structural   Tb4ReCl4
_chemical_formula_sum   'Tb8 Re2 Cl8'
_cell_volume   493.90563312
_cell_formula_units_Z   2
loop_
 _symmetry_equiv_pos_site_id
 _symmetry_equiv_pos_as_xyz
  1  'x, y, z'
loop_
 _atom_site_type_symbol
 _atom_site_label
 _atom_site_symmetry_multiplicity
 _atom_site_fract_x
 _atom_site_fract_y
 _atom_site_fract_z
 _atom_site_occupancy
  Tb  Tb0  1  0.104977  0.741906  0.986124  1
  Tb  Tb1  1  0.258094  0.895023  0.513876  1
  Tb  Tb2  1  0.895023  0.258094  0.013876  1
  Tb  Tb3  1  0.741906  0.104977  0.486124  1
  Tb  Tb4  1  0.743179  0.896062  0.005781  1
  Tb  Tb5  1  0.103938  0.256821  0.494219  1
  Tb  Tb6  1  0.256821  0.103938  0.994219  1
  Tb  Tb7  1  0.896062  0.743179  0.505781  1
  Re  Re8  1  0.006703  0.993297  0.250000  1
  Re  Re9  1  0.993297  0.006703  0.750000  1
  Cl  Cl10  1  0.418666  0.821160  0.905560  1
  Cl  Cl11  1  0.178840  0.581334  0.594440  1
  Cl  Cl12  1  0.581334  0.178840  0.094440  1
  Cl  Cl13  1  0.821160  0.418666  0.405560  1
  Cl  Cl14  1  0.814646  0.583699  0.905353  1
  Cl  Cl15  1  0.416301  0.185354  0.594647  1
  Cl  Cl16  1  0.185354  0.416301  0.094647  1
  Cl  Cl17  1  0.583699  0.814646  0.405353  1
