# generated using pymatgen
data_Dy6Er2Ti11Si16Hg
_symmetry_space_group_name_H-M   'P 1'
_cell_length_a   7.07464332
_cell_length_b   7.07368443
_cell_length_c   12.92461110
_cell_angle_alpha   90.09135695
_cell_angle_beta   89.90512807
_cell_angle_gamma   89.63753590
_symmetry_Int_Tables_number   1
_chemical_formula_structural   Dy6Er2Ti11Si16Hg
_chemical_formula_sum   'Dy6 Er2 Ti11 Si16 Hg1'
_cell_volume   646.78191662
_cell_formula_units_Z   1
loop_
 _symmetry_equiv_pos_site_id
 _symmetry_equiv_pos_as_xyz
  1  'x, y, z'
loop_
 _atom_site_type_symbol
 _atom_site_label
 _atom_site_symmetry_multiplicity
 _atom_site_fract_x
 _atom_site_fract_y
 _atom_site_fract_z
 _atom_site_occupancy
  Dy  Dy0  1  0.341260  0.001515  0.466809  1
  Dy  Dy1  1  0.497936  0.840910  0.715805  1
  Dy  Dy2  1  0.501536  0.156704  0.215013  1
  Dy  Dy3  1  0.841190  0.497872  0.284199  1
  Dy  Dy4  1  0.156501  0.501627  0.784723  1
  Dy  Dy5  1  0.656893  0.001581  0.968218  1
  Er  Er6  1  0.000679  0.341737  0.533366  1
  Er  Er7  1  0.001765  0.657037  0.031982  1
  Ti  Ti8  1  0.173883  0.825651  0.250599  1
  Ti  Ti9  1  0.825924  0.174156  0.749432  1
  Ti  Ti10  1  0.672634  0.672306  0.500032  1
  Ti  Ti11  1  0.147482  0.009128  0.877094  1
  Ti  Ti12  1  0.496954  0.649760  0.123628  1
  Ti  Ti13  1  0.506729  0.351020  0.623919  1
  Ti  Ti14  1  0.650145  0.497106  0.876392  1
  Ti  Ti15  1  0.350901  0.506252  0.376018  1
  Ti  Ti16  1  0.849543  0.991330  0.374622  1
  Ti  Ti17  1  0.009042  0.147518  0.122951  1
  Ti  Ti18  1  0.991527  0.849309  0.625409  1
  Si  Si19  1  0.200287  0.133134  0.684690  1
  Si  Si20  1  0.373114  0.725234  0.927171  1
  Si  Si21  1  0.631902  0.293210  0.432686  1
  Si  Si22  1  0.726655  0.374721  0.073057  1
  Si  Si23  1  0.292432  0.630483  0.567494  1
  Si  Si24  1  0.799151  0.865816  0.183125  1
  Si  Si25  1  0.132618  0.201165  0.315096  1
  Si  Si26  1  0.866348  0.798489  0.816780  1
  Si  Si27  1  0.284894  0.931848  0.067677  1
  Si  Si28  1  0.547010  0.789465  0.313696  1
  Si  Si29  1  0.458858  0.206545  0.805007  1
  Si  Si30  1  0.789955  0.546535  0.686067  1
  Si  Si31  1  0.206060  0.459207  0.194606  1
  Si  Si32  1  0.710161  0.048260  0.563367  1
  Si  Si33  1  0.933008  0.286538  0.932497  1
  Si  Si34  1  0.047652  0.708760  0.436922  1
  Hg  Hg35  1  0.327376  0.328072  0.999850  1
