# generated using pymatgen
data_Yb2GaCo2Ru
_symmetry_space_group_name_H-M   'P 1'
_cell_length_a   5.14336779
_cell_length_b   5.14336677
_cell_length_c   5.21846262
_cell_angle_alpha   60.43823925
_cell_angle_beta   60.43824186
_cell_angle_gamma   59.95584239
_symmetry_Int_Tables_number   1
_chemical_formula_structural   Yb2GaCo2Ru
_chemical_formula_sum   'Yb2 Ga1 Co2 Ru1'
_cell_volume   98.22473287
_cell_formula_units_Z   1
loop_
 _symmetry_equiv_pos_site_id
 _symmetry_equiv_pos_as_xyz
  1  'x, y, z'
loop_
 _atom_site_type_symbol
 _atom_site_label
 _atom_site_symmetry_multiplicity
 _atom_site_fract_x
 _atom_site_fract_y
 _atom_site_fract_z
 _atom_site_occupancy
  Yb  Yb0  1  0.123459  0.123459  0.120676  1
  Yb  Yb1  1  0.876541  0.876541  0.879324  1
  Ga  Ga2  1  0.500000  0.500000  0.500000  1
  Co  Co3  1  0.500000  0.000000  0.500000  1
  Co  Co4  1  0.000000  0.500000  0.500000  1
  Ru  Ru5  1  0.500000  0.500000  0.000000  1
