# generated using pymatgen
data_Ho4SiMoRu6
_symmetry_space_group_name_H-M   'P 1'
_cell_length_a   5.56677003
_cell_length_b   5.12131240
_cell_length_c   8.98231400
_cell_angle_alpha   90.00000000
_cell_angle_beta   90.00000000
_cell_angle_gamma   123.04897976
_symmetry_Int_Tables_number   1
_chemical_formula_structural   Ho4SiMoRu6
_chemical_formula_sum   'Ho4 Si1 Mo1 Ru6'
_cell_volume   214.64602975
_cell_formula_units_Z   1
loop_
 _symmetry_equiv_pos_site_id
 _symmetry_equiv_pos_as_xyz
  1  'x, y, z'
loop_
 _atom_site_type_symbol
 _atom_site_label
 _atom_site_symmetry_multiplicity
 _atom_site_fract_x
 _atom_site_fract_y
 _atom_site_fract_z
 _atom_site_occupancy
  Ho  Ho0  1  0.674082  0.348901  0.563531  1
  Ho  Ho1  1  0.331974  0.663720  0.431001  1
  Ho  Ho2  1  0.331974  0.663720  0.068999  1
  Ho  Ho3  1  0.674082  0.348901  0.936469  1
  Si  Si4  1  0.833392  0.665380  0.250000  1
  Mo  Mo5  1  0.152625  0.305584  0.750000  1
  Ru  Ru6  1  0.007239  0.014247  0.495904  1
  Ru  Ru7  1  0.007239  0.014247  0.004096  1
  Ru  Ru8  1  0.174115  0.817661  0.750000  1
  Ru  Ru9  1  0.643291  0.818279  0.750000  1
  Ru  Ru10  1  0.825106  0.169482  0.250000  1
  Ru  Ru11  1  0.344878  0.169878  0.250000  1
