# generated using pymatgen
data_Ho2Si7(Ni3Rh)3
_symmetry_space_group_name_H-M   'P 1'
_cell_length_a   9.28531900
_cell_length_b   9.28531877
_cell_length_c   3.71470500
_cell_angle_alpha   90.00000000
_cell_angle_beta   90.00000000
_cell_angle_gamma   120.00000535
_symmetry_Int_Tables_number   1
_chemical_formula_structural   Ho2Si7(Ni3Rh)3
_chemical_formula_sum   'Ho2 Si7 Ni9 Rh3'
_cell_volume   277.36303763
_cell_formula_units_Z   1
loop_
 _symmetry_equiv_pos_site_id
 _symmetry_equiv_pos_as_xyz
  1  'x, y, z'
loop_
 _atom_site_type_symbol
 _atom_site_label
 _atom_site_symmetry_multiplicity
 _atom_site_fract_x
 _atom_site_fract_y
 _atom_site_fract_z
 _atom_site_occupancy
  Ho  Ho0  1  0.333333  0.666667  0.738082  1
  Ho  Ho1  1  0.666667  0.333333  0.237950  1
  Si  Si2  1  0.000000  0.000000  0.737930  1
  Si  Si3  1  0.403073  0.289830  0.738099  1
  Si  Si4  1  0.710170  0.113243  0.738099  1
  Si  Si5  1  0.886757  0.596927  0.738099  1
  Si  Si6  1  0.594636  0.706494  0.238000  1
  Si  Si7  1  0.293506  0.888143  0.238000  1
  Si  Si8  1  0.111857  0.405364  0.238000  1
  Ni  Ni9  1  0.438746  0.058624  0.739092  1
  Ni  Ni10  1  0.941376  0.380121  0.739092  1
  Ni  Ni11  1  0.619879  0.561254  0.739092  1
  Ni  Ni12  1  0.562393  0.943891  0.237690  1
  Ni  Ni13  1  0.056109  0.618502  0.237690  1
  Ni  Ni14  1  0.381498  0.437607  0.237690  1
  Ni  Ni15  1  0.156040  0.285014  0.737848  1
  Ni  Ni16  1  0.714986  0.871026  0.737848  1
  Ni  Ni17  1  0.128974  0.843960  0.737848  1
  Rh  Rh18  1  0.880452  0.780219  0.237950  1
  Rh  Rh19  1  0.219781  0.100233  0.237950  1
  Rh  Rh20  1  0.899767  0.119548  0.237950  1
