# generated using pymatgen
data_LuCdNi3Pt
_symmetry_space_group_name_H-M   'P 1'
_cell_length_a   4.97482986
_cell_length_b   4.97483005
_cell_length_c   5.13243380
_cell_angle_alpha   61.01069815
_cell_angle_beta   61.01069256
_cell_angle_gamma   60.00000831
_symmetry_Int_Tables_number   1
_chemical_formula_structural   LuCdNi3Pt
_chemical_formula_sum   'Lu1 Cd1 Ni3 Pt1'
_cell_volume   91.16606180
_cell_formula_units_Z   1
loop_
 _symmetry_equiv_pos_site_id
 _symmetry_equiv_pos_as_xyz
  1  'x, y, z'
loop_
 _atom_site_type_symbol
 _atom_site_label
 _atom_site_symmetry_multiplicity
 _atom_site_fract_x
 _atom_site_fract_y
 _atom_site_fract_z
 _atom_site_occupancy
  Lu  Lu0  1  0.249222  0.249222  0.252333  1
  Cd  Cd1  1  0.005667  0.005667  0.982998  1
  Ni  Ni2  1  0.625269  0.120947  0.628514  1
  Ni  Ni3  1  0.120947  0.625269  0.628514  1
  Ni  Ni4  1  0.625269  0.625269  0.628514  1
  Pt  Pt5  1  0.623624  0.623624  0.129128  1
