# generated using pymatgen
data_Tb2Nd2Ga4NiRh3
_symmetry_space_group_name_H-M   'P 1'
_cell_length_a   4.32805800
_cell_length_b   6.97121836
_cell_length_c   7.78699953
_cell_angle_alpha   90.56403657
_cell_angle_beta   90.00000000
_cell_angle_gamma   90.00000000
_symmetry_Int_Tables_number   1
_chemical_formula_structural   Tb2Nd2Ga4NiRh3
_chemical_formula_sum   'Tb2 Nd2 Ga4 Ni1 Rh3'
_cell_volume   234.93669944
_cell_formula_units_Z   1
loop_
 _symmetry_equiv_pos_site_id
 _symmetry_equiv_pos_as_xyz
  1  'x, y, z'
loop_
 _atom_site_type_symbol
 _atom_site_label
 _atom_site_symmetry_multiplicity
 _atom_site_fract_x
 _atom_site_fract_y
 _atom_site_fract_z
 _atom_site_occupancy
  Tb  Tb0  1  0.250000  0.528265  0.688504  1
  Tb  Tb1  1  0.750000  0.473819  0.311169  1
  Nd  Nd2  1  0.250000  0.028005  0.812753  1
  Nd  Nd3  1  0.750000  0.970269  0.190252  1
  Ga  Ga4  1  0.250000  0.158533  0.429361  1
  Ga  Ga5  1  0.250000  0.654208  0.061897  1
  Ga  Ga6  1  0.750000  0.838426  0.576668  1
  Ga  Ga7  1  0.750000  0.354137  0.929579  1
  Ni  Ni8  1  0.750000  0.715754  0.888156  1
  Rh  Rh9  1  0.250000  0.766108  0.394350  1
  Rh  Rh10  1  0.250000  0.279085  0.110374  1
  Rh  Rh11  1  0.750000  0.233391  0.606935  1
