# generated using pymatgen
data_Zr10BeTl3GaBiPb2
_symmetry_space_group_name_H-M   'P 1'
_cell_length_a   8.80918617
_cell_length_b   8.80918695
_cell_length_c   5.93750904
_cell_angle_alpha   90.00647872
_cell_angle_beta   90.00648682
_cell_angle_gamma   120.02150274
_symmetry_Int_Tables_number   1
_chemical_formula_structural   Zr10BeTl3GaBiPb2
_chemical_formula_sum   'Zr10 Be1 Tl3 Ga1 Bi1 Pb2'
_cell_volume   398.94440386
_cell_formula_units_Z   1
loop_
 _symmetry_equiv_pos_site_id
 _symmetry_equiv_pos_as_xyz
  1  'x, y, z'
loop_
 _atom_site_type_symbol
 _atom_site_label
 _atom_site_symmetry_multiplicity
 _atom_site_fract_x
 _atom_site_fract_y
 _atom_site_fract_z
 _atom_site_occupancy
  Zr  Zr0  1  0.666885  0.333100  0.997904  1
  Zr  Zr1  1  0.333100  0.666885  0.997904  1
  Zr  Zr2  1  0.332885  0.666738  0.503003  1
  Zr  Zr3  1  0.666738  0.332885  0.503003  1
  Zr  Zr4  1  0.746040  0.746040  0.762500  1
  Zr  Zr5  1  0.254176  0.000011  0.762580  1
  Zr  Zr6  1  0.000011  0.254176  0.762580  1
  Zr  Zr7  1  0.251698  0.251698  0.236097  1
  Zr  Zr8  1  0.748968  0.000400  0.235989  1
  Zr  Zr9  1  0.000400  0.748968  0.235989  1
  Be  Be10  1  0.000256  0.000256  0.994425  1
  Tl  Tl11  1  0.387152  0.387152  0.746115  1
  Tl  Tl12  1  0.611941  0.000018  0.745939  1
  Tl  Tl13  1  0.000018  0.611941  0.745939  1
  Ga  Ga14  1  0.000565  0.000565  0.503904  1
  Bi  Bi15  1  0.609803  0.609803  0.254920  1
  Pb  Pb16  1  0.389638  0.999725  0.255605  1
  Pb  Pb17  1  0.999725  0.389638  0.255605  1
