# generated using pymatgen
data_RbTc2Te7W4
_symmetry_space_group_name_H-M   'P 1'
_cell_length_a   10.42967259
_cell_length_b   10.40618457
_cell_length_c   10.38884212
_cell_angle_alpha   60.69766918
_cell_angle_beta   60.64092484
_cell_angle_gamma   60.54102309
_symmetry_Int_Tables_number   1
_chemical_formula_structural   RbTc2Te7W4
_chemical_formula_sum   'Rb2 Tc4 Te14 W8'
_cell_volume   808.56332474
_cell_formula_units_Z   2
loop_
 _symmetry_equiv_pos_site_id
 _symmetry_equiv_pos_as_xyz
  1  'x, y, z'
loop_
 _atom_site_type_symbol
 _atom_site_label
 _atom_site_symmetry_multiplicity
 _atom_site_fract_x
 _atom_site_fract_y
 _atom_site_fract_z
 _atom_site_occupancy
  Rb  Rb0  1  0.620705  0.621009  0.621936  1
  Rb  Rb1  1  0.380874  0.378542  0.378004  1
  Tc  Tc2  1  0.713534  0.876745  0.007175  1
  Tc  Tc3  1  0.008355  0.711312  0.878270  1
  Tc  Tc4  1  0.877589  0.006543  0.713081  1
  Tc  Tc5  1  0.286886  0.123562  0.993918  1
  Te  Te6  1  0.428183  0.812973  0.159584  1
  Te  Te7  1  0.168259  0.425617  0.805152  1
  Te  Te8  1  0.803196  0.166064  0.430262  1
  Te  Te9  1  0.576348  0.184089  0.839027  1
  Te  Te10  1  0.836949  0.577249  0.185792  1
  Te  Te11  1  0.185213  0.836279  0.578452  1
  Te  Te12  1  0.630658  0.971179  0.254940  1
  Te  Te13  1  0.253607  0.630714  0.974038  1
  Te  Te14  1  0.970899  0.254078  0.631558  1
  Te  Te15  1  0.368219  0.026284  0.744609  1
  Te  Te16  1  0.743698  0.369513  0.022186  1
  Te  Te17  1  0.026739  0.742079  0.367577  1
  Te  Te18  1  0.782943  0.778465  0.779300  1
  Te  Te19  1  0.225054  0.224225  0.222244  1
  W  W20  1  0.892803  0.054264  0.190024  1
  W  W21  1  0.189688  0.894689  0.053150  1
  W  W22  1  0.994413  0.285035  0.122941  1
  W  W23  1  0.120349  0.996957  0.285579  1
  W  W24  1  0.945224  0.810241  0.108569  1
  W  W25  1  0.105883  0.945766  0.811999  1
  W  W26  1  0.809184  0.107048  0.947323  1
  W  W27  1  0.054543  0.189481  0.893307  1
