# generated using pymatgen
data_TiI35
_symmetry_space_group_name_H-M   'P 1'
_cell_length_a   17.58017498
_cell_length_b   12.54030950
_cell_length_c   11.87107100
_cell_angle_alpha   88.81408644
_cell_angle_beta   66.02770740
_cell_angle_gamma   92.31545562
_symmetry_Int_Tables_number   1
_chemical_formula_structural   TiI35
_chemical_formula_sum   'Ti1 I35'
_cell_volume   2387.43274716
_cell_formula_units_Z   1
loop_
 _symmetry_equiv_pos_site_id
 _symmetry_equiv_pos_as_xyz
  1  'x, y, z'
loop_
 _atom_site_type_symbol
 _atom_site_label
 _atom_site_symmetry_multiplicity
 _atom_site_fract_x
 _atom_site_fract_y
 _atom_site_fract_z
 _atom_site_occupancy
  Ti  Ti0  1  0.214900  0.441671  0.488409  1
  I  I1  1  0.517751  0.258736  0.530087  1
  I  I2  1  0.765853  0.588606  0.566592  1
  I  I3  1  0.479319  0.678496  0.740166  1
  I  I4  1  0.060391  0.884701  0.849004  1
  I  I5  1  0.894724  0.149457  0.004199  1
  I  I6  1  0.661017  0.310182  0.286774  1
  I  I7  1  0.615269  0.355422  0.840439  1
  I  I8  1  0.342377  0.743050  0.680210  1
  I  I9  1  0.325968  0.575492  0.235678  1
  I  I10  1  0.638763  0.139174  0.802356  1
  I  I11  1  0.916707  0.550339  0.360313  1
  I  I12  1  0.060789  0.949107  0.613101  1
  I  I13  1  0.893920  0.100021  0.253214  1
  I  I14  1  0.889121  0.205128  0.773043  1
  I  I15  1  0.658807  0.048112  0.241299  1
  I  I16  1  0.034746  0.813542  0.101591  1
  I  I17  1  0.357224  0.969411  0.722300  1
  I  I18  1  0.902933  0.320529  0.313261  1
  I  I19  1  0.872541  0.924219  0.704546  1
  I  I20  1  0.889521  0.665322  0.814899  1
  I  I21  1  0.323295  0.063387  0.256513  1
  I  I22  1  0.338288  0.329768  0.265532  1
  I  I23  1  0.617325  0.618529  0.805060  1
  I  I24  1  0.113332  0.411977  0.375107  1
  I  I25  1  0.696627  0.902068  0.798078  1
  I  I26  1  0.873824  0.444013  0.800405  1
  I  I27  1  0.495772  0.053342  0.246952  1
  I  I28  1  0.158768  0.281315  0.644579  1
  I  I29  1  0.671264  0.779167  0.271724  1
  I  I30  1  0.853537  0.800290  0.189560  1
  I  I31  1  0.378047  0.202197  0.757610  1
  I  I32  1  0.354363  0.484090  0.530074  1
  I  I33  1  0.658064  0.541760  0.260292  1
  I  I34  1  0.145022  0.609387  0.605490  1
  I  I35  1  0.329828  0.807995  0.271549  1
