# generated using pymatgen
data_ZnCuNi4(MoO4)6
_symmetry_space_group_name_H-M   'P 1'
_cell_length_a   6.96590256
_cell_length_b   8.43054745
_cell_length_c   9.76327734
_cell_angle_alpha   95.97381656
_cell_angle_beta   107.11615292
_cell_angle_gamma   101.69480605
_symmetry_Int_Tables_number   1
_chemical_formula_structural   ZnCuNi4(MoO4)6
_chemical_formula_sum   'Zn1 Cu1 Ni4 Mo6 O24'
_cell_volume   528.31689968
_cell_formula_units_Z   1
loop_
 _symmetry_equiv_pos_site_id
 _symmetry_equiv_pos_as_xyz
  1  'x, y, z'
loop_
 _atom_site_type_symbol
 _atom_site_label
 _atom_site_symmetry_multiplicity
 _atom_site_fract_x
 _atom_site_fract_y
 _atom_site_fract_z
 _atom_site_occupancy
  Zn  Zn0  1  0.032203  0.108437  0.287905  1
  Cu  Cu1  1  0.969706  0.901251  0.734532  1
  Ni  Ni2  1  0.252370  0.698684  0.907456  1
  Ni  Ni3  1  0.747014  0.301157  0.092926  1
  Ni  Ni4  1  0.542417  0.691850  0.493427  1
  Ni  Ni5  1  0.462080  0.309496  0.504352  1
  Mo  Mo6  1  0.503061  0.992138  0.755028  1
  Mo  Mo7  1  0.492776  0.004992  0.243145  1
  Mo  Mo8  1  0.696598  0.601346  0.839154  1
  Mo  Mo9  1  0.298181  0.397876  0.157679  1
  Mo  Mo10  1  0.980985  0.696920  0.377559  1
  Mo  Mo11  1  0.023620  0.301293  0.622828  1
  O  O12  1  0.254000  0.873644  0.763387  1
  O  O13  1  0.735806  0.131721  0.236200  1
  O  O14  1  0.554281  0.712728  0.920669  1
  O  O15  1  0.443940  0.292769  0.074948  1
  O  O16  1  0.551600  0.523207  0.647546  1
  O  O17  1  0.442507  0.475349  0.350411  1
  O  O18  1  0.550340  0.858564  0.354871  1
  O  O19  1  0.452473  0.140503  0.644432  1
  O  O20  1  0.655243  0.098674  0.929221  1
  O  O21  1  0.335926  0.901249  0.067953  1
  O  O22  1  0.662282  0.870746  0.684727  1
  O  O23  1  0.349860  0.132332  0.319605  1
  O  O24  1  0.025654  0.126173  0.713354  1
  O  O25  1  0.975911  0.871320  0.284713  1
  O  O26  1  0.044787  0.262784  0.136748  1
  O  O27  1  0.953338  0.730219  0.856147  1
  O  O28  1  0.154573  0.484319  0.752561  1
  O  O29  1  0.858115  0.511910  0.247687  1
  O  O30  1  0.146179  0.276243  0.480531  1
  O  O31  1  0.850672  0.713663  0.512513  1
  O  O32  1  0.251234  0.563713  0.068231  1
  O  O33  1  0.742730  0.436970  0.930074  1
  O  O34  1  0.245091  0.701741  0.471644  1
  O  O35  1  0.762449  0.304015  0.535836  1
