# generated using pymatgen
data_Ba3YbNp2O9
_symmetry_space_group_name_H-M   'P 1'
_cell_length_a   10.65328023
_cell_length_b   10.65328041
_cell_length_c   10.65328100
_cell_angle_alpha   146.45115906
_cell_angle_beta   131.98854570
_cell_angle_gamma   59.84128305
_symmetry_Int_Tables_number   1
_chemical_formula_structural   Ba3YbNp2O9
_chemical_formula_sum   'Ba6 Yb2 Np4 O18'
_cell_volume   492.15415115
_cell_formula_units_Z   2
loop_
 _symmetry_equiv_pos_site_id
 _symmetry_equiv_pos_as_xyz
  1  'x, y, z'
loop_
 _atom_site_type_symbol
 _atom_site_label
 _atom_site_symmetry_multiplicity
 _atom_site_fract_x
 _atom_site_fract_y
 _atom_site_fract_z
 _atom_site_occupancy
  Ba  Ba0  1  0.764746  0.500000  0.264746  1
  Ba  Ba1  1  0.416251  0.172932  0.243318  1
  Ba  Ba2  1  0.070386  0.827068  0.243318  1
  Ba  Ba3  1  0.235254  0.500000  0.735254  1
  Ba  Ba4  1  0.929614  0.172932  0.756682  1
  Ba  Ba5  1  0.583749  0.827068  0.756682  1
  Yb  Yb6  1  0.167132  0.667132  0.500000  1
  Yb  Yb7  1  0.832868  0.332868  0.500000  1
  Np  Np8  1  0.000000  0.000000  0.000000  1
  Np  Np9  1  0.665234  0.665234  0.000000  1
  Np  Np10  1  0.334766  0.334766  0.000000  1
  Np  Np11  1  0.500000  0.000000  0.500000  1
  O  O12  1  0.748068  0.000000  0.748068  1
  O  O13  1  0.427741  0.665349  0.762392  1
  O  O14  1  0.097043  0.334651  0.762392  1
  O  O15  1  0.581457  0.832438  0.250981  1
  O  O16  1  0.253165  0.494782  0.241618  1
  O  O17  1  0.921096  0.162518  0.241422  1
  O  O18  1  0.418543  0.669524  0.250981  1
  O  O19  1  0.078904  0.320326  0.241422  1
  O  O20  1  0.746835  0.988453  0.241618  1
  O  O21  1  0.251932  0.000000  0.251932  1
  O  O22  1  0.902957  0.665349  0.237608  1
  O  O23  1  0.572259  0.334651  0.237608  1
  O  O24  1  0.418543  0.167562  0.749019  1
  O  O25  1  0.078904  0.837482  0.758578  1
  O  O26  1  0.746835  0.505218  0.758382  1
  O  O27  1  0.581457  0.330476  0.749019  1
  O  O28  1  0.253165  0.011547  0.758382  1
  O  O29  1  0.921096  0.679674  0.758578  1
