# generated using pymatgen
data_LiNd2Sm(Co4P3)2
_symmetry_space_group_name_H-M   'P 1'
_cell_length_a   3.77695400
_cell_length_b   10.69133200
_cell_length_c   12.38284600
_cell_angle_alpha   90.00000000
_cell_angle_beta   90.00000000
_cell_angle_gamma   90.00000000
_symmetry_Int_Tables_number   1
_chemical_formula_structural   LiNd2Sm(Co4P3)2
_chemical_formula_sum   'Li2 Nd4 Sm2 Co16 P12'
_cell_volume   500.02760762
_cell_formula_units_Z   2
loop_
 _symmetry_equiv_pos_site_id
 _symmetry_equiv_pos_as_xyz
  1  'x, y, z'
loop_
 _atom_site_type_symbol
 _atom_site_label
 _atom_site_symmetry_multiplicity
 _atom_site_fract_x
 _atom_site_fract_y
 _atom_site_fract_z
 _atom_site_occupancy
  Li  Li0  1  0.500000  0.500000  0.150663  1
  Li  Li1  1  0.000000  0.000000  0.849404  1
  Nd  Nd2  1  0.000000  0.500000  0.522396  1
  Nd  Nd3  1  0.500000  0.000000  0.476850  1
  Nd  Nd4  1  0.000000  0.681478  0.793867  1
  Nd  Nd5  1  0.000000  0.318522  0.793867  1
  Sm  Sm6  1  0.500000  0.818720  0.206067  1
  Sm  Sm7  1  0.500000  0.181280  0.206067  1
  Co  Co8  1  0.500000  0.500000  0.705459  1
  Co  Co9  1  0.000000  0.000000  0.293878  1
  Co  Co10  1  0.000000  0.500000  0.988540  1
  Co  Co11  1  0.500000  0.000000  0.013600  1
  Co  Co12  1  0.500000  0.332605  0.998022  1
  Co  Co13  1  0.500000  0.667395  0.998022  1
  Co  Co14  1  0.000000  0.166485  0.003693  1
  Co  Co15  1  0.000000  0.833515  0.003693  1
  Co  Co16  1  0.500000  0.296654  0.429791  1
  Co  Co17  1  0.500000  0.703346  0.429791  1
  Co  Co18  1  0.000000  0.202797  0.568622  1
  Co  Co19  1  0.000000  0.797203  0.568622  1
  Co  Co20  1  0.500000  0.880570  0.706664  1
  Co  Co21  1  0.500000  0.119430  0.706664  1
  Co  Co22  1  0.000000  0.620091  0.292476  1
  Co  Co23  1  0.000000  0.379909  0.292476  1
  P  P24  1  0.500000  0.500000  0.888504  1
  P  P25  1  0.000000  0.000000  0.113550  1
  P  P26  1  0.500000  0.500000  0.341723  1
  P  P27  1  0.000000  0.000000  0.657888  1
  P  P28  1  0.500000  0.304770  0.613347  1
  P  P29  1  0.500000  0.695230  0.613347  1
  P  P30  1  0.000000  0.194507  0.384715  1
  P  P31  1  0.000000  0.805493  0.384715  1
  P  P32  1  0.500000  0.845221  0.897251  1
  P  P33  1  0.500000  0.154779  0.897251  1
  P  P34  1  0.000000  0.655967  0.104257  1
  P  P35  1  0.000000  0.344033  0.104257  1
