# generated using pymatgen
data_BaLiDySe3
_symmetry_space_group_name_H-M   'P 1'
_cell_length_a   7.35977446
_cell_length_b   7.35977439
_cell_length_c   10.78722100
_cell_angle_alpha   90.00000000
_cell_angle_beta   90.00000000
_cell_angle_gamma   146.13946691
_symmetry_Int_Tables_number   1
_chemical_formula_structural   BaLiDySe3
_chemical_formula_sum   'Ba2 Li2 Dy2 Se6'
_cell_volume   325.55834662
_cell_formula_units_Z   2
loop_
 _symmetry_equiv_pos_site_id
 _symmetry_equiv_pos_as_xyz
  1  'x, y, z'
loop_
 _atom_site_type_symbol
 _atom_site_label
 _atom_site_symmetry_multiplicity
 _atom_site_fract_x
 _atom_site_fract_y
 _atom_site_fract_z
 _atom_site_occupancy
  Ba  Ba0  1  0.253092  0.746906  0.250000  1
  Ba  Ba1  1  0.746906  0.253092  0.750000  1
  Li  Li2  1  0.529498  0.470500  0.250000  1
  Li  Li3  1  0.470500  0.529498  0.750000  1
  Dy  Dy4  1  0.000000  0.000000  0.000000  1
  Dy  Dy5  1  0.000000  0.000000  0.500000  1
  Se  Se6  1  0.632396  0.367602  0.059020  1
  Se  Se7  1  0.931355  0.068643  0.250000  1
  Se  Se8  1  0.632396  0.367602  0.440981  1
  Se  Se9  1  0.367602  0.632396  0.559020  1
  Se  Se10  1  0.068643  0.931355  0.750000  1
  Se  Se11  1  0.367602  0.632396  0.940981  1
