# generated using pymatgen
data_Li8Y5Ho3Sn5Sb3
_symmetry_space_group_name_H-M   'P 1'
_cell_length_a   9.39403603
_cell_length_b   9.39443093
_cell_length_c   7.20468500
_cell_angle_alpha   89.99971774
_cell_angle_beta   90.00125645
_cell_angle_gamma   120.00804251
_symmetry_Int_Tables_number   1
_chemical_formula_structural   Li8Y5Ho3Sn5Sb3
_chemical_formula_sum   'Li8 Y5 Ho3 Sn5 Sb3'
_cell_volume   550.59609484
_cell_formula_units_Z   1
loop_
 _symmetry_equiv_pos_site_id
 _symmetry_equiv_pos_as_xyz
  1  'x, y, z'
loop_
 _atom_site_type_symbol
 _atom_site_label
 _atom_site_symmetry_multiplicity
 _atom_site_fract_x
 _atom_site_fract_y
 _atom_site_fract_z
 _atom_site_occupancy
  Li  Li0  1  0.166388  0.332852  0.284080  1
  Li  Li1  1  0.166382  0.833520  0.284078  1
  Li  Li2  1  0.667145  0.833561  0.284135  1
  Li  Li3  1  0.833347  0.666536  0.786061  1
  Li  Li4  1  0.833352  0.166827  0.786063  1
  Li  Li5  1  0.333455  0.166739  0.785962  1
  Li  Li6  1  0.333297  0.666651  0.675817  1
  Li  Li7  1  0.666757  0.333373  0.179184  1
  Y  Y8  1  0.512339  0.024712  0.490783  1
  Y  Y9  1  0.512328  0.487632  0.490781  1
  Y  Y10  1  0.975377  0.487686  0.490718  1
  Y  Y11  1  0.489543  0.979035  0.995824  1
  Y  Y12  1  0.489546  0.510481  0.995828  1
  Ho  Ho13  1  0.020789  0.510387  0.996062  1
  Ho  Ho14  1  0.000004  0.999999  0.497400  1
  Ho  Ho15  1  0.000010  0.000003  0.004692  1
  Sn  Sn16  1  0.833476  0.666495  0.231267  1
  Sn  Sn17  1  0.833462  0.166978  0.231276  1
  Sn  Sn18  1  0.333358  0.166671  0.231583  1
  Sn  Sn19  1  0.332990  0.666504  0.259771  1
  Sn  Sn20  1  0.666916  0.333457  0.760625  1
  Sb  Sb21  1  0.166433  0.333254  0.733422  1
  Sb  Sb22  1  0.166441  0.833200  0.733417  1
  Sb  Sb23  1  0.666864  0.833447  0.733139  1
