# generated using pymatgen
data_HfZr3Mn3Si4Ir
_symmetry_space_group_name_H-M   'P 1'
_cell_length_a   3.79301900
_cell_length_b   6.56761955
_cell_length_c   7.59651479
_cell_angle_alpha   89.78884155
_cell_angle_beta   90.00000000
_cell_angle_gamma   90.00000000
_symmetry_Int_Tables_number   1
_chemical_formula_structural   HfZr3Mn3Si4Ir
_chemical_formula_sum   'Hf1 Zr3 Mn3 Si4 Ir1'
_cell_volume   189.23629783
_cell_formula_units_Z   1
loop_
 _symmetry_equiv_pos_site_id
 _symmetry_equiv_pos_as_xyz
  1  'x, y, z'
loop_
 _atom_site_type_symbol
 _atom_site_label
 _atom_site_symmetry_multiplicity
 _atom_site_fract_x
 _atom_site_fract_y
 _atom_site_fract_z
 _atom_site_occupancy
  Hf  Hf0  1  0.250000  0.522927  0.678302  1
  Zr  Zr1  1  0.250000  0.022627  0.817509  1
  Zr  Zr2  1  0.750000  0.973495  0.180989  1
  Zr  Zr3  1  0.750000  0.475831  0.321531  1
  Mn  Mn4  1  0.250000  0.141196  0.438722  1
  Mn  Mn5  1  0.750000  0.860986  0.563685  1
  Mn  Mn6  1  0.250000  0.647534  0.063448  1
  Si  Si7  1  0.250000  0.272458  0.124441  1
  Si  Si8  1  0.250000  0.773520  0.382148  1
  Si  Si9  1  0.750000  0.727031  0.871464  1
  Si  Si10  1  0.750000  0.224857  0.621133  1
  Ir  Ir11  1  0.750000  0.357537  0.936626  1
