# generated using pymatgen
data_Nb12Ga5Au3N4
_symmetry_space_group_name_H-M   'P 1'
_cell_length_a   7.10130802
_cell_length_b   7.10130779
_cell_length_c   7.10130840
_cell_angle_alpha   90.17393174
_cell_angle_beta   90.17392623
_cell_angle_gamma   90.17393161
_symmetry_Int_Tables_number   1
_chemical_formula_structural   Nb12Ga5Au3N4
_chemical_formula_sum   'Nb12 Ga5 Au3 N4'
_cell_volume   358.10389592
_cell_formula_units_Z   1
loop_
 _symmetry_equiv_pos_site_id
 _symmetry_equiv_pos_as_xyz
  1  'x, y, z'
loop_
 _atom_site_type_symbol
 _atom_site_label
 _atom_site_symmetry_multiplicity
 _atom_site_fract_x
 _atom_site_fract_y
 _atom_site_fract_z
 _atom_site_occupancy
  Nb  Nb0  1  0.785935  0.954977  0.383604  1
  Nb  Nb1  1  0.711216  0.039324  0.871247  1
  Nb  Nb2  1  0.212113  0.454089  0.125352  1
  Nb  Nb3  1  0.290772  0.546512  0.622913  1
  Nb  Nb4  1  0.954977  0.383604  0.785935  1
  Nb  Nb5  1  0.039324  0.871247  0.711216  1
  Nb  Nb6  1  0.454089  0.125352  0.212113  1
  Nb  Nb7  1  0.546512  0.622913  0.290772  1
  Nb  Nb8  1  0.383604  0.785935  0.954977  1
  Nb  Nb9  1  0.871247  0.711216  0.039324  1
  Nb  Nb10  1  0.125352  0.212113  0.454089  1
  Nb  Nb11  1  0.622913  0.290772  0.546512  1
  Ga  Ga12  1  0.677472  0.677472  0.677472  1
  Ga  Ga13  1  0.570704  0.427402  0.931634  1
  Ga  Ga14  1  0.427402  0.931634  0.570704  1
  Ga  Ga15  1  0.931634  0.570704  0.427402  1
  Ga  Ga16  1  0.069050  0.069050  0.069050  1
  Au  Au17  1  0.179860  0.820009  0.315840  1
  Au  Au18  1  0.315840  0.179860  0.820009  1
  Au  Au19  1  0.820009  0.315840  0.179860  1
  N  N20  1  0.880404  0.127947  0.624867  1
  N  N21  1  0.624867  0.880404  0.127947  1
  N  N22  1  0.127947  0.624867  0.880404  1
  N  N23  1  0.376756  0.376756  0.376756  1
