# generated using pymatgen
data_Y6Ho4TlPb5
_symmetry_space_group_name_H-M   'P 1'
_cell_length_a   9.04112800
_cell_length_b   9.04501974
_cell_length_c   6.66547400
_cell_angle_alpha   90.00000000
_cell_angle_beta   90.00000000
_cell_angle_gamma   119.98576802
_symmetry_Int_Tables_number   1
_chemical_formula_structural   Y6Ho4TlPb5
_chemical_formula_sum   'Y6 Ho4 Tl1 Pb5'
_cell_volume   472.12399347
_cell_formula_units_Z   1
loop_
 _symmetry_equiv_pos_site_id
 _symmetry_equiv_pos_as_xyz
  1  'x, y, z'
loop_
 _atom_site_type_symbol
 _atom_site_label
 _atom_site_symmetry_multiplicity
 _atom_site_fract_x
 _atom_site_fract_y
 _atom_site_fract_z
 _atom_site_occupancy
  Y  Y0  1  0.239244  0.000000  0.250000  1
  Y  Y1  1  0.237651  0.237549  0.750000  1
  Y  Y2  1  0.000102  0.762451  0.750000  1
  Y  Y3  1  0.996052  0.234997  0.250000  1
  Y  Y4  1  0.761056  0.765003  0.250000  1
  Y  Y5  1  0.762100  0.000000  0.750000  1
  Ho  Ho6  1  0.336187  0.669970  0.001663  1
  Ho  Ho7  1  0.666217  0.330030  0.498337  1
  Ho  Ho8  1  0.666217  0.330030  0.001663  1
  Ho  Ho9  1  0.336187  0.669970  0.498337  1
  Tl  Tl10  1  0.603173  0.000000  0.250000  1
  Pb  Pb11  1  0.604914  0.603269  0.750000  1
  Pb  Pb12  1  0.001644  0.396731  0.750000  1
  Pb  Pb13  1  0.999473  0.604935  0.250000  1
  Pb  Pb14  1  0.394537  0.395065  0.250000  1
  Pb  Pb15  1  0.395246  0.000000  0.750000  1
