# generated using pymatgen
data_Hf8ScBeCrRe3
_symmetry_space_group_name_H-M   'P 1'
_cell_length_a   8.55225921
_cell_length_b   8.54336503
_cell_length_c   8.40096500
_cell_angle_alpha   90.00000000
_cell_angle_beta   90.00000000
_cell_angle_gamma   119.96413824
_symmetry_Int_Tables_number   1
_chemical_formula_structural   Hf8ScBeCrRe3
_chemical_formula_sum   'Hf16 Sc2 Be2 Cr2 Re6'
_cell_volume   531.77320646
_cell_formula_units_Z   2
loop_
 _symmetry_equiv_pos_site_id
 _symmetry_equiv_pos_as_xyz
  1  'x, y, z'
loop_
 _atom_site_type_symbol
 _atom_site_label
 _atom_site_symmetry_multiplicity
 _atom_site_fract_x
 _atom_site_fract_y
 _atom_site_fract_z
 _atom_site_occupancy
  Hf  Hf0  1  0.802804  0.607711  0.552787  1
  Hf  Hf1  1  0.802735  0.195073  0.552886  1
  Hf  Hf2  1  0.394313  0.197112  0.553880  1
  Hf  Hf3  1  0.196149  0.392178  0.446729  1
  Hf  Hf4  1  0.196101  0.803952  0.446805  1
  Hf  Hf5  1  0.607640  0.803792  0.446268  1
  Hf  Hf6  1  0.196149  0.392178  0.053271  1
  Hf  Hf7  1  0.196101  0.803952  0.053195  1
  Hf  Hf8  1  0.607640  0.803792  0.053732  1
  Hf  Hf9  1  0.802804  0.607711  0.947213  1
  Hf  Hf10  1  0.802735  0.195073  0.947114  1
  Hf  Hf11  1  0.394313  0.197112  0.946120  1
  Hf  Hf12  1  0.075026  0.537423  0.750000  1
  Hf  Hf13  1  0.539166  0.079392  0.250000  1
  Hf  Hf14  1  0.539122  0.459693  0.250000  1
  Hf  Hf15  1  0.921495  0.460615  0.250000  1
  Sc  Sc16  1  0.459422  0.919156  0.750000  1
  Sc  Sc17  1  0.459403  0.540147  0.750000  1
  Be  Be18  1  0.671602  0.335833  0.750000  1
  Be  Be19  1  0.332911  0.666459  0.250000  1
  Cr  Cr20  1  0.999221  0.000214  0.503977  1
  Cr  Cr21  1  0.999221  0.000214  0.996023  1
  Re  Re22  1  0.109160  0.217362  0.750000  1
  Re  Re23  1  0.108973  0.891600  0.750000  1
  Re  Re24  1  0.783431  0.891423  0.750000  1
  Re  Re25  1  0.892766  0.784234  0.250000  1
  Re  Re26  1  0.892449  0.108191  0.250000  1
  Re  Re27  1  0.217151  0.108407  0.250000  1
