# generated using pymatgen
data_Cs4SbWCl12
_symmetry_space_group_name_H-M   'P 1'
_cell_length_a   7.64228900
_cell_length_b   7.64228900
_cell_length_c   10.66963500
_cell_angle_alpha   90.00000000
_cell_angle_beta   90.00000000
_cell_angle_gamma   90.00000000
_symmetry_Int_Tables_number   1
_chemical_formula_structural   Cs4SbWCl12
_chemical_formula_sum   'Cs4 Sb1 W1 Cl12'
_cell_volume   623.15556330
_cell_formula_units_Z   1
loop_
 _symmetry_equiv_pos_site_id
 _symmetry_equiv_pos_as_xyz
  1  'x, y, z'
loop_
 _atom_site_type_symbol
 _atom_site_label
 _atom_site_symmetry_multiplicity
 _atom_site_fract_x
 _atom_site_fract_y
 _atom_site_fract_z
 _atom_site_occupancy
  Cs  Cs0  1  0.500000  0.000000  0.725019  1
  Cs  Cs1  1  0.000000  0.500000  0.274981  1
  Cs  Cs2  1  0.500000  0.000000  0.274981  1
  Cs  Cs3  1  0.000000  0.500000  0.725019  1
  Sb  Sb4  1  0.500000  0.500000  0.500000  1
  W  W5  1  0.000000  0.000000  0.000000  1
  Cl  Cl6  1  0.000000  0.000000  0.779173  1
  Cl  Cl7  1  0.500000  0.500000  0.250201  1
  Cl  Cl8  1  0.746614  0.746614  0.500000  1
  Cl  Cl9  1  0.218322  0.218322  0.000000  1
  Cl  Cl10  1  0.746614  0.253386  0.500000  1
  Cl  Cl11  1  0.218322  0.781678  0.000000  1
  Cl  Cl12  1  0.000000  0.000000  0.220827  1
  Cl  Cl13  1  0.500000  0.500000  0.749799  1
  Cl  Cl14  1  0.253386  0.253386  0.500000  1
  Cl  Cl15  1  0.781678  0.781678  0.000000  1
  Cl  Cl16  1  0.253386  0.746614  0.500000  1
  Cl  Cl17  1  0.781678  0.218322  0.000000  1
