# generated using pymatgen
data_Li4Nd3Ho(SiO4)4
_symmetry_space_group_name_H-M   'P 1'
_cell_length_a   6.35894461
_cell_length_b   5.53463765
_cell_length_c   11.15386527
_cell_angle_alpha   66.71066025
_cell_angle_beta   90.15464385
_cell_angle_gamma   90.32531187
_symmetry_Int_Tables_number   1
_chemical_formula_structural   Li4Nd3Ho(SiO4)4
_chemical_formula_sum   'Li4 Nd3 Ho1 Si4 O16'
_cell_volume   360.56301274
_cell_formula_units_Z   1
loop_
 _symmetry_equiv_pos_site_id
 _symmetry_equiv_pos_as_xyz
  1  'x, y, z'
loop_
 _atom_site_type_symbol
 _atom_site_label
 _atom_site_symmetry_multiplicity
 _atom_site_fract_x
 _atom_site_fract_y
 _atom_site_fract_z
 _atom_site_occupancy
  Li  Li0  1  0.134615  0.924003  0.426524  1
  Li  Li1  1  0.633365  0.071872  0.073008  1
  Li  Li2  1  0.867810  0.081055  0.568313  1
  Li  Li3  1  0.367402  0.922897  0.927758  1
  Nd  Nd4  1  0.118693  0.440509  0.851076  1
  Nd  Nd5  1  0.884174  0.555203  0.154923  1
  Nd  Nd6  1  0.617106  0.559261  0.649350  1
  Ho  Ho7  1  0.384251  0.444714  0.349946  1
  Si  Si8  1  0.644528  0.909189  0.357517  1
  Si  Si9  1  0.346366  0.096017  0.637194  1
  Si  Si10  1  0.159988  0.088259  0.146882  1
  Si  Si11  1  0.847453  0.908164  0.858465  1
  O  O12  1  0.857698  0.228292  0.777129  1
  O  O13  1  0.629955  0.230474  0.279733  1
  O  O14  1  0.164992  0.186261  0.522248  1
  O  O15  1  0.838828  0.768294  0.752209  1
  O  O16  1  0.152142  0.766616  0.229101  1
  O  O17  1  0.566314  0.218836  0.552629  1
  O  O18  1  0.653377  0.763893  0.252974  1
  O  O19  1  0.427883  0.771009  0.441964  1
  O  O20  1  0.067202  0.784338  0.942939  1
  O  O21  1  0.662304  0.823144  0.970428  1
  O  O22  1  0.172884  0.237617  0.249750  1
  O  O23  1  0.935869  0.206147  0.065855  1
  O  O24  1  0.340348  0.173846  0.031479  1
  O  O25  1  0.337181  0.234231  0.744489  1
  O  O26  1  0.353152  0.775834  0.719006  1
  O  O27  1  0.834120  0.830027  0.467112  1
