# generated using pymatgen
data_Tm4HfZr5Si8
_symmetry_space_group_name_H-M   'P 1'
_cell_length_a   7.28740264
_cell_length_b   7.06992118
_cell_length_c   7.27115866
_cell_angle_alpha   71.94076638
_cell_angle_beta   89.99913653
_cell_angle_gamma   90.01220929
_symmetry_Int_Tables_number   1
_chemical_formula_structural   Tm4HfZr5Si8
_chemical_formula_sum   'Tm4 Hf1 Zr5 Si8'
_cell_volume   356.16491258
_cell_formula_units_Z   1
loop_
 _symmetry_equiv_pos_site_id
 _symmetry_equiv_pos_as_xyz
  1  'x, y, z'
loop_
 _atom_site_type_symbol
 _atom_site_label
 _atom_site_symmetry_multiplicity
 _atom_site_fract_x
 _atom_site_fract_y
 _atom_site_fract_z
 _atom_site_occupancy
  Tm  Tm0  1  0.326823  0.573857  0.807895  1
  Tm  Tm1  1  0.827385  0.926702  0.192271  1
  Tm  Tm2  1  0.673177  0.426143  0.192105  1
  Tm  Tm3  1  0.172615  0.073298  0.807729  1
  Hf  Hf4  1  0.000000  0.500000  0.500000  1
  Zr  Zr5  1  0.500000  0.000000  0.500000  1
  Zr  Zr6  1  0.818962  0.750269  0.749191  1
  Zr  Zr7  1  0.319303  0.750757  0.251125  1
  Zr  Zr8  1  0.181038  0.249731  0.250809  1
  Zr  Zr9  1  0.680697  0.249243  0.748875  1
  Si  Si10  1  0.529879  0.869216  0.919000  1
  Si  Si11  1  0.029466  0.629663  0.083342  1
  Si  Si12  1  0.470121  0.130784  0.081000  1
  Si  Si13  1  0.970534  0.370337  0.916658  1
  Si  Si14  1  0.122288  0.870376  0.509865  1
  Si  Si15  1  0.624956  0.628294  0.489519  1
  Si  Si16  1  0.877712  0.129624  0.490135  1
  Si  Si17  1  0.375044  0.371706  0.510481  1
