# generated using pymatgen
data_Sr4LiGd(TeO6)2
_symmetry_space_group_name_H-M   'P 1'
_cell_length_a   5.79297567
_cell_length_b   5.83295720
_cell_length_c   8.34935334
_cell_angle_alpha   89.97320407
_cell_angle_beta   90.06707530
_cell_angle_gamma   90.02116436
_symmetry_Int_Tables_number   1
_chemical_formula_structural   Sr4LiGd(TeO6)2
_chemical_formula_sum   'Sr4 Li1 Gd1 Te2 O12'
_cell_volume   282.12590159
_cell_formula_units_Z   1
loop_
 _symmetry_equiv_pos_site_id
 _symmetry_equiv_pos_as_xyz
  1  'x, y, z'
loop_
 _atom_site_type_symbol
 _atom_site_label
 _atom_site_symmetry_multiplicity
 _atom_site_fract_x
 _atom_site_fract_y
 _atom_site_fract_z
 _atom_site_occupancy
  Sr  Sr0  1  0.005784  0.475128  0.227530  1
  Sr  Sr1  1  0.994216  0.524872  0.772470  1
  Sr  Sr2  1  0.492795  0.958592  0.228490  1
  Sr  Sr3  1  0.507205  0.041408  0.771510  1
  Li  Li4  1  0.500000  0.500000  0.000000  1
  Gd  Gd5  1  0.000000  0.000000  0.500000  1
  Te  Te6  1  0.000000  0.000000  0.000000  1
  Te  Te7  1  0.500000  0.500000  0.500000  1
  O  O8  1  0.933521  0.014927  0.232673  1
  O  O9  1  0.066479  0.985073  0.767327  1
  O  O10  1  0.578694  0.523550  0.275329  1
  O  O11  1  0.421306  0.476451  0.724671  1
  O  O12  1  0.205641  0.739463  0.032730  1
  O  O13  1  0.794359  0.260537  0.967270  1
  O  O14  1  0.318136  0.221257  0.454507  1
  O  O15  1  0.681864  0.778743  0.545493  1
  O  O16  1  0.259277  0.207681  0.029132  1
  O  O17  1  0.740723  0.792319  0.970868  1
  O  O18  1  0.224056  0.688136  0.456524  1
  O  O19  1  0.775944  0.311864  0.543476  1
