# generated using pymatgen
data_Tb10IrPb6Au
_symmetry_space_group_name_H-M   'P 1'
_cell_length_a   9.27124900
_cell_length_b   9.27124861
_cell_length_c   6.92408000
_cell_angle_alpha   90.00000000
_cell_angle_beta   90.00000000
_cell_angle_gamma   119.99999781
_symmetry_Int_Tables_number   1
_chemical_formula_structural   Tb10IrPb6Au
_chemical_formula_sum   'Tb10 Ir1 Pb6 Au1'
_cell_volume   515.42940413
_cell_formula_units_Z   1
loop_
 _symmetry_equiv_pos_site_id
 _symmetry_equiv_pos_as_xyz
  1  'x, y, z'
loop_
 _atom_site_type_symbol
 _atom_site_label
 _atom_site_symmetry_multiplicity
 _atom_site_fract_x
 _atom_site_fract_y
 _atom_site_fract_z
 _atom_site_occupancy
  Tb  Tb0  1  0.245345  0.245345  0.731910  1
  Tb  Tb1  1  0.000000  0.754655  0.731910  1
  Tb  Tb2  1  0.245345  0.000000  0.268090  1
  Tb  Tb3  1  0.754655  0.000000  0.731910  1
  Tb  Tb4  1  0.333333  0.666667  0.500000  1
  Tb  Tb5  1  0.666667  0.333333  0.500000  1
  Tb  Tb6  1  0.754655  0.754655  0.268090  1
  Tb  Tb7  1  0.000000  0.245345  0.268090  1
  Tb  Tb8  1  0.333333  0.666667  0.000000  1
  Tb  Tb9  1  0.666667  0.333333  0.000000  1
  Ir  Ir10  1  0.000000  0.000000  0.500000  1
  Pb  Pb11  1  0.598545  0.000000  0.248524  1
  Pb  Pb12  1  0.000000  0.598545  0.248524  1
  Pb  Pb13  1  0.598545  0.598545  0.751476  1
  Pb  Pb14  1  0.401455  0.401455  0.248524  1
  Pb  Pb15  1  0.000000  0.401455  0.751476  1
  Pb  Pb16  1  0.401455  0.000000  0.751476  1
  Au  Au17  1  0.000000  0.000000  0.000000  1
