# generated using pymatgen
data_Ho3Er13Cd4TcPd3
_symmetry_space_group_name_H-M   'P 1'
_cell_length_a   9.64917948
_cell_length_b   9.64978251
_cell_length_c   9.64978336
_cell_angle_alpha   59.37091207
_cell_angle_beta   59.37572382
_cell_angle_gamma   59.37573235
_symmetry_Int_Tables_number   1
_chemical_formula_structural   Ho3Er13Cd4TcPd3
_chemical_formula_sum   'Ho3 Er13 Cd4 Tc1 Pd3'
_cell_volume   626.29577830
_cell_formula_units_Z   1
loop_
 _symmetry_equiv_pos_site_id
 _symmetry_equiv_pos_as_xyz
  1  'x, y, z'
loop_
 _atom_site_type_symbol
 _atom_site_label
 _atom_site_symmetry_multiplicity
 _atom_site_fract_x
 _atom_site_fract_y
 _atom_site_fract_z
 _atom_site_occupancy
  Ho  Ho0  1  0.353157  0.353255  0.353255  1
  Ho  Ho1  1  0.351921  0.351890  0.942661  1
  Ho  Ho2  1  0.351921  0.942661  0.351890  1
  Er  Er3  1  0.942814  0.351919  0.351919  1
  Er  Er4  1  0.817243  0.187221  0.187221  1
  Er  Er5  1  0.188451  0.810754  0.810754  1
  Er  Er6  1  0.187109  0.817291  0.187143  1
  Er  Er7  1  0.810709  0.188556  0.810655  1
  Er  Er8  1  0.187109  0.187143  0.817291  1
  Er  Er9  1  0.810709  0.810655  0.188556  1
  Er  Er10  1  0.934526  0.566228  0.566228  1
  Er  Er11  1  0.557352  0.937261  0.937261  1
  Er  Er12  1  0.566366  0.934438  0.566254  1
  Er  Er13  1  0.937274  0.557230  0.937388  1
  Er  Er14  1  0.566366  0.566254  0.934438  1
  Er  Er15  1  0.937274  0.937388  0.557230  1
  Cd  Cd16  1  0.580899  0.580675  0.580675  1
  Cd  Cd17  1  0.581499  0.581341  0.253722  1
  Cd  Cd18  1  0.581499  0.253722  0.581341  1
  Cd  Cd19  1  0.253747  0.581355  0.581355  1
  Tc  Tc20  1  0.144869  0.145139  0.145139  1
  Pd  Pd21  1  0.144174  0.144662  0.568539  1
  Pd  Pd22  1  0.144174  0.568539  0.144662  1
  Pd  Pd23  1  0.568835  0.144418  0.144418  1
