# generated using pymatgen
data_Tm10PPb6Cl
_symmetry_space_group_name_H-M   'P 1'
_cell_length_a   9.05411700
_cell_length_b   9.05411870
_cell_length_c   6.66017500
_cell_angle_alpha   90.00000000
_cell_angle_beta   90.00000000
_cell_angle_gamma   119.99999746
_symmetry_Int_Tables_number   1
_chemical_formula_structural   Tm10PPb6Cl
_chemical_formula_sum   'Tm10 P1 Pb6 Cl1'
_cell_volume   472.83386023
_cell_formula_units_Z   1
loop_
 _symmetry_equiv_pos_site_id
 _symmetry_equiv_pos_as_xyz
  1  'x, y, z'
loop_
 _atom_site_type_symbol
 _atom_site_label
 _atom_site_symmetry_multiplicity
 _atom_site_fract_x
 _atom_site_fract_y
 _atom_site_fract_z
 _atom_site_occupancy
  Tm  Tm0  1  0.247384  0.247384  0.763499  1
  Tm  Tm1  1  0.000000  0.752616  0.763499  1
  Tm  Tm2  1  0.247384  0.000000  0.236501  1
  Tm  Tm3  1  0.752616  0.000000  0.763499  1
  Tm  Tm4  1  0.333333  0.666667  0.500000  1
  Tm  Tm5  1  0.666667  0.333333  0.500000  1
  Tm  Tm6  1  0.752616  0.752616  0.236501  1
  Tm  Tm7  1  0.000000  0.247384  0.236501  1
  Tm  Tm8  1  0.333333  0.666667  0.000000  1
  Tm  Tm9  1  0.666667  0.333333  0.000000  1
  P  P10  1  0.000000  0.000000  0.000000  1
  Pb  Pb11  1  0.604578  0.000000  0.250283  1
  Pb  Pb12  1  0.000000  0.604578  0.250283  1
  Pb  Pb13  1  0.604578  0.604578  0.749717  1
  Pb  Pb14  1  0.395422  0.395422  0.250283  1
  Pb  Pb15  1  0.000000  0.395422  0.749717  1
  Pb  Pb16  1  0.395422  0.000000  0.749717  1
  Cl  Cl17  1  0.000000  0.000000  0.500000  1
