# generated using pymatgen
data_TbHoZr2(NiAs)4
_symmetry_space_group_name_H-M   'P 1'
_cell_length_a   4.01349000
_cell_length_b   4.01349111
_cell_length_c   14.88423100
_cell_angle_alpha   90.00000000
_cell_angle_beta   90.00000000
_cell_angle_gamma   120.00000735
_symmetry_Int_Tables_number   1
_chemical_formula_structural   TbHoZr2(NiAs)4
_chemical_formula_sum   'Tb1 Ho1 Zr2 Ni4 As4'
_cell_volume   207.63544426
_cell_formula_units_Z   1
loop_
 _symmetry_equiv_pos_site_id
 _symmetry_equiv_pos_as_xyz
  1  'x, y, z'
loop_
 _atom_site_type_symbol
 _atom_site_label
 _atom_site_symmetry_multiplicity
 _atom_site_fract_x
 _atom_site_fract_y
 _atom_site_fract_z
 _atom_site_occupancy
  Tb  Tb0  1  0.000000  0.000000  0.000000  1
  Ho  Ho1  1  0.000000  0.000000  0.500000  1
  Zr  Zr2  1  0.000000  0.000000  0.250524  1
  Zr  Zr3  1  0.000000  0.000000  0.749476  1
  Ni  Ni4  1  0.333333  0.666667  0.155146  1
  Ni  Ni5  1  0.666667  0.333333  0.844854  1
  Ni  Ni6  1  0.666667  0.333333  0.654105  1
  Ni  Ni7  1  0.333333  0.666667  0.345895  1
  As  As8  1  0.333333  0.666667  0.621051  1
  As  As9  1  0.666667  0.333333  0.378949  1
  As  As10  1  0.666667  0.333333  0.122612  1
  As  As11  1  0.333333  0.666667  0.877388  1
