# generated using pymatgen
data_TcB6(SbRh10)2
_symmetry_space_group_name_H-M   'P 1'
_cell_length_a   8.11360075
_cell_length_b   8.11360172
_cell_length_c   8.11360100
_cell_angle_alpha   59.99999885
_cell_angle_beta   59.99999489
_cell_angle_gamma   59.99999820
_symmetry_Int_Tables_number   1
_chemical_formula_structural   TcB6(SbRh10)2
_chemical_formula_sum   'Tc1 B6 Sb2 Rh20'
_cell_volume   377.68169870
_cell_formula_units_Z   1
loop_
 _symmetry_equiv_pos_site_id
 _symmetry_equiv_pos_as_xyz
  1  'x, y, z'
loop_
 _atom_site_type_symbol
 _atom_site_label
 _atom_site_symmetry_multiplicity
 _atom_site_fract_x
 _atom_site_fract_y
 _atom_site_fract_z
 _atom_site_occupancy
  Tc  Tc0  1  0.000000  0.000000  0.000000  1
  B  B1  1  0.720718  0.720718  0.279282  1
  B  B2  1  0.720718  0.279282  0.720718  1
  B  B3  1  0.279282  0.720718  0.279282  1
  B  B4  1  0.720718  0.279282  0.279282  1
  B  B5  1  0.279282  0.720718  0.720718  1
  B  B6  1  0.279282  0.279282  0.720718  1
  Sb  Sb7  1  0.250000  0.250000  0.250000  1
  Sb  Sb8  1  0.750000  0.750000  0.750000  1
  Rh  Rh9  1  0.000000  0.000000  0.670145  1
  Rh  Rh10  1  0.619068  0.619068  0.142796  1
  Rh  Rh11  1  0.380932  0.857204  0.380932  1
  Rh  Rh12  1  0.670145  0.329855  0.000000  1
  Rh  Rh13  1  0.000000  0.329855  0.670145  1
  Rh  Rh14  1  0.670145  0.000000  0.000000  1
  Rh  Rh15  1  0.000000  0.000000  0.329855  1
  Rh  Rh16  1  0.000000  0.329855  0.000000  1
  Rh  Rh17  1  0.329855  0.000000  0.670145  1
  Rh  Rh18  1  0.670145  0.000000  0.329855  1
  Rh  Rh19  1  0.329855  0.000000  0.000000  1
  Rh  Rh20  1  0.000000  0.670145  0.000000  1
  Rh  Rh21  1  0.380932  0.380932  0.857204  1
  Rh  Rh22  1  0.000000  0.670145  0.329855  1
  Rh  Rh23  1  0.329855  0.670145  0.000000  1
  Rh  Rh24  1  0.619068  0.142796  0.619068  1
  Rh  Rh25  1  0.142796  0.619068  0.619068  1
  Rh  Rh26  1  0.380932  0.380932  0.380932  1
  Rh  Rh27  1  0.857204  0.380932  0.380932  1
  Rh  Rh28  1  0.619068  0.619068  0.619068  1
