# generated using pymatgen
data_Ti8Al14Fe2SiOs5
_symmetry_space_group_name_H-M   'P 1'
_cell_length_a   8.59290041
_cell_length_b   8.59289927
_cell_length_c   8.59289898
_cell_angle_alpha   120.06691178
_cell_angle_beta   119.83752410
_cell_angle_gamma   90.08289019
_symmetry_Int_Tables_number   1
_chemical_formula_structural   Ti8Al14Fe2SiOs5
_chemical_formula_sum   'Ti8 Al14 Fe2 Si1 Os5'
_cell_volume   448.96771194
_cell_formula_units_Z   1
loop_
 _symmetry_equiv_pos_site_id
 _symmetry_equiv_pos_as_xyz
  1  'x, y, z'
loop_
 _atom_site_type_symbol
 _atom_site_label
 _atom_site_symmetry_multiplicity
 _atom_site_fract_x
 _atom_site_fract_y
 _atom_site_fract_z
 _atom_site_occupancy
  Ti  Ti0  1  0.795143  0.292154  0.078480  1
  Ti  Ti1  1  0.213674  0.292154  0.497011  1
  Ti  Ti2  1  0.208106  0.708106  0.500000  1
  Ti  Ti3  1  0.213674  0.716663  0.921520  1
  Ti  Ti4  1  0.795143  0.716663  0.502989  1
  Ti  Ti5  1  0.784519  0.284519  0.500000  1
  Ti  Ti6  1  0.379126  0.115199  0.736073  1
  Ti  Ti7  1  0.379126  0.643052  0.263927  1
  Al  Al8  1  0.156320  0.332355  0.176032  1
  Al  Al9  1  0.156320  0.980288  0.823968  1
  Al  Al10  1  0.156753  0.343148  0.813606  1
  Al  Al11  1  0.529539  0.343148  0.186394  1
  Al  Al12  1  0.847961  0.666970  0.819010  1
  Al  Al13  1  0.847961  0.028952  0.180990  1
  Al  Al14  1  0.841096  0.659529  0.181568  1
  Al  Al15  1  0.477961  0.659529  0.818432  1
  Al  Al16  1  0.378174  0.115336  0.262838  1
  Al  Al17  1  0.852499  0.115336  0.737162  1
  Al  Al18  1  0.616627  0.880617  0.263992  1
  Al  Al19  1  0.616627  0.352636  0.736008  1
  Al  Al20  1  0.622224  0.882550  0.739674  1
  Al  Al21  1  0.142874  0.882550  0.260326  1
  Fe  Fe22  1  0.001276  0.001276  0.000000  1
  Fe  Fe23  1  0.494708  0.994708  0.500000  1
  Si  Si24  1  0.996854  0.496854  0.500000  1
  Os  Os25  1  0.998013  0.999905  0.499820  1
  Os  Os26  1  0.500086  0.999905  0.001892  1
  Os  Os27  1  0.499511  0.499511  0.000000  1
  Os  Os28  1  0.500086  0.498193  0.500180  1
  Os  Os29  1  0.998013  0.498193  0.998108  1
