# generated using pymatgen
data_PaTa5(TiTc2)6
_symmetry_space_group_name_H-M   'P 1'
_cell_length_a   4.46891600
_cell_length_b   6.32872500
_cell_length_c   13.46864000
_cell_angle_alpha   90.00000000
_cell_angle_beta   89.99968869
_cell_angle_gamma   90.00000000
_symmetry_Int_Tables_number   1
_chemical_formula_structural   PaTa5(TiTc2)6
_chemical_formula_sum   'Pa1 Ta5 Ti6 Tc12'
_cell_volume   380.92735509
_cell_formula_units_Z   1
loop_
 _symmetry_equiv_pos_site_id
 _symmetry_equiv_pos_as_xyz
  1  'x, y, z'
loop_
 _atom_site_type_symbol
 _atom_site_label
 _atom_site_symmetry_multiplicity
 _atom_site_fract_x
 _atom_site_fract_y
 _atom_site_fract_z
 _atom_site_occupancy
  Pa  Pa0  1  0.000000  0.500000  0.000000  1
  Ta  Ta1  1  0.499992  0.000000  0.169965  1
  Ta  Ta2  1  0.999994  0.500000  0.336977  1
  Ta  Ta3  1  0.500000  0.000000  0.500000  1
  Ta  Ta4  1  0.000006  0.500000  0.663023  1
  Ta  Ta5  1  0.500008  0.000000  0.830035  1
  Ti  Ti6  1  0.000000  0.000000  0.000000  1
  Ti  Ti7  1  0.499994  0.500000  0.177275  1
  Ti  Ti8  1  0.999991  0.000000  0.334653  1
  Ti  Ti9  1  0.500000  0.500000  0.500000  1
  Ti  Ti10  1  0.000009  0.000000  0.665348  1
  Ti  Ti11  1  0.500006  0.500000  0.822725  1
  Tc  Tc12  1  0.500000  0.251753  0.000000  1
  Tc  Tc13  1  0.500000  0.748247  0.000000  1
  Tc  Tc14  1  0.999992  0.250951  0.166238  1
  Tc  Tc15  1  0.999992  0.749049  0.166238  1
  Tc  Tc16  1  0.499992  0.249102  0.333787  1
  Tc  Tc17  1  0.499992  0.750898  0.333787  1
  Tc  Tc18  1  0.000000  0.249344  0.500000  1
  Tc  Tc19  1  0.000000  0.750656  0.500000  1
  Tc  Tc20  1  0.500007  0.249102  0.666213  1
  Tc  Tc21  1  0.500007  0.750898  0.666213  1
  Tc  Tc22  1  0.000008  0.250951  0.833762  1
  Tc  Tc23  1  0.000008  0.749049  0.833762  1
