# generated using pymatgen
data_Er4Lu(SiSb)2
_symmetry_space_group_name_H-M   'P 1'
_cell_length_a   8.39521402
_cell_length_b   8.39552606
_cell_length_c   7.74219800
_cell_angle_alpha   90.00552107
_cell_angle_beta   89.99563212
_cell_angle_gamma   125.24479021
_symmetry_Int_Tables_number   1
_chemical_formula_structural   Er4Lu(SiSb)2
_chemical_formula_sum   'Er8 Lu2 Si4 Sb4'
_cell_volume   445.65967489
_cell_formula_units_Z   2
loop_
 _symmetry_equiv_pos_site_id
 _symmetry_equiv_pos_as_xyz
  1  'x, y, z'
loop_
 _atom_site_type_symbol
 _atom_site_label
 _atom_site_symmetry_multiplicity
 _atom_site_fract_x
 _atom_site_fract_y
 _atom_site_fract_z
 _atom_site_occupancy
  Er  Er0  1  0.540317  0.790886  0.165145  1
  Er  Er1  1  0.290882  0.040326  0.334837  1
  Er  Er2  1  0.209124  0.459668  0.834849  1
  Er  Er3  1  0.959647  0.709119  0.665148  1
  Er  Er4  1  0.709098  0.959657  0.665156  1
  Er  Er5  1  0.459679  0.209094  0.834839  1
  Er  Er6  1  0.790897  0.540351  0.165145  1
  Er  Er7  1  0.040370  0.290901  0.334854  1
  Lu  Lu8  1  0.499984  0.499993  0.500033  1
  Lu  Lu9  1  0.999995  0.999981  0.999999  1
  Si  Si10  1  0.633158  0.633179  0.867906  1
  Si  Si11  1  0.133184  0.133173  0.632085  1
  Si  Si12  1  0.866824  0.866825  0.367914  1
  Si  Si13  1  0.366830  0.366834  0.132083  1
  Sb  Sb14  1  0.294154  0.705857  0.499994  1
  Sb  Sb15  1  0.205860  0.794141  0.000012  1
  Sb  Sb16  1  0.705854  0.294152  0.500029  1
  Sb  Sb17  1  0.794143  0.205866  0.999972  1
