# generated using pymatgen
data_Dy10In8Ni3Rh
_symmetry_space_group_name_H-M   'P 1'
_cell_length_a   3.60436800
_cell_length_b   8.08017489
_cell_length_c   18.06665617
_cell_angle_alpha   90.00028509
_cell_angle_beta   90.00000000
_cell_angle_gamma   90.00000000
_symmetry_Int_Tables_number   1
_chemical_formula_structural   Dy10In8Ni3Rh
_chemical_formula_sum   'Dy10 In8 Ni3 Rh1'
_cell_volume   526.17191799
_cell_formula_units_Z   1
loop_
 _symmetry_equiv_pos_site_id
 _symmetry_equiv_pos_as_xyz
  1  'x, y, z'
loop_
 _atom_site_type_symbol
 _atom_site_label
 _atom_site_symmetry_multiplicity
 _atom_site_fract_x
 _atom_site_fract_y
 _atom_site_fract_z
 _atom_site_occupancy
  Dy  Dy0  1  0.000000  0.499908  0.501393  1
  Dy  Dy1  1  0.000000  0.999937  0.999046  1
  Dy  Dy2  1  0.000000  0.744202  0.280042  1
  Dy  Dy3  1  0.000000  0.255661  0.720239  1
  Dy  Dy4  1  0.000000  0.755583  0.778294  1
  Dy  Dy5  1  0.000000  0.249060  0.222205  1
  Dy  Dy6  1  0.000000  0.617062  0.086252  1
  Dy  Dy7  1  0.000000  0.382822  0.910598  1
  Dy  Dy8  1  0.000000  0.883055  0.588489  1
  Dy  Dy9  1  0.000000  0.116026  0.412272  1
  In  In10  1  0.500000  0.705472  0.929381  1
  In  In11  1  0.500000  0.292544  0.068269  1
  In  In12  1  0.500000  0.794254  0.432497  1
  In  In13  1  0.500000  0.204196  0.568841  1
  In  In14  1  0.500000  0.573124  0.652597  1
  In  In15  1  0.500000  0.427373  0.351219  1
  In  In16  1  0.500000  0.927814  0.152421  1
  In  In17  1  0.500000  0.073162  0.846533  1
  Ni  Ni18  1  0.500000  0.477506  0.803087  1
  Ni  Ni19  1  0.500000  0.977381  0.695984  1
  Ni  Ni20  1  0.500000  0.020020  0.304360  1
  Rh  Rh21  1  0.500000  0.523842  0.195977  1
