# generated using pymatgen
data_Na2Mg3(SeO3)4
_symmetry_space_group_name_H-M   'P 1'
_cell_length_a   5.52955190
_cell_length_b   6.85682530
_cell_length_c   8.69451580
_cell_angle_alpha   93.04510362
_cell_angle_beta   108.91360841
_cell_angle_gamma   90.07325314
_symmetry_Int_Tables_number   1
_chemical_formula_structural   Na2Mg3(SeO3)4
_chemical_formula_sum   'Na2 Mg3 Se4 O12'
_cell_volume   311.35546783
_cell_formula_units_Z   1
loop_
 _symmetry_equiv_pos_site_id
 _symmetry_equiv_pos_as_xyz
  1  'x, y, z'
loop_
 _atom_site_type_symbol
 _atom_site_label
 _atom_site_symmetry_multiplicity
 _atom_site_fract_x
 _atom_site_fract_y
 _atom_site_fract_z
 _atom_site_occupancy
  Na  Na0  1  0.180907  0.612107  0.373604  1
  Na  Na1  1  0.819094  0.387897  0.626394  1
  Mg  Mg2  1  0.000000  0.000000  0.000002  1
  Mg  Mg3  1  0.606595  0.317455  0.211318  1
  Mg  Mg4  1  0.393403  0.682545  0.788681  1
  Se  Se5  1  0.565298  0.815264  0.128602  1
  Se  Se6  1  0.211610  0.137122  0.417629  1
  Se  Se7  1  0.788390  0.862877  0.582371  1
  Se  Se8  1  0.434704  0.184736  0.871400  1
  O  O9  1  0.737362  0.222565  0.016049  1
  O  O10  1  0.281628  0.218851  0.017602  1
  O  O11  1  0.624449  0.609411  0.235079  1
  O  O12  1  0.128985  0.966192  0.255631  1
  O  O13  1  0.953483  0.290099  0.383834  1
  O  O14  1  0.432607  0.292944  0.383456  1
  O  O15  1  0.567394  0.707053  0.616545  1
  O  O16  1  0.046516  0.709899  0.616165  1
  O  O17  1  0.871016  0.033806  0.744369  1
  O  O18  1  0.375551  0.390589  0.764922  1
  O  O19  1  0.718371  0.781150  0.982399  1
  O  O20  1  0.262639  0.777436  0.983953  1
