# generated using pymatgen
data_Yb3(AlAs2)2
_symmetry_space_group_name_H-M   'P 1'
_cell_length_a   8.25463709
_cell_length_b   8.25463650
_cell_length_c   6.62342157
_cell_angle_alpha   89.27422909
_cell_angle_beta   89.27422745
_cell_angle_gamma   76.02876808
_symmetry_Int_Tables_number   1
_chemical_formula_structural   Yb3(AlAs2)2
_chemical_formula_sum   'Yb6 Al4 As8'
_cell_volume   437.90572914
_cell_formula_units_Z   2
loop_
 _symmetry_equiv_pos_site_id
 _symmetry_equiv_pos_as_xyz
  1  'x, y, z'
loop_
 _atom_site_type_symbol
 _atom_site_label
 _atom_site_symmetry_multiplicity
 _atom_site_fract_x
 _atom_site_fract_y
 _atom_site_fract_z
 _atom_site_occupancy
  Yb  Yb0  1  0.749866  0.006117  0.966890  1
  Yb  Yb1  1  0.993883  0.250134  0.533110  1
  Yb  Yb2  1  0.250134  0.993883  0.033110  1
  Yb  Yb3  1  0.006117  0.749866  0.466890  1
  Yb  Yb4  1  0.598586  0.401414  0.250000  1
  Yb  Yb5  1  0.401414  0.598586  0.750000  1
  Al  Al6  1  0.580343  0.828943  0.415625  1
  Al  Al7  1  0.171057  0.419657  0.084375  1
  Al  Al8  1  0.419657  0.171057  0.584375  1
  Al  Al9  1  0.828943  0.580343  0.915625  1
  As  As10  1  0.720628  0.061425  0.473769  1
  As  As11  1  0.938575  0.279372  0.026231  1
  As  As12  1  0.279372  0.938575  0.526231  1
  As  As13  1  0.061425  0.720628  0.973769  1
  As  As14  1  0.565151  0.743666  0.063535  1
  As  As15  1  0.256334  0.434849  0.436465  1
  As  As16  1  0.434849  0.256334  0.936465  1
  As  As17  1  0.743666  0.565151  0.563535  1
