# generated using pymatgen
data_Lu5ScTi7Al9Os7
_symmetry_space_group_name_H-M   'P 1'
_cell_length_a   8.99531103
_cell_length_b   9.00479504
_cell_length_c   9.00479402
_cell_angle_alpha   59.36875652
_cell_angle_beta   59.50845324
_cell_angle_gamma   59.50845366
_symmetry_Int_Tables_number   1
_chemical_formula_structural   Lu5ScTi7Al9Os7
_chemical_formula_sum   'Lu5 Sc1 Ti7 Al9 Os7'
_cell_volume   509.44590497
_cell_formula_units_Z   1
loop_
 _symmetry_equiv_pos_site_id
 _symmetry_equiv_pos_as_xyz
  1  'x, y, z'
loop_
 _atom_site_type_symbol
 _atom_site_label
 _atom_site_symmetry_multiplicity
 _atom_site_fract_x
 _atom_site_fract_y
 _atom_site_fract_z
 _atom_site_occupancy
  Lu  Lu0  1  0.704590  0.704797  0.293501  1
  Lu  Lu1  1  0.294992  0.709941  0.294344  1
  Lu  Lu2  1  0.711653  0.292915  0.292915  1
  Lu  Lu3  1  0.294992  0.294344  0.709941  1
  Lu  Lu4  1  0.704590  0.293501  0.704797  1
  Sc  Sc5  1  0.287888  0.709825  0.709825  1
  Ti  Ti6  1  0.880537  0.879308  0.360752  1
  Ti  Ti7  1  0.880537  0.360752  0.879308  1
  Ti  Ti8  1  0.360137  0.879749  0.879749  1
  Ti  Ti9  1  0.878445  0.877397  0.877397  1
  Ti  Ti10  1  0.123315  0.120789  0.634949  1
  Ti  Ti11  1  0.123315  0.634949  0.120789  1
  Ti  Ti12  1  0.633826  0.122518  0.122518  1
  Al  Al13  1  0.118524  0.117851  0.117851  1
  Al  Al14  1  0.668897  0.668302  0.993143  1
  Al  Al15  1  0.668897  0.993143  0.668302  1
  Al  Al16  1  0.996074  0.668479  0.668479  1
  Al  Al17  1  0.666339  0.668421  0.668421  1
  Al  Al18  1  0.330796  0.332878  0.003875  1
  Al  Al19  1  0.330796  0.003875  0.332878  1
  Al  Al20  1  0.007604  0.330147  0.330147  1
  Al  Al21  1  0.332862  0.333215  0.333215  1
  Os  Os22  1  0.996205  0.996959  0.996959  1
  Os  Os23  1  0.000865  0.000101  0.504175  1
  Os  Os24  1  0.500069  0.998820  0.501059  1
  Os  Os25  1  0.998695  0.500963  0.500963  1
  Os  Os26  1  0.500069  0.501059  0.998820  1
  Os  Os27  1  0.000865  0.504175  0.000101  1
  Os  Os28  1  0.503624  0.000828  0.000828  1
