# generated using pymatgen
data_AcDy3(ZnPb)4
_symmetry_space_group_name_H-M   'P 1'
_cell_length_a   4.65458200
_cell_length_b   4.65458178
_cell_length_c   16.53960800
_cell_angle_alpha   90.00000000
_cell_angle_beta   90.00000000
_cell_angle_gamma   120.00000158
_symmetry_Int_Tables_number   1
_chemical_formula_structural   AcDy3(ZnPb)4
_chemical_formula_sum   'Ac1 Dy3 Zn4 Pb4'
_cell_volume   310.32530276
_cell_formula_units_Z   1
loop_
 _symmetry_equiv_pos_site_id
 _symmetry_equiv_pos_as_xyz
  1  'x, y, z'
loop_
 _atom_site_type_symbol
 _atom_site_label
 _atom_site_symmetry_multiplicity
 _atom_site_fract_x
 _atom_site_fract_y
 _atom_site_fract_z
 _atom_site_occupancy
  Ac  Ac0  1  0.000000  0.000000  0.000000  1
  Dy  Dy1  1  0.000000  0.000000  0.259714  1
  Dy  Dy2  1  0.000000  0.000000  0.500000  1
  Dy  Dy3  1  0.000000  0.000000  0.740286  1
  Zn  Zn4  1  0.666666  0.333334  0.176467  1
  Zn  Zn5  1  0.666666  0.333334  0.339609  1
  Zn  Zn6  1  0.333334  0.666668  0.660391  1
  Zn  Zn7  1  0.333334  0.666668  0.823533  1
  Pb  Pb8  1  0.333334  0.666668  0.126908  1
  Pb  Pb9  1  0.333334  0.666668  0.394082  1
  Pb  Pb10  1  0.666666  0.333334  0.605918  1
  Pb  Pb11  1  0.666666  0.333334  0.873092  1
