# generated using pymatgen
data_Pr3GeP6N13
_symmetry_space_group_name_H-M   'P 1'
_cell_length_a   7.27522742
_cell_length_b   7.27522782
_cell_length_c   7.27522800
_cell_angle_alpha   109.13151687
_cell_angle_beta   109.13150963
_cell_angle_gamma   109.13152020
_symmetry_Int_Tables_number   1
_chemical_formula_structural   Pr3GeP6N13
_chemical_formula_sum   'Pr3 Ge1 P6 N13'
_cell_volume   300.09741918
_cell_formula_units_Z   1
loop_
 _symmetry_equiv_pos_site_id
 _symmetry_equiv_pos_as_xyz
  1  'x, y, z'
loop_
 _atom_site_type_symbol
 _atom_site_label
 _atom_site_symmetry_multiplicity
 _atom_site_fract_x
 _atom_site_fract_y
 _atom_site_fract_z
 _atom_site_occupancy
  Pr  Pr0  1  0.689203  0.021695  0.021695  1
  Pr  Pr1  1  0.021695  0.021695  0.689203  1
  Pr  Pr2  1  0.021695  0.689203  0.021695  1
  Ge  Ge3  1  0.190340  0.190340  0.190340  1
  P  P4  1  0.253323  0.759026  0.509802  1
  P  P5  1  0.759026  0.253323  0.509802  1
  P  P6  1  0.759026  0.509802  0.253323  1
  P  P7  1  0.253323  0.509802  0.759026  1
  P  P8  1  0.509802  0.759026  0.253323  1
  P  P9  1  0.509802  0.253323  0.759026  1
  N  N10  1  0.910414  0.910414  0.910414  1
  N  N11  1  0.763099  0.337356  0.337356  1
  N  N12  1  0.337356  0.763099  0.337356  1
  N  N13  1  0.278771  0.585567  0.585567  1
  N  N14  1  0.585567  0.585567  0.278771  1
  N  N15  1  0.385294  0.728277  0.003746  1
  N  N16  1  0.003746  0.728277  0.385294  1
  N  N17  1  0.585567  0.278771  0.585567  1
  N  N18  1  0.728277  0.003746  0.385294  1
  N  N19  1  0.385294  0.003746  0.728277  1
  N  N20  1  0.728277  0.385294  0.003746  1
  N  N21  1  0.337356  0.337356  0.763099  1
  N  N22  1  0.003746  0.385294  0.728277  1
