# generated using pymatgen
data_SrNd(CoO2)6
_symmetry_space_group_name_H-M   'P 1'
_cell_length_a   4.94741286
_cell_length_b   5.84167537
_cell_length_c   8.53774200
_cell_angle_alpha   89.99994115
_cell_angle_beta   89.99996526
_cell_angle_gamma   74.14627284
_symmetry_Int_Tables_number   1
_chemical_formula_structural   SrNd(CoO2)6
_chemical_formula_sum   'Sr1 Nd1 Co6 O12'
_cell_volume   237.36497125
_cell_formula_units_Z   1
loop_
 _symmetry_equiv_pos_site_id
 _symmetry_equiv_pos_as_xyz
  1  'x, y, z'
loop_
 _atom_site_type_symbol
 _atom_site_label
 _atom_site_symmetry_multiplicity
 _atom_site_fract_x
 _atom_site_fract_y
 _atom_site_fract_z
 _atom_site_occupancy
  Sr  Sr0  1  0.000001  0.500000  0.166669  1
  Nd  Nd1  1  0.500000  0.500000  0.666546  1
  Co  Co2  1  0.500000  0.000000  0.166687  1
  Co  Co3  1  0.500000  0.000000  0.834166  1
  Co  Co4  1  0.500000  0.000000  0.499172  1
  Co  Co5  1  0.000000  0.000000  0.666670  1
  Co  Co6  1  0.000000  0.000000  0.334828  1
  Co  Co7  1  0.000000  0.000000  0.998515  1
  O  O8  1  0.774213  0.171521  0.166679  1
  O  O9  1  0.275991  0.181954  0.666678  1
  O  O10  1  0.225787  0.828479  0.166680  1
  O  O11  1  0.724009  0.818046  0.666679  1
  O  O12  1  0.279619  0.173886  0.001036  1
  O  O13  1  0.772717  0.183898  0.501673  1
  O  O14  1  0.279619  0.173893  0.332311  1
  O  O15  1  0.772703  0.183919  0.831662  1
  O  O16  1  0.720381  0.826107  0.332311  1
  O  O17  1  0.227297  0.816081  0.831662  1
  O  O18  1  0.720381  0.826114  0.001036  1
  O  O19  1  0.227283  0.816102  0.501674  1
