# generated using pymatgen
data_Fe4MoP4Ru2W
_symmetry_space_group_name_H-M   'P 1'
_cell_length_a   3.73933300
_cell_length_b   5.82179830
_cell_length_c   6.59460265
_cell_angle_alpha   90.22508143
_cell_angle_beta   90.00000000
_cell_angle_gamma   90.00000000
_symmetry_Int_Tables_number   1
_chemical_formula_structural   Fe4MoP4Ru2W
_chemical_formula_sum   'Fe4 Mo1 P4 Ru2 W1'
_cell_volume   143.56103423
_cell_formula_units_Z   1
loop_
 _symmetry_equiv_pos_site_id
 _symmetry_equiv_pos_as_xyz
  1  'x, y, z'
loop_
 _atom_site_type_symbol
 _atom_site_label
 _atom_site_symmetry_multiplicity
 _atom_site_fract_x
 _atom_site_fract_y
 _atom_site_fract_z
 _atom_site_occupancy
  Fe  Fe0  1  0.250000  0.860191  0.932485  1
  Fe  Fe1  1  0.250000  0.358184  0.565806  1
  Fe  Fe2  1  0.750000  0.141987  0.066458  1
  Fe  Fe3  1  0.750000  0.643479  0.433879  1
  Mo  Mo4  1  0.750000  0.528109  0.833609  1
  P  P5  1  0.250000  0.231363  0.882232  1
  P  P6  1  0.250000  0.729569  0.618133  1
  P  P7  1  0.750000  0.769602  0.121293  1
  P  P8  1  0.750000  0.270134  0.378677  1
  Ru  Ru9  1  0.250000  0.967792  0.337131  1
  Ru  Ru10  1  0.250000  0.471633  0.164114  1
  W  W11  1  0.750000  0.027956  0.666182  1
