# generated using pymatgen
data_Er3Sc(Tc3Ge4)2
_symmetry_space_group_name_H-M   'P 1'
_cell_length_a   6.91972446
_cell_length_b   6.89048375
_cell_length_c   6.91799900
_cell_angle_alpha   69.95799984
_cell_angle_beta   89.89572906
_cell_angle_gamma   90.13985746
_symmetry_Int_Tables_number   1
_chemical_formula_structural   Er3Sc(Tc3Ge4)2
_chemical_formula_sum   'Er3 Sc1 Tc6 Ge8'
_cell_volume   309.87446578
_cell_formula_units_Z   1
loop_
 _symmetry_equiv_pos_site_id
 _symmetry_equiv_pos_as_xyz
  1  'x, y, z'
loop_
 _atom_site_type_symbol
 _atom_site_label
 _atom_site_symmetry_multiplicity
 _atom_site_fract_x
 _atom_site_fract_y
 _atom_site_fract_z
 _atom_site_occupancy
  Er  Er0  1  0.168671  0.053243  0.806496  1
  Er  Er1  1  0.331896  0.551642  0.809284  1
  Er  Er2  1  0.829029  0.949149  0.192155  1
  Sc  Sc3  1  0.671873  0.448272  0.196376  1
  Tc  Tc4  1  0.500337  0.001793  0.498587  1
  Tc  Tc5  1  0.998805  0.500392  0.498956  1
  Tc  Tc6  1  0.143852  0.244758  0.237752  1
  Tc  Tc7  1  0.647060  0.255398  0.765840  1
  Tc  Tc8  1  0.852136  0.758518  0.762489  1
  Tc  Tc9  1  0.358309  0.734623  0.235772  1
  Ge  Ge10  1  0.447888  0.133256  0.105307  1
  Ge  Ge11  1  0.945699  0.370998  0.899994  1
  Ge  Ge12  1  0.552482  0.866022  0.899643  1
  Ge  Ge13  1  0.047859  0.632302  0.102885  1
  Ge  Ge14  1  0.851744  0.141012  0.508537  1
  Ge  Ge15  1  0.357941  0.362158  0.485559  1
  Ge  Ge16  1  0.147335  0.862899  0.483962  1
  Ge  Ge17  1  0.647089  0.633564  0.510407  1
