# generated using pymatgen
data_Y4TaSi8Tc5
_symmetry_space_group_name_H-M   'P 1'
_cell_length_a   6.85607115
_cell_length_b   6.77957808
_cell_length_c   6.82064958
_cell_angle_alpha   70.45804773
_cell_angle_beta   89.95655051
_cell_angle_gamma   90.12714164
_symmetry_Int_Tables_number   1
_chemical_formula_structural   Y4TaSi8Tc5
_chemical_formula_sum   'Y4 Ta1 Si8 Tc5'
_cell_volume   298.76926157
_cell_formula_units_Z   1
loop_
 _symmetry_equiv_pos_site_id
 _symmetry_equiv_pos_as_xyz
  1  'x, y, z'
loop_
 _atom_site_type_symbol
 _atom_site_label
 _atom_site_symmetry_multiplicity
 _atom_site_fract_x
 _atom_site_fract_y
 _atom_site_fract_z
 _atom_site_occupancy
  Y  Y0  1  0.169287  0.938897  0.192903  1
  Y  Y1  1  0.330436  0.438608  0.193523  1
  Y  Y2  1  0.831811  0.061161  0.813053  1
  Y  Y3  1  0.668448  0.559595  0.809391  1
  Ta  Ta4  1  0.659450  0.746314  0.252166  1
  Si  Si5  1  0.548282  0.132179  0.092559  1
  Si  Si6  1  0.353297  0.621590  0.519789  1
  Si  Si7  1  0.870349  0.876143  0.497405  1
  Si  Si8  1  0.053977  0.384323  0.891830  1
  Si  Si9  1  0.137105  0.133002  0.509184  1
  Si  Si10  1  0.635560  0.358654  0.491754  1
  Si  Si11  1  0.957283  0.623655  0.093490  1
  Si  Si12  1  0.450442  0.874251  0.897195  1
  Tc  Tc13  1  0.844838  0.247476  0.235154  1
  Tc  Tc14  1  0.342249  0.246257  0.760167  1
  Tc  Tc15  1  0.150963  0.765004  0.755214  1
  Tc  Tc16  1  0.501348  0.990452  0.495062  1
  Tc  Tc17  1  0.994872  0.502440  0.500159  1
