# generated using pymatgen
data_Ta10Ga3Si2P
_symmetry_space_group_name_H-M   'P 1'
_cell_length_a   6.61884510
_cell_length_b   7.59341379
_cell_length_c   6.61884515
_cell_angle_alpha   115.82733103
_cell_angle_beta   90.02201338
_cell_angle_gamma   115.82733501
_symmetry_Int_Tables_number   1
_chemical_formula_structural   Ta10Ga3Si2P
_chemical_formula_sum   'Ta10 Ga3 Si2 P1'
_cell_volume   261.99090484
_cell_formula_units_Z   1
loop_
 _symmetry_equiv_pos_site_id
 _symmetry_equiv_pos_as_xyz
  1  'x, y, z'
loop_
 _atom_site_type_symbol
 _atom_site_label
 _atom_site_symmetry_multiplicity
 _atom_site_fract_x
 _atom_site_fract_y
 _atom_site_fract_z
 _atom_site_occupancy
  Ta  Ta0  1  0.994416  0.000000  0.003005  1
  Ta  Ta1  1  0.503005  0.000000  0.494416  1
  Ta  Ta2  1  0.517011  0.700970  0.689867  1
  Ta  Ta3  1  0.189867  0.700970  0.017011  1
  Ta  Ta4  1  0.687807  0.704518  0.187807  1
  Ta  Ta5  1  0.007071  0.695591  0.507071  1
  Ta  Ta6  1  0.488898  0.299030  0.316042  1
  Ta  Ta7  1  0.816042  0.299030  0.988898  1
  Ta  Ta8  1  0.311481  0.304409  0.811481  1
  Ta  Ta9  1  0.983290  0.295482  0.483290  1
  Ga  Ga10  1  0.753004  0.500000  0.753004  1
  Ga  Ga11  1  0.253004  0.500000  0.253004  1
  Ga  Ga12  1  0.363046  0.000000  0.863046  1
  Si  Si13  1  0.869989  0.000000  0.632035  1
  Si  Si14  1  0.132035  0.000000  0.369989  1
  P  P15  1  0.630031  0.000000  0.130031  1
