# generated using pymatgen
data_Li12La12Te3W5O48
_symmetry_space_group_name_H-M   'P 1'
_cell_length_a   11.06869054
_cell_length_b   11.06869123
_cell_length_c   11.06222600
_cell_angle_alpha   109.45939071
_cell_angle_beta   109.45939197
_cell_angle_gamma   109.48304803
_symmetry_Int_Tables_number   1
_chemical_formula_structural   Li12La12Te3W5O48
_chemical_formula_sum   'Li12 La12 Te3 W5 O48'
_cell_volume   1043.46174499
_cell_formula_units_Z   1
loop_
 _symmetry_equiv_pos_site_id
 _symmetry_equiv_pos_as_xyz
  1  'x, y, z'
loop_
 _atom_site_type_symbol
 _atom_site_label
 _atom_site_symmetry_multiplicity
 _atom_site_fract_x
 _atom_site_fract_y
 _atom_site_fract_z
 _atom_site_occupancy
  Li  Li0  1  0.750145  0.374484  0.125833  1
  Li  Li1  1  0.875661  0.750145  0.124312  1
  Li  Li2  1  0.125199  0.375131  0.249991  1
  Li  Li3  1  0.625516  0.875661  0.251349  1
  Li  Li4  1  0.624869  0.250068  0.374860  1
  Li  Li5  1  0.250068  0.125199  0.375208  1
  Li  Li6  1  0.375131  0.749932  0.625140  1
  Li  Li7  1  0.749932  0.874800  0.624792  1
  Li  Li8  1  0.374484  0.124339  0.748651  1
  Li  Li9  1  0.874800  0.624869  0.750009  1
  Li  Li10  1  0.124338  0.249854  0.875687  1
  Li  Li11  1  0.249855  0.625516  0.874167  1
  La  La12  1  0.250127  0.873924  0.123793  1
  La  La13  1  0.376724  0.251088  0.125815  1
  La  La14  1  0.873924  0.123795  0.250129  1
  La  La15  1  0.374365  0.623276  0.249092  1
  La  La16  1  0.123796  0.749872  0.373666  1
  La  La17  1  0.748912  0.625635  0.374727  1
  La  La18  1  0.876204  0.250128  0.626334  1
  La  La19  1  0.251088  0.374365  0.625273  1
  La  La20  1  0.625635  0.376724  0.750908  1
  La  La21  1  0.126075  0.876204  0.749870  1
  La  La22  1  0.623276  0.748912  0.874184  1
  La  La23  1  0.749872  0.126075  0.876206  1
  Te  Te24  1  0.000000  0.000000  0.000000  1
  Te  Te25  1  0.500000  0.000000  0.500000  1
  Te  Te26  1  0.000000  0.500000  0.500000  1
  W  W27  1  0.500001  0.000000  0.000000  1
  W  W28  1  0.500000  0.500000  0.000000  1
  W  W29  1  0.000000  0.500001  0.000000  1
  W  W30  1  0.000000  0.000000  0.500001  1
  W  W31  1  0.500001  0.500001  0.500001  1
  O  O32  1  0.329202  0.407580  0.021656  1
  O  O33  1  0.192815  0.613482  0.021590  1
  O  O34  1  0.885739  0.908092  0.078495  1
  O  O35  1  0.692683  0.170581  0.078842  1
  O  O36  1  0.613483  0.920669  0.091893  1
  O  O37  1  0.977948  0.170451  0.092188  1
  O  O38  1  0.022103  0.692683  0.113841  1
  O  O39  1  0.592420  0.421622  0.114075  1
  O  O40  1  0.192817  0.078443  0.170320  1
  O  O41  1  0.478031  0.092051  0.170693  1
  O  O42  1  0.114018  0.521968  0.192661  1
  O  O43  1  0.578378  0.670799  0.192453  1
  O  O44  1  0.329360  0.421326  0.307344  1
  O  O45  1  0.477648  0.885740  0.307244  1
  O  O46  1  0.920669  0.807185  0.328775  1
  O  O47  1  0.908092  0.522352  0.329597  1
  O  O48  1  0.578673  0.408034  0.386017  1
  O  O49  1  0.307497  0.977948  0.385759  1
  O  O50  1  0.829419  0.022103  0.408260  1
  O  O51  1  0.078443  0.385626  0.408124  1
  O  O52  1  0.092051  0.114018  0.421358  1
  O  O53  1  0.829550  0.307497  0.421738  1
  O  O54  1  0.591966  0.670639  0.477983  1
  O  O55  1  0.385626  0.807183  0.477502  1
  O  O56  1  0.614374  0.192817  0.522497  1
  O  O57  1  0.408034  0.329360  0.522016  1
  O  O58  1  0.170451  0.692503  0.578262  1
  O  O59  1  0.907949  0.885981  0.578641  1
  O  O60  1  0.170581  0.977898  0.591740  1
  O  O61  1  0.921557  0.614374  0.591876  1
  O  O62  1  0.421326  0.591966  0.613982  1
  O  O63  1  0.692503  0.022053  0.614241  1
  O  O64  1  0.079332  0.192815  0.671224  1
  O  O65  1  0.091909  0.477648  0.670404  1
  O  O66  1  0.670639  0.578673  0.692656  1
  O  O67  1  0.522352  0.114261  0.692756  1
  O  O68  1  0.885981  0.478031  0.807338  1
  O  O69  1  0.421622  0.329202  0.807547  1
  O  O70  1  0.521968  0.907949  0.829307  1
  O  O71  1  0.807183  0.921557  0.829681  1
  O  O72  1  0.977897  0.307317  0.886158  1
  O  O73  1  0.407580  0.578378  0.885926  1
  O  O74  1  0.386517  0.079332  0.908107  1
  O  O75  1  0.022053  0.829550  0.907812  1
  O  O76  1  0.114260  0.091908  0.921505  1
  O  O77  1  0.307317  0.829420  0.921159  1
  O  O78  1  0.807185  0.386517  0.978411  1
  O  O79  1  0.670799  0.592420  0.978345  1
