# generated using pymatgen
data_MgZr7Co16SiP11
_symmetry_space_group_name_H-M   'P 1'
_cell_length_a   12.11106904
_cell_length_b   12.11107013
_cell_length_c   3.66162800
_cell_angle_alpha   90.00000000
_cell_angle_beta   90.00000000
_cell_angle_gamma   120.17271967
_symmetry_Int_Tables_number   1
_chemical_formula_structural   MgZr7Co16SiP11
_chemical_formula_sum   'Mg1 Zr7 Co16 Si1 P11'
_cell_volume   464.31354642
_cell_formula_units_Z   1
loop_
 _symmetry_equiv_pos_site_id
 _symmetry_equiv_pos_as_xyz
  1  'x, y, z'
loop_
 _atom_site_type_symbol
 _atom_site_label
 _atom_site_symmetry_multiplicity
 _atom_site_fract_x
 _atom_site_fract_y
 _atom_site_fract_z
 _atom_site_occupancy
  Mg  Mg0  1  0.442112  0.442112  0.000000  1
  Zr  Zr1  1  0.554730  0.999451  0.000000  1
  Zr  Zr2  1  0.999451  0.554730  0.000000  1
  Zr  Zr3  1  0.666178  0.332789  0.000000  1
  Zr  Zr4  1  0.332789  0.666178  0.000000  1
  Zr  Zr5  1  0.819978  0.819978  0.500000  1
  Zr  Zr6  1  0.176620  0.999985  0.500000  1
  Zr  Zr7  1  0.999985  0.176620  0.500000  1
  Co  Co8  1  0.197843  0.374420  0.000000  1
  Co  Co9  1  0.178181  0.807401  0.000000  1
  Co  Co10  1  0.824620  0.628502  0.000000  1
  Co  Co11  1  0.807401  0.178181  0.000000  1
  Co  Co12  1  0.374420  0.197843  0.000000  1
  Co  Co13  1  0.126268  0.477920  0.500000  1
  Co  Co14  1  0.353952  0.873750  0.500000  1
  Co  Co15  1  0.514357  0.643218  0.500000  1
  Co  Co16  1  0.643218  0.514357  0.500000  1
  Co  Co17  1  0.873750  0.353952  0.500000  1
  Co  Co18  1  0.477920  0.126268  0.500000  1
  Co  Co19  1  0.001320  0.001320  0.000000  1
  Co  Co20  1  0.723407  0.002412  0.500000  1
  Co  Co21  1  0.002412  0.723407  0.500000  1
  Co  Co22  1  0.628502  0.824620  0.000000  1
  Co  Co23  1  0.281470  0.281470  0.500000  1
  Si  Si24  1  0.645599  0.645599  0.000000  1
  P  P25  1  0.345929  0.003173  0.000000  1
  P  P26  1  0.003173  0.345929  0.000000  1
  P  P27  1  0.482454  0.312130  0.500000  1
  P  P28  1  0.691255  0.173973  0.500000  1
  P  P29  1  0.825438  0.518914  0.500000  1
  P  P30  1  0.518914  0.825438  0.500000  1
  P  P31  1  0.173973  0.691255  0.500000  1
  P  P32  1  0.824516  0.998355  0.000000  1
  P  P33  1  0.998355  0.824516  0.000000  1
  P  P34  1  0.312130  0.482454  0.500000  1
  P  P35  1  0.177378  0.177378  0.000000  1
