# generated using pymatgen
data_Yb3Tm3Al16(SiOs)8
_symmetry_space_group_name_H-M   'P 1'
_cell_length_a   8.67244400
_cell_length_b   8.66671481
_cell_length_c   9.48524800
_cell_angle_alpha   90.00000000
_cell_angle_beta   90.00000000
_cell_angle_gamma   120.33105380
_symmetry_Int_Tables_number   1
_chemical_formula_structural   Yb3Tm3Al16(SiOs)8
_chemical_formula_sum   'Yb3 Tm3 Al16 Si8 Os8'
_cell_volume   615.34244660
_cell_formula_units_Z   1
loop_
 _symmetry_equiv_pos_site_id
 _symmetry_equiv_pos_as_xyz
  1  'x, y, z'
loop_
 _atom_site_type_symbol
 _atom_site_label
 _atom_site_symmetry_multiplicity
 _atom_site_fract_x
 _atom_site_fract_y
 _atom_site_fract_z
 _atom_site_occupancy
  Yb  Yb0  1  0.192572  0.387682  0.250000  1
  Yb  Yb1  1  0.807667  0.612083  0.750000  1
  Yb  Yb2  1  0.612718  0.807551  0.250000  1
  Tm  Tm3  1  0.390507  0.194133  0.750000  1
  Tm  Tm4  1  0.195632  0.803914  0.250000  1
  Tm  Tm5  1  0.804960  0.197108  0.750000  1
  Al  Al6  1  0.165563  0.331525  0.578165  1
  Al  Al7  1  0.833802  0.668546  0.421980  1
  Al  Al8  1  0.668602  0.834344  0.577145  1
  Al  Al9  1  0.833802  0.668546  0.078020  1
  Al  Al10  1  0.331151  0.165247  0.420256  1
  Al  Al11  1  0.165563  0.331525  0.921835  1
  Al  Al12  1  0.164895  0.834769  0.578021  1
  Al  Al13  1  0.331151  0.165247  0.079744  1
  Al  Al14  1  0.834451  0.164562  0.422006  1
  Al  Al15  1  0.668602  0.834344  0.922855  1
  Al  Al16  1  0.834451  0.164562  0.077994  1
  Al  Al17  1  0.164895  0.834769  0.921979  1
  Al  Al18  1  0.564494  0.436275  0.250000  1
  Al  Al19  1  0.435977  0.565663  0.750000  1
  Al  Al20  1  0.000551  0.998981  0.250000  1
  Al  Al21  1  0.999704  0.000984  0.750000  1
  Si  Si22  1  0.335299  0.664961  0.042858  1
  Si  Si23  1  0.665232  0.335135  0.956995  1
  Si  Si24  1  0.665232  0.335135  0.543005  1
  Si  Si25  1  0.335299  0.664961  0.457142  1
  Si  Si26  1  0.565430  0.124898  0.250000  1
  Si  Si27  1  0.435693  0.875002  0.750000  1
  Si  Si28  1  0.874960  0.434737  0.250000  1
  Si  Si29  1  0.124628  0.565371  0.750000  1
  Os  Os30  1  0.499303  0.000630  0.998462  1
  Os  Os31  1  0.999258  0.499593  0.999300  1
  Os  Os32  1  0.499303  0.000630  0.501538  1
  Os  Os33  1  0.499293  0.498247  0.998314  1
  Os  Os34  1  0.999258  0.499593  0.500700  1
  Os  Os35  1  0.499293  0.498247  0.501686  1
  Os  Os36  1  0.000404  0.000251  0.999856  1
  Os  Os37  1  0.000404  0.000251  0.500144  1
