# generated using pymatgen
data_NpAu2
_symmetry_space_group_name_H-M   'P 1'
_cell_length_a   2.97482158
_cell_length_b   4.94175686
_cell_length_c   4.94385228
_cell_angle_alpha   119.67290599
_cell_angle_beta   89.92195549
_cell_angle_gamma   90.12902772
_symmetry_Int_Tables_number   1
_chemical_formula_structural   NpAu2
_chemical_formula_sum   'Np1 Au2'
_cell_volume   63.14795952
_cell_formula_units_Z   1
loop_
 _symmetry_equiv_pos_site_id
 _symmetry_equiv_pos_as_xyz
  1  'x, y, z'
loop_
 _atom_site_type_symbol
 _atom_site_label
 _atom_site_symmetry_multiplicity
 _atom_site_fract_x
 _atom_site_fract_y
 _atom_site_fract_z
 _atom_site_occupancy
  Np  Np0  1  0.607279  0.162075  0.843915  1
  Au  Au1  1  0.100317  0.495077  0.510615  1
  Au  Au2  1  0.105206  0.828919  0.176801  1
