# generated using pymatgen
data_Ti9Nb(Sn3As)2
_symmetry_space_group_name_H-M   'P 1'
_cell_length_a   8.27080800
_cell_length_b   8.27080764
_cell_length_c   5.61395800
_cell_angle_alpha   90.00000000
_cell_angle_beta   90.00000000
_cell_angle_gamma   119.99999344
_symmetry_Int_Tables_number   1
_chemical_formula_structural   Ti9Nb(Sn3As)2
_chemical_formula_sum   'Ti9 Nb1 Sn6 As2'
_cell_volume   332.57965544
_cell_formula_units_Z   1
loop_
 _symmetry_equiv_pos_site_id
 _symmetry_equiv_pos_as_xyz
  1  'x, y, z'
loop_
 _atom_site_type_symbol
 _atom_site_label
 _atom_site_symmetry_multiplicity
 _atom_site_fract_x
 _atom_site_fract_y
 _atom_site_fract_z
 _atom_site_occupancy
  Ti  Ti0  1  0.261412  0.999559  0.749901  1
  Ti  Ti1  1  0.738147  0.999559  0.250099  1
  Ti  Ti2  1  0.000441  0.261853  0.749901  1
  Ti  Ti3  1  0.000441  0.738588  0.250099  1
  Ti  Ti4  1  0.738147  0.738588  0.749901  1
  Ti  Ti5  1  0.261412  0.261853  0.250099  1
  Ti  Ti6  1  0.666667  0.333333  0.500000  1
  Ti  Ti7  1  0.666667  0.333333  0.000000  1
  Ti  Ti8  1  0.333333  0.666667  0.000000  1
  Nb  Nb9  1  0.333333  0.666667  0.500000  1
  Sn  Sn10  1  0.604800  0.001652  0.751162  1
  Sn  Sn11  1  0.396852  0.001652  0.248838  1
  Sn  Sn12  1  0.998348  0.603148  0.751162  1
  Sn  Sn13  1  0.998348  0.395200  0.248838  1
  Sn  Sn14  1  0.396852  0.395200  0.751162  1
  Sn  Sn15  1  0.604800  0.603148  0.248838  1
  As  As16  1  0.000000  0.000000  0.500000  1
  As  As17  1  0.000000  0.000000  0.000000  1
