# generated using pymatgen
data_Hf3SiGe2Mo2N
_symmetry_space_group_name_H-M   'P 1'
_cell_length_a   7.72846099
_cell_length_b   7.72846055
_cell_length_c   5.34576000
_cell_angle_alpha   90.00000000
_cell_angle_beta   90.00000000
_cell_angle_gamma   120.11649314
_symmetry_Int_Tables_number   1
_chemical_formula_structural   Hf3SiGe2Mo2N
_chemical_formula_sum   'Hf6 Si2 Ge4 Mo4 N2'
_cell_volume   276.19454880
_cell_formula_units_Z   2
loop_
 _symmetry_equiv_pos_site_id
 _symmetry_equiv_pos_as_xyz
  1  'x, y, z'
loop_
 _atom_site_type_symbol
 _atom_site_label
 _atom_site_symmetry_multiplicity
 _atom_site_fract_x
 _atom_site_fract_y
 _atom_site_fract_z
 _atom_site_occupancy
  Hf  Hf0  1  0.235738  0.003931  0.250000  1
  Hf  Hf1  1  0.764262  0.996069  0.750000  1
  Hf  Hf2  1  0.003931  0.235738  0.250000  1
  Hf  Hf3  1  0.996069  0.764262  0.750000  1
  Hf  Hf4  1  0.763004  0.763004  0.250000  1
  Hf  Hf5  1  0.236996  0.236996  0.750000  1
  Si  Si6  1  0.409406  0.409406  0.250000  1
  Si  Si7  1  0.590594  0.590594  0.750000  1
  Ge  Ge8  1  0.593565  0.001584  0.250000  1
  Ge  Ge9  1  0.406435  0.998416  0.750000  1
  Ge  Ge10  1  0.001584  0.593565  0.250000  1
  Ge  Ge11  1  0.998416  0.406435  0.750000  1
  Mo  Mo12  1  0.337317  0.662683  0.000000  1
  Mo  Mo13  1  0.662683  0.337317  0.000000  1
  Mo  Mo14  1  0.662683  0.337317  0.500000  1
  Mo  Mo15  1  0.337317  0.662683  0.500000  1
  N  N16  1  0.000000  0.000000  0.000000  1
  N  N17  1  0.000000  0.000000  0.500000  1
