# generated using pymatgen
data_NdGaSiIr3
_symmetry_space_group_name_H-M   'P 1'
_cell_length_a   6.79080912
_cell_length_b   6.77899639
_cell_length_c   6.79080815
_cell_angle_alpha   130.84374878
_cell_angle_beta   112.57208379
_cell_angle_gamma   87.89274546
_symmetry_Int_Tables_number   1
_chemical_formula_structural   NdGaSiIr3
_chemical_formula_sum   'Nd2 Ga2 Si2 Ir6'
_cell_volume   207.84900189
_cell_formula_units_Z   2
loop_
 _symmetry_equiv_pos_site_id
 _symmetry_equiv_pos_as_xyz
  1  'x, y, z'
loop_
 _atom_site_type_symbol
 _atom_site_label
 _atom_site_symmetry_multiplicity
 _atom_site_fract_x
 _atom_site_fract_y
 _atom_site_fract_z
 _atom_site_occupancy
  Nd  Nd0  1  0.250583  0.982926  0.732344  1
  Nd  Nd1  1  0.749417  0.017074  0.267656  1
  Ga  Ga2  1  0.073559  0.297733  0.224173  1
  Ga  Ga3  1  0.926441  0.702267  0.775827  1
  Si  Si4  1  0.407857  0.634180  0.226323  1
  Si  Si5  1  0.592143  0.365820  0.773677  1
  Ir  Ir6  1  0.500000  0.500000  0.500000  1
  Ir  Ir7  1  0.000000  0.500000  0.000000  1
  Ir  Ir8  1  0.284891  0.000000  0.284891  1
  Ir  Ir9  1  0.715109  0.000000  0.715109  1
  Ir  Ir10  1  0.256303  0.500000  0.756303  1
  Ir  Ir11  1  0.743697  0.500000  0.243697  1
