# generated using pymatgen
data_Hf9ReMo3Se
_symmetry_space_group_name_H-M   'P 1'
_cell_length_a   8.69461400
_cell_length_b   8.69461385
_cell_length_c   8.65733000
_cell_angle_alpha   90.00000000
_cell_angle_beta   90.00000000
_cell_angle_gamma   119.99999298
_symmetry_Int_Tables_number   1
_chemical_formula_structural   Hf9ReMo3Se
_chemical_formula_sum   'Hf18 Re2 Mo6 Se2'
_cell_volume   566.78094280
_cell_formula_units_Z   2
loop_
 _symmetry_equiv_pos_site_id
 _symmetry_equiv_pos_as_xyz
  1  'x, y, z'
loop_
 _atom_site_type_symbol
 _atom_site_label
 _atom_site_symmetry_multiplicity
 _atom_site_fract_x
 _atom_site_fract_y
 _atom_site_fract_z
 _atom_site_occupancy
  Hf  Hf0  1  0.542060  0.084120  0.250000  1
  Hf  Hf1  1  0.457940  0.915880  0.750000  1
  Hf  Hf2  1  0.915880  0.457940  0.250000  1
  Hf  Hf3  1  0.084120  0.542060  0.750000  1
  Hf  Hf4  1  0.542060  0.457940  0.250000  1
  Hf  Hf5  1  0.457940  0.542060  0.750000  1
  Hf  Hf6  1  0.193340  0.386679  0.046030  1
  Hf  Hf7  1  0.806660  0.613321  0.953970  1
  Hf  Hf8  1  0.613321  0.806660  0.046030  1
  Hf  Hf9  1  0.806660  0.613321  0.546030  1
  Hf  Hf10  1  0.386679  0.193340  0.953970  1
  Hf  Hf11  1  0.193340  0.386679  0.453970  1
  Hf  Hf12  1  0.193340  0.806660  0.046030  1
  Hf  Hf13  1  0.386679  0.193340  0.546030  1
  Hf  Hf14  1  0.806660  0.193340  0.953970  1
  Hf  Hf15  1  0.613321  0.806660  0.453970  1
  Hf  Hf16  1  0.806660  0.193340  0.546030  1
  Hf  Hf17  1  0.193340  0.806660  0.453970  1
  Re  Re18  1  0.000000  0.000000  0.000000  1
  Re  Re19  1  0.000000  0.000000  0.500000  1
  Mo  Mo20  1  0.890487  0.780974  0.250000  1
  Mo  Mo21  1  0.109513  0.219026  0.750000  1
  Mo  Mo22  1  0.219026  0.109513  0.250000  1
  Mo  Mo23  1  0.780974  0.890487  0.750000  1
  Mo  Mo24  1  0.890487  0.109513  0.250000  1
  Mo  Mo25  1  0.109513  0.890487  0.750000  1
  Se  Se26  1  0.333333  0.666667  0.250000  1
  Se  Se27  1  0.666667  0.333333  0.750000  1
