# generated using pymatgen
data_Ca4YRh2
_symmetry_space_group_name_H-M   'P 1'
_cell_length_a   6.63640760
_cell_length_b   7.41553475
_cell_length_c   8.78619852
_cell_angle_alpha   96.96617526
_cell_angle_beta   112.18886887
_cell_angle_gamma   89.99999493
_symmetry_Int_Tables_number   1
_chemical_formula_structural   Ca4YRh2
_chemical_formula_sum   'Ca8 Y2 Rh4'
_cell_volume   396.92037725
_cell_formula_units_Z   2
loop_
 _symmetry_equiv_pos_site_id
 _symmetry_equiv_pos_as_xyz
  1  'x, y, z'
loop_
 _atom_site_type_symbol
 _atom_site_label
 _atom_site_symmetry_multiplicity
 _atom_site_fract_x
 _atom_site_fract_y
 _atom_site_fract_z
 _atom_site_occupancy
  Ca  Ca0  1  0.978977  0.918193  0.176155  1
  Ca  Ca1  1  0.802822  0.581807  0.823845  1
  Ca  Ca2  1  0.021023  0.081807  0.823845  1
  Ca  Ca3  1  0.197178  0.418193  0.176155  1
  Ca  Ca4  1  0.637644  0.817647  0.434259  1
  Ca  Ca5  1  0.203385  0.682353  0.565741  1
  Ca  Ca6  1  0.362356  0.182353  0.565741  1
  Ca  Ca7  1  0.796615  0.317647  0.434259  1
  Y  Y8  1  0.436043  0.750000  0.000000  1
  Y  Y9  1  0.563957  0.250000  0.000000  1
  Rh  Rh10  1  0.802379  0.571119  0.207924  1
  Rh  Rh11  1  0.594456  0.928881  0.792076  1
  Rh  Rh12  1  0.197621  0.428881  0.792076  1
  Rh  Rh13  1  0.405544  0.071119  0.207924  1
