# generated using pymatgen
data_Ca20Ga8SnHg3
_symmetry_space_group_name_H-M   'P 1'
_cell_length_a   8.07472000
_cell_length_b   8.07472000
_cell_length_c   14.76358300
_cell_angle_alpha   90.00000000
_cell_angle_beta   90.00000000
_cell_angle_gamma   90.00000000
_symmetry_Int_Tables_number   1
_chemical_formula_structural   Ca20Ga8SnHg3
_chemical_formula_sum   'Ca20 Ga8 Sn1 Hg3'
_cell_volume   962.60189699
_cell_formula_units_Z   1
loop_
 _symmetry_equiv_pos_site_id
 _symmetry_equiv_pos_as_xyz
  1  'x, y, z'
loop_
 _atom_site_type_symbol
 _atom_site_label
 _atom_site_symmetry_multiplicity
 _atom_site_fract_x
 _atom_site_fract_y
 _atom_site_fract_z
 _atom_site_occupancy
  Ca  Ca0  1  0.676962  0.168071  0.106098  1
  Ca  Ca1  1  0.171598  0.671464  0.609070  1
  Ca  Ca2  1  0.323038  0.831929  0.106098  1
  Ca  Ca3  1  0.828402  0.328536  0.609070  1
  Ca  Ca4  1  0.831929  0.676962  0.106098  1
  Ca  Ca5  1  0.328536  0.171598  0.609070  1
  Ca  Ca6  1  0.168071  0.323038  0.106098  1
  Ca  Ca7  1  0.671464  0.828402  0.609070  1
  Ca  Ca8  1  0.831929  0.323038  0.893902  1
  Ca  Ca9  1  0.328536  0.828402  0.390930  1
  Ca  Ca10  1  0.168071  0.676962  0.893902  1
  Ca  Ca11  1  0.671464  0.171598  0.390930  1
  Ca  Ca12  1  0.676962  0.831929  0.893902  1
  Ca  Ca13  1  0.171598  0.328536  0.390930  1
  Ca  Ca14  1  0.323038  0.168071  0.893902  1
  Ca  Ca15  1  0.828402  0.671464  0.390930  1
  Ca  Ca16  1  0.500000  0.500000  0.754709  1
  Ca  Ca17  1  0.000000  0.000000  0.247999  1
  Ca  Ca18  1  0.000000  0.000000  0.752001  1
  Ca  Ca19  1  0.500000  0.500000  0.245291  1
  Ga  Ga20  1  0.612583  0.115096  0.751870  1
  Ga  Ga21  1  0.115096  0.612583  0.248130  1
  Ga  Ga22  1  0.884904  0.387417  0.248130  1
  Ga  Ga23  1  0.387417  0.884904  0.751870  1
  Ga  Ga24  1  0.884904  0.612583  0.751870  1
  Ga  Ga25  1  0.387417  0.115096  0.248130  1
  Ga  Ga26  1  0.115096  0.387417  0.751870  1
  Ga  Ga27  1  0.612583  0.884904  0.248130  1
  Sn  Sn28  1  0.000000  0.000000  0.000000  1
  Hg  Hg29  1  0.500000  0.500000  0.500000  1
  Hg  Hg30  1  0.500000  0.500000  0.000000  1
  Hg  Hg31  1  0.000000  0.000000  0.500000  1
