# generated using pymatgen
data_Dy12InTc3Sn
_symmetry_space_group_name_H-M   'P 1'
_cell_length_a   8.51081634
_cell_length_b   8.51081542
_cell_length_c   8.51081600
_cell_angle_alpha   108.93778639
_cell_angle_beta   109.02566419
_cell_angle_gamma   110.45472370
_symmetry_Int_Tables_number   1
_chemical_formula_structural   Dy12InTc3Sn
_chemical_formula_sum   'Dy12 In1 Tc3 Sn1'
_cell_volume   474.45526307
_cell_formula_units_Z   1
loop_
 _symmetry_equiv_pos_site_id
 _symmetry_equiv_pos_as_xyz
  1  'x, y, z'
loop_
 _atom_site_type_symbol
 _atom_site_label
 _atom_site_symmetry_multiplicity
 _atom_site_fract_x
 _atom_site_fract_y
 _atom_site_fract_z
 _atom_site_occupancy
  Dy  Dy0  1  0.305735  0.306961  0.612697  1
  Dy  Dy1  1  0.694265  0.693039  0.387303  1
  Dy  Dy2  1  0.694265  0.306961  0.001227  1
  Dy  Dy3  1  0.305735  0.693039  0.998773  1
  Dy  Dy4  1  0.189689  0.429195  0.239506  1
  Dy  Dy5  1  0.810311  0.570805  0.760494  1
  Dy  Dy6  1  0.189689  0.950182  0.760494  1
  Dy  Dy7  1  0.951114  0.190772  0.760342  1
  Dy  Dy8  1  0.810311  0.049818  0.239506  1
  Dy  Dy9  1  0.048886  0.809228  0.239658  1
  Dy  Dy10  1  0.430430  0.190772  0.239658  1
  Dy  Dy11  1  0.569570  0.809228  0.760342  1
  In  In12  1  0.000000  0.500000  0.500000  1
  Tc  Tc13  1  0.373070  0.373070  0.000000  1
  Tc  Tc14  1  0.626930  0.626930  0.000000  1
  Tc  Tc15  1  0.000000  0.000000  0.000000  1
  Sn  Sn16  1  0.500000  0.000000  0.500000  1
