# generated using pymatgen
data_Ho3In3CoCuHg
_symmetry_space_group_name_H-M   'P 1'
_cell_length_a   7.67220400
_cell_length_b   7.67220314
_cell_length_c   3.85430600
_cell_angle_alpha   90.00000000
_cell_angle_beta   90.00000000
_cell_angle_gamma   120.00000485
_symmetry_Int_Tables_number   1
_chemical_formula_structural   Ho3In3CoCuHg
_chemical_formula_sum   'Ho3 In3 Co1 Cu1 Hg1'
_cell_volume   196.47940623
_cell_formula_units_Z   1
loop_
 _symmetry_equiv_pos_site_id
 _symmetry_equiv_pos_as_xyz
  1  'x, y, z'
loop_
 _atom_site_type_symbol
 _atom_site_label
 _atom_site_symmetry_multiplicity
 _atom_site_fract_x
 _atom_site_fract_y
 _atom_site_fract_z
 _atom_site_occupancy
  Ho  Ho0  1  0.968313  0.572418  0.500000  1
  Ho  Ho1  1  0.427582  0.395895  0.500000  1
  Ho  Ho2  1  0.604105  0.031687  0.500000  1
  In  In3  1  0.753441  0.744258  0.000000  1
  In  In4  1  0.990817  0.246559  0.000000  1
  In  In5  1  0.255742  0.009183  0.000000  1
  Co  Co6  1  0.666667  0.333333  0.000000  1
  Cu  Cu7  1  0.000000  0.000000  0.500000  1
  Hg  Hg8  1  0.333333  0.666667  0.000000  1
