# generated using pymatgen
data_TbY2GaAg3Ge2
_symmetry_space_group_name_H-M   'P 1'
_cell_length_a   7.22830300
_cell_length_b   7.23298880
_cell_length_c   4.18960600
_cell_angle_alpha   90.00000000
_cell_angle_beta   90.00000000
_cell_angle_gamma   119.97855831
_symmetry_Int_Tables_number   1
_chemical_formula_structural   TbY2GaAg3Ge2
_chemical_formula_sum   'Tb1 Y2 Ga1 Ag3 Ge2'
_cell_volume   189.73687778
_cell_formula_units_Z   1
loop_
 _symmetry_equiv_pos_site_id
 _symmetry_equiv_pos_as_xyz
  1  'x, y, z'
loop_
 _atom_site_type_symbol
 _atom_site_label
 _atom_site_symmetry_multiplicity
 _atom_site_fract_x
 _atom_site_fract_y
 _atom_site_fract_z
 _atom_site_occupancy
  Tb  Tb0  1  0.579985  0.000000  0.000000  1
  Y  Y1  1  0.999954  0.579978  0.000000  1
  Y  Y2  1  0.419976  0.420022  0.000000  1
  Ga  Ga3  1  0.000032  0.000000  0.000000  1
  Ag  Ag4  1  0.247972  0.000000  0.500000  1
  Ag  Ag5  1  0.000049  0.248061  0.500000  1
  Ag  Ag6  1  0.751988  0.751939  0.500000  1
  Ge  Ge7  1  0.333338  0.666633  0.500000  1
  Ge  Ge8  1  0.666706  0.333367  0.500000  1
