# generated using pymatgen
data_YbDyTiIr3
_symmetry_space_group_name_H-M   'P 1'
_cell_length_a   5.61599223
_cell_length_b   5.16002348
_cell_length_c   5.61599200
_cell_angle_alpha   57.03116362
_cell_angle_beta   60.00000133
_cell_angle_gamma   57.03115548
_symmetry_Int_Tables_number   1
_chemical_formula_structural   YbDyTiIr3
_chemical_formula_sum   'Yb1 Dy1 Ti1 Ir3'
_cell_volume   109.63974497
_cell_formula_units_Z   1
loop_
 _symmetry_equiv_pos_site_id
 _symmetry_equiv_pos_as_xyz
  1  'x, y, z'
loop_
 _atom_site_type_symbol
 _atom_site_label
 _atom_site_symmetry_multiplicity
 _atom_site_fract_x
 _atom_site_fract_y
 _atom_site_fract_z
 _atom_site_occupancy
  Yb  Yb0  1  0.750478  0.748565  0.750478  1
  Dy  Dy1  1  0.500409  0.498773  0.500409  1
  Ti  Ti2  1  0.125590  0.623231  0.125590  1
  Ir  Ir3  1  0.626246  0.126477  0.123639  1
  Ir  Ir4  1  0.123639  0.126477  0.123639  1
  Ir  Ir5  1  0.123639  0.126477  0.626246  1
