# generated using pymatgen
data_Rb4Ba2HfBi4
_symmetry_space_group_name_H-M   'P 1'
_cell_length_a   11.71270441
_cell_length_b   11.71270382
_cell_length_c   8.81140003
_cell_angle_alpha   88.60042419
_cell_angle_beta   88.60042549
_cell_angle_gamma   60.46443533
_symmetry_Int_Tables_number   1
_chemical_formula_structural   Rb4Ba2HfBi4
_chemical_formula_sum   'Rb8 Ba4 Hf2 Bi8'
_cell_volume   1051.30759531
_cell_formula_units_Z   2
loop_
 _symmetry_equiv_pos_site_id
 _symmetry_equiv_pos_as_xyz
  1  'x, y, z'
loop_
 _atom_site_type_symbol
 _atom_site_label
 _atom_site_symmetry_multiplicity
 _atom_site_fract_x
 _atom_site_fract_y
 _atom_site_fract_z
 _atom_site_occupancy
  Rb  Rb0  1  0.943233  0.528918  0.374207  1
  Rb  Rb1  1  0.528918  0.943233  0.374207  1
  Rb  Rb2  1  0.721481  0.133448  0.188463  1
  Rb  Rb3  1  0.133448  0.721481  0.188463  1
  Rb  Rb4  1  0.141642  0.141642  0.203693  1
  Rb  Rb5  1  0.277277  0.864556  0.686405  1
  Rb  Rb6  1  0.864556  0.277277  0.686405  1
  Rb  Rb7  1  0.856038  0.856038  0.655320  1
  Ba  Ba8  1  0.529097  0.529097  0.373626  1
  Ba  Ba9  1  0.053004  0.476976  0.879445  1
  Ba  Ba10  1  0.476976  0.053004  0.879445  1
  Ba  Ba11  1  0.476887  0.476887  0.872409  1
  Hf  Hf12  1  0.334636  0.334636  0.487045  1
  Hf  Hf13  1  0.665100  0.665100  0.983255  1
  Bi  Bi14  1  0.394550  0.798145  0.091260  1
  Bi  Bi15  1  0.798145  0.394550  0.091260  1
  Bi  Bi16  1  0.803053  0.803053  0.060096  1
  Bi  Bi17  1  0.600118  0.207934  0.599225  1
  Bi  Bi18  1  0.207934  0.600118  0.599225  1
  Bi  Bi19  1  0.203133  0.203133  0.618651  1
  Bi  Bi20  1  0.336254  0.336254  0.152513  1
  Bi  Bi21  1  0.655133  0.655133  0.658202  1
