# generated using pymatgen
data_Ba2DyHo3(Si3O10)2
_symmetry_space_group_name_H-M   'P 1'
_cell_length_a   12.33016910
_cell_length_b   5.45147426
_cell_length_c   6.91109302
_cell_angle_alpha   73.52530101
_cell_angle_beta   89.99240646
_cell_angle_gamma   89.98577012
_symmetry_Int_Tables_number   1
_chemical_formula_structural   Ba2DyHo3(Si3O10)2
_chemical_formula_sum   'Ba2 Dy1 Ho3 Si6 O20'
_cell_volume   445.47511469
_cell_formula_units_Z   1
loop_
 _symmetry_equiv_pos_site_id
 _symmetry_equiv_pos_as_xyz
  1  'x, y, z'
loop_
 _atom_site_type_symbol
 _atom_site_label
 _atom_site_symmetry_multiplicity
 _atom_site_fract_x
 _atom_site_fract_y
 _atom_site_fract_z
 _atom_site_occupancy
  Ba  Ba0  1  0.750056  0.761370  0.983967  1
  Ba  Ba1  1  0.249978  0.238645  0.015973  1
  Dy  Dy2  1  0.599157  0.156895  0.316589  1
  Ho  Ho3  1  0.900848  0.157533  0.316393  1
  Ho  Ho4  1  0.099236  0.842469  0.683600  1
  Ho  Ho5  1  0.400672  0.842390  0.683754  1
  Si  Si6  1  0.060705  0.695639  0.213691  1
  Si  Si7  1  0.249993  0.419086  0.487900  1
  Si  Si8  1  0.750149  0.580881  0.512286  1
  Si  Si9  1  0.439083  0.695644  0.213600  1
  Si  Si10  1  0.560693  0.304620  0.786149  1
  Si  Si11  1  0.939283  0.304334  0.786338  1
  O  O12  1  0.450349  0.896431  0.352969  1
  O  O13  1  0.143264  0.453718  0.337646  1
  O  O14  1  0.856809  0.546273  0.662547  1
  O  O15  1  0.356778  0.453508  0.337620  1
  O  O16  1  0.378804  0.838070  0.001621  1
  O  O17  1  0.878898  0.162035  0.998276  1
  O  O18  1  0.054554  0.437799  0.807479  1
  O  O19  1  0.950917  0.102933  0.647388  1
  O  O20  1  0.548844  0.102512  0.648086  1
  O  O21  1  0.249998  0.629199  0.615662  1
  O  O22  1  0.121114  0.837984  0.001707  1
  O  O23  1  0.554578  0.563629  0.192034  1
  O  O24  1  0.250008  0.123819  0.633472  1
  O  O25  1  0.643203  0.546432  0.662200  1
  O  O26  1  0.750371  0.875901  0.366514  1
  O  O27  1  0.945488  0.562225  0.192482  1
  O  O28  1  0.750365  0.371093  0.384461  1
  O  O29  1  0.445397  0.437935  0.807533  1
  O  O30  1  0.621306  0.161938  0.997435  1
  O  O31  1  0.049102  0.897059  0.352627  1
