# generated using pymatgen
data_Sc4Re2TcB8Ru7
_symmetry_space_group_name_H-M   'P 1'
_cell_length_a   3.03572200
_cell_length_b   8.54189998
_cell_length_c   10.04090808
_cell_angle_alpha   90.19553595
_cell_angle_beta   90.00000000
_cell_angle_gamma   90.00000000
_symmetry_Int_Tables_number   1
_chemical_formula_structural   Sc4Re2TcB8Ru7
_chemical_formula_sum   'Sc4 Re2 Tc1 B8 Ru7'
_cell_volume   260.36760136
_cell_formula_units_Z   1
loop_
 _symmetry_equiv_pos_site_id
 _symmetry_equiv_pos_as_xyz
  1  'x, y, z'
loop_
 _atom_site_type_symbol
 _atom_site_label
 _atom_site_symmetry_multiplicity
 _atom_site_fract_x
 _atom_site_fract_y
 _atom_site_fract_z
 _atom_site_occupancy
  Sc  Sc0  1  0.500000  0.840794  0.179719  1
  Sc  Sc1  1  0.500000  0.157630  0.819987  1
  Sc  Sc2  1  0.500000  0.656859  0.683309  1
  Sc  Sc3  1  0.500000  0.342130  0.316874  1
  Re  Re4  1  0.000000  0.340125  0.046948  1
  Re  Re5  1  0.000000  0.841649  0.453681  1
  Tc  Tc6  1  0.000000  0.660328  0.952770  1
  B  B7  1  0.500000  0.962296  0.588753  1
  B  B8  1  0.500000  0.032436  0.409732  1
  B  B9  1  0.500000  0.849821  0.901592  1
  B  B10  1  0.500000  0.153192  0.098634  1
  B  B11  1  0.500000  0.651377  0.400171  1
  B  B12  1  0.500000  0.350731  0.600419  1
  B  B13  1  0.500000  0.465479  0.912028  1
  B  B14  1  0.500000  0.536648  0.087538  1
  Ru  Ru15  1  0.000000  0.161177  0.547523  1
  Ru  Ru16  1  0.000000  0.000691  0.999984  1
  Ru  Ru17  1  0.000000  0.402395  0.760130  1
  Ru  Ru18  1  0.000000  0.595752  0.239797  1
  Ru  Ru19  1  0.000000  0.499550  0.500500  1
  Ru  Ru20  1  0.000000  0.904135  0.738752  1
  Ru  Ru21  1  0.000000  0.094807  0.261161  1
