# generated using pymatgen
data_Sn3As6WO24
_symmetry_space_group_name_H-M   'P 1'
_cell_length_a   9.49724304
_cell_length_b   9.49724334
_cell_length_c   9.49724342
_cell_angle_alpha   55.20672746
_cell_angle_beta   55.20673381
_cell_angle_gamma   55.20672876
_symmetry_Int_Tables_number   1
_chemical_formula_structural   Sn3As6WO24
_chemical_formula_sum   'Sn3 As6 W1 O24'
_cell_volume   538.23199218
_cell_formula_units_Z   1
loop_
 _symmetry_equiv_pos_site_id
 _symmetry_equiv_pos_as_xyz
  1  'x, y, z'
loop_
 _atom_site_type_symbol
 _atom_site_label
 _atom_site_symmetry_multiplicity
 _atom_site_fract_x
 _atom_site_fract_y
 _atom_site_fract_z
 _atom_site_occupancy
  Sn  Sn0  1  0.143271  0.143271  0.143271  1
  Sn  Sn1  1  0.352813  0.352813  0.352813  1
  Sn  Sn2  1  0.651706  0.651706  0.651706  1
  As  As3  1  0.750585  0.034156  0.459563  1
  As  As4  1  0.034156  0.459563  0.750585  1
  As  As5  1  0.459563  0.750585  0.034156  1
  As  As6  1  0.527949  0.253191  0.974092  1
  As  As7  1  0.974092  0.527949  0.253191  1
  As  As8  1  0.253191  0.974092  0.527949  1
  W  W9  1  0.856311  0.856311  0.856311  1
  O  O10  1  0.197875  0.182984  0.522333  1
  O  O11  1  0.522333  0.197875  0.182984  1
  O  O12  1  0.889337  0.131374  0.249584  1
  O  O13  1  0.182984  0.522333  0.197875  1
  O  O14  1  0.524927  0.177158  0.502436  1
  O  O15  1  0.803767  0.995352  0.632235  1
  O  O16  1  0.131374  0.249584  0.889337  1
  O  O17  1  0.177158  0.502436  0.524927  1
  O  O18  1  0.502436  0.524927  0.177158  1
  O  O19  1  0.365484  0.224624  0.977193  1
  O  O20  1  0.734348  0.086473  0.892119  1
  O  O21  1  0.977193  0.365484  0.224624  1
  O  O22  1  0.995352  0.632235  0.803767  1
  O  O23  1  0.249584  0.889337  0.131374  1
  O  O24  1  0.632235  0.803767  0.995352  1
  O  O25  1  0.517805  0.468903  0.819208  1
  O  O26  1  0.819208  0.517805  0.468903  1
  O  O27  1  0.892119  0.734348  0.086473  1
  O  O28  1  0.224624  0.977193  0.365484  1
  O  O29  1  0.468903  0.819208  0.517805  1
  O  O30  1  0.822239  0.477067  0.801533  1
  O  O31  1  0.086473  0.892119  0.734348  1
  O  O32  1  0.477067  0.801533  0.822239  1
  O  O33  1  0.801533  0.822239  0.477067  1
