# generated using pymatgen
data_Eu4MnNb2CdO12
_symmetry_space_group_name_H-M   'P 1'
_cell_length_a   5.66152934
_cell_length_b   5.93675892
_cell_length_c   9.98915878
_cell_angle_alpha   90.09160986
_cell_angle_beta   125.20821958
_cell_angle_gamma   90.02264878
_symmetry_Int_Tables_number   1
_chemical_formula_structural   Eu4MnNb2CdO12
_chemical_formula_sum   'Eu4 Mn1 Nb2 Cd1 O12'
_cell_volume   274.32544283
_cell_formula_units_Z   1
loop_
 _symmetry_equiv_pos_site_id
 _symmetry_equiv_pos_as_xyz
  1  'x, y, z'
loop_
 _atom_site_type_symbol
 _atom_site_label
 _atom_site_symmetry_multiplicity
 _atom_site_fract_x
 _atom_site_fract_y
 _atom_site_fract_z
 _atom_site_occupancy
  Eu  Eu0  1  0.236124  0.443645  0.751812  1
  Eu  Eu1  1  0.241624  0.059081  0.257613  1
  Eu  Eu2  1  0.763876  0.556355  0.248188  1
  Eu  Eu3  1  0.758376  0.940919  0.742387  1
  Mn  Mn4  1  0.500000  0.500000  0.500000  1
  Nb  Nb5  1  0.000000  0.500000  0.000000  1
  Nb  Nb6  1  0.000000  0.000000  0.500000  1
  Cd  Cd7  1  0.500000  0.000000  0.000000  1
  O  O8  1  0.346362  0.049559  0.731551  1
  O  O9  1  0.347944  0.452365  0.237665  1
  O  O10  1  0.653638  0.950441  0.268449  1
  O  O11  1  0.652056  0.547635  0.762335  1
  O  O12  1  0.758696  0.189549  0.548575  1
  O  O13  1  0.759174  0.322754  0.051574  1
  O  O14  1  0.241304  0.810451  0.451425  1
  O  O15  1  0.240826  0.677246  0.948426  1
  O  O16  1  0.103458  0.217048  0.931527  1
  O  O17  1  0.121055  0.282513  0.435242  1
  O  O18  1  0.896542  0.782952  0.068473  1
  O  O19  1  0.878945  0.717487  0.564758  1
