# generated using pymatgen
data_LaHo2TlF10
_symmetry_space_group_name_H-M   'P 1'
_cell_length_a   8.50299633
_cell_length_b   8.50299247
_cell_length_c   8.31235000
_cell_angle_alpha   60.74039007
_cell_angle_beta   60.74041235
_cell_angle_gamma   58.52222794
_symmetry_Int_Tables_number   1
_chemical_formula_structural   LaHo2TlF10
_chemical_formula_sum   'La2 Ho4 Tl2 F20'
_cell_volume   424.55575826
_cell_formula_units_Z   2
loop_
 _symmetry_equiv_pos_site_id
 _symmetry_equiv_pos_as_xyz
  1  'x, y, z'
loop_
 _atom_site_type_symbol
 _atom_site_label
 _atom_site_symmetry_multiplicity
 _atom_site_fract_x
 _atom_site_fract_y
 _atom_site_fract_z
 _atom_site_occupancy
  La  La0  1  0.242981  0.242981  0.757017  1
  La  La1  1  0.757019  0.757019  0.242983  1
  Ho  Ho2  1  0.760475  0.239525  0.239526  1
  Ho  Ho3  1  0.239525  0.760475  0.760474  1
  Ho  Ho4  1  0.239525  0.760475  0.239526  1
  Ho  Ho5  1  0.760475  0.239525  0.760474  1
  Tl  Tl6  1  0.249999  0.249997  0.250004  1
  Tl  Tl7  1  0.750001  0.750003  0.749996  1
  F  F8  1  0.833497  0.487097  0.512901  1
  F  F9  1  0.166503  0.512903  0.487099  1
  F  F10  1  0.487102  0.833493  0.166509  1
  F  F11  1  0.512898  0.166507  0.833491  1
  F  F12  1  0.487097  0.833497  0.512901  1
  F  F13  1  0.166507  0.512898  0.833491  1
  F  F14  1  0.512903  0.166503  0.487099  1
  F  F15  1  0.833493  0.487102  0.166509  1
  F  F16  1  0.499998  0.499998  0.819991  1
  F  F17  1  0.500002  0.500002  0.180009  1
  F  F18  1  0.180009  0.819991  0.500000  1
  F  F19  1  0.819991  0.180009  0.500000  1
  F  F20  1  0.104598  0.104598  0.121980  1
  F  F21  1  0.895402  0.895402  0.878020  1
  F  F22  1  0.104592  0.104593  0.668834  1
  F  F23  1  0.121989  0.668824  0.104593  1
  F  F24  1  0.895408  0.895407  0.331166  1
  F  F25  1  0.878011  0.331176  0.895407  1
  F  F26  1  0.668825  0.121989  0.104593  1
  F  F27  1  0.331175  0.878011  0.895407  1
