# generated using pymatgen
data_Dy5Ho(Er2Sn3)2
_symmetry_space_group_name_H-M   'P 1'
_cell_length_a   8.94305100
_cell_length_b   8.93770587
_cell_length_c   6.50601100
_cell_angle_alpha   90.00000000
_cell_angle_beta   90.00000000
_cell_angle_gamma   120.01978137
_symmetry_Int_Tables_number   1
_chemical_formula_structural   Dy5Ho(Er2Sn3)2
_chemical_formula_sum   'Dy5 Ho1 Er4 Sn6'
_cell_volume   450.26748664
_cell_formula_units_Z   1
loop_
 _symmetry_equiv_pos_site_id
 _symmetry_equiv_pos_as_xyz
  1  'x, y, z'
loop_
 _atom_site_type_symbol
 _atom_site_label
 _atom_site_symmetry_multiplicity
 _atom_site_fract_x
 _atom_site_fract_y
 _atom_site_fract_z
 _atom_site_occupancy
  Dy  Dy0  1  0.000041  0.761381  0.750000  1
  Dy  Dy1  1  0.000085  0.238682  0.250000  1
  Dy  Dy2  1  0.761403  0.761318  0.250000  1
  Dy  Dy3  1  0.761251  0.000000  0.750000  1
  Dy  Dy4  1  0.238660  0.238619  0.750000  1
  Ho  Ho5  1  0.238715  0.000000  0.250000  1
  Er  Er6  1  0.333316  0.666694  0.499901  1
  Er  Er7  1  0.666623  0.333306  0.000099  1
  Er  Er8  1  0.666623  0.333306  0.499901  1
  Er  Er9  1  0.333316  0.666694  0.000099  1
  Sn  Sn10  1  0.395559  0.000000  0.750000  1
  Sn  Sn11  1  0.395474  0.395312  0.250000  1
  Sn  Sn12  1  0.000162  0.604688  0.250000  1
  Sn  Sn13  1  0.000002  0.395543  0.750000  1
  Sn  Sn14  1  0.604459  0.604457  0.750000  1
  Sn  Sn15  1  0.604311  0.000000  0.250000  1
