# generated using pymatgen
data_Pr4Ga16Co2Rh
_symmetry_space_group_name_H-M   'P 1'
_cell_length_a   6.18460600
_cell_length_b   6.18460600
_cell_length_c   11.43649200
_cell_angle_alpha   90.00000000
_cell_angle_beta   90.00000000
_cell_angle_gamma   90.00000000
_symmetry_Int_Tables_number   1
_chemical_formula_structural   Pr4Ga16Co2Rh
_chemical_formula_sum   'Pr4 Ga16 Co2 Rh1'
_cell_volume   437.43840101
_cell_formula_units_Z   1
loop_
 _symmetry_equiv_pos_site_id
 _symmetry_equiv_pos_as_xyz
  1  'x, y, z'
loop_
 _atom_site_type_symbol
 _atom_site_label
 _atom_site_symmetry_multiplicity
 _atom_site_fract_x
 _atom_site_fract_y
 _atom_site_fract_z
 _atom_site_occupancy
  Pr  Pr0  1  0.000000  0.500000  0.196451  1
  Pr  Pr1  1  0.000000  0.500000  0.803549  1
  Pr  Pr2  1  0.500000  0.000000  0.803549  1
  Pr  Pr3  1  0.500000  0.000000  0.196451  1
  Ga  Ga4  1  0.000000  0.000000  0.225518  1
  Ga  Ga5  1  0.000000  0.000000  0.774482  1
  Ga  Ga6  1  0.500000  0.500000  0.195176  1
  Ga  Ga7  1  0.500000  0.500000  0.804824  1
  Ga  Ga8  1  0.287278  0.287278  0.000000  1
  Ga  Ga9  1  0.712722  0.712722  0.000000  1
  Ga  Ga10  1  0.287278  0.712722  0.000000  1
  Ga  Ga11  1  0.712722  0.287278  0.000000  1
  Ga  Ga12  1  0.249444  0.249444  0.388742  1
  Ga  Ga13  1  0.750556  0.750556  0.388742  1
  Ga  Ga14  1  0.249444  0.750556  0.611258  1
  Ga  Ga15  1  0.750556  0.249444  0.611258  1
  Ga  Ga16  1  0.750556  0.750556  0.611258  1
  Ga  Ga17  1  0.249444  0.249444  0.611258  1
  Ga  Ga18  1  0.249444  0.750556  0.388742  1
  Ga  Ga19  1  0.750556  0.249444  0.388742  1
  Co  Co20  1  0.000000  0.500000  0.500000  1
  Co  Co21  1  0.500000  0.000000  0.500000  1
  Rh  Rh22  1  0.000000  0.000000  0.000000  1
