# generated using pymatgen
data_Tb3HfThIr3
_symmetry_space_group_name_H-M   'P 1'
_cell_length_a   11.00058800
_cell_length_b   10.95683500
_cell_length_c   6.26388800
_cell_angle_alpha   90.00000000
_cell_angle_beta   90.00000000
_cell_angle_gamma   90.00000000
_symmetry_Int_Tables_number   1
_chemical_formula_structural   Tb3HfThIr3
_chemical_formula_sum   'Tb12 Hf4 Th4 Ir12'
_cell_volume   754.99661586
_cell_formula_units_Z   4
loop_
 _symmetry_equiv_pos_site_id
 _symmetry_equiv_pos_as_xyz
  1  'x, y, z'
loop_
 _atom_site_type_symbol
 _atom_site_label
 _atom_site_symmetry_multiplicity
 _atom_site_fract_x
 _atom_site_fract_y
 _atom_site_fract_z
 _atom_site_occupancy
  Tb  Tb0  1  0.586667  0.781790  0.875703  1
  Tb  Tb1  1  0.586667  0.218210  0.375703  1
  Tb  Tb2  1  0.413333  0.781790  0.375703  1
  Tb  Tb3  1  0.413333  0.218210  0.875703  1
  Tb  Tb4  1  0.210138  0.415682  0.622988  1
  Tb  Tb5  1  0.210138  0.584318  0.122988  1
  Tb  Tb6  1  0.789862  0.415682  0.122988  1
  Tb  Tb7  1  0.789862  0.584318  0.622988  1
  Tb  Tb8  1  0.916380  0.709885  0.120030  1
  Tb  Tb9  1  0.916380  0.290115  0.620030  1
  Tb  Tb10  1  0.083620  0.709885  0.620030  1
  Tb  Tb11  1  0.083620  0.290115  0.120030  1
  Hf  Hf12  1  0.000000  0.000000  0.502053  1
  Hf  Hf13  1  0.000000  0.000000  0.002053  1
  Hf  Hf14  1  0.500000  0.500000  0.007710  1
  Hf  Hf15  1  0.500000  0.500000  0.507710  1
  Th  Th16  1  0.289967  0.090796  0.375873  1
  Th  Th17  1  0.289967  0.909204  0.875873  1
  Th  Th18  1  0.710033  0.090796  0.875873  1
  Th  Th19  1  0.710033  0.909204  0.375873  1
  Ir  Ir20  1  0.855194  0.139675  0.247410  1
  Ir  Ir21  1  0.855194  0.860325  0.747410  1
  Ir  Ir22  1  0.144806  0.139675  0.747410  1
  Ir  Ir23  1  0.144806  0.860325  0.247410  1
  Ir  Ir24  1  0.642230  0.357824  0.755622  1
  Ir  Ir25  1  0.642230  0.642176  0.255622  1
  Ir  Ir26  1  0.357770  0.357824  0.255622  1
  Ir  Ir27  1  0.357770  0.642176  0.755622  1
  Ir  Ir28  1  0.500000  0.000000  0.114441  1
  Ir  Ir29  1  0.500000  0.000000  0.614441  1
  Ir  Ir30  1  0.000000  0.500000  0.880545  1
  Ir  Ir31  1  0.000000  0.500000  0.380545  1
