# generated using pymatgen
data_Ce7Y(Pt2Pb)4
_symmetry_space_group_name_H-M   'P 1'
_cell_length_a   7.99973100
_cell_length_b   7.99973060
_cell_length_c   7.38563300
_cell_angle_alpha   90.00000000
_cell_angle_beta   90.00000000
_cell_angle_gamma   90.34330128
_symmetry_Int_Tables_number   1
_chemical_formula_structural   Ce7Y(Pt2Pb)4
_chemical_formula_sum   'Ce7 Y1 Pt8 Pb4'
_cell_volume   472.64021681
_cell_formula_units_Z   1
loop_
 _symmetry_equiv_pos_site_id
 _symmetry_equiv_pos_as_xyz
  1  'x, y, z'
loop_
 _atom_site_type_symbol
 _atom_site_label
 _atom_site_symmetry_multiplicity
 _atom_site_fract_x
 _atom_site_fract_y
 _atom_site_fract_z
 _atom_site_occupancy
  Ce  Ce0  1  0.674041  0.671998  0.000000  1
  Ce  Ce1  1  0.328598  0.331002  0.500000  1
  Ce  Ce2  1  0.828782  0.171218  0.500000  1
  Ce  Ce3  1  0.668998  0.671402  0.500000  1
  Ce  Ce4  1  0.328002  0.325959  0.000000  1
  Ce  Ce5  1  0.830331  0.169669  0.000000  1
  Ce  Ce6  1  0.171267  0.828733  0.000000  1
  Y  Y7  1  0.171081  0.828919  0.500000  1
  Pt  Pt8  1  0.870462  0.873476  0.748215  1
  Pt  Pt9  1  0.126524  0.129538  0.748215  1
  Pt  Pt10  1  0.629301  0.370699  0.752211  1
  Pt  Pt11  1  0.629301  0.370699  0.247789  1
  Pt  Pt12  1  0.374355  0.625645  0.245475  1
  Pt  Pt13  1  0.126524  0.129538  0.251785  1
  Pt  Pt14  1  0.870462  0.873476  0.251785  1
  Pt  Pt15  1  0.374355  0.625645  0.754525  1
  Pb  Pb16  1  0.497255  0.998447  0.746961  1
  Pb  Pb17  1  0.497255  0.998447  0.253039  1
  Pb  Pb18  1  0.001553  0.502745  0.746961  1
  Pb  Pb19  1  0.001553  0.502745  0.253039  1
