# generated using pymatgen
data_Ta3Co2Ni2B7
_symmetry_space_group_name_H-M   'P 1'
_cell_length_a   9.27702884
_cell_length_b   9.27702781
_cell_length_c   8.92556000
_cell_angle_alpha   90.00000000
_cell_angle_beta   90.00000000
_cell_angle_gamma   160.06897618
_symmetry_Int_Tables_number   1
_chemical_formula_structural   Ta3Co2Ni2B7
_chemical_formula_sum   'Ta6 Co4 Ni4 B14'
_cell_volume   261.85794967
_cell_formula_units_Z   2
loop_
 _symmetry_equiv_pos_site_id
 _symmetry_equiv_pos_as_xyz
  1  'x, y, z'
loop_
 _atom_site_type_symbol
 _atom_site_label
 _atom_site_symmetry_multiplicity
 _atom_site_fract_x
 _atom_site_fract_y
 _atom_site_fract_z
 _atom_site_occupancy
  Ta  Ta0  1  0.698645  0.301355  0.250000  1
  Ta  Ta1  1  0.301355  0.698645  0.750000  1
  Ta  Ta2  1  0.580752  0.419248  0.554545  1
  Ta  Ta3  1  0.419248  0.580752  0.445455  1
  Ta  Ta4  1  0.419248  0.580752  0.054545  1
  Ta  Ta5  1  0.580752  0.419248  0.945455  1
  Co  Co6  1  0.542798  0.457202  0.250000  1
  Co  Co7  1  0.457202  0.542798  0.750000  1
  Co  Co8  1  0.845044  0.154956  0.250000  1
  Co  Co9  1  0.154956  0.845044  0.750000  1
  Ni  Ni10  1  0.800866  0.199134  0.506999  1
  Ni  Ni11  1  0.199134  0.800866  0.493001  1
  Ni  Ni12  1  0.199134  0.800866  0.006999  1
  Ni  Ni13  1  0.800866  0.199134  0.993001  1
  B  B14  1  0.955282  0.044718  0.250000  1
  B  B15  1  0.044718  0.955282  0.750000  1
  B  B16  1  0.891014  0.108986  0.648530  1
  B  B17  1  0.108986  0.891014  0.351470  1
  B  B18  1  0.108986  0.891014  0.148530  1
  B  B19  1  0.891014  0.108986  0.851470  1
  B  B20  1  0.709567  0.290433  0.650064  1
  B  B21  1  0.290433  0.709567  0.349936  1
  B  B22  1  0.290433  0.709567  0.150064  1
  B  B23  1  0.709567  0.290433  0.849936  1
  B  B24  1  0.984500  0.015500  0.592447  1
  B  B25  1  0.015500  0.984500  0.407553  1
  B  B26  1  0.015500  0.984500  0.092447  1
  B  B27  1  0.984500  0.015500  0.907553  1
