# generated using pymatgen
data_BaCe2(MnH6)2
_symmetry_space_group_name_H-M   'P 1'
_cell_length_a   4.86549900
_cell_length_b   4.86549898
_cell_length_c   8.43562600
_cell_angle_alpha   90.00000000
_cell_angle_beta   90.00000000
_cell_angle_gamma   119.99999335
_symmetry_Int_Tables_number   1
_chemical_formula_structural   BaCe2(MnH6)2
_chemical_formula_sum   'Ba1 Ce2 Mn2 H12'
_cell_volume   172.94290545
_cell_formula_units_Z   1
loop_
 _symmetry_equiv_pos_site_id
 _symmetry_equiv_pos_as_xyz
  1  'x, y, z'
loop_
 _atom_site_type_symbol
 _atom_site_label
 _atom_site_symmetry_multiplicity
 _atom_site_fract_x
 _atom_site_fract_y
 _atom_site_fract_z
 _atom_site_occupancy
  Ba  Ba0  1  0.000000  0.000000  0.000000  1
  Ce  Ce1  1  0.666667  0.333333  0.363716  1
  Ce  Ce2  1  0.333333  0.666667  0.636284  1
  Mn  Mn3  1  0.666667  0.333333  0.718550  1
  Mn  Mn4  1  0.333333  0.666667  0.281450  1
  H  H5  1  0.170069  0.829931  0.390300  1
  H  H6  1  0.659862  0.829931  0.390300  1
  H  H7  1  0.170069  0.340138  0.390300  1
  H  H8  1  0.829931  0.170069  0.609700  1
  H  H9  1  0.340138  0.170069  0.609700  1
  H  H10  1  0.829931  0.659862  0.609700  1
  H  H11  1  0.513081  0.026163  0.840282  1
  H  H12  1  0.513081  0.486919  0.840282  1
  H  H13  1  0.973837  0.486919  0.840282  1
  H  H14  1  0.486919  0.973837  0.159718  1
  H  H15  1  0.486919  0.513081  0.159718  1
  H  H16  1  0.026163  0.513081  0.159718  1
