# generated using pymatgen
data_YbEr7(TmIr3)2
_symmetry_space_group_name_H-M   'P 1'
_cell_length_a   10.77714928
_cell_length_b   10.79859900
_cell_length_c   6.31870800
_cell_angle_alpha   90.00000000
_cell_angle_beta   90.20094488
_cell_angle_gamma   90.00000000
_symmetry_Int_Tables_number   1
_chemical_formula_structural   YbEr7(TmIr3)2
_chemical_formula_sum   'Yb2 Er14 Tm4 Ir12'
_cell_volume   735.35479391
_cell_formula_units_Z   2
loop_
 _symmetry_equiv_pos_site_id
 _symmetry_equiv_pos_as_xyz
  1  'x, y, z'
loop_
 _atom_site_type_symbol
 _atom_site_label
 _atom_site_symmetry_multiplicity
 _atom_site_fract_x
 _atom_site_fract_y
 _atom_site_fract_z
 _atom_site_occupancy
  Yb  Yb0  1  0.289142  0.088188  0.375545  1
  Yb  Yb1  1  0.289142  0.911812  0.875545  1
  Er  Er2  1  0.709251  0.086173  0.878966  1
  Er  Er3  1  0.709251  0.913827  0.378966  1
  Er  Er4  1  0.586916  0.792413  0.877028  1
  Er  Er5  1  0.586916  0.207587  0.377028  1
  Er  Er6  1  0.412416  0.793047  0.378844  1
  Er  Er7  1  0.412416  0.206953  0.878844  1
  Er  Er8  1  0.209958  0.413482  0.622974  1
  Er  Er9  1  0.209958  0.586518  0.122974  1
  Er  Er10  1  0.791038  0.412556  0.120794  1
  Er  Er11  1  0.791038  0.587444  0.620794  1
  Er  Er12  1  0.912792  0.709400  0.123571  1
  Er  Er13  1  0.912792  0.290600  0.623571  1
  Er  Er14  1  0.087249  0.708650  0.622178  1
  Er  Er15  1  0.087249  0.291350  0.122178  1
  Tm  Tm16  1  0.000926  0.999465  0.500060  1
  Tm  Tm17  1  0.000926  0.000535  0.000060  1
  Tm  Tm18  1  0.500300  0.499929  0.997900  1
  Tm  Tm19  1  0.500300  0.500071  0.497900  1
  Ir  Ir20  1  0.849146  0.153304  0.250531  1
  Ir  Ir21  1  0.849146  0.846696  0.750531  1
  Ir  Ir22  1  0.147194  0.159483  0.753218  1
  Ir  Ir23  1  0.147194  0.840517  0.253218  1
  Ir  Ir24  1  0.651294  0.345785  0.750634  1
  Ir  Ir25  1  0.651294  0.654215  0.250634  1
  Ir  Ir26  1  0.347681  0.351837  0.245406  1
  Ir  Ir27  1  0.347681  0.648163  0.745406  1
  Ir  Ir28  1  0.504620  0.000254  0.123705  1
  Ir  Ir29  1  0.504620  0.999746  0.623705  1
  Ir  Ir30  1  0.000076  0.500193  0.878644  1
  Ir  Ir31  1  0.000076  0.499807  0.378644  1
