# generated using pymatgen
data_Eu3Ga2NiIr
_symmetry_space_group_name_H-M   'P 1'
_cell_length_a   5.92031700
_cell_length_b   8.12205200
_cell_length_c   13.76709400
_cell_angle_alpha   90.00000000
_cell_angle_beta   90.00000000
_cell_angle_gamma   90.00000000
_symmetry_Int_Tables_number   1
_chemical_formula_structural   Eu3Ga2NiIr
_chemical_formula_sum   'Eu12 Ga8 Ni4 Ir4'
_cell_volume   661.99240188
_cell_formula_units_Z   4
loop_
 _symmetry_equiv_pos_site_id
 _symmetry_equiv_pos_as_xyz
  1  'x, y, z'
loop_
 _atom_site_type_symbol
 _atom_site_label
 _atom_site_symmetry_multiplicity
 _atom_site_fract_x
 _atom_site_fract_y
 _atom_site_fract_z
 _atom_site_occupancy
  Eu  Eu0  1  0.139573  0.901154  0.596181  1
  Eu  Eu1  1  0.860427  0.098846  0.096181  1
  Eu  Eu2  1  0.139573  0.598846  0.403819  1
  Eu  Eu3  1  0.860427  0.401154  0.903819  1
  Eu  Eu4  1  0.852074  0.111636  0.403130  1
  Eu  Eu5  1  0.147926  0.888364  0.903130  1
  Eu  Eu6  1  0.852074  0.388364  0.596870  1
  Eu  Eu7  1  0.147926  0.611636  0.096870  1
  Eu  Eu8  1  0.365334  0.241259  0.751751  1
  Eu  Eu9  1  0.634666  0.758741  0.251751  1
  Eu  Eu10  1  0.365334  0.258741  0.248249  1
  Eu  Eu11  1  0.634666  0.741259  0.748249  1
  Ga  Ga12  1  0.838511  0.089081  0.755801  1
  Ga  Ga13  1  0.161489  0.910919  0.255801  1
  Ga  Ga14  1  0.838511  0.410919  0.244199  1
  Ga  Ga15  1  0.161489  0.589081  0.744199  1
  Ga  Ga16  1  0.382708  0.250000  0.500000  1
  Ga  Ga17  1  0.617292  0.750000  0.000000  1
  Ga  Ga18  1  0.607817  0.750000  0.500000  1
  Ga  Ga19  1  0.392183  0.250000  0.000000  1
  Ni  Ni20  1  0.370392  0.971961  0.412235  1
  Ni  Ni21  1  0.629608  0.028039  0.912235  1
  Ni  Ni22  1  0.370392  0.528039  0.587765  1
  Ni  Ni23  1  0.629608  0.471961  0.087765  1
  Ir  Ir24  1  0.628753  0.026780  0.593818  1
  Ir  Ir25  1  0.371247  0.973220  0.093818  1
  Ir  Ir26  1  0.628753  0.473220  0.406182  1
  Ir  Ir27  1  0.371247  0.526780  0.906182  1
