# generated using pymatgen
data_La16Cd4Ru3Au
_symmetry_space_group_name_H-M   'P 1'
_cell_length_a   10.14366860
_cell_length_b   10.14219501
_cell_length_c   10.09309583
_cell_angle_alpha   59.83833526
_cell_angle_beta   59.83921881
_cell_angle_gamma   60.00306004
_symmetry_Int_Tables_number   1
_chemical_formula_structural   La16Cd4Ru3Au
_chemical_formula_sum   'La16 Cd4 Ru3 Au1'
_cell_volume   732.45975242
_cell_formula_units_Z   1
loop_
 _symmetry_equiv_pos_site_id
 _symmetry_equiv_pos_as_xyz
  1  'x, y, z'
loop_
 _atom_site_type_symbol
 _atom_site_label
 _atom_site_symmetry_multiplicity
 _atom_site_fract_x
 _atom_site_fract_y
 _atom_site_fract_z
 _atom_site_occupancy
  La  La0  1  0.895814  0.895872  0.911896  1
  La  La1  1  0.438490  0.438539  0.059677  1
  La  La2  1  0.058152  0.058122  0.427724  1
  La  La3  1  0.438542  0.063344  0.059630  1
  La  La4  1  0.309050  0.688741  0.313379  1
  La  La5  1  0.688787  0.688781  0.313483  1
  La  La6  1  0.688731  0.309022  0.313375  1
  La  La7  1  0.296383  0.895902  0.911780  1
  La  La8  1  0.895915  0.296507  0.911706  1
  La  La9  1  0.310793  0.685392  0.693074  1
  La  La10  1  0.905425  0.905283  0.283929  1
  La  La11  1  0.063334  0.438492  0.059646  1
  La  La12  1  0.310723  0.310723  0.693057  1
  La  La13  1  0.058162  0.456000  0.427675  1
  La  La14  1  0.456018  0.058165  0.427668  1
  La  La15  1  0.685473  0.310769  0.693155  1
  Cd  Cd16  1  0.670445  0.670435  0.988670  1
  Cd  Cd17  1  0.988736  0.670814  0.669623  1
  Cd  Cd18  1  0.670827  0.988718  0.669626  1
  Cd  Cd19  1  0.670820  0.670825  0.669618  1
  Ru  Ru20  1  0.111495  0.111559  0.109616  1
  Ru  Ru21  1  0.111502  0.667342  0.109628  1
  Ru  Ru22  1  0.667325  0.111546  0.109621  1
  Au  Au23  1  0.109058  0.109107  0.672742  1
