# generated using pymatgen
data_DySc6Zn(Co3Sn11)2
_symmetry_space_group_name_H-M   'P 1'
_cell_length_a   9.53119700
_cell_length_b   9.53119698
_cell_length_c   9.76308600
_cell_angle_alpha   90.00000000
_cell_angle_beta   90.00000000
_cell_angle_gamma   119.99999659
_symmetry_Int_Tables_number   1
_chemical_formula_structural   DySc6Zn(Co3Sn11)2
_chemical_formula_sum   'Dy1 Sc6 Zn1 Co6 Sn22'
_cell_volume   768.09095849
_cell_formula_units_Z   1
loop_
 _symmetry_equiv_pos_site_id
 _symmetry_equiv_pos_as_xyz
  1  'x, y, z'
loop_
 _atom_site_type_symbol
 _atom_site_label
 _atom_site_symmetry_multiplicity
 _atom_site_fract_x
 _atom_site_fract_y
 _atom_site_fract_z
 _atom_site_occupancy
  Dy  Dy0  1  0.000000  0.000000  0.000000  1
  Sc  Sc1  1  0.483198  0.516802  0.307793  1
  Sc  Sc2  1  0.516802  0.483198  0.692207  1
  Sc  Sc3  1  0.483198  0.966395  0.307793  1
  Sc  Sc4  1  0.516802  0.033605  0.692207  1
  Sc  Sc5  1  0.033605  0.516802  0.307793  1
  Sc  Sc6  1  0.966395  0.483198  0.692207  1
  Zn  Zn7  1  0.000000  0.000000  0.500000  1
  Co  Co8  1  0.830652  0.169348  0.199694  1
  Co  Co9  1  0.169348  0.830652  0.800306  1
  Co  Co10  1  0.830652  0.661304  0.199694  1
  Co  Co11  1  0.169348  0.338696  0.800306  1
  Co  Co12  1  0.338696  0.169348  0.199694  1
  Co  Co13  1  0.661304  0.830652  0.800306  1
  Sn  Sn14  1  0.347342  0.000000  0.000000  1
  Sn  Sn15  1  0.652658  0.000000  0.000000  1
  Sn  Sn16  1  0.000000  0.347342  0.000000  1
  Sn  Sn17  1  0.000000  0.652658  0.000000  1
  Sn  Sn18  1  0.652658  0.652658  0.000000  1
  Sn  Sn19  1  0.347342  0.347342  0.000000  1
  Sn  Sn20  1  0.333333  0.666667  0.822682  1
  Sn  Sn21  1  0.666667  0.333333  0.177318  1
  Sn  Sn22  1  0.780561  0.219439  0.456401  1
  Sn  Sn23  1  0.219439  0.780561  0.543599  1
  Sn  Sn24  1  0.780561  0.561122  0.456401  1
  Sn  Sn25  1  0.219439  0.438878  0.543599  1
  Sn  Sn26  1  0.438878  0.219439  0.456401  1
  Sn  Sn27  1  0.561122  0.780561  0.543599  1
  Sn  Sn28  1  0.333333  0.666667  0.138523  1
  Sn  Sn29  1  0.666667  0.333333  0.861477  1
  Sn  Sn30  1  0.116806  0.883194  0.279431  1
  Sn  Sn31  1  0.883194  0.116806  0.720569  1
  Sn  Sn32  1  0.116806  0.233614  0.279431  1
  Sn  Sn33  1  0.883194  0.766386  0.720569  1
  Sn  Sn34  1  0.766386  0.883194  0.279431  1
  Sn  Sn35  1  0.233614  0.116806  0.720569  1
