# generated using pymatgen
data_Y8TcOsBr8
_symmetry_space_group_name_H-M   'P 1'
_cell_length_a   8.99203098
_cell_length_b   8.99202985
_cell_length_c   6.59739301
_cell_angle_alpha   89.50699279
_cell_angle_beta   89.50699331
_cell_angle_gamma   89.39565202
_symmetry_Int_Tables_number   1
_chemical_formula_structural   Y8TcOsBr8
_chemical_formula_sum   'Y8 Tc1 Os1 Br8'
_cell_volume   533.37408448
_cell_formula_units_Z   1
loop_
 _symmetry_equiv_pos_site_id
 _symmetry_equiv_pos_as_xyz
  1  'x, y, z'
loop_
 _atom_site_type_symbol
 _atom_site_label
 _atom_site_symmetry_multiplicity
 _atom_site_fract_x
 _atom_site_fract_y
 _atom_site_fract_z
 _atom_site_occupancy
  Y  Y0  1  0.750544  0.099167  0.989680  1
  Y  Y1  1  0.099112  0.750698  0.489428  1
  Y  Y2  1  0.097421  0.248188  0.991761  1
  Y  Y3  1  0.248308  0.097539  0.491416  1
  Y  Y4  1  0.902461  0.751692  0.008584  1
  Y  Y5  1  0.900833  0.249456  0.510320  1
  Y  Y6  1  0.249302  0.900888  0.010572  1
  Y  Y7  1  0.751812  0.902579  0.508239  1
  Tc  Tc8  1  0.994810  0.005190  0.250000  1
  Os  Os9  1  0.005161  0.994839  0.750000  1
  Br  Br10  1  0.580691  0.182853  0.592229  1
  Br  Br11  1  0.810313  0.585101  0.405746  1
  Br  Br12  1  0.414899  0.189687  0.094254  1
  Br  Br13  1  0.189745  0.414817  0.594511  1
  Br  Br14  1  0.585183  0.810255  0.905489  1
  Br  Br15  1  0.419341  0.817085  0.408200  1
  Br  Br16  1  0.182915  0.580659  0.091800  1
  Br  Br17  1  0.817147  0.419309  0.907771  1
