# generated using pymatgen
data_NaBiRh4(PbO7)2
_symmetry_space_group_name_H-M   'P 1'
_cell_length_a   7.31568083
_cell_length_b   7.31568127
_cell_length_c   7.24628272
_cell_angle_alpha   59.07102264
_cell_angle_beta   59.07101599
_cell_angle_gamma   59.54761973
_symmetry_Int_Tables_number   1
_chemical_formula_structural   NaBiRh4(PbO7)2
_chemical_formula_sum   'Na1 Bi1 Rh4 Pb2 O14'
_cell_volume   269.40324762
_cell_formula_units_Z   1
loop_
 _symmetry_equiv_pos_site_id
 _symmetry_equiv_pos_as_xyz
  1  'x, y, z'
loop_
 _atom_site_type_symbol
 _atom_site_label
 _atom_site_symmetry_multiplicity
 _atom_site_fract_x
 _atom_site_fract_y
 _atom_site_fract_z
 _atom_site_occupancy
  Na  Na0  1  0.125000  0.125000  0.625000  1
  Bi  Bi1  1  0.125000  0.125000  0.125000  1
  Rh  Rh2  1  0.625000  0.625000  0.625000  1
  Rh  Rh3  1  0.625000  0.625000  0.125000  1
  Rh  Rh4  1  0.125000  0.625000  0.625000  1
  Rh  Rh5  1  0.625000  0.125000  0.625000  1
  Pb  Pb6  1  0.125000  0.625000  0.125000  1
  Pb  Pb7  1  0.625000  0.125000  0.125000  1
  O  O8  1  0.248392  0.248392  0.248034  1
  O  O9  1  0.293690  0.709888  0.289122  1
  O  O10  1  0.953781  0.953781  0.535501  1
  O  O11  1  0.560260  0.952066  0.536256  1
  O  O12  1  0.709093  0.709093  0.287681  1
  O  O13  1  0.952066  0.560260  0.536256  1
  O  O14  1  0.689740  0.297934  0.713744  1
  O  O15  1  0.296219  0.296219  0.714499  1
  O  O16  1  0.709888  0.293690  0.289122  1
  O  O17  1  0.297934  0.689740  0.713744  1
  O  O18  1  0.956310  0.540112  0.960878  1
  O  O19  1  0.540907  0.540907  0.962319  1
  O  O20  1  0.001608  0.001608  0.001966  1
  O  O21  1  0.540112  0.956310  0.960878  1
