# generated using pymatgen
data_Zr4Nb6Ga6C
_symmetry_space_group_name_H-M   'P 1'
_cell_length_a   7.94490771
_cell_length_b   7.91524043
_cell_length_c   5.43858506
_cell_angle_alpha   89.67109438
_cell_angle_beta   90.16383324
_cell_angle_gamma   119.87655522
_symmetry_Int_Tables_number   1
_chemical_formula_structural   Zr4Nb6Ga6C
_chemical_formula_sum   'Zr4 Nb6 Ga6 C1'
_cell_volume   296.55226850
_cell_formula_units_Z   1
loop_
 _symmetry_equiv_pos_site_id
 _symmetry_equiv_pos_as_xyz
  1  'x, y, z'
loop_
 _atom_site_type_symbol
 _atom_site_label
 _atom_site_symmetry_multiplicity
 _atom_site_fract_x
 _atom_site_fract_y
 _atom_site_fract_z
 _atom_site_occupancy
  Zr  Zr0  1  0.000000  0.760484  0.247997  1
  Zr  Zr1  1  0.239744  0.238292  0.257088  1
  Zr  Zr2  1  0.760256  0.998548  0.257088  1
  Zr  Zr3  1  0.000000  0.240640  0.749021  1
  Nb  Nb4  1  0.759785  0.760031  0.739318  1
  Nb  Nb5  1  0.240215  0.000246  0.739318  1
  Nb  Nb6  1  0.332483  0.666277  0.000680  1
  Nb  Nb7  1  0.667517  0.333792  0.000680  1
  Nb  Nb8  1  0.665764  0.334592  0.500033  1
  Nb  Nb9  1  0.334236  0.668829  0.500033  1
  Ga  Ga10  1  0.000000  0.402791  0.249663  1
  Ga  Ga11  1  0.597289  0.597415  0.244891  1
  Ga  Ga12  1  0.402711  0.000126  0.244891  1
  Ga  Ga13  1  0.000000  0.605063  0.751204  1
  Ga  Ga14  1  0.403696  0.401874  0.753035  1
  Ga  Ga15  1  0.596304  0.998178  0.753035  1
  C  C16  1  0.000000  0.992821  0.512027  1
