# generated using pymatgen
data_Ce3HoMg3ZnIr4
_symmetry_space_group_name_H-M   'P 1'
_cell_length_a   4.04687900
_cell_length_b   7.10246151
_cell_length_c   8.62990626
_cell_angle_alpha   91.11565482
_cell_angle_beta   90.00000000
_cell_angle_gamma   90.00000000
_symmetry_Int_Tables_number   1
_chemical_formula_structural   Ce3HoMg3ZnIr4
_chemical_formula_sum   'Ce3 Ho1 Mg3 Zn1 Ir4'
_cell_volume   248.00066745
_cell_formula_units_Z   1
loop_
 _symmetry_equiv_pos_site_id
 _symmetry_equiv_pos_as_xyz
  1  'x, y, z'
loop_
 _atom_site_type_symbol
 _atom_site_label
 _atom_site_symmetry_multiplicity
 _atom_site_fract_x
 _atom_site_fract_y
 _atom_site_fract_z
 _atom_site_occupancy
  Ce  Ce0  1  0.250000  0.532948  0.189133  1
  Ce  Ce1  1  0.750000  0.460825  0.809145  1
  Ce  Ce2  1  0.250000  0.045448  0.328815  1
  Ho  Ho3  1  0.750000  0.957504  0.678209  1
  Mg  Mg4  1  0.250000  0.130980  0.938389  1
  Mg  Mg5  1  0.750000  0.865324  0.057585  1
  Mg  Mg6  1  0.250000  0.632804  0.554879  1
  Zn  Zn7  1  0.750000  0.367173  0.444402  1
  Ir  Ir8  1  0.750000  0.758547  0.364536  1
  Ir  Ir9  1  0.250000  0.251387  0.629518  1
  Ir  Ir10  1  0.750000  0.259304  0.136937  1
  Ir  Ir11  1  0.250000  0.737756  0.868452  1
