# generated using pymatgen
data_Tb8Hf3Si16Mo2W7
_symmetry_space_group_name_H-M   'P 1'
_cell_length_a   6.97587901
_cell_length_b   6.97194706
_cell_length_c   12.93571966
_cell_angle_alpha   89.93520107
_cell_angle_beta   90.02797064
_cell_angle_gamma   89.90150388
_symmetry_Int_Tables_number   1
_chemical_formula_structural   Tb8Hf3Si16Mo2W7
_chemical_formula_sum   'Tb8 Hf3 Si16 Mo2 W7'
_cell_volume   629.13325825
_cell_formula_units_Z   1
loop_
 _symmetry_equiv_pos_site_id
 _symmetry_equiv_pos_as_xyz
  1  'x, y, z'
loop_
 _atom_site_type_symbol
 _atom_site_label
 _atom_site_symmetry_multiplicity
 _atom_site_fract_x
 _atom_site_fract_y
 _atom_site_fract_z
 _atom_site_occupancy
  Tb  Tb0  1  0.000866  0.336213  0.216980  1
  Tb  Tb1  1  0.003666  0.662719  0.720308  1
  Tb  Tb2  1  0.162303  0.498184  0.468542  1
  Tb  Tb3  1  0.500221  0.839141  0.030933  1
  Tb  Tb4  1  0.839106  0.499747  0.969120  1
  Tb  Tb5  1  0.497799  0.162253  0.531520  1
  Tb  Tb6  1  0.336225  0.000805  0.783034  1
  Tb  Tb7  1  0.662598  0.003684  0.279604  1
  Hf  Hf8  1  0.832560  0.832635  0.500053  1
  Hf  Hf9  1  0.331077  0.667553  0.247732  1
  Hf  Hf10  1  0.667543  0.330996  0.752154  1
  Si  Si11  1  0.373046  0.294850  0.317346  1
  Si  Si12  1  0.625429  0.706553  0.817430  1
  Si  Si13  1  0.205081  0.873588  0.568200  1
  Si  Si14  1  0.124256  0.802233  0.933871  1
  Si  Si15  1  0.802160  0.124504  0.066134  1
  Si  Si16  1  0.873641  0.205214  0.432120  1
  Si  Si17  1  0.294662  0.372983  0.682556  1
  Si  Si18  1  0.706803  0.625446  0.182457  1
  Si  Si19  1  0.289336  0.043969  0.184150  1
  Si  Si20  1  0.708426  0.959656  0.688556  1
  Si  Si21  1  0.458507  0.790848  0.437586  1
  Si  Si22  1  0.210636  0.532697  0.059285  1
  Si  Si23  1  0.532419  0.210552  0.940783  1
  Si  Si24  1  0.790824  0.458277  0.562328  1
  Si  Si25  1  0.044150  0.288749  0.815872  1
  Si  Si26  1  0.959387  0.708535  0.311352  1
  Mo  Mo27  1  0.162340  0.995059  0.375173  1
  Mo  Mo28  1  0.832984  0.005190  0.877050  1
  W  W29  1  0.167189  0.166588  0.000267  1
  W  W30  1  0.506088  0.661447  0.626613  1
  W  W31  1  0.340237  0.496661  0.873932  1
  W  W32  1  0.496771  0.340454  0.126110  1
  W  W33  1  0.661429  0.505981  0.373501  1
  W  W34  1  0.994834  0.162196  0.624747  1
  W  W35  1  0.005406  0.833842  0.122600  1
