# generated using pymatgen
data_Hf5B4PRu10
_symmetry_space_group_name_H-M   'P 1'
_cell_length_a   3.07723500
_cell_length_b   9.41035000
_cell_length_c   9.41035000
_cell_angle_alpha   90.00000000
_cell_angle_beta   90.00000000
_cell_angle_gamma   90.00000000
_symmetry_Int_Tables_number   1
_chemical_formula_structural   Hf5B4PRu10
_chemical_formula_sum   'Hf5 B4 P1 Ru10'
_cell_volume   272.50358263
_cell_formula_units_Z   1
loop_
 _symmetry_equiv_pos_site_id
 _symmetry_equiv_pos_as_xyz
  1  'x, y, z'
loop_
 _atom_site_type_symbol
 _atom_site_label
 _atom_site_symmetry_multiplicity
 _atom_site_fract_x
 _atom_site_fract_y
 _atom_site_fract_z
 _atom_site_occupancy
  Hf  Hf0  1  0.000000  0.675797  0.825062  1
  Hf  Hf1  1  0.000000  0.324203  0.174938  1
  Hf  Hf2  1  0.000000  0.825062  0.324203  1
  Hf  Hf3  1  0.000000  0.174938  0.675797  1
  Hf  Hf4  1  0.000000  0.000000  0.000000  1
  B  B5  1  0.000000  0.874048  0.619394  1
  B  B6  1  0.000000  0.125952  0.380606  1
  B  B7  1  0.000000  0.619394  0.125952  1
  B  B8  1  0.000000  0.380606  0.874048  1
  P  P9  1  0.000000  0.500000  0.500000  1
  Ru  Ru10  1  0.500000  0.706550  0.563071  1
  Ru  Ru11  1  0.500000  0.293450  0.436929  1
  Ru  Ru12  1  0.500000  0.777475  0.077768  1
  Ru  Ru13  1  0.500000  0.222525  0.922232  1
  Ru  Ru14  1  0.500000  0.563071  0.293450  1
  Ru  Ru15  1  0.500000  0.436929  0.706550  1
  Ru  Ru16  1  0.500000  0.077768  0.222525  1
  Ru  Ru17  1  0.500000  0.922232  0.777475  1
  Ru  Ru18  1  0.500000  0.000000  0.500000  1
  Ru  Ru19  1  0.500000  0.500000  0.000000  1
