# generated using pymatgen
data_HfCo2SiMoP
_symmetry_space_group_name_H-M   'P 1'
_cell_length_a   3.65140200
_cell_length_b   6.16982300
_cell_length_c   7.01308100
_cell_angle_alpha   90.00000000
_cell_angle_beta   90.00000000
_cell_angle_gamma   90.00000000
_symmetry_Int_Tables_number   1
_chemical_formula_structural   HfCo2SiMoP
_chemical_formula_sum   'Hf2 Co4 Si2 Mo2 P2'
_cell_volume   157.99422365
_cell_formula_units_Z   2
loop_
 _symmetry_equiv_pos_site_id
 _symmetry_equiv_pos_as_xyz
  1  'x, y, z'
loop_
 _atom_site_type_symbol
 _atom_site_label
 _atom_site_symmetry_multiplicity
 _atom_site_fract_x
 _atom_site_fract_y
 _atom_site_fract_z
 _atom_site_occupancy
  Hf  Hf0  1  0.750000  0.977675  0.677717  1
  Hf  Hf1  1  0.750000  0.477675  0.822283  1
  Co  Co2  1  0.250000  0.142872  0.932221  1
  Co  Co3  1  0.250000  0.642872  0.567779  1
  Co  Co4  1  0.750000  0.855915  0.057136  1
  Co  Co5  1  0.750000  0.355915  0.442864  1
  Si  Si6  1  0.750000  0.722968  0.368965  1
  Si  Si7  1  0.750000  0.222968  0.131035  1
  Mo  Mo8  1  0.250000  0.025085  0.324279  1
  Mo  Mo9  1  0.250000  0.525085  0.175721  1
  P  P10  1  0.250000  0.275485  0.605893  1
  P  P11  1  0.250000  0.775485  0.894107  1
