# generated using pymatgen
data_La(ThSe2)6
_symmetry_space_group_name_H-M   'P 1'
_cell_length_a   4.13789900
_cell_length_b   11.74918552
_cell_length_c   11.74918400
_cell_angle_alpha   120.00000134
_cell_angle_beta   90.00000000
_cell_angle_gamma   90.00000000
_symmetry_Int_Tables_number   1
_chemical_formula_structural   La(ThSe2)6
_chemical_formula_sum   'La1 Th6 Se12'
_cell_volume   494.68185255
_cell_formula_units_Z   1
loop_
 _symmetry_equiv_pos_site_id
 _symmetry_equiv_pos_as_xyz
  1  'x, y, z'
loop_
 _atom_site_type_symbol
 _atom_site_label
 _atom_site_symmetry_multiplicity
 _atom_site_fract_x
 _atom_site_fract_y
 _atom_site_fract_z
 _atom_site_occupancy
  La  La0  1  0.750000  0.000000  0.000000  1
  Th  Th1  1  0.750000  0.719988  0.567327  1
  Th  Th2  1  0.750000  0.432673  0.152661  1
  Th  Th3  1  0.750000  0.847339  0.280012  1
  Th  Th4  1  0.250000  0.286528  0.443124  1
  Th  Th5  1  0.250000  0.556876  0.843404  1
  Th  Th6  1  0.250000  0.156596  0.713472  1
  Se  Se7  1  0.750000  0.005858  0.749589  1
  Se  Se8  1  0.750000  0.250411  0.256269  1
  Se  Se9  1  0.750000  0.743731  0.994142  1
  Se  Se10  1  0.250000  0.994735  0.216435  1
  Se  Se11  1  0.250000  0.783565  0.778301  1
  Se  Se12  1  0.250000  0.221699  0.005265  1
  Se  Se13  1  0.750000  0.374934  0.861486  1
  Se  Se14  1  0.750000  0.138514  0.513447  1
  Se  Se15  1  0.750000  0.486553  0.625066  1
  Se  Se16  1  0.250000  0.616442  0.140718  1
  Se  Se17  1  0.250000  0.859282  0.475724  1
  Se  Se18  1  0.250000  0.524276  0.383558  1
