# generated using pymatgen
data_Fe4Mo2P4RuW
_symmetry_space_group_name_H-M   'P 1'
_cell_length_a   3.72179100
_cell_length_b   5.84015753
_cell_length_c   6.66528569
_cell_angle_alpha   89.94953121
_cell_angle_beta   90.00000000
_cell_angle_gamma   90.00000000
_symmetry_Int_Tables_number   1
_chemical_formula_structural   Fe4Mo2P4RuW
_chemical_formula_sum   'Fe4 Mo2 P4 Ru1 W1'
_cell_volume   144.87556531
_cell_formula_units_Z   1
loop_
 _symmetry_equiv_pos_site_id
 _symmetry_equiv_pos_as_xyz
  1  'x, y, z'
loop_
 _atom_site_type_symbol
 _atom_site_label
 _atom_site_symmetry_multiplicity
 _atom_site_fract_x
 _atom_site_fract_y
 _atom_site_fract_z
 _atom_site_occupancy
  Fe  Fe0  1  0.250000  0.861664  0.939280  1
  Fe  Fe1  1  0.250000  0.361237  0.567284  1
  Fe  Fe2  1  0.750000  0.142266  0.066646  1
  Fe  Fe3  1  0.750000  0.639668  0.430863  1
  Mo  Mo4  1  0.750000  0.025875  0.670196  1
  Mo  Mo5  1  0.750000  0.528975  0.830803  1
  P  P6  1  0.250000  0.231558  0.880582  1
  P  P7  1  0.250000  0.731035  0.623663  1
  P  P8  1  0.750000  0.764981  0.117941  1
  P  P9  1  0.750000  0.270732  0.378616  1
  Ru  Ru10  1  0.250000  0.464976  0.166547  1
  W  W11  1  0.250000  0.977030  0.327580  1
