# generated using pymatgen
data_Pr3Nd5Zn(Si4Pd)3
_symmetry_space_group_name_H-M   'P 1'
_cell_length_a   8.26285100
_cell_length_b   8.26210276
_cell_length_c   8.56534900
_cell_angle_alpha   89.99809256
_cell_angle_beta   89.99995913
_cell_angle_gamma   120.00300785
_symmetry_Int_Tables_number   1
_chemical_formula_structural   Pr3Nd5Zn(Si4Pd)3
_chemical_formula_sum   'Pr3 Nd5 Zn1 Si12 Pd3'
_cell_volume   506.38757892
_cell_formula_units_Z   1
loop_
 _symmetry_equiv_pos_site_id
 _symmetry_equiv_pos_as_xyz
  1  'x, y, z'
loop_
 _atom_site_type_symbol
 _atom_site_label
 _atom_site_symmetry_multiplicity
 _atom_site_fract_x
 _atom_site_fract_y
 _atom_site_fract_z
 _atom_site_occupancy
  Pr  Pr0  1  0.500683  0.001365  0.251063  1
  Pr  Pr1  1  0.000011  0.000021  0.748837  1
  Pr  Pr2  1  0.999992  0.999983  0.251490  1
  Nd  Nd3  1  0.499876  0.500172  0.748665  1
  Nd  Nd4  1  0.500678  0.499394  0.251250  1
  Nd  Nd5  1  0.000296  0.500171  0.748665  1
  Nd  Nd6  1  0.998718  0.499394  0.251250  1
  Nd  Nd7  1  0.499866  0.999732  0.748687  1
  Zn  Zn8  1  0.666829  0.333658  0.995941  1
  Si  Si9  1  0.835346  0.165125  0.000594  1
  Si  Si10  1  0.167481  0.832024  0.998876  1
  Si  Si11  1  0.329779  0.165125  0.000594  1
  Si  Si12  1  0.165927  0.833625  0.500323  1
  Si  Si13  1  0.664542  0.832023  0.998876  1
  Si  Si14  1  0.834114  0.166369  0.500717  1
  Si  Si15  1  0.834999  0.669999  0.000895  1
  Si  Si16  1  0.667698  0.833625  0.500322  1
  Si  Si17  1  0.167776  0.335551  0.999248  1
  Si  Si18  1  0.332255  0.166369  0.500717  1
  Si  Si19  1  0.166226  0.332450  0.499998  1
  Si  Si20  1  0.833803  0.667607  0.500356  1
  Pd  Pd21  1  0.333107  0.666213  0.001262  1
  Pd  Pd22  1  0.333109  0.666217  0.499709  1
  Pd  Pd23  1  0.666893  0.333785  0.501667  1
