# generated using pymatgen
data_Rb8Ho4Er2BeBr20
_symmetry_space_group_name_H-M   'P 1'
_cell_length_a   12.30087145
_cell_length_b   12.30087128
_cell_length_c   12.30435000
_cell_angle_alpha   59.99064989
_cell_angle_beta   59.99065035
_cell_angle_gamma   60.01870498
_symmetry_Int_Tables_number   1
_chemical_formula_structural   Rb8Ho4Er2BeBr20
_chemical_formula_sum   'Rb8 Ho4 Er2 Be1 Br20'
_cell_volume   1316.48337719
_cell_formula_units_Z   1
loop_
 _symmetry_equiv_pos_site_id
 _symmetry_equiv_pos_as_xyz
  1  'x, y, z'
loop_
 _atom_site_type_symbol
 _atom_site_label
 _atom_site_symmetry_multiplicity
 _atom_site_fract_x
 _atom_site_fract_y
 _atom_site_fract_z
 _atom_site_occupancy
  Rb  Rb0  1  0.358742  0.358742  0.358744  1
  Rb  Rb1  1  0.641258  0.641258  0.641256  1
  Rb  Rb2  1  0.358742  0.358742  0.923771  1
  Rb  Rb3  1  0.358744  0.923771  0.358742  1
  Rb  Rb4  1  0.641258  0.641258  0.076229  1
  Rb  Rb5  1  0.641256  0.076229  0.641258  1
  Rb  Rb6  1  0.923771  0.358744  0.358742  1
  Rb  Rb7  1  0.076229  0.641256  0.641258  1
  Ho  Ho8  1  0.845493  0.154507  0.154507  1
  Ho  Ho9  1  0.154507  0.845493  0.845493  1
  Ho  Ho10  1  0.154507  0.845493  0.154507  1
  Ho  Ho11  1  0.845493  0.154507  0.845493  1
  Er  Er12  1  0.154355  0.154355  0.845645  1
  Er  Er13  1  0.845645  0.845645  0.154355  1
  Be  Be14  1  0.000000  0.000000  0.000000  1
  Br  Br15  1  0.330094  0.000257  0.999743  1
  Br  Br16  1  0.669906  0.999743  0.000257  1
  Br  Br17  1  0.000257  0.330094  0.669906  1
  Br  Br18  1  0.999743  0.669906  0.330094  1
  Br  Br19  1  0.000257  0.330094  0.999743  1
  Br  Br20  1  0.669906  0.999743  0.330094  1
  Br  Br21  1  0.999743  0.669906  0.000257  1
  Br  Br22  1  0.330094  0.000257  0.669906  1
  Br  Br23  1  0.000000  0.000000  0.330301  1
  Br  Br24  1  0.000000  0.000000  0.669699  1
  Br  Br25  1  0.669699  0.330301  0.000000  1
  Br  Br26  1  0.330301  0.669699  0.000000  1
  Br  Br27  1  0.680374  0.319626  0.319626  1
  Br  Br28  1  0.319626  0.680374  0.680374  1
  Br  Br29  1  0.319626  0.680374  0.319626  1
  Br  Br30  1  0.680374  0.319626  0.680374  1
  Br  Br31  1  0.319302  0.319302  0.680698  1
  Br  Br32  1  0.680698  0.680698  0.319302  1
  Br  Br33  1  0.250000  0.250000  0.250000  1
  Br  Br34  1  0.750000  0.750000  0.750000  1
