# generated using pymatgen
data_HoTm3(Al3Ir)6
_symmetry_space_group_name_H-M   'P 1'
_cell_length_a   7.53426739
_cell_length_b   7.53582242
_cell_length_c   9.45048600
_cell_angle_alpha   90.00000000
_cell_angle_beta   90.00000000
_cell_angle_gamma   119.52972174
_symmetry_Int_Tables_number   1
_chemical_formula_structural   HoTm3(Al3Ir)6
_chemical_formula_sum   'Ho1 Tm3 Al18 Ir6'
_cell_volume   466.86903029
_cell_formula_units_Z   1
loop_
 _symmetry_equiv_pos_site_id
 _symmetry_equiv_pos_as_xyz
  1  'x, y, z'
loop_
 _atom_site_type_symbol
 _atom_site_label
 _atom_site_symmetry_multiplicity
 _atom_site_fract_x
 _atom_site_fract_y
 _atom_site_fract_z
 _atom_site_occupancy
  Ho  Ho0  1  0.994783  0.670687  0.250000  1
  Tm  Tm1  1  0.005248  0.329225  0.750000  1
  Tm  Tm2  1  0.670687  0.994853  0.250000  1
  Tm  Tm3  1  0.329256  0.005299  0.750000  1
  Al  Al4  1  0.128480  0.128840  0.250000  1
  Al  Al5  1  0.871705  0.871777  0.750000  1
  Al  Al6  1  0.000595  0.334266  0.073826  1
  Al  Al7  1  0.999423  0.665259  0.925239  1
  Al  Al8  1  0.999423  0.665259  0.574761  1
  Al  Al9  1  0.335219  0.001046  0.426129  1
  Al  Al10  1  0.000595  0.334266  0.426174  1
  Al  Al11  1  0.665254  0.999398  0.574265  1
  Al  Al12  1  0.665254  0.999398  0.925735  1
  Al  Al13  1  0.335219  0.001046  0.073871  1
  Al  Al14  1  0.333297  0.333313  0.553442  1
  Al  Al15  1  0.666265  0.666700  0.447069  1
  Al  Al16  1  0.666265  0.666700  0.052931  1
  Al  Al17  1  0.333297  0.333313  0.946558  1
  Al  Al18  1  0.339605  0.548021  0.250000  1
  Al  Al19  1  0.660719  0.451781  0.750000  1
  Al  Al20  1  0.547495  0.338658  0.250000  1
  Al  Al21  1  0.451888  0.660837  0.750000  1
  Ir  Ir22  1  0.672091  0.327666  0.999862  1
  Ir  Ir23  1  0.327858  0.672181  0.999883  1
  Ir  Ir24  1  0.327858  0.672181  0.500117  1
  Ir  Ir25  1  0.672091  0.327666  0.500138  1
  Ir  Ir26  1  0.000064  0.000181  0.999850  1
  Ir  Ir27  1  0.000064  0.000181  0.500150  1
