# generated using pymatgen
data_KErAs4F24
_symmetry_space_group_name_H-M   'P 1'
_cell_length_a   9.54937062
_cell_length_b   9.54937004
_cell_length_c   9.54936900
_cell_angle_alpha   131.57935816
_cell_angle_beta   131.57934709
_cell_angle_gamma   70.89421207
_symmetry_Int_Tables_number   1
_chemical_formula_structural   KErAs4F24
_chemical_formula_sum   'K1 Er1 As4 F24'
_cell_volume   477.20905002
_cell_formula_units_Z   1
loop_
 _symmetry_equiv_pos_site_id
 _symmetry_equiv_pos_as_xyz
  1  'x, y, z'
loop_
 _atom_site_type_symbol
 _atom_site_label
 _atom_site_symmetry_multiplicity
 _atom_site_fract_x
 _atom_site_fract_y
 _atom_site_fract_z
 _atom_site_occupancy
  K  K0  1  0.749985  0.249895  0.499950  1
  Er  Er1  1  0.000013  0.000434  0.000502  1
  As  As2  1  0.780708  0.780675  0.999886  1
  As  As3  1  0.219212  0.219201  0.999956  1
  As  As4  1  0.983352  0.483465  0.500085  1
  As  As5  1  0.516627  0.016522  0.500034  1
  F  F6  1  0.856184  0.784555  0.224304  1
  F  F7  1  0.560178  0.631842  0.775631  1
  F  F8  1  0.392608  0.787504  0.301801  1
  F  F9  1  0.368223  0.143846  0.928283  1
  F  F10  1  0.215373  0.439759  0.071523  1
  F  F11  1  0.212599  0.514318  0.605342  1
  F  F12  1  0.642102  0.247767  0.695877  1
  F  F13  1  0.752299  0.447960  0.394390  1
  F  F14  1  0.053829  0.358044  0.605856  1
  F  F15  1  0.060350  0.263500  0.068721  1
  F  F16  1  0.194806  0.991692  0.931468  1
  F  F17  1  0.551896  0.946290  0.304136  1
  F  F18  1  0.736767  0.805197  0.796873  1
  F  F19  1  0.008429  0.939694  0.203061  1
  F  F20  1  0.294630  0.089590  0.342276  1
  F  F21  1  0.910273  0.252789  0.204971  1
  F  F22  1  0.047434  0.705497  0.794839  1
  F  F23  1  0.410135  0.314710  0.301140  1
  F  F24  1  0.013614  0.108655  0.698691  1
  F  F25  1  0.747253  0.952200  0.657600  1
  F  F26  1  0.685213  0.986321  0.095105  1
  F  F27  1  0.891090  0.589771  0.904650  1
  F  F28  1  0.485594  0.090884  0.698115  1
  F  F29  1  0.909224  0.607423  0.394936  1
