# generated using pymatgen
data_Y12GaCo2CuNi2
_symmetry_space_group_name_H-M   'P 1'
_cell_length_a   8.32367489
_cell_length_b   8.32367493
_cell_length_c   8.32367301
_cell_angle_alpha   107.78247643
_cell_angle_beta   109.27166809
_cell_angle_gamma   111.37979070
_symmetry_Int_Tables_number   1
_chemical_formula_structural   Y12GaCo2CuNi2
_chemical_formula_sum   'Y12 Ga1 Co2 Cu1 Ni2'
_cell_volume   443.49583659
_cell_formula_units_Z   1
loop_
 _symmetry_equiv_pos_site_id
 _symmetry_equiv_pos_as_xyz
  1  'x, y, z'
loop_
 _atom_site_type_symbol
 _atom_site_label
 _atom_site_symmetry_multiplicity
 _atom_site_fract_x
 _atom_site_fract_y
 _atom_site_fract_z
 _atom_site_occupancy
  Y  Y0  1  0.693944  0.273331  0.967275  1
  Y  Y1  1  0.306056  0.726669  0.032725  1
  Y  Y2  1  0.693944  0.726669  0.420613  1
  Y  Y3  1  0.306056  0.273331  0.579387  1
  Y  Y4  1  0.804860  0.124853  0.319994  1
  Y  Y5  1  0.804860  0.484866  0.680006  1
  Y  Y6  1  0.195140  0.875147  0.680006  1
  Y  Y7  1  0.195140  0.515134  0.319994  1
  Y  Y8  1  0.606370  0.788062  0.818308  1
  Y  Y9  1  0.969755  0.788062  0.181692  1
  Y  Y10  1  0.030245  0.211938  0.818308  1
  Y  Y11  1  0.393630  0.211938  0.181692  1
  Ga  Ga12  1  0.500000  0.000000  0.500000  1
  Co  Co13  1  0.000000  0.114605  0.114605  1
  Co  Co14  1  0.000000  0.885395  0.885395  1
  Cu  Cu15  1  0.500000  0.500000  0.000000  1
  Ni  Ni16  1  0.862225  0.500000  0.362225  1
  Ni  Ni17  1  0.137775  0.500000  0.637775  1
