# generated using pymatgen
data_Sm2TmMg3Sn2Pt
_symmetry_space_group_name_H-M   'P 1'
_cell_length_a   7.46574904
_cell_length_b   7.46575023
_cell_length_c   4.53343400
_cell_angle_alpha   90.00000000
_cell_angle_beta   90.00000000
_cell_angle_gamma   119.47269825
_symmetry_Int_Tables_number   1
_chemical_formula_structural   Sm2TmMg3Sn2Pt
_chemical_formula_sum   'Sm2 Tm1 Mg3 Sn2 Pt1'
_cell_volume   219.98239955
_cell_formula_units_Z   1
loop_
 _symmetry_equiv_pos_site_id
 _symmetry_equiv_pos_as_xyz
  1  'x, y, z'
loop_
 _atom_site_type_symbol
 _atom_site_label
 _atom_site_symmetry_multiplicity
 _atom_site_fract_x
 _atom_site_fract_y
 _atom_site_fract_z
 _atom_site_occupancy
  Sm  Sm0  1  0.401096  0.000394  0.000000  1
  Sm  Sm1  1  0.000394  0.401096  0.000000  1
  Tm  Tm2  1  0.603651  0.603651  0.000000  1
  Mg  Mg3  1  0.998409  0.768921  0.500000  1
  Mg  Mg4  1  0.230763  0.230763  0.500000  1
  Mg  Mg5  1  0.768921  0.998409  0.500000  1
  Sn  Sn6  1  0.336777  0.665230  0.500000  1
  Sn  Sn7  1  0.665230  0.336777  0.500000  1
  Pt  Pt8  1  0.994759  0.994759  0.000000  1
