# generated using pymatgen
data_Ac2Co9NiP6
_symmetry_space_group_name_H-M   'P 1'
_cell_length_a   6.09573204
_cell_length_b   6.09573221
_cell_length_c   11.55450470
_cell_angle_alpha   90.35526545
_cell_angle_beta   89.64473541
_cell_angle_gamma   145.07142035
_symmetry_Int_Tables_number   1
_chemical_formula_structural   Ac2Co9NiP6
_chemical_formula_sum   'Ac2 Co9 Ni1 P6'
_cell_volume   245.81650720
_cell_formula_units_Z   1
loop_
 _symmetry_equiv_pos_site_id
 _symmetry_equiv_pos_as_xyz
  1  'x, y, z'
loop_
 _atom_site_type_symbol
 _atom_site_label
 _atom_site_symmetry_multiplicity
 _atom_site_fract_x
 _atom_site_fract_y
 _atom_site_fract_z
 _atom_site_occupancy
  Ac  Ac0  1  0.336374  0.663626  0.248226  1
  Ac  Ac1  1  0.663626  0.336374  0.751774  1
  Co  Co2  1  0.053809  0.946191  0.142594  1
  Co  Co3  1  0.052713  0.947287  0.359102  1
  Co  Co4  1  0.697094  0.302906  0.433712  1
  Co  Co5  1  0.302906  0.697094  0.566288  1
  Co  Co6  1  0.302884  0.697116  0.933699  1
  Co  Co7  1  0.697116  0.302884  0.066301  1
  Co  Co8  1  0.500000  0.500000  0.000000  1
  Co  Co9  1  0.947287  0.052713  0.640898  1
  Co  Co10  1  0.946191  0.053809  0.857406  1
  Ni  Ni11  1  0.500000  0.500000  0.500000  1
  P  P12  1  0.607965  0.392035  0.250088  1
  P  P13  1  0.392035  0.607965  0.749912  1
  P  P14  1  0.119616  0.880384  0.534621  1
  P  P15  1  0.880384  0.119616  0.465379  1
  P  P16  1  0.882497  0.117503  0.034525  1
  P  P17  1  0.117503  0.882497  0.965475  1
