# generated using pymatgen
data_Dy12Co2Ni3Bi
_symmetry_space_group_name_H-M   'P 1'
_cell_length_a   8.35825022
_cell_length_b   8.35822252
_cell_length_c   8.35825217
_cell_angle_alpha   111.13802405
_cell_angle_beta   109.34433852
_cell_angle_gamma   107.94727795
_symmetry_Int_Tables_number   1
_chemical_formula_structural   Dy12Co2Ni3Bi
_chemical_formula_sum   'Dy12 Co2 Ni3 Bi1'
_cell_volume   449.14119483
_cell_formula_units_Z   1
loop_
 _symmetry_equiv_pos_site_id
 _symmetry_equiv_pos_as_xyz
  1  'x, y, z'
loop_
 _atom_site_type_symbol
 _atom_site_label
 _atom_site_symmetry_multiplicity
 _atom_site_fract_x
 _atom_site_fract_y
 _atom_site_fract_z
 _atom_site_occupancy
  Dy  Dy0  1  0.819584  0.709898  0.529484  1
  Dy  Dy1  1  0.180416  0.290102  0.470516  1
  Dy  Dy2  1  0.180415  0.709898  0.890314  1
  Dy  Dy3  1  0.819585  0.290102  0.109686  1
  Dy  Dy4  1  0.685116  0.375212  0.690097  1
  Dy  Dy5  1  0.314884  0.624788  0.309903  1
  Dy  Dy6  1  0.685115  0.995020  0.309905  1
  Dy  Dy7  1  0.314885  0.004980  0.690095  1
  Dy  Dy8  1  0.596971  0.790999  0.805973  1
  Dy  Dy9  1  0.403029  0.209001  0.194027  1
  Dy  Dy10  1  0.985026  0.790999  0.194028  1
  Dy  Dy11  1  0.014974  0.209001  0.805972  1
  Co  Co12  1  0.113557  0.613556  0.500000  1
  Co  Co13  1  0.886443  0.386444  0.500000  1
  Ni  Ni14  1  0.632208  0.000000  0.632208  1
  Ni  Ni15  1  0.367792  0.000000  0.367792  1
  Ni  Ni16  1  0.000000  0.000000  0.000000  1
  Bi  Bi17  1  0.500000  0.500000  0.000000  1
