# generated using pymatgen
data_Tm8Si11GePt4
_symmetry_space_group_name_H-M   'P 1'
_cell_length_a   8.17106300
_cell_length_b   8.18046458
_cell_length_c   7.76345338
_cell_angle_alpha   89.96878951
_cell_angle_beta   90.00000000
_cell_angle_gamma   119.96198563
_symmetry_Int_Tables_number   1
_chemical_formula_structural   Tm8Si11GePt4
_chemical_formula_sum   'Tm8 Si11 Ge1 Pt4'
_cell_volume   449.58131722
_cell_formula_units_Z   1
loop_
 _symmetry_equiv_pos_site_id
 _symmetry_equiv_pos_as_xyz
  1  'x, y, z'
loop_
 _atom_site_type_symbol
 _atom_site_label
 _atom_site_symmetry_multiplicity
 _atom_site_fract_x
 _atom_site_fract_y
 _atom_site_fract_z
 _atom_site_occupancy
  Tm  Tm0  1  0.512590  0.025178  0.251277  1
  Tm  Tm1  1  0.487394  0.974789  0.749440  1
  Tm  Tm2  1  0.974423  0.487765  0.250554  1
  Tm  Tm3  1  0.024889  0.514304  0.749337  1
  Tm  Tm4  1  0.513342  0.487765  0.250554  1
  Tm  Tm5  1  0.489413  0.514304  0.749337  1
  Tm  Tm6  1  0.999233  0.998465  0.251259  1
  Tm  Tm7  1  0.998583  0.997166  0.748736  1
  Si  Si8  1  0.834896  0.669794  0.996733  1
  Si  Si9  1  0.670495  0.834107  0.002609  1
  Si  Si10  1  0.834603  0.669208  0.502577  1
  Si  Si11  1  0.333877  0.161766  0.997618  1
  Si  Si12  1  0.165131  0.330261  0.497002  1
  Si  Si13  1  0.163613  0.834107  0.002609  1
  Si  Si14  1  0.330202  0.165428  0.503062  1
  Si  Si15  1  0.827888  0.161766  0.997618  1
  Si  Si16  1  0.669516  0.835072  0.497192  1
  Si  Si17  1  0.835225  0.165428  0.503062  1
  Si  Si18  1  0.165557  0.835072  0.497192  1
  Ge  Ge19  1  0.164170  0.328338  0.001174  1
  Pt  Pt20  1  0.337746  0.675494  0.044353  1
  Pt  Pt21  1  0.667477  0.334953  0.956555  1
  Pt  Pt22  1  0.666662  0.333323  0.542795  1
  Pt  Pt23  1  0.333074  0.666149  0.457358  1
