# generated using pymatgen
data_Dy2Zn2IrPt
_symmetry_space_group_name_H-M   'P 1'
_cell_length_a   4.09385900
_cell_length_b   6.98104740
_cell_length_c   8.18756123
_cell_angle_alpha   89.89205536
_cell_angle_beta   90.00000000
_cell_angle_gamma   90.00000000
_symmetry_Int_Tables_number   1
_chemical_formula_structural   Dy2Zn2IrPt
_chemical_formula_sum   'Dy4 Zn4 Ir2 Pt2'
_cell_volume   233.99536632
_cell_formula_units_Z   2
loop_
 _symmetry_equiv_pos_site_id
 _symmetry_equiv_pos_as_xyz
  1  'x, y, z'
loop_
 _atom_site_type_symbol
 _atom_site_label
 _atom_site_symmetry_multiplicity
 _atom_site_fract_x
 _atom_site_fract_y
 _atom_site_fract_z
 _atom_site_occupancy
  Dy  Dy0  1  0.250000  0.543023  0.188439  1
  Dy  Dy1  1  0.750000  0.456977  0.811561  1
  Dy  Dy2  1  0.250000  0.036542  0.320671  1
  Dy  Dy3  1  0.750000  0.963458  0.679329  1
  Zn  Zn4  1  0.250000  0.139213  0.932624  1
  Zn  Zn5  1  0.750000  0.860787  0.067376  1
  Zn  Zn6  1  0.250000  0.637541  0.562398  1
  Zn  Zn7  1  0.750000  0.362459  0.437602  1
  Ir  Ir8  1  0.750000  0.745787  0.377634  1
  Ir  Ir9  1  0.250000  0.254213  0.622366  1
  Pt  Pt10  1  0.750000  0.245448  0.120135  1
  Pt  Pt11  1  0.250000  0.754552  0.879865  1
