# generated using pymatgen
data_Nd3YAl18(Pd2Rh)2
_symmetry_space_group_name_H-M   'P 1'
_cell_length_a   7.65733001
_cell_length_b   7.66025645
_cell_length_c   9.56762400
_cell_angle_alpha   90.00000000
_cell_angle_beta   90.00000000
_cell_angle_gamma   119.56572345
_symmetry_Int_Tables_number   1
_chemical_formula_structural   Nd3YAl18(Pd2Rh)2
_chemical_formula_sum   'Nd3 Y1 Al18 Pd4 Rh2'
_cell_volume   488.13429100
_cell_formula_units_Z   1
loop_
 _symmetry_equiv_pos_site_id
 _symmetry_equiv_pos_as_xyz
  1  'x, y, z'
loop_
 _atom_site_type_symbol
 _atom_site_label
 _atom_site_symmetry_multiplicity
 _atom_site_fract_x
 _atom_site_fract_y
 _atom_site_fract_z
 _atom_site_occupancy
  Nd  Nd0  1  0.994178  0.666065  0.250000  1
  Nd  Nd1  1  0.006040  0.334012  0.750000  1
  Nd  Nd2  1  0.665902  0.993709  0.250000  1
  Y  Y3  1  0.333087  0.006091  0.750000  1
  Al  Al4  1  0.127851  0.127011  0.250000  1
  Al  Al5  1  0.874199  0.873453  0.750000  1
  Al  Al6  1  0.001750  0.329717  0.073602  1
  Al  Al7  1  0.000228  0.671582  0.923941  1
  Al  Al8  1  0.000228  0.671582  0.576059  1
  Al  Al9  1  0.330000  0.001438  0.428085  1
  Al  Al10  1  0.001750  0.329717  0.426398  1
  Al  Al11  1  0.668179  0.998464  0.576003  1
  Al  Al12  1  0.668179  0.998464  0.923997  1
  Al  Al13  1  0.330000  0.001438  0.071915  1
  Al  Al14  1  0.331279  0.330012  0.554180  1
  Al  Al15  1  0.669092  0.669032  0.449681  1
  Al  Al16  1  0.669092  0.669032  0.050319  1
  Al  Al17  1  0.331279  0.330012  0.945820  1
  Al  Al18  1  0.340705  0.544297  0.250000  1
  Al  Al19  1  0.657634  0.453674  0.750000  1
  Al  Al20  1  0.543905  0.339772  0.250000  1
  Al  Al21  1  0.455390  0.661057  0.750000  1
  Pd  Pd22  1  0.671007  0.327837  0.998923  1
  Pd  Pd23  1  0.328371  0.671903  0.999131  1
  Pd  Pd24  1  0.328371  0.671903  0.500869  1
  Pd  Pd25  1  0.671007  0.327837  0.501077  1
  Rh  Rh26  1  0.000647  0.000446  0.998979  1
  Rh  Rh27  1  0.000647  0.000446  0.501021  1
