# generated using pymatgen
data_HfTh5Zr2(Ni4As3)4
_symmetry_space_group_name_H-M   'P 1'
_cell_length_a   12.84935426
_cell_length_b   12.84935343
_cell_length_c   4.02647700
_cell_angle_alpha   90.00000000
_cell_angle_beta   90.00000000
_cell_angle_gamma   120.02289955
_symmetry_Int_Tables_number   1
_chemical_formula_structural   HfTh5Zr2(Ni4As3)4
_chemical_formula_sum   'Hf1 Th5 Zr2 Ni16 As12'
_cell_volume   575.59653604
_cell_formula_units_Z   1
loop_
 _symmetry_equiv_pos_site_id
 _symmetry_equiv_pos_as_xyz
  1  'x, y, z'
loop_
 _atom_site_type_symbol
 _atom_site_label
 _atom_site_symmetry_multiplicity
 _atom_site_fract_x
 _atom_site_fract_y
 _atom_site_fract_z
 _atom_site_occupancy
  Hf  Hf0  1  0.574084  0.574084  0.000000  1
  Th  Th1  1  0.189322  0.189322  0.500000  1
  Th  Th2  1  0.811131  0.999710  0.500000  1
  Th  Th3  1  0.999710  0.811131  0.500000  1
  Th  Th4  1  0.333536  0.666661  0.000000  1
  Th  Th5  1  0.666661  0.333536  0.000000  1
  Zr  Zr6  1  0.427463  0.000238  0.000000  1
  Zr  Zr7  1  0.000238  0.427463  0.000000  1
  Ni  Ni8  1  0.725363  0.725363  0.500000  1
  Ni  Ni9  1  0.272908  0.000025  0.500000  1
  Ni  Ni10  1  0.000025  0.272908  0.500000  1
  Ni  Ni11  1  0.186890  0.375695  0.000000  1
  Ni  Ni12  1  0.623590  0.809946  0.000000  1
  Ni  Ni13  1  0.189067  0.813321  0.000000  1
  Ni  Ni14  1  0.809946  0.623590  0.000000  1
  Ni  Ni15  1  0.813321  0.189067  0.000000  1
  Ni  Ni16  1  0.375695  0.186890  0.000000  1
  Ni  Ni17  1  0.368980  0.487502  0.500000  1
  Ni  Ni18  1  0.512983  0.880439  0.500000  1
  Ni  Ni19  1  0.119322  0.632002  0.500000  1
  Ni  Ni20  1  0.880439  0.512983  0.500000  1
  Ni  Ni21  1  0.632002  0.119322  0.500000  1
  Ni  Ni22  1  0.487502  0.368980  0.500000  1
  Ni  Ni23  1  0.999678  0.999678  0.000000  1
  As  As24  1  0.818919  0.818919  0.000000  1
  As  As25  1  0.180530  0.000055  0.000000  1
  As  As26  1  0.000055  0.180530  0.000000  1
  As  As27  1  0.172077  0.473914  0.500000  1
  As  As28  1  0.525798  0.697025  0.500000  1
  As  As29  1  0.302212  0.828206  0.500000  1
  As  As30  1  0.697025  0.525798  0.500000  1
  As  As31  1  0.828206  0.302212  0.500000  1
  As  As32  1  0.473914  0.172077  0.500000  1
  As  As33  1  0.369226  0.369226  0.000000  1
  As  As34  1  0.632276  0.999905  0.000000  1
  As  As35  1  0.999905  0.632276  0.000000  1
