# generated using pymatgen
data_La2B6Ir8Rh
_symmetry_space_group_name_H-M   'P 1'
_cell_length_a   5.72037500
_cell_length_b   5.72579736
_cell_length_c   8.62782803
_cell_angle_alpha   90.00256191
_cell_angle_beta   89.99486130
_cell_angle_gamma   119.96868401
_symmetry_Int_Tables_number   1
_chemical_formula_structural   La2B6Ir8Rh
_chemical_formula_sum   'La2 B6 Ir8 Rh1'
_cell_volume   244.81021998
_cell_formula_units_Z   1
loop_
 _symmetry_equiv_pos_site_id
 _symmetry_equiv_pos_as_xyz
  1  'x, y, z'
loop_
 _atom_site_type_symbol
 _atom_site_label
 _atom_site_symmetry_multiplicity
 _atom_site_fract_x
 _atom_site_fract_y
 _atom_site_fract_z
 _atom_site_occupancy
  La  La0  1  0.999997  0.000000  0.294518  1
  La  La1  1  0.999979  0.000000  0.706632  1
  B  B2  1  0.333260  0.666544  0.000310  1
  B  B3  1  0.666715  0.333456  0.000310  1
  B  B4  1  0.333227  0.666468  0.332937  1
  B  B5  1  0.666759  0.333532  0.332937  1
  B  B6  1  0.666866  0.333746  0.666713  1
  B  B7  1  0.333120  0.666254  0.666713  1
  Ir  Ir8  1  0.500003  0.000000  0.162192  1
  Ir  Ir9  1  0.499997  0.500004  0.162575  1
  Ir  Ir10  1  0.999994  0.499996  0.162575  1
  Ir  Ir11  1  0.499990  0.499996  0.836906  1
  Ir  Ir12  1  0.999994  0.500004  0.836906  1
  Ir  Ir13  1  0.500004  0.000000  0.500595  1
  Ir  Ir14  1  0.500013  0.500010  0.500271  1
  Ir  Ir15  1  0.000003  0.499990  0.500271  1
  Rh  Rh16  1  0.499980  0.000000  0.836640  1
