# generated using pymatgen
data_Pd3NF20
_symmetry_space_group_name_H-M   'P 1'
_cell_length_a   5.79001594
_cell_length_b   7.99057950
_cell_length_c   8.21266178
_cell_angle_alpha   94.66794394
_cell_angle_beta   89.91071311
_cell_angle_gamma   90.14725188
_symmetry_Int_Tables_number   1
_chemical_formula_structural   Pd3NF20
_chemical_formula_sum   'Pd3 N1 F20'
_cell_volume   378.70167410
_cell_formula_units_Z   1
loop_
 _symmetry_equiv_pos_site_id
 _symmetry_equiv_pos_as_xyz
  1  'x, y, z'
loop_
 _atom_site_type_symbol
 _atom_site_label
 _atom_site_symmetry_multiplicity
 _atom_site_fract_x
 _atom_site_fract_y
 _atom_site_fract_z
 _atom_site_occupancy
  Pd  Pd0  1  0.249568  0.102249  0.257515  1
  Pd  Pd1  1  0.750516  0.923173  0.718088  1
  Pd  Pd2  1  0.750711  0.407235  0.266791  1
  N  N3  1  0.249020  0.497940  0.783873  1
  F  F4  1  0.750195  0.511836  0.485193  1
  F  F5  1  0.250762  0.213508  0.062166  1
  F  F6  1  0.249355  0.649974  0.864047  1
  F  F7  1  0.248523  0.012984  0.464420  1
  F  F8  1  0.006378  0.264468  0.355797  1
  F  F9  1  0.249575  0.508932  0.622385  1
  F  F10  1  0.752259  0.044133  0.528448  1
  F  F11  1  0.059533  0.413754  0.825170  1
  F  F12  1  0.518201  0.550421  0.196942  1
  F  F13  1  0.983895  0.550914  0.196955  1
  F  F14  1  0.437622  0.413734  0.825288  1
  F  F15  1  0.750851  0.282207  0.059695  1
  F  F16  1  0.494580  0.263599  0.355821  1
  F  F17  1  0.478750  0.949636  0.178617  1
  F  F18  1  0.748539  0.795102  0.904773  1
  F  F19  1  0.519529  0.069951  0.811636  1
  F  F20  1  0.983685  0.068571  0.811741  1
  F  F21  1  0.981959  0.777096  0.623076  1
  F  F22  1  0.517248  0.778314  0.622799  1
  F  F23  1  0.018744  0.950270  0.178766  1
