# generated using pymatgen
data_HoEr(Ga3Co)3
_symmetry_space_group_name_H-M   'P 1'
_cell_length_a   7.37612900
_cell_length_b   7.35322690
_cell_length_c   9.39497100
_cell_angle_alpha   90.00000000
_cell_angle_beta   90.00000000
_cell_angle_gamma   59.89691295
_symmetry_Int_Tables_number   1
_chemical_formula_structural   HoEr(Ga3Co)3
_chemical_formula_sum   'Ho2 Er2 Ga18 Co6'
_cell_volume   440.83947342
_cell_formula_units_Z   2
loop_
 _symmetry_equiv_pos_site_id
 _symmetry_equiv_pos_as_xyz
  1  'x, y, z'
loop_
 _atom_site_type_symbol
 _atom_site_label
 _atom_site_symmetry_multiplicity
 _atom_site_fract_x
 _atom_site_fract_y
 _atom_site_fract_z
 _atom_site_occupancy
  Ho  Ho0  1  0.003128  0.328501  0.250000  1
  Ho  Ho1  1  0.331630  0.671498  0.250000  1
  Er  Er2  1  0.668365  0.328502  0.750000  1
  Er  Er3  1  0.996868  0.671497  0.750000  1
  Ga  Ga4  1  0.333531  0.000000  0.058122  1
  Ga  Ga5  1  0.665888  0.334444  0.072048  1
  Ga  Ga6  1  0.000331  0.665557  0.072048  1
  Ga  Ga7  1  0.879545  0.000000  0.250000  1
  Ga  Ga8  1  0.449003  0.215027  0.250000  1
  Ga  Ga9  1  0.664031  0.784973  0.250000  1
  Ga  Ga10  1  0.665888  0.334444  0.427952  1
  Ga  Ga11  1  0.000331  0.665557  0.427952  1
  Ga  Ga12  1  0.333531  0.000000  0.441879  1
  Ga  Ga13  1  0.666562  0.000000  0.558311  1
  Ga  Ga14  1  0.999508  0.334606  0.572246  1
  Ga  Ga15  1  0.334114  0.665395  0.572246  1
  Ga  Ga16  1  0.120302  0.000000  0.750000  1
  Ga  Ga17  1  0.336013  0.215111  0.750000  1
  Ga  Ga18  1  0.551124  0.784889  0.750000  1
  Ga  Ga19  1  0.999508  0.334606  0.927754  1
  Ga  Ga20  1  0.334114  0.665395  0.927754  1
  Ga  Ga21  1  0.666562  0.000000  0.941690  1
  Co  Co22  1  0.999953  0.000000  0.999920  1
  Co  Co23  1  0.328986  0.342136  0.999938  1
  Co  Co24  1  0.671123  0.657863  0.999938  1
  Co  Co25  1  0.999953  0.000000  0.500080  1
  Co  Co26  1  0.328986  0.342136  0.500062  1
  Co  Co27  1  0.671123  0.657863  0.500062  1
