# generated using pymatgen
data_YbY3(Al8Ni3)3
_symmetry_space_group_name_H-M   'P 1'
_cell_length_a   7.30468421
_cell_length_b   7.31493161
_cell_length_c   12.81768246
_cell_angle_alpha   84.59982951
_cell_angle_beta   100.93988587
_cell_angle_gamma   119.74380493
_symmetry_Int_Tables_number   1
_chemical_formula_structural   YbY3(Al8Ni3)3
_chemical_formula_sum   'Yb1 Y3 Al24 Ni9'
_cell_volume   583.85115891
_cell_formula_units_Z   1
loop_
 _symmetry_equiv_pos_site_id
 _symmetry_equiv_pos_as_xyz
  1  'x, y, z'
loop_
 _atom_site_type_symbol
 _atom_site_label
 _atom_site_symmetry_multiplicity
 _atom_site_fract_x
 _atom_site_fract_y
 _atom_site_fract_z
 _atom_site_occupancy
  Yb  Yb0  1  0.233813  0.497123  0.195801  1
  Y  Y1  1  0.435524  0.830216  0.805144  1
  Y  Y2  1  0.563113  0.168995  0.195391  1
  Y  Y3  1  0.767987  0.502738  0.805252  1
  Al  Al4  1  0.485289  0.166633  0.947477  1
  Al  Al5  1  0.514102  0.833254  0.051606  1
  Al  Al6  1  0.021089  0.167314  0.559816  1
  Al  Al7  1  0.979391  0.832486  0.441380  1
  Al  Al8  1  0.352836  0.833918  0.557537  1
  Al  Al9  1  0.647706  0.165991  0.443164  1
  Al  Al10  1  0.620295  0.834144  0.337317  1
  Al  Al11  1  0.380026  0.165928  0.663282  1
  Al  Al12  1  0.053953  0.493310  0.663005  1
  Al  Al13  1  0.947113  0.507638  0.337444  1
  Al  Al14  1  0.728671  0.840942  0.661476  1
  Al  Al15  1  0.270991  0.159150  0.339397  1
  Al  Al16  1  0.149225  0.501718  0.949267  1
  Al  Al17  1  0.851166  0.497562  0.051466  1
  Al  Al18  1  0.817200  0.830769  0.960705  1
  Al  Al19  1  0.181305  0.168365  0.037756  1
  Al  Al20  1  0.313995  0.499982  0.442953  1
  Al  Al21  1  0.685986  0.499468  0.558024  1
  Al  Al22  1  0.108979  0.837772  0.184313  1
  Al  Al23  1  0.891773  0.164622  0.814475  1
  Al  Al24  1  0.311122  0.374007  0.813620  1
  Al  Al25  1  0.689821  0.625563  0.185919  1
  Al  Al26  1  0.102261  0.955298  0.814531  1
  Al  Al27  1  0.895684  0.045695  0.184489  1
  Ni  Ni28  1  0.387574  0.507576  0.637302  1
  Ni  Ni29  1  0.613929  0.493033  0.363760  1
  Ni  Ni30  1  0.169903  0.829585  0.998477  1
  Ni  Ni31  1  0.828447  0.169567  0.998901  1
  Ni  Ni32  1  0.294131  0.832206  0.363308  1
  Ni  Ni33  1  0.705234  0.166886  0.637080  1
  Ni  Ni34  1  0.046988  0.826790  0.636965  1
  Ni  Ni35  1  0.953625  0.173843  0.363187  1
  Ni  Ni36  1  0.499749  0.499914  0.999014  1
