# generated using pymatgen
data_Na2ReH9
_symmetry_space_group_name_H-M   'P 1'
_cell_length_a   8.72761500
_cell_length_b   8.72761412
_cell_length_c   5.15650900
_cell_angle_alpha   90.00000000
_cell_angle_beta   90.00000000
_cell_angle_gamma   120.00000712
_symmetry_Int_Tables_number   1
_chemical_formula_structural   Na2ReH9
_chemical_formula_sum   'Na6 Re3 H27'
_cell_volume   340.15549954
_cell_formula_units_Z   3
loop_
 _symmetry_equiv_pos_site_id
 _symmetry_equiv_pos_as_xyz
  1  'x, y, z'
loop_
 _atom_site_type_symbol
 _atom_site_label
 _atom_site_symmetry_multiplicity
 _atom_site_fract_x
 _atom_site_fract_y
 _atom_site_fract_z
 _atom_site_occupancy
  Na  Na0  1  0.000000  0.264525  0.500000  1
  Na  Na1  1  0.735475  0.735475  0.500000  1
  Na  Na2  1  0.264525  0.000000  0.500000  1
  Na  Na3  1  0.000000  0.590028  0.000000  1
  Na  Na4  1  0.409972  0.409972  0.000000  1
  Na  Na5  1  0.590028  0.000000  0.000000  1
  Re  Re6  1  0.666667  0.333333  0.500000  1
  Re  Re7  1  0.333333  0.666667  0.500000  1
  Re  Re8  1  0.000000  0.000000  0.000000  1
  H  H9  1  0.788816  0.306366  0.737050  1
  H  H10  1  0.693634  0.482448  0.737050  1
  H  H11  1  0.517552  0.211184  0.737050  1
  H  H12  1  0.211184  0.517552  0.262950  1
  H  H13  1  0.517552  0.211184  0.262950  1
  H  H14  1  0.788816  0.306366  0.262950  1
  H  H15  1  0.693634  0.482448  0.262950  1
  H  H16  1  0.306366  0.788816  0.737050  1
  H  H17  1  0.482448  0.693634  0.737050  1
  H  H18  1  0.192619  0.000000  0.000000  1
  H  H19  1  0.807381  0.807381  0.000000  1
  H  H20  1  0.000000  0.192619  0.000000  1
  H  H21  1  0.861452  0.000000  0.234428  1
  H  H22  1  0.138548  0.138548  0.765572  1
  H  H23  1  0.000000  0.861452  0.765572  1
  H  H24  1  0.000000  0.861452  0.234428  1
  H  H25  1  0.138548  0.138548  0.234428  1
  H  H26  1  0.861452  0.000000  0.765572  1
  H  H27  1  0.125715  0.629427  0.500000  1
  H  H28  1  0.503711  0.874285  0.500000  1
  H  H29  1  0.370573  0.496289  0.500000  1
  H  H30  1  0.496289  0.370573  0.500000  1
  H  H31  1  0.874285  0.503711  0.500000  1
  H  H32  1  0.629427  0.125715  0.500000  1
  H  H33  1  0.211184  0.517552  0.737050  1
  H  H34  1  0.306366  0.788816  0.262950  1
  H  H35  1  0.482448  0.693634  0.262950  1
