# generated using pymatgen
data_Tb16HoEr3(CoBi2)4
_symmetry_space_group_name_H-M   'P 1'
_cell_length_a   8.03390024
_cell_length_b   8.90338635
_cell_length_c   12.46001296
_cell_angle_alpha   89.91268708
_cell_angle_beta   90.07184844
_cell_angle_gamma   89.99818603
_symmetry_Int_Tables_number   1
_chemical_formula_structural   Tb16HoEr3(CoBi2)4
_chemical_formula_sum   'Tb16 Ho1 Er3 Co4 Bi8'
_cell_volume   891.24950635
_cell_formula_units_Z   1
loop_
 _symmetry_equiv_pos_site_id
 _symmetry_equiv_pos_as_xyz
  1  'x, y, z'
loop_
 _atom_site_type_symbol
 _atom_site_label
 _atom_site_symmetry_multiplicity
 _atom_site_fract_x
 _atom_site_fract_y
 _atom_site_fract_z
 _atom_site_occupancy
  Tb  Tb0  1  0.848712  0.750362  0.801613  1
  Tb  Tb1  1  0.151550  0.249769  0.198485  1
  Tb  Tb2  1  0.349034  0.249702  0.698132  1
  Tb  Tb3  1  0.650965  0.750297  0.302068  1
  Tb  Tb4  1  0.381202  0.750446  0.688952  1
  Tb  Tb5  1  0.617643  0.249348  0.311383  1
  Tb  Tb6  1  0.882472  0.249730  0.810268  1
  Tb  Tb7  1  0.119155  0.750655  0.189929  1
  Tb  Tb8  1  0.952814  0.750788  0.502452  1
  Tb  Tb9  1  0.049293  0.249552  0.497555  1
  Tb  Tb10  1  0.450565  0.249308  0.997596  1
  Tb  Tb11  1  0.545866  0.750471  0.002297  1
  Tb  Tb12  1  0.823370  0.035007  0.062714  1
  Tb  Tb13  1  0.677140  0.465086  0.562774  1
  Tb  Tb14  1  0.822903  0.465096  0.062638  1
  Tb  Tb15  1  0.177254  0.535440  0.936854  1
  Ho  Ho16  1  0.324901  0.535454  0.437141  1
  Er  Er17  1  0.673522  0.035362  0.562520  1
  Er  Er18  1  0.326299  0.964267  0.437182  1
  Er  Er19  1  0.174423  0.963863  0.936797  1
  Co  Co20  1  0.559693  0.750955  0.507763  1
  Co  Co21  1  0.438057  0.248796  0.491970  1
  Co  Co22  1  0.063172  0.249099  0.991371  1
  Co  Co23  1  0.940068  0.750795  0.008258  1
  Bi  Bi24  1  0.572089  0.491734  0.825924  1
  Bi  Bi25  1  0.428097  0.508197  0.174507  1
  Bi  Bi26  1  0.071765  0.508410  0.673959  1
  Bi  Bi27  1  0.428154  0.991777  0.174636  1
  Bi  Bi28  1  0.929004  0.491933  0.326188  1
  Bi  Bi29  1  0.570986  0.008090  0.825693  1
  Bi  Bi30  1  0.929249  0.008254  0.326307  1
  Bi  Bi31  1  0.070584  0.991956  0.674073  1
