# generated using pymatgen
data_Yb2Ga12Pt
_symmetry_space_group_name_H-M   'P 1'
_cell_length_a   6.05243700
_cell_length_b   6.05243700
_cell_length_c   16.04442600
_cell_angle_alpha   90.00000000
_cell_angle_beta   90.00000000
_cell_angle_gamma   90.00000000
_symmetry_Int_Tables_number   1
_chemical_formula_structural   Yb2Ga12Pt
_chemical_formula_sum   'Yb4 Ga24 Pt2'
_cell_volume   587.73931117
_cell_formula_units_Z   2
loop_
 _symmetry_equiv_pos_site_id
 _symmetry_equiv_pos_as_xyz
  1  'x, y, z'
loop_
 _atom_site_type_symbol
 _atom_site_label
 _atom_site_symmetry_multiplicity
 _atom_site_fract_x
 _atom_site_fract_y
 _atom_site_fract_z
 _atom_site_occupancy
  Yb  Yb0  1  0.750000  0.250000  0.246464  1
  Yb  Yb1  1  0.250000  0.750000  0.246464  1
  Yb  Yb2  1  0.250000  0.750000  0.753536  1
  Yb  Yb3  1  0.750000  0.250000  0.753536  1
  Ga  Ga4  1  0.250000  0.250000  0.190894  1
  Ga  Ga5  1  0.750000  0.750000  0.190894  1
  Ga  Ga6  1  0.750000  0.750000  0.809106  1
  Ga  Ga7  1  0.250000  0.250000  0.809106  1
  Ga  Ga8  1  0.250000  0.250000  0.344026  1
  Ga  Ga9  1  0.750000  0.750000  0.344026  1
  Ga  Ga10  1  0.750000  0.750000  0.655974  1
  Ga  Ga11  1  0.250000  0.250000  0.655974  1
  Ga  Ga12  1  0.499856  0.999856  0.908817  1
  Ga  Ga13  1  0.999856  0.000144  0.908817  1
  Ga  Ga14  1  0.500144  0.499856  0.908817  1
  Ga  Ga15  1  0.000144  0.500144  0.908817  1
  Ga  Ga16  1  0.500144  0.000144  0.091183  1
  Ga  Ga17  1  0.000144  0.999856  0.091183  1
  Ga  Ga18  1  0.499856  0.500144  0.091183  1
  Ga  Ga19  1  0.999856  0.499856  0.091183  1
  Ga  Ga20  1  0.580450  0.080450  0.431574  1
  Ga  Ga21  1  0.080450  0.919550  0.431574  1
  Ga  Ga22  1  0.419550  0.580450  0.431574  1
  Ga  Ga23  1  0.919550  0.419550  0.431574  1
  Ga  Ga24  1  0.419550  0.919550  0.568426  1
  Ga  Ga25  1  0.919550  0.080450  0.568426  1
  Ga  Ga26  1  0.580450  0.419550  0.568426  1
  Ga  Ga27  1  0.080450  0.580450  0.568426  1
  Pt  Pt28  1  0.750000  0.250000  0.000000  1
  Pt  Pt29  1  0.250000  0.750000  0.000000  1
