# generated using pymatgen
data_Rb6HgTe4
_symmetry_space_group_name_H-M   'P 1'
_cell_length_a   11.51235200
_cell_length_b   11.51235175
_cell_length_c   8.87284900
_cell_angle_alpha   90.00000000
_cell_angle_beta   90.00000000
_cell_angle_gamma   120.00000072
_symmetry_Int_Tables_number   1
_chemical_formula_structural   Rb6HgTe4
_chemical_formula_sum   'Rb12 Hg2 Te8'
_cell_volume   1018.40806486
_cell_formula_units_Z   2
loop_
 _symmetry_equiv_pos_site_id
 _symmetry_equiv_pos_as_xyz
  1  'x, y, z'
loop_
 _atom_site_type_symbol
 _atom_site_label
 _atom_site_symmetry_multiplicity
 _atom_site_fract_x
 _atom_site_fract_y
 _atom_site_fract_z
 _atom_site_occupancy
  Rb  Rb0  1  0.148489  0.851511  0.544345  1
  Rb  Rb1  1  0.296977  0.148489  0.044345  1
  Rb  Rb2  1  0.851511  0.703023  0.044345  1
  Rb  Rb3  1  0.148489  0.296977  0.544345  1
  Rb  Rb4  1  0.703023  0.851511  0.544345  1
  Rb  Rb5  1  0.851511  0.148489  0.044345  1
  Rb  Rb6  1  0.525553  0.474447  0.365209  1
  Rb  Rb7  1  0.051105  0.525553  0.865209  1
  Rb  Rb8  1  0.474447  0.948895  0.865209  1
  Rb  Rb9  1  0.525553  0.051105  0.365209  1
  Rb  Rb10  1  0.948895  0.474447  0.365209  1
  Rb  Rb11  1  0.474447  0.525553  0.865209  1
  Hg  Hg12  1  0.333333  0.666667  0.249099  1
  Hg  Hg13  1  0.666667  0.333333  0.749099  1
  Te  Te14  1  0.333333  0.666667  0.582561  1
  Te  Te15  1  0.666667  0.333333  0.082561  1
  Te  Te16  1  0.192880  0.807120  0.147058  1
  Te  Te17  1  0.385758  0.192880  0.647058  1
  Te  Te18  1  0.807120  0.614242  0.647058  1
  Te  Te19  1  0.192880  0.385758  0.147058  1
  Te  Te20  1  0.614242  0.807120  0.147058  1
  Te  Te21  1  0.807120  0.192880  0.647058  1
