# generated using pymatgen
data_Lu12Si12Ir3W
_symmetry_space_group_name_H-M   'P 1'
_cell_length_a   4.13891300
_cell_length_b   10.58818779
_cell_length_c   12.08732726
_cell_angle_alpha   90.20319158
_cell_angle_beta   90.00000000
_cell_angle_gamma   90.00000000
_symmetry_Int_Tables_number   1
_chemical_formula_structural   Lu12Si12Ir3W
_chemical_formula_sum   'Lu12 Si12 Ir3 W1'
_cell_volume   529.70671998
_cell_formula_units_Z   1
loop_
 _symmetry_equiv_pos_site_id
 _symmetry_equiv_pos_as_xyz
  1  'x, y, z'
loop_
 _atom_site_type_symbol
 _atom_site_label
 _atom_site_symmetry_multiplicity
 _atom_site_fract_x
 _atom_site_fract_y
 _atom_site_fract_z
 _atom_site_occupancy
  Lu  Lu0  1  0.250000  0.877372  0.019581  1
  Lu  Lu1  1  0.250000  0.622641  0.519383  1
  Lu  Lu2  1  0.750000  0.119501  0.982163  1
  Lu  Lu3  1  0.750000  0.377838  0.480329  1
  Lu  Lu4  1  0.250000  0.921266  0.602134  1
  Lu  Lu5  1  0.250000  0.579888  0.104428  1
  Lu  Lu6  1  0.750000  0.077920  0.394605  1
  Lu  Lu7  1  0.750000  0.421202  0.895076  1
  Lu  Lu8  1  0.250000  0.664536  0.799303  1
  Lu  Lu9  1  0.250000  0.841045  0.299168  1
  Lu  Lu10  1  0.750000  0.341224  0.200399  1
  Lu  Lu11  1  0.750000  0.155467  0.701008  1
  Si  Si12  1  0.250000  0.011045  0.822114  1
  Si  Si13  1  0.250000  0.486517  0.322138  1
  Si  Si14  1  0.750000  0.986408  0.178295  1
  Si  Si15  1  0.750000  0.524142  0.678504  1
  Si  Si16  1  0.250000  0.245686  0.845463  1
  Si  Si17  1  0.250000  0.250057  0.340772  1
  Si  Si18  1  0.750000  0.751684  0.158741  1
  Si  Si19  1  0.750000  0.754087  0.657967  1
  Si  Si20  1  0.250000  0.193214  0.541491  1
  Si  Si21  1  0.250000  0.301073  0.044790  1
  Si  Si22  1  0.750000  0.803194  0.454920  1
  Si  Si23  1  0.750000  0.695955  0.956627  1
  Ir  Ir24  1  0.250000  0.109650  0.177722  1
  Ir  Ir25  1  0.750000  0.610296  0.321057  1
  Ir  Ir26  1  0.750000  0.889086  0.823392  1
  W  W27  1  0.250000  0.388007  0.678427  1
