# generated using pymatgen
data_Pr6YHoO12
_symmetry_space_group_name_H-M   'P 1'
_cell_length_a   7.02307414
_cell_length_b   7.02307405
_cell_length_c   7.02307544
_cell_angle_alpha   91.84104927
_cell_angle_beta   91.84104677
_cell_angle_gamma   91.84104252
_symmetry_Int_Tables_number   1
_chemical_formula_structural   Pr6YHoO12
_chemical_formula_sum   'Pr6 Y1 Ho1 O12'
_cell_volume   345.85493125
_cell_formula_units_Z   1
loop_
 _symmetry_equiv_pos_site_id
 _symmetry_equiv_pos_as_xyz
  1  'x, y, z'
loop_
 _atom_site_type_symbol
 _atom_site_label
 _atom_site_symmetry_multiplicity
 _atom_site_fract_x
 _atom_site_fract_y
 _atom_site_fract_z
 _atom_site_occupancy
  Pr  Pr0  1  0.747227  0.936517  0.443631  1
  Pr  Pr1  1  0.443631  0.747227  0.936517  1
  Pr  Pr2  1  0.063483  0.556369  0.252773  1
  Pr  Pr3  1  0.936517  0.443631  0.747227  1
  Pr  Pr4  1  0.556369  0.252773  0.063483  1
  Pr  Pr5  1  0.252773  0.063483  0.556369  1
  Y  Y6  1  0.000000  0.000000  0.000000  1
  Ho  Ho7  1  0.500000  0.500000  0.500000  1
  O  O8  1  0.066682  0.908808  0.308281  1
  O  O9  1  0.691719  0.933318  0.091192  1
  O  O10  1  0.467540  0.808109  0.596616  1
  O  O11  1  0.091192  0.691719  0.933318  1
  O  O12  1  0.808109  0.596616  0.467540  1
  O  O13  1  0.403384  0.532460  0.191891  1
  O  O14  1  0.596616  0.467540  0.808109  1
  O  O15  1  0.191891  0.403384  0.532460  1
  O  O16  1  0.908808  0.308281  0.066682  1
  O  O17  1  0.532460  0.191891  0.403384  1
  O  O18  1  0.308281  0.066682  0.908808  1
  O  O19  1  0.933318  0.091192  0.691719  1
