# generated using pymatgen
data_Tm2Lu10Os3Pt
_symmetry_space_group_name_H-M   'P 1'
_cell_length_a   7.23406995
_cell_length_b   8.87186400
_cell_length_c   6.26555216
_cell_angle_alpha   90.00000000
_cell_angle_beta   90.08628300
_cell_angle_gamma   90.00000000
_symmetry_Int_Tables_number   1
_chemical_formula_structural   Tm2Lu10Os3Pt
_chemical_formula_sum   'Tm2 Lu10 Os3 Pt1'
_cell_volume   402.12070645
_cell_formula_units_Z   1
loop_
 _symmetry_equiv_pos_site_id
 _symmetry_equiv_pos_as_xyz
  1  'x, y, z'
loop_
 _atom_site_type_symbol
 _atom_site_label
 _atom_site_symmetry_multiplicity
 _atom_site_fract_x
 _atom_site_fract_y
 _atom_site_fract_z
 _atom_site_occupancy
  Tm  Tm0  1  0.532770  0.250000  0.878055  1
  Tm  Tm1  1  0.036391  0.250000  0.619437  1
  Lu  Lu2  1  0.671112  0.058065  0.334724  1
  Lu  Lu3  1  0.182146  0.442697  0.172273  1
  Lu  Lu4  1  0.323223  0.561465  0.671190  1
  Lu  Lu5  1  0.823274  0.934453  0.824352  1
  Lu  Lu6  1  0.323223  0.938535  0.671190  1
  Lu  Lu7  1  0.823274  0.565547  0.824352  1
  Lu  Lu8  1  0.671112  0.441935  0.334724  1
  Lu  Lu9  1  0.182146  0.057303  0.172273  1
  Lu  Lu10  1  0.464894  0.750000  0.119348  1
  Lu  Lu11  1  0.962970  0.750000  0.374558  1
  Os  Os12  1  0.384520  0.250000  0.463594  1
  Os  Os13  1  0.115175  0.750000  0.965794  1
  Os  Os14  1  0.614664  0.750000  0.532059  1
  Pt  Pt15  1  0.889106  0.250000  0.042078  1
