# generated using pymatgen
data_Nd2UTcIr2
_symmetry_space_group_name_H-M   'P 1'
_cell_length_a   5.49175228
_cell_length_b   5.49175358
_cell_length_c   5.15164056
_cell_angle_alpha   67.46126455
_cell_angle_beta   67.46126322
_cell_angle_gamma   65.06490593
_symmetry_Int_Tables_number   1
_chemical_formula_structural   Nd2UTcIr2
_chemical_formula_sum   'Nd2 U1 Tc1 Ir2'
_cell_volume   125.48438580
_cell_formula_units_Z   1
loop_
 _symmetry_equiv_pos_site_id
 _symmetry_equiv_pos_as_xyz
  1  'x, y, z'
loop_
 _atom_site_type_symbol
 _atom_site_label
 _atom_site_symmetry_multiplicity
 _atom_site_fract_x
 _atom_site_fract_y
 _atom_site_fract_z
 _atom_site_occupancy
  Nd  Nd0  1  0.751346  0.751346  0.740437  1
  Nd  Nd1  1  0.498654  0.498654  0.509563  1
  U  U2  1  0.125000  0.125000  0.125000  1
  Tc  Tc3  1  0.125000  0.125000  0.625000  1
  Ir  Ir4  1  0.125000  0.625000  0.125000  1
  Ir  Ir5  1  0.625000  0.125000  0.125000  1
