# generated using pymatgen
data_Sr2Sm4(Ir5Rh)3
_symmetry_space_group_name_H-M   'P 1'
_cell_length_a   5.34749500
_cell_length_b   5.34749430
_cell_length_c   17.49041500
_cell_angle_alpha   90.00000000
_cell_angle_beta   90.00000000
_cell_angle_gamma   119.99999813
_symmetry_Int_Tables_number   1
_chemical_formula_structural   Sr2Sm4(Ir5Rh)3
_chemical_formula_sum   'Sr2 Sm4 Ir15 Rh3'
_cell_volume   433.14317118
_cell_formula_units_Z   1
loop_
 _symmetry_equiv_pos_site_id
 _symmetry_equiv_pos_as_xyz
  1  'x, y, z'
loop_
 _atom_site_type_symbol
 _atom_site_label
 _atom_site_symmetry_multiplicity
 _atom_site_fract_x
 _atom_site_fract_y
 _atom_site_fract_z
 _atom_site_occupancy
  Sr  Sr0  1  0.333333  0.666667  0.750000  1
  Sr  Sr1  1  0.666667  0.333333  0.250000  1
  Sm  Sm2  1  0.333333  0.666667  0.541434  1
  Sm  Sm3  1  0.666667  0.333333  0.041205  1
  Sm  Sm4  1  0.666667  0.333333  0.458795  1
  Sm  Sm5  1  0.333333  0.666667  0.958566  1
  Ir  Ir6  1  0.167372  0.334744  0.126076  1
  Ir  Ir7  1  0.832625  0.665252  0.625548  1
  Ir  Ir8  1  0.665256  0.832628  0.126076  1
  Ir  Ir9  1  0.167372  0.832628  0.126076  1
  Ir  Ir10  1  0.832625  0.167375  0.625548  1
  Ir  Ir11  1  0.334748  0.167375  0.625548  1
  Ir  Ir12  1  0.832625  0.665252  0.874452  1
  Ir  Ir13  1  0.832625  0.167375  0.874452  1
  Ir  Ir14  1  0.334748  0.167375  0.874452  1
  Ir  Ir15  1  0.665256  0.832628  0.373924  1
  Ir  Ir16  1  0.167372  0.832628  0.373924  1
  Ir  Ir17  1  0.167372  0.334744  0.373924  1
  Ir  Ir18  1  0.000000  0.000000  0.250000  1
  Ir  Ir19  1  0.000000  0.000000  0.000129  1
  Ir  Ir20  1  0.000000  0.000000  0.499871  1
  Rh  Rh21  1  0.000000  0.000000  0.750000  1
  Rh  Rh22  1  0.333333  0.666667  0.250000  1
  Rh  Rh23  1  0.666667  0.333333  0.750000  1
