# generated using pymatgen
data_NaLu(CO3)2
_symmetry_space_group_name_H-M   'P 1'
_cell_length_a   6.30882213
_cell_length_b   6.30882257
_cell_length_c   6.30882188
_cell_angle_alpha   46.78144521
_cell_angle_beta   46.78144317
_cell_angle_gamma   46.78144747
_symmetry_Int_Tables_number   1
_chemical_formula_structural   NaLu(CO3)2
_chemical_formula_sum   'Na1 Lu1 C2 O6'
_cell_volume   121.83967488
_cell_formula_units_Z   1
loop_
 _symmetry_equiv_pos_site_id
 _symmetry_equiv_pos_as_xyz
  1  'x, y, z'
loop_
 _atom_site_type_symbol
 _atom_site_label
 _atom_site_symmetry_multiplicity
 _atom_site_fract_x
 _atom_site_fract_y
 _atom_site_fract_z
 _atom_site_occupancy
  Na  Na0  1  0.000000  0.000000  0.000000  1
  Lu  Lu1  1  0.500000  0.500000  0.500000  1
  C  C2  1  0.243551  0.243551  0.243551  1
  C  C3  1  0.756449  0.756449  0.756449  1
  O  O4  1  0.727383  0.028705  0.513093  1
  O  O5  1  0.971295  0.486907  0.272617  1
  O  O6  1  0.486907  0.272617  0.971295  1
  O  O7  1  0.513093  0.727383  0.028705  1
  O  O8  1  0.028705  0.513093  0.727383  1
  O  O9  1  0.272617  0.971295  0.486907  1
