# generated using pymatgen
data_RbSb12(PdRu)2
_symmetry_space_group_name_H-M   'P 1'
_cell_length_a   8.21212391
_cell_length_b   8.24668546
_cell_length_c   8.24668500
_cell_angle_alpha   109.67163828
_cell_angle_beta   109.48378935
_cell_angle_gamma   109.42801690
_symmetry_Int_Tables_number   1
_chemical_formula_structural   RbSb12(PdRu)2
_chemical_formula_sum   'Rb1 Sb12 Pd2 Ru2'
_cell_volume   429.01994042
_cell_formula_units_Z   1
loop_
 _symmetry_equiv_pos_site_id
 _symmetry_equiv_pos_as_xyz
  1  'x, y, z'
loop_
 _atom_site_type_symbol
 _atom_site_label
 _atom_site_symmetry_multiplicity
 _atom_site_fract_x
 _atom_site_fract_y
 _atom_site_fract_z
 _atom_site_occupancy
  Rb  Rb0  1  0.000000  0.000000  0.000000  1
  Sb  Sb1  1  0.660613  0.848287  0.498662  1
  Sb  Sb2  1  0.339387  0.151713  0.501338  1
  Sb  Sb3  1  0.848710  0.187785  0.349453  1
  Sb  Sb4  1  0.818827  0.660368  0.158460  1
  Sb  Sb5  1  0.848710  0.499256  0.660924  1
  Sb  Sb6  1  0.181173  0.339632  0.841540  1
  Sb  Sb7  1  0.151290  0.812215  0.650547  1
  Sb  Sb8  1  0.496191  0.650865  0.845327  1
  Sb  Sb9  1  0.503809  0.349135  0.154673  1
  Sb  Sb10  1  0.151290  0.500744  0.339076  1
  Sb  Sb11  1  0.339387  0.838049  0.187675  1
  Sb  Sb12  1  0.660613  0.161951  0.812325  1
  Pd  Pd13  1  0.500000  0.500000  0.500000  1
  Pd  Pd14  1  0.500000  0.000000  0.000000  1
  Ru  Ru15  1  0.000000  0.000000  0.500000  1
  Ru  Ru16  1  0.000000  0.500000  0.000000  1
