# generated using pymatgen
data_Ti3Cr3AsP2
_symmetry_space_group_name_H-M   'P 1'
_cell_length_a   6.49803700
_cell_length_b   6.49803751
_cell_length_c   3.25829900
_cell_angle_alpha   90.00000000
_cell_angle_beta   90.00000000
_cell_angle_gamma   119.99999229
_symmetry_Int_Tables_number   1
_chemical_formula_structural   Ti3Cr3AsP2
_chemical_formula_sum   'Ti3 Cr3 As1 P2'
_cell_volume   119.14779096
_cell_formula_units_Z   1
loop_
 _symmetry_equiv_pos_site_id
 _symmetry_equiv_pos_as_xyz
  1  'x, y, z'
loop_
 _atom_site_type_symbol
 _atom_site_label
 _atom_site_symmetry_multiplicity
 _atom_site_fract_x
 _atom_site_fract_y
 _atom_site_fract_z
 _atom_site_occupancy
  Ti  Ti0  1  0.394157  0.406323  0.500000  1
  Ti  Ti1  1  0.593677  0.987835  0.500000  1
  Ti  Ti2  1  0.012165  0.605843  0.500000  1
  Cr  Cr3  1  0.006763  0.254328  0.000000  1
  Cr  Cr4  1  0.247565  0.993237  0.000000  1
  Cr  Cr5  1  0.745672  0.752435  0.000000  1
  As  As6  1  0.666667  0.333333  0.000000  1
  P  P7  1  0.333333  0.666667  0.000000  1
  P  P8  1  0.000000  0.000000  0.500000  1
