# generated using pymatgen
data_Dy11ErIn2Fe2Os
_symmetry_space_group_name_H-M   'P 1'
_cell_length_a   8.37073936
_cell_length_b   8.37842948
_cell_length_c   8.37073743
_cell_angle_alpha   108.62404528
_cell_angle_beta   108.71649357
_cell_angle_gamma   111.04701989
_symmetry_Int_Tables_number   1
_chemical_formula_structural   Dy11ErIn2Fe2Os
_chemical_formula_sum   'Dy11 Er1 In2 Fe2 Os1'
_cell_volume   451.87651821
_cell_formula_units_Z   1
loop_
 _symmetry_equiv_pos_site_id
 _symmetry_equiv_pos_as_xyz
  1  'x, y, z'
loop_
 _atom_site_type_symbol
 _atom_site_label
 _atom_site_symmetry_multiplicity
 _atom_site_fract_x
 _atom_site_fract_y
 _atom_site_fract_z
 _atom_site_occupancy
  Dy  Dy0  1  0.308528  0.307791  0.615506  1
  Dy  Dy1  1  0.692441  0.692089  0.384989  1
  Dy  Dy2  1  0.307101  0.692089  0.999648  1
  Dy  Dy3  1  0.692285  0.307791  0.999264  1
  Dy  Dy4  1  0.430793  0.192510  0.238765  1
  Dy  Dy5  1  0.570010  0.807529  0.761822  1
  Dy  Dy6  1  0.953745  0.192510  0.761718  1
  Dy  Dy7  1  0.191389  0.953102  0.761714  1
  Dy  Dy8  1  0.045708  0.807529  0.237519  1
  Dy  Dy9  1  0.808062  0.046274  0.238212  1
  Dy  Dy10  1  0.191849  0.430517  0.238668  1
  Er  Er11  1  0.808542  0.571080  0.762539  1
  In  In12  1  0.499836  0.999700  0.499864  1
  In  In13  1  0.999178  0.499689  0.500510  1
  Fe  Fe14  1  0.387377  0.387602  0.000225  1
  Fe  Fe15  1  0.613502  0.612970  0.999469  1
  Os  Os16  1  0.999653  0.999223  0.999570  1
