# generated using pymatgen
data_RuNF10
_symmetry_space_group_name_H-M   'P 1'
_cell_length_a   5.44881805
_cell_length_b   5.44881843
_cell_length_c   6.45298262
_cell_angle_alpha   90.35584124
_cell_angle_beta   89.64416585
_cell_angle_gamma   100.68072608
_symmetry_Int_Tables_number   1
_chemical_formula_structural   RuNF10
_chemical_formula_sum   'Ru1 N1 F10'
_cell_volume   188.26127708
_cell_formula_units_Z   1
loop_
 _symmetry_equiv_pos_site_id
 _symmetry_equiv_pos_as_xyz
  1  'x, y, z'
loop_
 _atom_site_type_symbol
 _atom_site_label
 _atom_site_symmetry_multiplicity
 _atom_site_fract_x
 _atom_site_fract_y
 _atom_site_fract_z
 _atom_site_occupancy
  Ru  Ru0  1  0.317594  0.682407  0.238852  1
  N  N1  1  0.753306  0.246695  0.741511  1
  F  F2  1  0.151547  0.848454  0.039972  1
  F  F3  1  0.046242  0.409415  0.241289  1
  F  F4  1  0.590586  0.953759  0.241289  1
  F  F5  1  0.168613  0.831388  0.463577  1
  F  F6  1  0.486609  0.513392  0.432987  1
  F  F7  1  0.859027  0.140974  0.583841  1
  F  F8  1  0.505371  0.178116  0.730005  1
  F  F9  1  0.821885  0.494630  0.730005  1
  F  F10  1  0.831765  0.168236  0.921332  1
  F  F11  1  0.467460  0.532541  0.015336  1
