# generated using pymatgen
data_Tb8Tm2IrPt5
_symmetry_space_group_name_H-M   'P 1'
_cell_length_a   11.05377700
_cell_length_b   11.05377700
_cell_length_c   6.43103300
_cell_angle_alpha   90.00000000
_cell_angle_beta   90.00000000
_cell_angle_gamma   90.00000000
_symmetry_Int_Tables_number   1
_chemical_formula_structural   Tb8Tm2IrPt5
_chemical_formula_sum   'Tb16 Tm4 Ir2 Pt10'
_cell_volume   785.78210788
_cell_formula_units_Z   2
loop_
 _symmetry_equiv_pos_site_id
 _symmetry_equiv_pos_as_xyz
  1  'x, y, z'
loop_
 _atom_site_type_symbol
 _atom_site_label
 _atom_site_symmetry_multiplicity
 _atom_site_fract_x
 _atom_site_fract_y
 _atom_site_fract_z
 _atom_site_occupancy
  Tb  Tb0  1  0.291024  0.087745  0.377245  1
  Tb  Tb1  1  0.291023  0.912255  0.877245  1
  Tb  Tb2  1  0.708977  0.087745  0.877245  1
  Tb  Tb3  1  0.708976  0.912255  0.377245  1
  Tb  Tb4  1  0.587745  0.791023  0.877245  1
  Tb  Tb5  1  0.587745  0.208976  0.377245  1
  Tb  Tb6  1  0.412255  0.791024  0.377245  1
  Tb  Tb7  1  0.412255  0.208977  0.877245  1
  Tb  Tb8  1  0.206933  0.413193  0.623122  1
  Tb  Tb9  1  0.206932  0.586807  0.123122  1
  Tb  Tb10  1  0.793068  0.413193  0.123122  1
  Tb  Tb11  1  0.793067  0.586807  0.623122  1
  Tb  Tb12  1  0.913193  0.706932  0.123122  1
  Tb  Tb13  1  0.913193  0.293067  0.623122  1
  Tb  Tb14  1  0.086807  0.706933  0.623122  1
  Tb  Tb15  1  0.086807  0.293068  0.123122  1
  Tm  Tm16  1  0.000000  0.000000  0.500070  1
  Tm  Tm17  1  0.000000  0.000000  0.000070  1
  Tm  Tm18  1  0.500000  0.500000  0.000070  1
  Tm  Tm19  1  0.500000  0.500000  0.500070  1
  Ir  Ir20  1  0.000000  0.500000  0.879033  1
  Ir  Ir21  1  0.000000  0.500000  0.379032  1
  Pt  Pt22  1  0.848096  0.150944  0.249973  1
  Pt  Pt23  1  0.848096  0.849055  0.749974  1
  Pt  Pt24  1  0.151904  0.150945  0.749974  1
  Pt  Pt25  1  0.151904  0.849056  0.249973  1
  Pt  Pt26  1  0.650945  0.348096  0.749974  1
  Pt  Pt27  1  0.650944  0.651904  0.249973  1
  Pt  Pt28  1  0.349056  0.348096  0.249973  1
  Pt  Pt29  1  0.349055  0.651904  0.749974  1
  Pt  Pt30  1  0.500000  0.000000  0.119469  1
  Pt  Pt31  1  0.500000  0.000000  0.619468  1
