# generated using pymatgen
data_EuTm(Cu2P)4
_symmetry_space_group_name_H-M   'P 1'
_cell_length_a   7.29043907
_cell_length_b   7.29043920
_cell_length_c   3.81456000
_cell_angle_alpha   90.00000000
_cell_angle_beta   90.00000000
_cell_angle_gamma   89.39851425
_symmetry_Int_Tables_number   1
_chemical_formula_structural   EuTm(Cu2P)4
_chemical_formula_sum   'Eu1 Tm1 Cu8 P4'
_cell_volume   202.73461006
_cell_formula_units_Z   1
loop_
 _symmetry_equiv_pos_site_id
 _symmetry_equiv_pos_as_xyz
  1  'x, y, z'
loop_
 _atom_site_type_symbol
 _atom_site_label
 _atom_site_symmetry_multiplicity
 _atom_site_fract_x
 _atom_site_fract_y
 _atom_site_fract_z
 _atom_site_occupancy
  Eu  Eu0  1  0.500000  0.500000  0.500000  1
  Tm  Tm1  1  0.000000  0.000000  0.000000  1
  Cu  Cu2  1  0.665918  0.917351  0.500000  1
  Cu  Cu3  1  0.161242  0.584900  0.000000  1
  Cu  Cu4  1  0.415100  0.838758  0.000000  1
  Cu  Cu5  1  0.917351  0.665918  0.500000  1
  Cu  Cu6  1  0.838758  0.415100  0.000000  1
  Cu  Cu7  1  0.584900  0.161242  0.000000  1
  Cu  Cu8  1  0.082649  0.334082  0.500000  1
  Cu  Cu9  1  0.334082  0.082649  0.500000  1
  P  P10  1  0.279238  0.279238  0.000000  1
  P  P11  1  0.720762  0.720762  0.000000  1
  P  P12  1  0.788595  0.211405  0.500000  1
  P  P13  1  0.211405  0.788595  0.500000  1
