# generated using pymatgen
data_Nd3Sm5(SiBr6)2
_symmetry_space_group_name_H-M   'P 1'
_cell_length_a   4.17931900
_cell_length_b   13.58962322
_cell_length_c   14.39172435
_cell_angle_alpha   89.93453159
_cell_angle_beta   90.00000000
_cell_angle_gamma   90.00000000
_symmetry_Int_Tables_number   1
_chemical_formula_structural   Nd3Sm5(SiBr6)2
_chemical_formula_sum   'Nd3 Sm5 Si2 Br12'
_cell_volume   817.38278317
_cell_formula_units_Z   1
loop_
 _symmetry_equiv_pos_site_id
 _symmetry_equiv_pos_as_xyz
  1  'x, y, z'
loop_
 _atom_site_type_symbol
 _atom_site_label
 _atom_site_symmetry_multiplicity
 _atom_site_fract_x
 _atom_site_fract_y
 _atom_site_fract_z
 _atom_site_occupancy
  Nd  Nd0  1  0.000000  0.120228  0.579817  1
  Nd  Nd1  1  0.000000  0.879781  0.420164  1
  Nd  Nd2  1  0.000000  0.619365  0.920721  1
  Sm  Sm3  1  0.500000  0.118492  0.340590  1
  Sm  Sm4  1  0.500000  0.881657  0.659246  1
  Sm  Sm5  1  0.500000  0.618011  0.159302  1
  Sm  Sm6  1  0.500000  0.381500  0.840990  1
  Sm  Sm7  1  0.000000  0.380509  0.079324  1
  Si  Si8  1  0.500000  0.000031  0.499933  1
  Si  Si9  1  0.500000  0.498554  0.000939  1
  Br  Br10  1  0.500000  0.244528  0.162592  1
  Br  Br11  1  0.500000  0.758101  0.835960  1
  Br  Br12  1  0.500000  0.741374  0.335614  1
  Br  Br13  1  0.500000  0.258532  0.664426  1
  Br  Br14  1  0.000000  0.254350  0.409416  1
  Br  Br15  1  0.000000  0.745641  0.590533  1
  Br  Br16  1  0.000000  0.754149  0.090363  1
  Br  Br17  1  0.000000  0.246647  0.911445  1
  Br  Br18  1  0.000000  0.003736  0.243468  1
  Br  Br19  1  0.000000  0.996376  0.756482  1
  Br  Br20  1  0.000000  0.501963  0.254950  1
  Br  Br21  1  0.000000  0.496474  0.743725  1
