# generated using pymatgen
data_Lu10Ga3Bi2Rh
_symmetry_space_group_name_H-M   'P 1'
_cell_length_a   8.63455071
_cell_length_b   8.63454970
_cell_length_c   8.58051696
_cell_angle_alpha   125.94626026
_cell_angle_beta   125.94625795
_cell_angle_gamma   80.40367533
_symmetry_Int_Tables_number   1
_chemical_formula_structural   Lu10Ga3Bi2Rh
_chemical_formula_sum   'Lu10 Ga3 Bi2 Rh1'
_cell_volume   403.53535187
_cell_formula_units_Z   1
loop_
 _symmetry_equiv_pos_site_id
 _symmetry_equiv_pos_as_xyz
  1  'x, y, z'
loop_
 _atom_site_type_symbol
 _atom_site_label
 _atom_site_symmetry_multiplicity
 _atom_site_fract_x
 _atom_site_fract_y
 _atom_site_fract_z
 _atom_site_occupancy
  Lu  Lu0  1  0.003236  0.994776  0.998012  1
  Lu  Lu1  1  0.494776  0.503236  0.998012  1
  Lu  Lu2  1  0.797495  0.297495  0.811027  1
  Lu  Lu3  1  0.197271  0.697271  0.166219  1
  Lu  Lu4  1  0.468949  0.968949  0.166219  1
  Lu  Lu5  1  0.295030  0.494590  0.511355  1
  Lu  Lu6  1  0.016766  0.216325  0.511355  1
  Lu  Lu7  1  0.513531  0.013531  0.811027  1
  Lu  Lu8  1  0.716325  0.516766  0.511355  1
  Lu  Lu9  1  0.994590  0.795030  0.511355  1
  Ga  Ga10  1  0.861383  0.361383  0.222764  1
  Ga  Ga11  1  0.639373  0.864347  0.503719  1
  Ga  Ga12  1  0.364347  0.139373  0.503719  1
  Bi  Bi13  1  0.254384  0.254384  0.008768  1
  Bi  Bi14  1  0.754384  0.754384  0.008768  1
  Rh  Rh15  1  0.128162  0.628162  0.756324  1
