# generated using pymatgen
data_Sc12Tc3Ir
_symmetry_space_group_name_H-M   'P 1'
_cell_length_a   5.80242777
_cell_length_b   7.04805384
_cell_length_c   8.45969300
_cell_angle_alpha   90.00000000
_cell_angle_beta   90.00000000
_cell_angle_gamma   90.00151506
_symmetry_Int_Tables_number   1
_chemical_formula_structural   Sc12Tc3Ir
_chemical_formula_sum   'Sc12 Tc3 Ir1'
_cell_volume   345.96610991
_cell_formula_units_Z   1
loop_
 _symmetry_equiv_pos_site_id
 _symmetry_equiv_pos_as_xyz
  1  'x, y, z'
loop_
 _atom_site_type_symbol
 _atom_site_label
 _atom_site_symmetry_multiplicity
 _atom_site_fract_x
 _atom_site_fract_y
 _atom_site_fract_z
 _atom_site_occupancy
  Sc  Sc0  1  0.346665  0.678166  0.061996  1
  Sc  Sc1  1  0.152935  0.176572  0.438561  1
  Sc  Sc2  1  0.652128  0.316631  0.559861  1
  Sc  Sc3  1  0.844151  0.827305  0.939441  1
  Sc  Sc4  1  0.652128  0.316631  0.940139  1
  Sc  Sc5  1  0.844151  0.827305  0.560559  1
  Sc  Sc6  1  0.346665  0.678166  0.438004  1
  Sc  Sc7  1  0.152935  0.176572  0.061439  1
  Sc  Sc8  1  0.879639  0.539098  0.250000  1
  Sc  Sc9  1  0.616694  0.036385  0.250000  1
  Sc  Sc10  1  0.120910  0.463042  0.750000  1
  Sc  Sc11  1  0.379556  0.960635  0.750000  1
  Tc  Tc12  1  0.044237  0.880437  0.250000  1
  Tc  Tc13  1  0.455420  0.383002  0.250000  1
  Tc  Tc14  1  0.959929  0.122598  0.750000  1
  Ir  Ir15  1  0.551857  0.617458  0.750000  1
