# generated using pymatgen
data_Dy4Pa(MnB3)2
_symmetry_space_group_name_H-M   'P 1'
_cell_length_a   5.42872192
_cell_length_b   5.42872144
_cell_length_c   8.03252028
_cell_angle_alpha   70.24970802
_cell_angle_beta   70.24970771
_cell_angle_gamma   59.99997615
_symmetry_Int_Tables_number   1
_chemical_formula_structural   Dy4Pa(MnB3)2
_chemical_formula_sum   'Dy4 Pa1 Mn2 B6'
_cell_volume   188.76011879
_cell_formula_units_Z   1
loop_
 _symmetry_equiv_pos_site_id
 _symmetry_equiv_pos_as_xyz
  1  'x, y, z'
loop_
 _atom_site_type_symbol
 _atom_site_label
 _atom_site_symmetry_multiplicity
 _atom_site_fract_x
 _atom_site_fract_y
 _atom_site_fract_z
 _atom_site_occupancy
  Dy  Dy0  1  0.252879  0.252879  0.241365  1
  Dy  Dy1  1  0.747121  0.747121  0.758635  1
  Dy  Dy2  1  0.414065  0.414065  0.757805  1
  Dy  Dy3  1  0.585935  0.585935  0.242195  1
  Pa  Pa4  1  0.000000  0.000000  0.000000  1
  Mn  Mn5  1  0.107984  0.107984  0.676049  1
  Mn  Mn6  1  0.892016  0.892016  0.323951  1
  B  B7  1  0.166319  0.833681  0.500000  1
  B  B8  1  0.833681  0.500000  0.500000  1
  B  B9  1  0.500000  0.166319  0.500000  1
  B  B10  1  0.166319  0.500000  0.500000  1
  B  B11  1  0.500000  0.833681  0.500000  1
  B  B12  1  0.833681  0.166319  0.500000  1
