# generated using pymatgen
data_Rb3Ga3P4
_symmetry_space_group_name_H-M   'P 1'
_cell_length_a   6.52843900
_cell_length_b   10.57264500
_cell_length_c   15.49931700
_cell_angle_alpha   90.00000000
_cell_angle_beta   90.00000000
_cell_angle_gamma   90.00000000
_symmetry_Int_Tables_number   1
_chemical_formula_structural   Rb3Ga3P4
_chemical_formula_sum   'Rb12 Ga12 P16'
_cell_volume   1069.80731062
_cell_formula_units_Z   4
loop_
 _symmetry_equiv_pos_site_id
 _symmetry_equiv_pos_as_xyz
  1  'x, y, z'
loop_
 _atom_site_type_symbol
 _atom_site_label
 _atom_site_symmetry_multiplicity
 _atom_site_fract_x
 _atom_site_fract_y
 _atom_site_fract_z
 _atom_site_occupancy
  Rb  Rb0  1  0.062438  0.380522  0.408146  1
  Rb  Rb1  1  0.062438  0.119478  0.091854  1
  Rb  Rb2  1  0.562438  0.880522  0.091854  1
  Rb  Rb3  1  0.750000  0.079584  0.500000  1
  Rb  Rb4  1  0.937562  0.880522  0.908146  1
  Rb  Rb5  1  0.562438  0.619478  0.408146  1
  Rb  Rb6  1  0.937562  0.619478  0.591854  1
  Rb  Rb7  1  0.250000  0.579584  0.000000  1
  Rb  Rb8  1  0.750000  0.420416  0.000000  1
  Rb  Rb9  1  0.437562  0.380522  0.591854  1
  Rb  Rb10  1  0.437562  0.119478  0.908146  1
  Rb  Rb11  1  0.250000  0.920416  0.500000  1
  Ga  Ga12  1  0.401410  0.110205  0.282721  1
  Ga  Ga13  1  0.901410  0.610205  0.217279  1
  Ga  Ga14  1  0.098590  0.389795  0.782721  1
  Ga  Ga15  1  0.401410  0.389795  0.217279  1
  Ga  Ga16  1  0.310260  0.750000  0.250000  1
  Ga  Ga17  1  0.810260  0.250000  0.250000  1
  Ga  Ga18  1  0.598590  0.889795  0.717279  1
  Ga  Ga19  1  0.901410  0.889795  0.282721  1
  Ga  Ga20  1  0.189740  0.750000  0.750000  1
  Ga  Ga21  1  0.689740  0.250000  0.750000  1
  Ga  Ga22  1  0.598590  0.610205  0.782721  1
  Ga  Ga23  1  0.098590  0.110205  0.717279  1
  P  P24  1  0.040312  0.093926  0.316864  1
  P  P25  1  0.041239  0.802105  0.145696  1
  P  P26  1  0.458761  0.802105  0.854304  1
  P  P27  1  0.459688  0.406074  0.816864  1
  P  P28  1  0.540312  0.593926  0.183136  1
  P  P29  1  0.540312  0.906074  0.316864  1
  P  P30  1  0.041239  0.697895  0.354304  1
  P  P31  1  0.040312  0.406074  0.183136  1
  P  P32  1  0.958761  0.197895  0.854304  1
  P  P33  1  0.541239  0.197895  0.145696  1
  P  P34  1  0.959688  0.906074  0.683136  1
  P  P35  1  0.459688  0.093926  0.683136  1
  P  P36  1  0.958761  0.302105  0.645696  1
  P  P37  1  0.541239  0.302105  0.354304  1
  P  P38  1  0.458761  0.697895  0.645696  1
  P  P39  1  0.959688  0.593926  0.816864  1
