# generated using pymatgen
data_Tb6Zn22SiAg
_symmetry_space_group_name_H-M   'P 1'
_cell_length_a   9.10324438
_cell_length_b   9.10324374
_cell_length_c   9.10324400
_cell_angle_alpha   59.99999907
_cell_angle_beta   60.00000138
_cell_angle_gamma   59.99999441
_symmetry_Int_Tables_number   1
_chemical_formula_structural   Tb6Zn22SiAg
_chemical_formula_sum   'Tb6 Zn22 Si1 Ag1'
_cell_volume   533.42521618
_cell_formula_units_Z   1
loop_
 _symmetry_equiv_pos_site_id
 _symmetry_equiv_pos_as_xyz
  1  'x, y, z'
loop_
 _atom_site_type_symbol
 _atom_site_label
 _atom_site_symmetry_multiplicity
 _atom_site_fract_x
 _atom_site_fract_y
 _atom_site_fract_z
 _atom_site_occupancy
  Tb  Tb0  1  0.717677  0.282323  0.282323  1
  Tb  Tb1  1  0.282323  0.717677  0.717677  1
  Tb  Tb2  1  0.282323  0.717677  0.282323  1
  Tb  Tb3  1  0.717677  0.282323  0.717677  1
  Tb  Tb4  1  0.282323  0.282323  0.717677  1
  Tb  Tb5  1  0.717677  0.717677  0.282323  1
  Zn  Zn6  1  0.126599  0.126599  0.126599  1
  Zn  Zn7  1  0.873401  0.873401  0.873401  1
  Zn  Zn8  1  0.126599  0.126599  0.620202  1
  Zn  Zn9  1  0.126599  0.620202  0.126599  1
  Zn  Zn10  1  0.873401  0.873401  0.379798  1
  Zn  Zn11  1  0.873401  0.379798  0.873401  1
  Zn  Zn12  1  0.620202  0.126599  0.126599  1
  Zn  Zn13  1  0.379798  0.873401  0.873401  1
  Zn  Zn14  1  0.500000  0.000000  0.000000  1
  Zn  Zn15  1  0.000000  0.500000  0.500000  1
  Zn  Zn16  1  0.000000  0.500000  0.000000  1
  Zn  Zn17  1  0.500000  0.000000  0.500000  1
  Zn  Zn18  1  0.000000  0.000000  0.500000  1
  Zn  Zn19  1  0.500000  0.500000  0.000000  1
  Zn  Zn20  1  0.333157  0.333157  0.333157  1
  Zn  Zn21  1  0.666843  0.666843  0.666843  1
  Zn  Zn22  1  0.333157  0.333157  0.000530  1
  Zn  Zn23  1  0.333157  0.000530  0.333157  1
  Zn  Zn24  1  0.666843  0.666843  0.999470  1
  Zn  Zn25  1  0.666843  0.999470  0.666843  1
  Zn  Zn26  1  0.000530  0.333157  0.333157  1
  Zn  Zn27  1  0.999470  0.666843  0.666843  1
  Si  Si28  1  0.500000  0.500000  0.500000  1
  Ag  Ag29  1  0.000000  0.000000  0.000000  1
