# generated using pymatgen
data_CeSb3Ru
_symmetry_space_group_name_H-M   'P 1'
_cell_length_a   6.10671000
_cell_length_b   6.25008100
_cell_length_c   12.66975700
_cell_angle_alpha   90.00000000
_cell_angle_beta   90.00000000
_cell_angle_gamma   90.00000000
_symmetry_Int_Tables_number   1
_chemical_formula_structural   CeSb3Ru
_chemical_formula_sum   'Ce4 Sb12 Ru4'
_cell_volume   483.57209057
_cell_formula_units_Z   4
loop_
 _symmetry_equiv_pos_site_id
 _symmetry_equiv_pos_as_xyz
  1  'x, y, z'
loop_
 _atom_site_type_symbol
 _atom_site_label
 _atom_site_symmetry_multiplicity
 _atom_site_fract_x
 _atom_site_fract_y
 _atom_site_fract_z
 _atom_site_occupancy
  Ce  Ce0  1  0.250000  0.500103  0.303846  1
  Ce  Ce1  1  0.750000  0.499897  0.696154  1
  Ce  Ce2  1  0.250000  0.000103  0.696154  1
  Ce  Ce3  1  0.750000  0.999897  0.303846  1
  Sb  Sb4  1  0.000000  0.750000  0.502455  1
  Sb  Sb5  1  0.000000  0.250000  0.497545  1
  Sb  Sb6  1  0.500000  0.250000  0.497545  1
  Sb  Sb7  1  0.500000  0.750000  0.502455  1
  Sb  Sb8  1  0.250000  0.600343  0.058942  1
  Sb  Sb9  1  0.750000  0.399657  0.941058  1
  Sb  Sb10  1  0.250000  0.100343  0.941058  1
  Sb  Sb11  1  0.750000  0.899657  0.058942  1
  Sb  Sb12  1  0.250000  0.990971  0.226150  1
  Sb  Sb13  1  0.750000  0.009029  0.773850  1
  Sb  Sb14  1  0.250000  0.490971  0.773850  1
  Sb  Sb15  1  0.750000  0.509029  0.226150  1
  Ru  Ru16  1  0.000000  0.750000  0.898932  1
  Ru  Ru17  1  0.000000  0.250000  0.101068  1
  Ru  Ru18  1  0.500000  0.250000  0.101068  1
  Ru  Ru19  1  0.500000  0.750000  0.898932  1
