# generated using pymatgen
data_Y4Ho3Tm3Ir4
_symmetry_space_group_name_H-M   'P 1'
_cell_length_a   6.43819314
_cell_length_b   7.20482912
_cell_length_c   8.49230770
_cell_angle_alpha   96.75778508
_cell_angle_beta   112.32003338
_cell_angle_gamma   90.02615729
_symmetry_Int_Tables_number   1
_chemical_formula_structural   Y4Ho3Tm3Ir4
_chemical_formula_sum   'Y4 Ho3 Tm3 Ir4'
_cell_volume   361.44182847
_cell_formula_units_Z   1
loop_
 _symmetry_equiv_pos_site_id
 _symmetry_equiv_pos_as_xyz
  1  'x, y, z'
loop_
 _atom_site_type_symbol
 _atom_site_label
 _atom_site_symmetry_multiplicity
 _atom_site_fract_x
 _atom_site_fract_y
 _atom_site_fract_z
 _atom_site_occupancy
  Y  Y0  1  0.971204  0.920143  0.185676  1
  Y  Y1  1  0.785972  0.579893  0.814079  1
  Y  Y2  1  0.028419  0.080147  0.814187  1
  Y  Y3  1  0.214444  0.419683  0.185845  1
  Ho  Ho4  1  0.650482  0.816704  0.440295  1
  Ho  Ho5  1  0.209685  0.682780  0.559305  1
  Ho  Ho6  1  0.349541  0.183504  0.559565  1
  Tm  Tm7  1  0.789757  0.317068  0.440008  1
  Tm  Tm8  1  0.428273  0.750219  0.000112  1
  Tm  Tm9  1  0.572099  0.249968  0.000419  1
  Ir  Ir10  1  0.819494  0.572725  0.220430  1
  Ir  Ir11  1  0.599198  0.926694  0.780311  1
  Ir  Ir12  1  0.179663  0.426529  0.779356  1
  Ir  Ir13  1  0.401770  0.073944  0.220411  1
