# generated using pymatgen
data_CaAc3Au4
_symmetry_space_group_name_H-M   'P 1'
_cell_length_a   4.96090300
_cell_length_b   6.08070910
_cell_length_c   7.89722269
_cell_angle_alpha   90.96804174
_cell_angle_beta   90.00000000
_cell_angle_gamma   90.00000000
_symmetry_Int_Tables_number   1
_chemical_formula_structural   CaAc3Au4
_chemical_formula_sum   'Ca1 Ac3 Au4'
_cell_volume   238.19210249
_cell_formula_units_Z   1
loop_
 _symmetry_equiv_pos_site_id
 _symmetry_equiv_pos_as_xyz
  1  'x, y, z'
loop_
 _atom_site_type_symbol
 _atom_site_label
 _atom_site_symmetry_multiplicity
 _atom_site_fract_x
 _atom_site_fract_y
 _atom_site_fract_z
 _atom_site_occupancy
  Ca  Ca0  1  0.250000  0.354475  0.684389  1
  Ac  Ac1  1  0.250000  0.145897  0.187628  1
  Ac  Ac2  1  0.750000  0.642759  0.317321  1
  Ac  Ac3  1  0.750000  0.853289  0.810127  1
  Au  Au4  1  0.250000  0.849607  0.543493  1
  Au  Au5  1  0.250000  0.649214  0.036989  1
  Au  Au6  1  0.750000  0.153437  0.465832  1
  Au  Au7  1  0.750000  0.351321  0.954223  1
