# generated using pymatgen
data_LiNd3In3PdPt
_symmetry_space_group_name_H-M   'P 1'
_cell_length_a   7.81709600
_cell_length_b   7.81709488
_cell_length_c   4.03442900
_cell_angle_alpha   90.00000000
_cell_angle_beta   90.00000000
_cell_angle_gamma   119.99999629
_symmetry_Int_Tables_number   1
_chemical_formula_structural   LiNd3In3PdPt
_chemical_formula_sum   'Li1 Nd3 In3 Pd1 Pt1'
_cell_volume   213.50278937
_cell_formula_units_Z   1
loop_
 _symmetry_equiv_pos_site_id
 _symmetry_equiv_pos_as_xyz
  1  'x, y, z'
loop_
 _atom_site_type_symbol
 _atom_site_label
 _atom_site_symmetry_multiplicity
 _atom_site_fract_x
 _atom_site_fract_y
 _atom_site_fract_z
 _atom_site_occupancy
  Li  Li0  1  0.000000  0.000000  0.500000  1
  Nd  Nd1  1  0.004984  0.583849  0.500000  1
  Nd  Nd2  1  0.578865  0.995016  0.500000  1
  Nd  Nd3  1  0.416151  0.421135  0.500000  1
  In  In4  1  0.999450  0.246721  0.000000  1
  In  In5  1  0.247271  0.000550  0.000000  1
  In  In6  1  0.753279  0.752729  0.000000  1
  Pd  Pd7  1  0.666667  0.333333  0.000000  1
  Pt  Pt8  1  0.333333  0.666667  0.000000  1
