# generated using pymatgen
data_Tm2Lu(Al3Ni2)3
_symmetry_space_group_name_H-M   'P 1'
_cell_length_a   8.96878600
_cell_length_b   8.96878555
_cell_length_c   4.02580700
_cell_angle_alpha   90.00000000
_cell_angle_beta   90.00000000
_cell_angle_gamma   120.00000165
_symmetry_Int_Tables_number   1
_chemical_formula_structural   Tm2Lu(Al3Ni2)3
_chemical_formula_sum   'Tm2 Lu1 Al9 Ni6'
_cell_volume   280.44705044
_cell_formula_units_Z   1
loop_
 _symmetry_equiv_pos_site_id
 _symmetry_equiv_pos_as_xyz
  1  'x, y, z'
loop_
 _atom_site_type_symbol
 _atom_site_label
 _atom_site_symmetry_multiplicity
 _atom_site_fract_x
 _atom_site_fract_y
 _atom_site_fract_z
 _atom_site_occupancy
  Tm  Tm0  1  0.666667  0.333333  0.500000  1
  Tm  Tm1  1  0.333333  0.666667  0.500000  1
  Lu  Lu2  1  0.000000  0.000000  0.000000  1
  Al  Al3  1  0.500000  0.500000  0.000000  1
  Al  Al4  1  0.500000  0.000000  0.000000  1
  Al  Al5  1  0.000000  0.500000  0.000000  1
  Al  Al6  1  0.702593  0.702593  0.500000  1
  Al  Al7  1  0.297407  0.000000  0.500000  1
  Al  Al8  1  0.000000  0.297407  0.500000  1
  Al  Al9  1  0.297407  0.297407  0.500000  1
  Al  Al10  1  0.702593  0.000000  0.500000  1
  Al  Al11  1  0.000000  0.702593  0.500000  1
  Ni  Ni12  1  0.818552  0.181448  0.000000  1
  Ni  Ni13  1  0.818552  0.637105  0.000000  1
  Ni  Ni14  1  0.362895  0.181448  0.000000  1
  Ni  Ni15  1  0.181448  0.818552  0.000000  1
  Ni  Ni16  1  0.637105  0.818552  0.000000  1
  Ni  Ni17  1  0.181448  0.362895  0.000000  1
