# generated using pymatgen
data_Dy7Ho13Ir11Os
_symmetry_space_group_name_H-M   'P 1'
_cell_length_a   10.84332501
_cell_length_b   10.84278902
_cell_length_c   6.38318001
_cell_angle_alpha   90.00508199
_cell_angle_beta   89.99719939
_cell_angle_gamma   90.00438586
_symmetry_Int_Tables_number   1
_chemical_formula_structural   Dy7Ho13Ir11Os
_chemical_formula_sum   'Dy7 Ho13 Ir11 Os1'
_cell_volume   750.48250208
_cell_formula_units_Z   1
loop_
 _symmetry_equiv_pos_site_id
 _symmetry_equiv_pos_as_xyz
  1  'x, y, z'
loop_
 _atom_site_type_symbol
 _atom_site_label
 _atom_site_symmetry_multiplicity
 _atom_site_fract_x
 _atom_site_fract_y
 _atom_site_fract_z
 _atom_site_occupancy
  Dy  Dy0  1  0.292061  0.087424  0.375897  1
  Dy  Dy1  1  0.292521  0.912868  0.879535  1
  Dy  Dy2  1  0.707395  0.087345  0.879519  1
  Dy  Dy3  1  0.707964  0.912720  0.375897  1
  Dy  Dy4  1  0.587256  0.792519  0.879522  1
  Dy  Dy5  1  0.587231  0.208039  0.375893  1
  Dy  Dy6  1  0.412670  0.792008  0.375864  1
  Ho  Ho7  1  0.412813  0.207190  0.879792  1
  Ho  Ho8  1  0.208848  0.412008  0.622002  1
  Ho  Ho9  1  0.208687  0.587651  0.121551  1
  Ho  Ho10  1  0.791309  0.412355  0.121480  1
  Ho  Ho11  1  0.791275  0.587894  0.621866  1
  Ho  Ho12  1  0.912371  0.708672  0.121539  1
  Ho  Ho13  1  0.912099  0.291226  0.621871  1
  Ho  Ho14  1  0.087904  0.708771  0.621893  1
  Ho  Ho15  1  0.087643  0.291302  0.121475  1
  Ho  Ho16  1  0.000004  0.000002  0.499740  1
  Ho  Ho17  1  0.999983  0.000029  0.999584  1
  Ho  Ho18  1  0.499937  0.499834  0.999555  1
  Ho  Ho19  1  0.500002  0.499992  0.499694  1
  Ir  Ir20  1  0.848209  0.154170  0.250426  1
  Ir  Ir21  1  0.848171  0.846195  0.750037  1
  Ir  Ir22  1  0.152128  0.153843  0.750184  1
  Ir  Ir23  1  0.151791  0.845847  0.250398  1
  Ir  Ir24  1  0.653567  0.348072  0.750143  1
  Ir  Ir25  1  0.654184  0.651780  0.250374  1
  Ir  Ir26  1  0.345909  0.348048  0.249856  1
  Ir  Ir27  1  0.346222  0.651797  0.749988  1
  Ir  Ir28  1  0.499898  0.000206  0.622874  1
  Ir  Ir29  1  0.000024  0.499984  0.878399  1
  Ir  Ir30  1  0.000009  0.499970  0.378787  1
  Os  Os31  1  0.499916  0.000237  0.124361  1
