# generated using pymatgen
data_Tb3Lu3(Si3Os)8
_symmetry_space_group_name_H-M   'P 1'
_cell_length_a   10.12648954
_cell_length_b   10.12649009
_cell_length_c   8.14853295
_cell_angle_alpha   90.02643450
_cell_angle_beta   90.02644069
_cell_angle_gamma   132.56516913
_symmetry_Int_Tables_number   1
_chemical_formula_structural   Tb3Lu3(Si3Os)8
_chemical_formula_sum   'Tb3 Lu3 Si24 Os8'
_cell_volume   615.42441976
_cell_formula_units_Z   1
loop_
 _symmetry_equiv_pos_site_id
 _symmetry_equiv_pos_as_xyz
  1  'x, y, z'
loop_
 _atom_site_type_symbol
 _atom_site_label
 _atom_site_symmetry_multiplicity
 _atom_site_fract_x
 _atom_site_fract_y
 _atom_site_fract_z
 _atom_site_occupancy
  Tb  Tb0  1  0.999991  0.000009  0.000000  1
  Tb  Tb1  1  0.498902  0.999033  0.250772  1
  Tb  Tb2  1  0.000967  0.501098  0.749228  1
  Lu  Lu3  1  0.500015  0.499985  0.500000  1
  Lu  Lu4  1  0.501353  0.001252  0.749271  1
  Lu  Lu5  1  0.998748  0.498647  0.250729  1
  Si  Si6  1  0.794860  0.205140  0.500000  1
  Si  Si7  1  0.296118  0.703882  0.000000  1
  Si  Si8  1  0.205029  0.794971  0.500000  1
  Si  Si9  1  0.704016  0.295984  0.000000  1
  Si  Si10  1  0.331701  0.332872  0.832683  1
  Si  Si11  1  0.667128  0.668299  0.167317  1
  Si  Si12  1  0.168407  0.166417  0.333118  1
  Si  Si13  1  0.833583  0.831593  0.666882  1
  Si  Si14  1  0.122105  0.886485  0.727819  1
  Si  Si15  1  0.113515  0.877895  0.272181  1
  Si  Si16  1  0.613231  0.379777  0.228491  1
  Si  Si17  1  0.620223  0.386769  0.771509  1
  Si  Si18  1  0.882392  0.117544  0.272872  1
  Si  Si19  1  0.882456  0.117608  0.727128  1
  Si  Si20  1  0.391217  0.625474  0.770569  1
  Si  Si21  1  0.374526  0.608783  0.229431  1
  Si  Si22  1  0.345464  0.111222  0.506134  1
  Si  Si23  1  0.888778  0.654536  0.493866  1
  Si  Si24  1  0.388370  0.154672  0.001954  1
  Si  Si25  1  0.845328  0.611630  0.998046  1
  Si  Si26  1  0.655468  0.889195  0.498214  1
  Si  Si27  1  0.110805  0.344532  0.501786  1
  Si  Si28  1  0.612178  0.846546  0.992847  1
  Si  Si29  1  0.153454  0.387822  0.007153  1
  Os  Os30  1  0.668624  0.331376  0.500000  1
  Os  Os31  1  0.170535  0.829465  0.000000  1
  Os  Os32  1  0.331242  0.668758  0.500000  1
  Os  Os33  1  0.829588  0.170412  0.000000  1
  Os  Os34  1  0.127773  0.128078  0.626224  1
  Os  Os35  1  0.871922  0.872227  0.373776  1
  Os  Os36  1  0.373622  0.373633  0.129375  1
  Os  Os37  1  0.626367  0.626378  0.870625  1
