# generated using pymatgen
data_CeZnSiIrRh
_symmetry_space_group_name_H-M   'P 1'
_cell_length_a   4.06925700
_cell_length_b   4.06925700
_cell_length_c   10.72187500
_cell_angle_alpha   90.00000000
_cell_angle_beta   90.00000000
_cell_angle_gamma   90.00000000
_symmetry_Int_Tables_number   1
_chemical_formula_structural   CeZnSiIrRh
_chemical_formula_sum   'Ce2 Zn2 Si2 Ir2 Rh2'
_cell_volume   177.54194699
_cell_formula_units_Z   2
loop_
 _symmetry_equiv_pos_site_id
 _symmetry_equiv_pos_as_xyz
  1  'x, y, z'
loop_
 _atom_site_type_symbol
 _atom_site_label
 _atom_site_symmetry_multiplicity
 _atom_site_fract_x
 _atom_site_fract_y
 _atom_site_fract_z
 _atom_site_occupancy
  Ce  Ce0  1  0.000000  0.500000  0.748171  1
  Ce  Ce1  1  0.500000  0.000000  0.251829  1
  Zn  Zn2  1  0.000000  0.000000  0.000000  1
  Zn  Zn3  1  0.500000  0.500000  0.000000  1
  Si  Si4  1  0.000000  0.500000  0.378902  1
  Si  Si5  1  0.500000  0.000000  0.621098  1
  Ir  Ir6  1  0.000000  0.000000  0.500000  1
  Ir  Ir7  1  0.500000  0.500000  0.500000  1
  Rh  Rh8  1  0.500000  0.000000  0.842889  1
  Rh  Rh9  1  0.000000  0.500000  0.157111  1
