# generated using pymatgen
data_LaCe2Tm(SnRu)4
_symmetry_space_group_name_H-M   'P 1'
_cell_length_a   6.31004714
_cell_length_b   6.31004758
_cell_length_c   10.16321113
_cell_angle_alpha   77.79591709
_cell_angle_beta   77.79591665
_cell_angle_gamma   44.94039839
_symmetry_Int_Tables_number   1
_chemical_formula_structural   LaCe2Tm(SnRu)4
_chemical_formula_sum   'La1 Ce2 Tm1 Sn4 Ru4'
_cell_volume   278.26398072
_cell_formula_units_Z   1
loop_
 _symmetry_equiv_pos_site_id
 _symmetry_equiv_pos_as_xyz
  1  'x, y, z'
loop_
 _atom_site_type_symbol
 _atom_site_label
 _atom_site_symmetry_multiplicity
 _atom_site_fract_x
 _atom_site_fract_y
 _atom_site_fract_z
 _atom_site_occupancy
  La  La0  1  0.872373  0.872373  0.410776  1
  Ce  Ce1  1  0.863621  0.863621  0.912435  1
  Ce  Ce2  1  0.140889  0.140889  0.085378  1
  Tm  Tm3  1  0.118768  0.118768  0.596457  1
  Sn  Sn4  1  0.424956  0.424956  0.154195  1
  Sn  Sn5  1  0.407217  0.407217  0.651714  1
  Sn  Sn6  1  0.578299  0.578299  0.840889  1
  Sn  Sn7  1  0.592886  0.592886  0.356394  1
  Ru  Ru8  1  0.815782  0.815782  0.148956  1
  Ru  Ru9  1  0.194664  0.194664  0.304118  1
  Ru  Ru10  1  0.183622  0.183622  0.846968  1
  Ru  Ru11  1  0.806923  0.806923  0.691717  1
