# generated using pymatgen
data_LiNd6Zn22C
_symmetry_space_group_name_H-M   'P 1'
_cell_length_a   9.12524581
_cell_length_b   9.12515373
_cell_length_c   9.12470600
_cell_angle_alpha   60.00102129
_cell_angle_beta   59.99904954
_cell_angle_gamma   60.00068975
_symmetry_Int_Tables_number   1
_chemical_formula_structural   LiNd6Zn22C
_chemical_formula_sum   'Li1 Nd6 Zn22 C1'
_cell_volume   537.26820488
_cell_formula_units_Z   1
loop_
 _symmetry_equiv_pos_site_id
 _symmetry_equiv_pos_as_xyz
  1  'x, y, z'
loop_
 _atom_site_type_symbol
 _atom_site_label
 _atom_site_symmetry_multiplicity
 _atom_site_fract_x
 _atom_site_fract_y
 _atom_site_fract_z
 _atom_site_occupancy
  Li  Li0  1  0.000000  0.000000  0.000000  1
  Nd  Nd1  1  0.700967  0.298956  0.298930  1
  Nd  Nd2  1  0.299033  0.701044  0.701070  1
  Nd  Nd3  1  0.299033  0.701014  0.298825  1
  Nd  Nd4  1  0.700967  0.298986  0.701175  1
  Nd  Nd5  1  0.298927  0.298752  0.701132  1
  Nd  Nd6  1  0.701073  0.701248  0.298868  1
  Zn  Zn7  1  0.122205  0.122193  0.122205  1
  Zn  Zn8  1  0.877795  0.877807  0.877795  1
  Zn  Zn9  1  0.122207  0.122203  0.633394  1
  Zn  Zn10  1  0.122206  0.633389  0.122209  1
  Zn  Zn11  1  0.877793  0.877797  0.366606  1
  Zn  Zn12  1  0.877794  0.366611  0.877791  1
  Zn  Zn13  1  0.633388  0.122199  0.122211  1
  Zn  Zn14  1  0.366612  0.877801  0.877789  1
  Zn  Zn15  1  0.500000  0.000000  0.000000  1
  Zn  Zn16  1  0.000000  0.500000  0.500000  1
  Zn  Zn17  1  0.000000  0.500000  0.000000  1
  Zn  Zn18  1  0.500000  0.000000  0.500000  1
  Zn  Zn19  1  0.000000  0.000000  0.500000  1
  Zn  Zn20  1  0.500000  0.500000  0.000000  1
  Zn  Zn21  1  0.325491  0.325477  0.325484  1
  Zn  Zn22  1  0.674509  0.674523  0.674516  1
  Zn  Zn23  1  0.325488  0.325478  0.023556  1
  Zn  Zn24  1  0.325492  0.023539  0.325487  1
  Zn  Zn25  1  0.674512  0.674522  0.976444  1
  Zn  Zn26  1  0.674508  0.976461  0.674513  1
  Zn  Zn27  1  0.023542  0.325483  0.325490  1
  Zn  Zn28  1  0.976458  0.674517  0.674510  1
  C  C29  1  0.500000  0.500000  0.500000  1
