# generated using pymatgen
data_SrSi9Pb14O33
_symmetry_space_group_name_H-M   'P 1'
_cell_length_a   10.08037700
_cell_length_b   10.08037576
_cell_length_c   10.60530100
_cell_angle_alpha   90.00000000
_cell_angle_beta   90.00000000
_cell_angle_gamma   119.99999421
_symmetry_Int_Tables_number   1
_chemical_formula_structural   SrSi9Pb14O33
_chemical_formula_sum   'Sr1 Si9 Pb14 O33'
_cell_volume   933.26967084
_cell_formula_units_Z   1
loop_
 _symmetry_equiv_pos_site_id
 _symmetry_equiv_pos_as_xyz
  1  'x, y, z'
loop_
 _atom_site_type_symbol
 _atom_site_label
 _atom_site_symmetry_multiplicity
 _atom_site_fract_x
 _atom_site_fract_y
 _atom_site_fract_z
 _atom_site_occupancy
  Sr  Sr0  1  0.333333  0.666667  0.500000  1
  Si  Si1  1  0.275343  0.955628  0.352563  1
  Si  Si2  1  0.044372  0.319715  0.352563  1
  Si  Si3  1  0.656997  0.943743  0.000000  1
  Si  Si4  1  0.680285  0.724657  0.647437  1
  Si  Si5  1  0.286748  0.343003  0.000000  1
  Si  Si6  1  0.275343  0.955628  0.647437  1
  Si  Si7  1  0.056257  0.713252  0.000000  1
  Si  Si8  1  0.044372  0.319715  0.647437  1
  Si  Si9  1  0.680285  0.724657  0.352563  1
  Pb  Pb10  1  0.000000  0.000000  0.163629  1
  Pb  Pb11  1  0.333333  0.666667  0.175213  1
  Pb  Pb12  1  0.000000  0.000000  0.836371  1
  Pb  Pb13  1  0.333333  0.666667  0.824787  1
  Pb  Pb14  1  0.000000  0.000000  0.500000  1
  Pb  Pb15  1  0.930211  0.592629  0.680824  1
  Pb  Pb16  1  0.407371  0.337583  0.319176  1
  Pb  Pb17  1  0.662181  0.587343  0.000000  1
  Pb  Pb18  1  0.925161  0.337819  0.000000  1
  Pb  Pb19  1  0.662417  0.069789  0.680824  1
  Pb  Pb20  1  0.412657  0.074839  0.000000  1
  Pb  Pb21  1  0.930211  0.592629  0.319176  1
  Pb  Pb22  1  0.407371  0.337583  0.680824  1
  Pb  Pb23  1  0.662417  0.069789  0.319176  1
  O  O24  1  0.189745  0.154654  0.000000  1
  O  O25  1  0.308048  0.033711  0.500000  1
  O  O26  1  0.966289  0.274336  0.500000  1
  O  O27  1  0.405673  0.412633  0.121145  1
  O  O28  1  0.144101  0.230238  0.339742  1
  O  O29  1  0.348308  0.095270  0.750547  1
  O  O30  1  0.151287  0.504048  0.659645  1
  O  O31  1  0.006959  0.594327  0.121145  1
  O  O32  1  0.352761  0.848713  0.340355  1
  O  O33  1  0.151287  0.504048  0.340355  1
  O  O34  1  0.769762  0.913862  0.339742  1
  O  O35  1  0.352761  0.848713  0.659645  1
  O  O36  1  0.904730  0.253039  0.750547  1
  O  O37  1  0.348308  0.095270  0.249453  1
  O  O38  1  0.964908  0.810255  0.000000  1
  O  O39  1  0.746961  0.651692  0.750547  1
  O  O40  1  0.746961  0.651692  0.249453  1
  O  O41  1  0.725664  0.691952  0.500000  1
  O  O42  1  0.581356  0.756375  0.000000  1
  O  O43  1  0.144101  0.230238  0.660258  1
  O  O44  1  0.587367  0.993041  0.878855  1
  O  O45  1  0.086138  0.855899  0.339742  1
  O  O46  1  0.904730  0.253039  0.249453  1
  O  O47  1  0.495952  0.647239  0.659645  1
  O  O48  1  0.086138  0.855899  0.660258  1
  O  O49  1  0.587367  0.993041  0.121145  1
  O  O50  1  0.243625  0.824979  0.000000  1
  O  O51  1  0.175021  0.418644  0.000000  1
  O  O52  1  0.495952  0.647239  0.340355  1
  O  O53  1  0.769762  0.913862  0.660258  1
  O  O54  1  0.845346  0.035092  0.000000  1
  O  O55  1  0.006959  0.594327  0.878855  1
  O  O56  1  0.405673  0.412633  0.878855  1
