# generated using pymatgen
data_Sr8AlRu3O16
_symmetry_space_group_name_H-M   'P 1'
_cell_length_a   5.49866278
_cell_length_b   5.49867234
_cell_length_c   13.41411800
_cell_angle_alpha   101.81772949
_cell_angle_beta   101.81157856
_cell_angle_gamma   89.99020185
_symmetry_Int_Tables_number   1
_chemical_formula_structural   Sr8AlRu3O16
_chemical_formula_sum   'Sr8 Al1 Ru3 O16'
_cell_volume   388.20898914
_cell_formula_units_Z   1
loop_
 _symmetry_equiv_pos_site_id
 _symmetry_equiv_pos_as_xyz
  1  'x, y, z'
loop_
 _atom_site_type_symbol
 _atom_site_label
 _atom_site_symmetry_multiplicity
 _atom_site_fract_x
 _atom_site_fract_y
 _atom_site_fract_z
 _atom_site_occupancy
  Sr  Sr0  1  0.820764  0.820761  0.641926  1
  Sr  Sr1  1  0.075683  0.575669  0.149854  1
  Sr  Sr2  1  0.179532  0.179226  0.358087  1
  Sr  Sr3  1  0.424941  0.925135  0.850160  1
  Sr  Sr4  1  0.320645  0.320641  0.641904  1
  Sr  Sr5  1  0.578186  0.078286  0.155008  1
  Sr  Sr6  1  0.679295  0.679314  0.358090  1
  Sr  Sr7  1  0.921594  0.421669  0.844987  1
  Al  Al8  1  0.750082  0.249982  0.500000  1
  Ru  Ru9  1  0.999918  0.999963  0.999986  1
  Ru  Ru10  1  0.250026  0.749912  0.500019  1
  Ru  Ru11  1  0.499898  0.500039  0.999981  1
  O  O12  1  0.001168  0.493838  0.500036  1
  O  O13  1  0.917387  0.919300  0.836821  1
  O  O14  1  0.082142  0.080791  0.163150  1
  O  O15  1  0.171447  0.670706  0.341954  1
  O  O16  1  0.328381  0.828931  0.658065  1
  O  O17  1  0.206726  0.706880  0.998332  1
  O  O18  1  0.292627  0.208153  0.000960  1
  O  O19  1  0.498924  0.006025  0.499944  1
  O  O20  1  0.506461  0.501028  0.500256  1
  O  O21  1  0.419221  0.417528  0.836809  1
  O  O22  1  0.580889  0.582335  0.163142  1
  O  O23  1  0.674144  0.174480  0.347888  1
  O  O24  1  0.826090  0.325571  0.652136  1
  O  O25  1  0.708031  0.792791  0.000911  1
  O  O26  1  0.792109  0.292142  0.999772  1
  O  O27  1  0.993691  0.998902  0.499823  1
