# generated using pymatgen
data_Y2Pa(GaPd)3
_symmetry_space_group_name_H-M   'P 1'
_cell_length_a   7.32122870
_cell_length_b   7.32122744
_cell_length_c   3.87831900
_cell_angle_alpha   90.00000000
_cell_angle_beta   90.00000000
_cell_angle_gamma   119.84092048
_symmetry_Int_Tables_number   1
_chemical_formula_structural   Y2Pa(GaPd)3
_chemical_formula_sum   'Y2 Pa1 Ga3 Pd3'
_cell_volume   180.31670921
_cell_formula_units_Z   1
loop_
 _symmetry_equiv_pos_site_id
 _symmetry_equiv_pos_as_xyz
  1  'x, y, z'
loop_
 _atom_site_type_symbol
 _atom_site_label
 _atom_site_symmetry_multiplicity
 _atom_site_fract_x
 _atom_site_fract_y
 _atom_site_fract_z
 _atom_site_occupancy
  Y  Y0  1  0.408989  0.001355  0.000000  1
  Y  Y1  1  0.001355  0.408989  0.000000  1
  Pa  Pa2  1  0.586637  0.586637  0.000000  1
  Ga  Ga3  1  0.244427  0.244427  0.500000  1
  Ga  Ga4  1  0.747490  0.008079  0.500000  1
  Ga  Ga5  1  0.008079  0.747490  0.500000  1
  Pd  Pd6  1  0.988036  0.988036  0.000000  1
  Pd  Pd7  1  0.348912  0.666075  0.500000  1
  Pd  Pd8  1  0.666075  0.348912  0.500000  1
