# generated using pymatgen
data_Er3MgZn2Sn2Pd
_symmetry_space_group_name_H-M   'P 1'
_cell_length_a   7.14662084
_cell_length_b   7.16715585
_cell_length_c   4.49204800
_cell_angle_alpha   90.00000000
_cell_angle_beta   90.00000000
_cell_angle_gamma   120.09510056
_symmetry_Int_Tables_number   1
_chemical_formula_structural   Er3MgZn2Sn2Pd
_chemical_formula_sum   'Er3 Mg1 Zn2 Sn2 Pd1'
_cell_volume   199.06991420
_cell_formula_units_Z   1
loop_
 _symmetry_equiv_pos_site_id
 _symmetry_equiv_pos_as_xyz
  1  'x, y, z'
loop_
 _atom_site_type_symbol
 _atom_site_label
 _atom_site_symmetry_multiplicity
 _atom_site_fract_x
 _atom_site_fract_y
 _atom_site_fract_z
 _atom_site_occupancy
  Er  Er0  1  0.406409  0.405749  0.500000  1
  Er  Er1  1  0.593591  0.999340  0.500000  1
  Er  Er2  1  0.000000  0.602963  0.500000  1
  Mg  Mg3  1  0.000000  0.221719  0.000000  1
  Zn  Zn4  1  0.771580  0.769756  0.000000  1
  Zn  Zn5  1  0.228420  0.998175  0.000000  1
  Sn  Sn6  1  0.663794  0.334832  0.000000  1
  Sn  Sn7  1  0.336206  0.671038  0.000000  1
  Pd  Pd8  1  0.000000  0.996426  0.500000  1
