# generated using pymatgen
data_Sn(S8F)3
_symmetry_space_group_name_H-M   'P 1'
_cell_length_a   14.65661176
_cell_length_b   14.65661189
_cell_length_c   14.65661142
_cell_angle_alpha   118.64781829
_cell_angle_beta   118.64782071
_cell_angle_gamma   118.64781191
_symmetry_Int_Tables_number   1
_chemical_formula_structural   Sn(S8F)3
_chemical_formula_sum   'Sn1 S24 F3'
_cell_volume   944.89713402
_cell_formula_units_Z   1
loop_
 _symmetry_equiv_pos_site_id
 _symmetry_equiv_pos_as_xyz
  1  'x, y, z'
loop_
 _atom_site_type_symbol
 _atom_site_label
 _atom_site_symmetry_multiplicity
 _atom_site_fract_x
 _atom_site_fract_y
 _atom_site_fract_z
 _atom_site_occupancy
  Sn  Sn0  1  0.810015  0.810015  0.810015  1
  S  S1  1  0.802345  0.525817  0.525817  1
  S  S2  1  0.525817  0.525817  0.802345  1
  S  S3  1  0.525817  0.802345  0.525817  1
  S  S4  1  0.245189  0.378406  0.631485  1
  S  S5  1  0.348711  0.953103  0.348711  1
  S  S6  1  0.348711  0.348711  0.953103  1
  S  S7  1  0.953103  0.348711  0.348711  1
  S  S8  1  0.122678  0.739039  0.254976  1
  S  S9  1  0.254976  0.122678  0.739039  1
  S  S10  1  0.739039  0.254976  0.122678  1
  S  S11  1  0.739039  0.122678  0.254976  1
  S  S12  1  0.254976  0.739039  0.122678  1
  S  S13  1  0.122678  0.254976  0.739039  1
  S  S14  1  0.346432  0.879574  0.533112  1
  S  S15  1  0.533112  0.346432  0.879574  1
  S  S16  1  0.879574  0.533112  0.346432  1
  S  S17  1  0.879574  0.346432  0.533112  1
  S  S18  1  0.533112  0.879574  0.346432  1
  S  S19  1  0.346432  0.533112  0.879574  1
  S  S20  1  0.245189  0.631485  0.378406  1
  S  S21  1  0.378406  0.245189  0.631485  1
  S  S22  1  0.631485  0.378406  0.245189  1
  S  S23  1  0.631485  0.245189  0.378406  1
  S  S24  1  0.378406  0.631485  0.245189  1
  F  F25  1  0.902443  0.023275  0.023275  1
  F  F26  1  0.023275  0.023275  0.902443  1
  F  F27  1  0.023275  0.902443  0.023275  1
