# generated using pymatgen
data_Yb2Ga5Pt3
_symmetry_space_group_name_H-M   'P 1'
_cell_length_a   8.70775207
_cell_length_b   8.70775222
_cell_length_c   8.70775407
_cell_angle_alpha   141.74434960
_cell_angle_beta   107.95961872
_cell_angle_gamma   84.62909450
_symmetry_Int_Tables_number   1
_chemical_formula_structural   Yb2Ga5Pt3
_chemical_formula_sum   'Yb4 Ga10 Pt6'
_cell_volume   376.32924282
_cell_formula_units_Z   2
loop_
 _symmetry_equiv_pos_site_id
 _symmetry_equiv_pos_as_xyz
  1  'x, y, z'
loop_
 _atom_site_type_symbol
 _atom_site_label
 _atom_site_symmetry_multiplicity
 _atom_site_fract_x
 _atom_site_fract_y
 _atom_site_fract_z
 _atom_site_occupancy
  Yb  Yb0  1  0.079394  0.855905  0.223490  1
  Yb  Yb1  1  0.920606  0.144095  0.776510  1
  Yb  Yb2  1  0.632414  0.355904  0.276510  1
  Yb  Yb3  1  0.367586  0.644096  0.723490  1
  Ga  Ga4  1  0.000000  0.750000  0.750000  1
  Ga  Ga5  1  0.000000  0.250000  0.250000  1
  Ga  Ga6  1  0.292589  0.042589  0.750000  1
  Ga  Ga7  1  0.707412  0.457412  0.750000  1
  Ga  Ga8  1  0.707411  0.957411  0.250000  1
  Ga  Ga9  1  0.292588  0.542588  0.250000  1
  Ga  Ga10  1  0.763543  0.590309  0.173234  1
  Ga  Ga11  1  0.236457  0.409691  0.826766  1
  Ga  Ga12  1  0.417074  0.090309  0.326766  1
  Ga  Ga13  1  0.582926  0.909691  0.673234  1
  Pt  Pt14  1  0.500000  0.750000  0.250000  1
  Pt  Pt15  1  0.500000  0.250000  0.750000  1
  Pt  Pt16  1  0.050456  0.646966  0.403492  1
  Pt  Pt17  1  0.949544  0.353034  0.596508  1
  Pt  Pt18  1  0.243474  0.146964  0.096508  1
  Pt  Pt19  1  0.756526  0.853036  0.903492  1
