# generated using pymatgen
data_Cs6Ge2S6O
_symmetry_space_group_name_H-M   'P 1'
_cell_length_a   12.81685100
_cell_length_b   9.16648188
_cell_length_c   9.53291322
_cell_angle_alpha   69.09409827
_cell_angle_beta   90.00000000
_cell_angle_gamma   90.00000000
_symmetry_Int_Tables_number   1
_chemical_formula_structural   Cs6Ge2S6O
_chemical_formula_sum   'Cs12 Ge4 S12 O2'
_cell_volume   1046.24770338
_cell_formula_units_Z   2
loop_
 _symmetry_equiv_pos_site_id
 _symmetry_equiv_pos_as_xyz
  1  'x, y, z'
loop_
 _atom_site_type_symbol
 _atom_site_label
 _atom_site_symmetry_multiplicity
 _atom_site_fract_x
 _atom_site_fract_y
 _atom_site_fract_z
 _atom_site_occupancy
  Cs  Cs0  1  0.326527  0.990196  0.008153  1
  Cs  Cs1  1  0.221476  0.692159  0.455770  1
  Cs  Cs2  1  0.560284  0.281406  0.228068  1
  Cs  Cs3  1  0.826527  0.509804  0.991847  1
  Cs  Cs4  1  0.439716  0.718594  0.771932  1
  Cs  Cs5  1  0.778524  0.307841  0.544230  1
  Cs  Cs6  1  0.060284  0.218594  0.771932  1
  Cs  Cs7  1  0.939716  0.781406  0.228068  1
  Cs  Cs8  1  0.278524  0.192159  0.455770  1
  Cs  Cs9  1  0.721476  0.807841  0.544230  1
  Cs  Cs10  1  0.673473  0.009804  0.991847  1
  Cs  Cs11  1  0.173473  0.490196  0.008153  1
  Ge  Ge12  1  0.490056  0.350180  0.683858  1
  Ge  Ge13  1  0.990056  0.149820  0.316142  1
  Ge  Ge14  1  0.509944  0.649820  0.316142  1
  Ge  Ge15  1  0.009944  0.850180  0.683858  1
  S  S16  1  0.978933  0.619550  0.662360  1
  S  S17  1  0.887689  0.910223  0.822007  1
  S  S18  1  0.826388  0.129817  0.243294  1
  S  S19  1  0.612311  0.410223  0.822007  1
  S  S20  1  0.326388  0.370183  0.756706  1
  S  S21  1  0.112311  0.089777  0.177993  1
  S  S22  1  0.478933  0.880450  0.337640  1
  S  S23  1  0.387689  0.589777  0.177993  1
  S  S24  1  0.021067  0.380450  0.337640  1
  S  S25  1  0.673612  0.629817  0.243294  1
  S  S26  1  0.521067  0.119550  0.662360  1
  S  S27  1  0.173612  0.870183  0.756706  1
  O  O28  1  0.500000  0.500000  0.500000  1
  O  O29  1  0.000000  0.000000  0.500000  1
