# generated using pymatgen
data_Ba16Sr4Si11Ag
_symmetry_space_group_name_H-M   'P 1'
_cell_length_a   8.42360600
_cell_length_b   8.42360600
_cell_length_c   16.90394600
_cell_angle_alpha   90.00000000
_cell_angle_beta   90.00000000
_cell_angle_gamma   90.00000000
_symmetry_Int_Tables_number   1
_chemical_formula_structural   Ba16Sr4Si11Ag
_chemical_formula_sum   'Ba16 Sr4 Si11 Ag1'
_cell_volume   1199.45562980
_cell_formula_units_Z   1
loop_
 _symmetry_equiv_pos_site_id
 _symmetry_equiv_pos_as_xyz
  1  'x, y, z'
loop_
 _atom_site_type_symbol
 _atom_site_label
 _atom_site_symmetry_multiplicity
 _atom_site_fract_x
 _atom_site_fract_y
 _atom_site_fract_z
 _atom_site_occupancy
  Ba  Ba0  1  0.315882  0.677338  0.112722  1
  Ba  Ba1  1  0.177338  0.184118  0.112722  1
  Ba  Ba2  1  0.326121  0.691857  0.392395  1
  Ba  Ba3  1  0.665342  0.697851  0.887118  1
  Ba  Ba4  1  0.191857  0.173879  0.392395  1
  Ba  Ba5  1  0.673879  0.308143  0.392395  1
  Ba  Ba6  1  0.171078  0.806330  0.607696  1
  Ba  Ba7  1  0.334658  0.302149  0.887118  1
  Ba  Ba8  1  0.197851  0.834658  0.887118  1
  Ba  Ba9  1  0.828922  0.193670  0.607696  1
  Ba  Ba10  1  0.306330  0.328922  0.607696  1
  Ba  Ba11  1  0.808143  0.826121  0.392395  1
  Ba  Ba12  1  0.802149  0.165342  0.887118  1
  Ba  Ba13  1  0.822662  0.815882  0.112722  1
  Ba  Ba14  1  0.684118  0.322662  0.112722  1
  Ba  Ba15  1  0.693670  0.671078  0.607696  1
  Sr  Sr16  1  0.500000  0.000000  0.720063  1
  Sr  Sr17  1  0.500000  0.000000  0.237369  1
  Sr  Sr18  1  0.000000  0.500000  0.271363  1
  Sr  Sr19  1  0.000000  0.500000  0.765480  1
  Si  Si20  1  0.103564  0.104299  0.749209  1
  Si  Si21  1  0.395701  0.603564  0.749209  1
  Si  Si22  1  0.602888  0.604354  0.251532  1
  Si  Si23  1  0.500000  0.000000  0.015915  1
  Si  Si24  1  0.104354  0.897112  0.251532  1
  Si  Si25  1  0.604299  0.396436  0.749209  1
  Si  Si26  1  0.896436  0.895701  0.749209  1
  Si  Si27  1  0.397112  0.395646  0.251532  1
  Si  Si28  1  0.895646  0.102888  0.251532  1
  Si  Si29  1  0.500000  0.000000  0.514118  1
  Si  Si30  1  0.000000  0.500000  0.486057  1
  Ag  Ag31  1  0.000000  0.500000  0.986940  1
