# generated using pymatgen
data_Er8Ta9Si16W3
_symmetry_space_group_name_H-M   'P 1'
_cell_length_a   6.97292046
_cell_length_b   6.97292113
_cell_length_c   12.89595499
_cell_angle_alpha   90.05315772
_cell_angle_beta   89.94684025
_cell_angle_gamma   90.10439564
_symmetry_Int_Tables_number   1
_chemical_formula_structural   Er8Ta9Si16W3
_chemical_formula_sum   'Er8 Ta9 Si16 W3'
_cell_volume   627.02070044
_cell_formula_units_Z   1
loop_
 _symmetry_equiv_pos_site_id
 _symmetry_equiv_pos_as_xyz
  1  'x, y, z'
loop_
 _atom_site_type_symbol
 _atom_site_label
 _atom_site_symmetry_multiplicity
 _atom_site_fract_x
 _atom_site_fract_y
 _atom_site_fract_z
 _atom_site_occupancy
  Er  Er0  1  0.340961  0.001897  0.467528  1
  Er  Er1  1  0.497270  0.842153  0.718966  1
  Er  Er2  1  0.501408  0.158350  0.217945  1
  Er  Er3  1  0.842153  0.497270  0.281034  1
  Er  Er4  1  0.158350  0.501408  0.782055  1
  Er  Er5  1  0.658695  0.998562  0.968001  1
  Er  Er6  1  0.001897  0.340961  0.532472  1
  Er  Er7  1  0.998562  0.658695  0.031999  1
  Ta  Ta8  1  0.670944  0.670944  0.500000  1
  Ta  Ta9  1  0.152189  0.004828  0.875362  1
  Ta  Ta10  1  0.493856  0.651817  0.124989  1
  Ta  Ta11  1  0.504866  0.348391  0.626003  1
  Ta  Ta12  1  0.651817  0.493856  0.875011  1
  Ta  Ta13  1  0.348391  0.504866  0.373997  1
  Ta  Ta14  1  0.847500  0.994407  0.374727  1
  Ta  Ta15  1  0.004828  0.152189  0.124638  1
  Ta  Ta16  1  0.994407  0.847500  0.625273  1
  Si  Si17  1  0.202774  0.134391  0.682213  1
  Si  Si18  1  0.365992  0.702869  0.931823  1
  Si  Si19  1  0.634641  0.295986  0.432107  1
  Si  Si20  1  0.702869  0.365992  0.068177  1
  Si  Si21  1  0.295986  0.634641  0.567893  1
  Si  Si22  1  0.796771  0.865744  0.182028  1
  Si  Si23  1  0.134391  0.202774  0.317787  1
  Si  Si24  1  0.865744  0.796771  0.817972  1
  Si  Si25  1  0.294835  0.954730  0.064881  1
  Si  Si26  1  0.544330  0.795447  0.314092  1
  Si  Si27  1  0.454157  0.205272  0.815331  1
  Si  Si28  1  0.795447  0.544330  0.685908  1
  Si  Si29  1  0.205272  0.454157  0.184669  1
  Si  Si30  1  0.705077  0.047101  0.565747  1
  Si  Si31  1  0.954730  0.294835  0.935119  1
  Si  Si32  1  0.047101  0.705077  0.434253  1
  W  W33  1  0.329960  0.329960  0.000000  1
  W  W34  1  0.170948  0.830882  0.248779  1
  W  W35  1  0.830882  0.170948  0.751221  1
