# generated using pymatgen
data_NbGe2B4Ru10W3
_symmetry_space_group_name_H-M   'P 1'
_cell_length_a   9.36023822
_cell_length_b   9.36023822
_cell_length_c   2.91461400
_cell_angle_alpha   90.00000000
_cell_angle_beta   90.00000000
_cell_angle_gamma   89.97501331
_symmetry_Int_Tables_number   1
_chemical_formula_structural   NbGe2B4Ru10W3
_chemical_formula_sum   'Nb1 Ge2 B4 Ru10 W3'
_cell_volume   255.36114037
_cell_formula_units_Z   1
loop_
 _symmetry_equiv_pos_site_id
 _symmetry_equiv_pos_as_xyz
  1  'x, y, z'
loop_
 _atom_site_type_symbol
 _atom_site_label
 _atom_site_symmetry_multiplicity
 _atom_site_fract_x
 _atom_site_fract_y
 _atom_site_fract_z
 _atom_site_occupancy
  Nb  Nb0  1  0.676703  0.176703  0.000000  1
  Ge  Ge1  1  0.500901  0.498766  0.000000  1
  Ge  Ge2  1  0.998766  0.000901  0.000000  1
  B  B3  1  0.624550  0.875728  0.000000  1
  B  B4  1  0.375728  0.124550  0.000000  1
  B  B5  1  0.124803  0.624803  0.000000  1
  B  B6  1  0.875872  0.375872  0.000000  1
  Ru  Ru7  1  0.565941  0.714205  0.500000  1
  Ru  Ru8  1  0.428145  0.286597  0.500000  1
  Ru  Ru9  1  0.067769  0.785568  0.500000  1
  Ru  Ru10  1  0.937181  0.216603  0.500000  1
  Ru  Ru11  1  0.285568  0.567769  0.500000  1
  Ru  Ru12  1  0.716603  0.437181  0.500000  1
  Ru  Ru13  1  0.214205  0.065941  0.500000  1
  Ru  Ru14  1  0.786597  0.928145  0.500000  1
  Ru  Ru15  1  0.497612  0.997612  0.500000  1
  Ru  Ru16  1  0.000663  0.500663  0.500000  1
  W  W17  1  0.822687  0.677420  0.000000  1
  W  W18  1  0.177420  0.322687  0.000000  1
  W  W19  1  0.322286  0.822286  0.000000  1
