# generated using pymatgen
data_Tb3Tm2Pa(Al3Os)8
_symmetry_space_group_name_H-M   'P 1'
_cell_length_a   8.80400300
_cell_length_b   8.85012857
_cell_length_c   9.56920800
_cell_angle_alpha   90.00000000
_cell_angle_beta   90.00000000
_cell_angle_gamma   119.82774627
_symmetry_Int_Tables_number   1
_chemical_formula_structural   Tb3Tm2Pa(Al3Os)8
_chemical_formula_sum   'Tb3 Tm2 Pa1 Al24 Os8'
_cell_volume   646.82619238
_cell_formula_units_Z   1
loop_
 _symmetry_equiv_pos_site_id
 _symmetry_equiv_pos_as_xyz
  1  'x, y, z'
loop_
 _atom_site_type_symbol
 _atom_site_label
 _atom_site_symmetry_multiplicity
 _atom_site_fract_x
 _atom_site_fract_y
 _atom_site_fract_z
 _atom_site_occupancy
  Tb  Tb0  1  0.808568  0.617135  0.750000  1
  Tb  Tb1  1  0.386444  0.191300  0.750000  1
  Tb  Tb2  1  0.804855  0.191300  0.750000  1
  Tm  Tm3  1  0.608311  0.801955  0.250000  1
  Tm  Tm4  1  0.193643  0.801955  0.250000  1
  Pa  Pa5  1  0.196900  0.393798  0.250000  1
  Al  Al6  1  0.336618  0.673237  0.020002  1
  Al  Al7  1  0.667717  0.335432  0.980251  1
  Al  Al8  1  0.667717  0.335432  0.519749  1
  Al  Al9  1  0.336618  0.673237  0.479998  1
  Al  Al10  1  0.163521  0.327043  0.576639  1
  Al  Al11  1  0.836747  0.673495  0.423950  1
  Al  Al12  1  0.671738  0.835048  0.573605  1
  Al  Al13  1  0.836747  0.673495  0.076050  1
  Al  Al14  1  0.326607  0.162069  0.422981  1
  Al  Al15  1  0.163521  0.327043  0.923361  1
  Al  Al16  1  0.163310  0.835048  0.573605  1
  Al  Al17  1  0.326607  0.162069  0.077019  1
  Al  Al18  1  0.835462  0.162069  0.422981  1
  Al  Al19  1  0.671738  0.835048  0.926395  1
  Al  Al20  1  0.835462  0.162069  0.077019  1
  Al  Al21  1  0.163310  0.835048  0.926395  1
  Al  Al22  1  0.559528  0.119057  0.250000  1
  Al  Al23  1  0.437244  0.874490  0.750000  1
  Al  Al24  1  0.873109  0.437995  0.250000  1
  Al  Al25  1  0.121268  0.560216  0.750000  1
  Al  Al26  1  0.564886  0.437995  0.250000  1
  Al  Al27  1  0.438948  0.560216  0.750000  1
  Al  Al28  1  0.000692  0.001384  0.250000  1
  Al  Al29  1  0.000387  0.000774  0.750000  1
  Os  Os30  1  0.501199  0.002397  0.999229  1
  Os  Os31  1  0.004312  0.500269  0.005790  1
  Os  Os32  1  0.501199  0.002397  0.500771  1
  Os  Os33  1  0.495957  0.500269  0.005790  1
  Os  Os34  1  0.004312  0.500269  0.494210  1
  Os  Os35  1  0.495957  0.500269  0.494210  1
  Os  Os36  1  0.999419  0.998838  0.999337  1
  Os  Os37  1  0.999419  0.998838  0.500663  1
