# generated using pymatgen
data_Y4GaBr6
_symmetry_space_group_name_H-M   'P 1'
_cell_length_a   4.07849100
_cell_length_b   13.36187300
_cell_length_c   14.14382900
_cell_angle_alpha   90.00000000
_cell_angle_beta   90.00000000
_cell_angle_gamma   90.00000000
_symmetry_Int_Tables_number   1
_chemical_formula_structural   Y4GaBr6
_chemical_formula_sum   'Y8 Ga2 Br12'
_cell_volume   770.78604811
_cell_formula_units_Z   2
loop_
 _symmetry_equiv_pos_site_id
 _symmetry_equiv_pos_as_xyz
  1  'x, y, z'
loop_
 _atom_site_type_symbol
 _atom_site_label
 _atom_site_symmetry_multiplicity
 _atom_site_fract_x
 _atom_site_fract_y
 _atom_site_fract_z
 _atom_site_occupancy
  Y  Y0  1  0.500000  0.118818  0.339815  1
  Y  Y1  1  0.500000  0.881182  0.660185  1
  Y  Y2  1  0.500000  0.618818  0.160185  1
  Y  Y3  1  0.500000  0.381182  0.839815  1
  Y  Y4  1  0.000000  0.121047  0.580129  1
  Y  Y5  1  0.000000  0.878953  0.419871  1
  Y  Y6  1  0.000000  0.621047  0.919871  1
  Y  Y7  1  0.000000  0.378953  0.080129  1
  Ga  Ga8  1  0.500000  0.000000  0.500000  1
  Ga  Ga9  1  0.500000  0.500000  0.000000  1
  Br  Br10  1  0.500000  0.245318  0.164224  1
  Br  Br11  1  0.500000  0.754682  0.835776  1
  Br  Br12  1  0.500000  0.745318  0.335776  1
  Br  Br13  1  0.500000  0.254682  0.664224  1
  Br  Br14  1  0.000000  0.255122  0.410454  1
  Br  Br15  1  0.000000  0.744878  0.589546  1
  Br  Br16  1  0.000000  0.755122  0.089546  1
  Br  Br17  1  0.000000  0.244878  0.910454  1
  Br  Br18  1  0.000000  0.002518  0.243028  1
  Br  Br19  1  0.000000  0.997482  0.756972  1
  Br  Br20  1  0.000000  0.502518  0.256972  1
  Br  Br21  1  0.000000  0.497482  0.743028  1
