# generated using pymatgen
data_Cs6Lu(InBr6)3
_symmetry_space_group_name_H-M   'P 1'
_cell_length_a   7.97515400
_cell_length_b   7.97515440
_cell_length_c   20.26838100
_cell_angle_alpha   90.00000000
_cell_angle_beta   90.00000000
_cell_angle_gamma   119.99999005
_symmetry_Int_Tables_number   1
_chemical_formula_structural   Cs6Lu(InBr6)3
_chemical_formula_sum   'Cs6 Lu1 In3 Br18'
_cell_volume   1116.42078247
_cell_formula_units_Z   1
loop_
 _symmetry_equiv_pos_site_id
 _symmetry_equiv_pos_as_xyz
  1  'x, y, z'
loop_
 _atom_site_type_symbol
 _atom_site_label
 _atom_site_symmetry_multiplicity
 _atom_site_fract_x
 _atom_site_fract_y
 _atom_site_fract_z
 _atom_site_occupancy
  Cs  Cs0  1  0.333333  0.666667  0.070747  1
  Cs  Cs1  1  0.666667  0.333333  0.929958  1
  Cs  Cs2  1  0.666667  0.333333  0.570737  1
  Cs  Cs3  1  0.333333  0.666667  0.428878  1
  Cs  Cs4  1  0.000000  0.000000  0.249762  1
  Cs  Cs5  1  0.000000  0.000000  0.750532  1
  Lu  Lu6  1  0.333333  0.666667  0.842327  1
  In  In7  1  0.333333  0.666667  0.655760  1
  In  In8  1  0.666667  0.333333  0.343754  1
  In  In9  1  0.666667  0.333333  0.155967  1
  Br  Br10  1  0.168670  0.337340  0.590880  1
  Br  Br11  1  0.831011  0.662023  0.409624  1
  Br  Br12  1  0.662660  0.831330  0.590880  1
  Br  Br13  1  0.831063  0.662125  0.090538  1
  Br  Br14  1  0.337977  0.168989  0.409624  1
  Br  Br15  1  0.168311  0.336623  0.910420  1
  Br  Br16  1  0.168670  0.831330  0.590880  1
  Br  Br17  1  0.337875  0.168937  0.090538  1
  Br  Br18  1  0.831011  0.168989  0.409624  1
  Br  Br19  1  0.663377  0.831689  0.910420  1
  Br  Br20  1  0.831063  0.168937  0.090538  1
  Br  Br21  1  0.168311  0.831689  0.910420  1
  Br  Br22  1  0.513014  0.026028  0.250107  1
  Br  Br23  1  0.488813  0.977627  0.748955  1
  Br  Br24  1  0.973972  0.486986  0.250107  1
  Br  Br25  1  0.022373  0.511187  0.748955  1
  Br  Br26  1  0.513014  0.486986  0.250107  1
  Br  Br27  1  0.488813  0.511187  0.748955  1
