# generated using pymatgen
data_TmLu4Zr5Sb6
_symmetry_space_group_name_H-M   'P 1'
_cell_length_a   8.65971101
_cell_length_b   8.72916989
_cell_length_c   5.91142800
_cell_angle_alpha   90.00000000
_cell_angle_beta   90.00000000
_cell_angle_gamma   120.21096645
_symmetry_Int_Tables_number   1
_chemical_formula_structural   TmLu4Zr5Sb6
_chemical_formula_sum   'Tm1 Lu4 Zr5 Sb6'
_cell_volume   386.16437906
_cell_formula_units_Z   1
loop_
 _symmetry_equiv_pos_site_id
 _symmetry_equiv_pos_as_xyz
  1  'x, y, z'
loop_
 _atom_site_type_symbol
 _atom_site_label
 _atom_site_symmetry_multiplicity
 _atom_site_fract_x
 _atom_site_fract_y
 _atom_site_fract_z
 _atom_site_occupancy
  Tm  Tm0  1  0.749540  0.999500  0.250000  1
  Lu  Lu1  1  0.752420  0.751814  0.750000  1
  Lu  Lu2  1  0.247384  0.999527  0.750000  1
  Lu  Lu3  1  0.000107  0.254297  0.750000  1
  Lu  Lu4  1  0.250871  0.250294  0.250000  1
  Zr  Zr5  1  0.000015  0.737719  0.250000  1
  Zr  Zr6  1  0.666563  0.334485  0.000728  1
  Zr  Zr7  1  0.333412  0.667932  0.000726  1
  Zr  Zr8  1  0.333412  0.667932  0.499274  1
  Zr  Zr9  1  0.666563  0.334485  0.499272  1
  Sb  Sb10  1  0.390592  0.391076  0.750000  1
  Sb  Sb11  1  0.609302  0.000473  0.750000  1
  Sb  Sb12  1  0.999989  0.609997  0.750000  1
  Sb  Sb13  1  0.613587  0.611360  0.250000  1
  Sb  Sb14  1  0.385801  0.998188  0.250000  1
  Sb  Sb15  1  0.000444  0.390920  0.250000  1
