# generated using pymatgen
data_Nd2TmCoSn6
_symmetry_space_group_name_H-M   'P 1'
_cell_length_a   8.51371455
_cell_length_b   8.51371517
_cell_length_c   13.39092800
_cell_angle_alpha   90.00000000
_cell_angle_beta   90.00000000
_cell_angle_gamma   148.54460376
_symmetry_Int_Tables_number   1
_chemical_formula_structural   Nd2TmCoSn6
_chemical_formula_sum   'Nd4 Tm2 Co2 Sn12'
_cell_volume   506.50272020
_cell_formula_units_Z   2
loop_
 _symmetry_equiv_pos_site_id
 _symmetry_equiv_pos_as_xyz
  1  'x, y, z'
loop_
 _atom_site_type_symbol
 _atom_site_label
 _atom_site_symmetry_multiplicity
 _atom_site_fract_x
 _atom_site_fract_y
 _atom_site_fract_z
 _atom_site_occupancy
  Nd  Nd0  1  0.900684  0.099316  0.092537  1
  Nd  Nd1  1  0.099316  0.900684  0.592537  1
  Nd  Nd2  1  0.099316  0.900684  0.907463  1
  Nd  Nd3  1  0.900684  0.099316  0.407463  1
  Tm  Tm4  1  0.898795  0.101205  0.750000  1
  Tm  Tm5  1  0.101205  0.898795  0.250000  1
  Co  Co6  1  0.296074  0.703926  0.250000  1
  Co  Co7  1  0.703926  0.296074  0.750000  1
  Sn  Sn8  1  0.755239  0.244761  0.571861  1
  Sn  Sn9  1  0.426716  0.573284  0.579791  1
  Sn  Sn10  1  0.573284  0.426716  0.420209  1
  Sn  Sn11  1  0.731590  0.268410  0.250000  1
  Sn  Sn12  1  0.268410  0.731590  0.750000  1
  Sn  Sn13  1  0.244761  0.755239  0.071861  1
  Sn  Sn14  1  0.244761  0.755239  0.428139  1
  Sn  Sn15  1  0.573284  0.426716  0.079791  1
  Sn  Sn16  1  0.453575  0.546425  0.250000  1
  Sn  Sn17  1  0.546425  0.453575  0.750000  1
  Sn  Sn18  1  0.755239  0.244761  0.928139  1
  Sn  Sn19  1  0.426716  0.573284  0.920209  1
