# generated using pymatgen
data_Sc7U(ReB6)4
_symmetry_space_group_name_H-M   'P 1'
_cell_length_a   3.54720200
_cell_length_b   8.92016660
_cell_length_c   11.22785426
_cell_angle_alpha   90.14696591
_cell_angle_beta   90.00000000
_cell_angle_gamma   90.00000000
_symmetry_Int_Tables_number   1
_chemical_formula_structural   Sc7U(ReB6)4
_chemical_formula_sum   'Sc7 U1 Re4 B24'
_cell_volume   355.26647310
_cell_formula_units_Z   1
loop_
 _symmetry_equiv_pos_site_id
 _symmetry_equiv_pos_as_xyz
  1  'x, y, z'
loop_
 _atom_site_type_symbol
 _atom_site_label
 _atom_site_symmetry_multiplicity
 _atom_site_fract_x
 _atom_site_fract_y
 _atom_site_fract_z
 _atom_site_occupancy
  Sc  Sc0  1  0.000000  0.682864  0.588528  1
  Sc  Sc1  1  0.000000  0.820994  0.084249  1
  Sc  Sc2  1  0.000000  0.176638  0.913318  1
  Sc  Sc3  1  0.000000  0.943329  0.372723  1
  Sc  Sc4  1  0.000000  0.053348  0.628920  1
  Sc  Sc5  1  0.000000  0.444832  0.126288  1
  Sc  Sc6  1  0.000000  0.556871  0.872120  1
  U  U7  1  0.000000  0.322831  0.414720  1
  Re  Re8  1  0.000000  0.637687  0.320345  1
  Re  Re9  1  0.000000  0.360950  0.678745  1
  Re  Re10  1  0.000000  0.141435  0.180933  1
  Re  Re11  1  0.000000  0.860457  0.820360  1
  B  B12  1  0.500000  0.553063  0.433578  1
  B  B13  1  0.500000  0.445839  0.566523  1
  B  B14  1  0.500000  0.053221  0.064627  1
  B  B15  1  0.500000  0.946577  0.935235  1
  B  B16  1  0.500000  0.753509  0.420618  1
  B  B17  1  0.500000  0.246184  0.580451  1
  B  B18  1  0.500000  0.252421  0.076944  1
  B  B19  1  0.500000  0.747106  0.921602  1
  B  B20  1  0.500000  0.795339  0.263998  1
  B  B21  1  0.500000  0.204963  0.737757  1
  B  B22  1  0.500000  0.294497  0.234155  1
  B  B23  1  0.500000  0.705118  0.764580  1
  B  B24  1  0.500000  0.631089  0.181084  1
  B  B25  1  0.500000  0.370629  0.818179  1
  B  B26  1  0.500000  0.130048  0.317045  1
  B  B27  1  0.500000  0.869671  0.683061  1
  B  B28  1  0.500000  0.979177  0.211330  1
  B  B29  1  0.500000  0.020128  0.788022  1
  B  B30  1  0.500000  0.480561  0.285817  1
  B  B31  1  0.500000  0.520759  0.714277  1
  B  B32  1  0.500000  0.599132  0.026438  1
  B  B33  1  0.500000  0.401548  0.972224  1
  B  B34  1  0.500000  0.098341  0.473177  1
  B  B35  1  0.500000  0.898843  0.528031  1
