# generated using pymatgen
data_Zr6Ta2Al15Ir7
_symmetry_space_group_name_H-M   'P 1'
_cell_length_a   8.85126484
_cell_length_b   8.85126391
_cell_length_c   8.85126400
_cell_angle_alpha   119.91708209
_cell_angle_beta   119.80209505
_cell_angle_gamma   90.24340100
_symmetry_Int_Tables_number   1
_chemical_formula_structural   Zr6Ta2Al15Ir7
_chemical_formula_sum   'Zr6 Ta2 Al15 Ir7'
_cell_volume   491.37931212
_cell_formula_units_Z   1
loop_
 _symmetry_equiv_pos_site_id
 _symmetry_equiv_pos_as_xyz
  1  'x, y, z'
loop_
 _atom_site_type_symbol
 _atom_site_label
 _atom_site_symmetry_multiplicity
 _atom_site_fract_x
 _atom_site_fract_y
 _atom_site_fract_z
 _atom_site_occupancy
  Zr  Zr0  1  0.796770  0.292887  0.080602  1
  Zr  Zr1  1  0.212285  0.292887  0.496117  1
  Zr  Zr2  1  0.205011  0.705011  0.500000  1
  Zr  Zr3  1  0.212285  0.716167  0.919398  1
  Zr  Zr4  1  0.796770  0.716167  0.503883  1
  Zr  Zr5  1  0.784288  0.284288  0.500000  1
  Ta  Ta6  1  0.379528  0.124146  0.744618  1
  Ta  Ta7  1  0.379528  0.634910  0.255382  1
  Al  Al8  1  0.994261  0.494261  0.500000  1
  Al  Al9  1  0.159705  0.335674  0.175968  1
  Al  Al10  1  0.159705  0.983738  0.824032  1
  Al  Al11  1  0.151433  0.340820  0.810612  1
  Al  Al12  1  0.530206  0.340820  0.189388  1
  Al  Al13  1  0.839030  0.657973  0.818944  1
  Al  Al14  1  0.839030  0.020084  0.181056  1
  Al  Al15  1  0.837480  0.660661  0.176819  1
  Al  Al16  1  0.483842  0.660661  0.823181  1
  Al  Al17  1  0.379067  0.121311  0.257755  1
  Al  Al18  1  0.863557  0.121311  0.742245  1
  Al  Al19  1  0.622045  0.878131  0.256085  1
  Al  Al20  1  0.622045  0.365960  0.743915  1
  Al  Al21  1  0.623534  0.878452  0.745083  1
  Al  Al22  1  0.133368  0.878452  0.254917  1
  Ir  Ir23  1  0.004070  0.999354  0.502304  1
  Ir  Ir24  1  0.497050  0.999354  0.995284  1
  Ir  Ir25  1  0.495704  0.495704  0.000000  1
  Ir  Ir26  1  0.497050  0.501766  0.497696  1
  Ir  Ir27  1  0.004070  0.501766  0.004716  1
  Ir  Ir28  1  0.999879  0.999879  0.000000  1
  Ir  Ir29  1  0.497400  0.997400  0.500000  1
