# generated using pymatgen
data_Lu12Co4OsPb
_symmetry_space_group_name_H-M   'P 1'
_cell_length_a   8.10497772
_cell_length_b   8.10497786
_cell_length_c   8.10497718
_cell_angle_alpha   111.76672984
_cell_angle_beta   110.71091080
_cell_angle_gamma   105.99291610
_symmetry_Int_Tables_number   1
_chemical_formula_structural   Lu12Co4OsPb
_chemical_formula_sum   'Lu12 Co4 Os1 Pb1'
_cell_volume   408.69700586
_cell_formula_units_Z   1
loop_
 _symmetry_equiv_pos_site_id
 _symmetry_equiv_pos_as_xyz
  1  'x, y, z'
loop_
 _atom_site_type_symbol
 _atom_site_label
 _atom_site_symmetry_multiplicity
 _atom_site_fract_x
 _atom_site_fract_y
 _atom_site_fract_z
 _atom_site_occupancy
  Lu  Lu0  1  0.417524  0.221226  0.196297  1
  Lu  Lu1  1  0.582476  0.778774  0.803703  1
  Lu  Lu2  1  0.024930  0.221226  0.803703  1
  Lu  Lu3  1  0.975070  0.778774  0.196297  1
  Lu  Lu4  1  0.180750  0.276531  0.457283  1
  Lu  Lu5  1  0.819250  0.723469  0.542717  1
  Lu  Lu6  1  0.180750  0.723469  0.904219  1
  Lu  Lu7  1  0.819250  0.276531  0.095781  1
  Lu  Lu8  1  0.313523  0.621689  0.308166  1
  Lu  Lu9  1  0.686477  0.378311  0.691834  1
  Lu  Lu10  1  0.313523  0.005357  0.691834  1
  Lu  Lu11  1  0.686477  0.994643  0.308166  1
  Co  Co12  1  0.373871  0.000000  0.373871  1
  Co  Co13  1  0.626129  0.000000  0.626129  1
  Co  Co14  1  0.112259  0.612259  0.500000  1
  Co  Co15  1  0.887741  0.387741  0.500000  1
  Os  Os16  1  0.000000  0.000000  0.000000  1
  Pb  Pb17  1  0.500000  0.500000  0.000000  1
