# generated using pymatgen
data_DyEr9In8(CuPt)2
_symmetry_space_group_name_H-M   'P 1'
_cell_length_a   3.61403300
_cell_length_b   8.05906055
_cell_length_c   18.06903093
_cell_angle_alpha   90.04883107
_cell_angle_beta   90.00000000
_cell_angle_gamma   90.00000000
_symmetry_Int_Tables_number   1
_chemical_formula_structural   DyEr9In8(CuPt)2
_chemical_formula_sum   'Dy1 Er9 In8 Cu2 Pt2'
_cell_volume   526.27317783
_cell_formula_units_Z   1
loop_
 _symmetry_equiv_pos_site_id
 _symmetry_equiv_pos_as_xyz
  1  'x, y, z'
loop_
 _atom_site_type_symbol
 _atom_site_label
 _atom_site_symmetry_multiplicity
 _atom_site_fract_x
 _atom_site_fract_y
 _atom_site_fract_z
 _atom_site_occupancy
  Dy  Dy0  1  0.000000  0.000000  0.000000  1
  Er  Er1  1  0.000000  0.117293  0.415291  1
  Er  Er2  1  0.000000  0.882707  0.584709  1
  Er  Er3  1  0.000000  0.383369  0.915488  1
  Er  Er4  1  0.000000  0.616631  0.084512  1
  Er  Er5  1  0.000000  0.246525  0.219670  1
  Er  Er6  1  0.000000  0.753475  0.780330  1
  Er  Er7  1  0.000000  0.260259  0.720313  1
  Er  Er8  1  0.000000  0.739741  0.279687  1
  Er  Er9  1  0.000000  0.500000  0.500000  1
  In  In10  1  0.500000  0.421388  0.352285  1
  In  In11  1  0.500000  0.578612  0.647715  1
  In  In12  1  0.500000  0.074831  0.849515  1
  In  In13  1  0.500000  0.925169  0.150485  1
  In  In14  1  0.500000  0.292467  0.066598  1
  In  In15  1  0.500000  0.707533  0.933402  1
  In  In16  1  0.500000  0.207037  0.567902  1
  In  In17  1  0.500000  0.792963  0.432098  1
  Cu  Cu18  1  0.500000  0.026044  0.302192  1
  Cu  Cu19  1  0.500000  0.973956  0.697808  1
  Pt  Pt20  1  0.500000  0.473431  0.802424  1
  Pt  Pt21  1  0.500000  0.526569  0.197576  1
