# generated using pymatgen
data_Ho10Tl3Cd3(InPd2)2
_symmetry_space_group_name_H-M   'P 1'
_cell_length_a   3.60065500
_cell_length_b   8.12876329
_cell_length_c   18.38292418
_cell_angle_alpha   89.97675918
_cell_angle_beta   90.00000000
_cell_angle_gamma   90.00000000
_symmetry_Int_Tables_number   1
_chemical_formula_structural   Ho10Tl3Cd3(InPd2)2
_chemical_formula_sum   'Ho10 Tl3 Cd3 In2 Pd4'
_cell_volume   538.04741382
_cell_formula_units_Z   1
loop_
 _symmetry_equiv_pos_site_id
 _symmetry_equiv_pos_as_xyz
  1  'x, y, z'
loop_
 _atom_site_type_symbol
 _atom_site_label
 _atom_site_symmetry_multiplicity
 _atom_site_fract_x
 _atom_site_fract_y
 _atom_site_fract_z
 _atom_site_occupancy
  Ho  Ho0  1  0.000000  0.501201  0.499407  1
  Ho  Ho1  1  0.000000  0.999712  0.999829  1
  Ho  Ho2  1  0.000000  0.743050  0.280488  1
  Ho  Ho3  1  0.000000  0.258750  0.720750  1
  Ho  Ho4  1  0.000000  0.756897  0.781803  1
  Ho  Ho5  1  0.000000  0.242935  0.218518  1
  Ho  Ho6  1  0.000000  0.613376  0.084096  1
  Ho  Ho7  1  0.000000  0.386730  0.916829  1
  Ho  Ho8  1  0.000000  0.884580  0.584740  1
  Ho  Ho9  1  0.000000  0.111037  0.413943  1
  Tl  Tl10  1  0.500000  0.208125  0.566327  1
  Tl  Tl11  1  0.500000  0.581534  0.648431  1
  Tl  Tl12  1  0.500000  0.424202  0.352348  1
  Cd  Cd13  1  0.500000  0.711222  0.931987  1
  Cd  Cd14  1  0.500000  0.288741  0.068018  1
  Cd  Cd15  1  0.500000  0.789806  0.432092  1
  In  In16  1  0.500000  0.924101  0.147668  1
  In  In17  1  0.500000  0.076629  0.852161  1
  Pd  Pd18  1  0.500000  0.524619  0.195734  1
  Pd  Pd19  1  0.500000  0.474535  0.804291  1
  Pd  Pd20  1  0.500000  0.976246  0.697637  1
  Pd  Pd21  1  0.500000  0.021972  0.302904  1
