# generated using pymatgen
data_Pa2Be23Ni3
_symmetry_space_group_name_H-M   'P 1'
_cell_length_a   7.24340930
_cell_length_b   7.30822928
_cell_length_c   7.22286618
_cell_angle_alpha   59.79507001
_cell_angle_beta   60.15794904
_cell_angle_gamma   59.51708407
_symmetry_Int_Tables_number   1
_chemical_formula_structural   Pa2Be23Ni3
_chemical_formula_sum   'Pa2 Be23 Ni3'
_cell_volume   269.26358528
_cell_formula_units_Z   1
loop_
 _symmetry_equiv_pos_site_id
 _symmetry_equiv_pos_as_xyz
  1  'x, y, z'
loop_
 _atom_site_type_symbol
 _atom_site_label
 _atom_site_symmetry_multiplicity
 _atom_site_fract_x
 _atom_site_fract_y
 _atom_site_fract_z
 _atom_site_occupancy
  Pa  Pa0  1  0.252368  0.249405  0.245945  1
  Pa  Pa1  1  0.754055  0.747718  0.747632  1
  Be  Be2  1  0.501652  0.506636  0.498348  1
  Be  Be3  1  0.000602  0.998933  0.999398  1
  Be  Be4  1  0.435294  0.207630  0.564706  1
  Be  Be5  1  0.287002  0.937697  0.712998  1
  Be  Be6  1  0.711805  0.067486  0.288195  1
  Be  Be7  1  0.934190  0.280571  0.065810  1
  Be  Be8  1  0.066100  0.716545  0.933900  1
  Be  Be9  1  0.203055  0.797544  0.559866  1
  Be  Be10  1  0.795694  0.200191  0.442971  1
  Be  Be11  1  0.440134  0.560464  0.796945  1
  Be  Be12  1  0.557029  0.438856  0.204306  1
  Be  Be13  1  0.711308  0.286074  0.936569  1
  Be  Be14  1  0.287493  0.713370  0.065102  1
  Be  Be15  1  0.063431  0.933951  0.288692  1
  Be  Be16  1  0.934898  0.065965  0.712507  1
  Be  Be17  1  0.561935  0.203215  0.794662  1
  Be  Be18  1  0.439716  0.795894  0.203363  1
  Be  Be19  1  0.796637  0.438973  0.560284  1
  Be  Be20  1  0.205338  0.559812  0.438065  1
  Be  Be21  1  0.936943  0.710706  0.289150  1
  Be  Be22  1  0.061241  0.288949  0.709762  1
  Be  Be23  1  0.290238  0.059952  0.938759  1
  Be  Be24  1  0.710850  0.936799  0.063057  1
  Ni  Ni25  1  0.806981  0.551277  0.193019  1
  Ni  Ni26  1  0.198009  0.441447  0.801991  1
  Ni  Ni27  1  0.556000  0.803942  0.444000  1
