# generated using pymatgen
data_Yb2Tm2TcRu7
_symmetry_space_group_name_H-M   'P 1'
_cell_length_a   5.18662154
_cell_length_b   5.34473416
_cell_length_c   8.88016567
_cell_angle_alpha   89.99999871
_cell_angle_beta   89.74130631
_cell_angle_gamma   121.01365544
_symmetry_Int_Tables_number   1
_chemical_formula_structural   Yb2Tm2TcRu7
_chemical_formula_sum   'Yb2 Tm2 Tc1 Ru7'
_cell_volume   210.97407661
_cell_formula_units_Z   1
loop_
 _symmetry_equiv_pos_site_id
 _symmetry_equiv_pos_as_xyz
  1  'x, y, z'
loop_
 _atom_site_type_symbol
 _atom_site_label
 _atom_site_symmetry_multiplicity
 _atom_site_fract_x
 _atom_site_fract_y
 _atom_site_fract_z
 _atom_site_occupancy
  Yb  Yb0  1  0.326385  0.663193  0.438497  1
  Yb  Yb1  1  0.657134  0.328567  0.558637  1
  Tm  Tm2  1  0.660762  0.330381  0.930770  1
  Tm  Tm3  1  0.330932  0.665466  0.071600  1
  Tc  Tc4  1  0.672284  0.836142  0.749351  1
  Ru  Ru5  1  0.978538  0.989269  0.500221  1
  Ru  Ru6  1  0.980810  0.990405  0.000928  1
  Ru  Ru7  1  0.835005  0.167719  0.249094  1
  Ru  Ru8  1  0.835005  0.667286  0.249094  1
  Ru  Ru9  1  0.360658  0.180329  0.245972  1
  Ru  Ru10  1  0.181243  0.830412  0.752918  1
  Ru  Ru11  1  0.181243  0.350831  0.752918  1
