# generated using pymatgen
data_Tb4Dy7YNi4
_symmetry_space_group_name_H-M   'P 1'
_cell_length_a   6.35787952
_cell_length_b   6.83773129
_cell_length_c   9.58704300
_cell_angle_alpha   90.04431185
_cell_angle_beta   89.94265675
_cell_angle_gamma   90.12627986
_symmetry_Int_Tables_number   1
_chemical_formula_structural   Tb4Dy7YNi4
_chemical_formula_sum   'Tb4 Dy7 Y1 Ni4'
_cell_volume   416.78069739
_cell_formula_units_Z   1
loop_
 _symmetry_equiv_pos_site_id
 _symmetry_equiv_pos_as_xyz
  1  'x, y, z'
loop_
 _atom_site_type_symbol
 _atom_site_label
 _atom_site_symmetry_multiplicity
 _atom_site_fract_x
 _atom_site_fract_y
 _atom_site_fract_z
 _atom_site_occupancy
  Tb  Tb0  1  0.177585  0.176755  0.066135  1
  Tb  Tb1  1  0.859481  0.534246  0.249854  1
  Tb  Tb2  1  0.640422  0.034487  0.250207  1
  Tb  Tb3  1  0.139764  0.465992  0.750139  1
  Dy  Dy4  1  0.322732  0.677386  0.065979  1
  Dy  Dy5  1  0.177576  0.176998  0.434443  1
  Dy  Dy6  1  0.677936  0.322860  0.565322  1
  Dy  Dy7  1  0.822039  0.823099  0.933761  1
  Dy  Dy8  1  0.677441  0.323254  0.933836  1
  Dy  Dy9  1  0.822585  0.822752  0.565489  1
  Dy  Dy10  1  0.322528  0.677249  0.434519  1
  Y  Y11  1  0.360423  0.966638  0.749856  1
  Ni  Ni12  1  0.056018  0.889657  0.251101  1
  Ni  Ni13  1  0.443503  0.390671  0.250661  1
  Ni  Ni14  1  0.942576  0.109437  0.749128  1
  Ni  Ni15  1  0.557391  0.608519  0.749568  1
