# generated using pymatgen
data_TaTiBe9Mo
_symmetry_space_group_name_H-M   'P 1'
_cell_length_a   7.46471212
_cell_length_b   7.46471214
_cell_length_c   7.46471248
_cell_angle_alpha   35.08433695
_cell_angle_beta   35.08433793
_cell_angle_gamma   35.08432867
_symmetry_Int_Tables_number   1
_chemical_formula_structural   TaTiBe9Mo
_chemical_formula_sum   'Ta1 Ti1 Be9 Mo1'
_cell_volume   122.71591916
_cell_formula_units_Z   1
loop_
 _symmetry_equiv_pos_site_id
 _symmetry_equiv_pos_as_xyz
  1  'x, y, z'
loop_
 _atom_site_type_symbol
 _atom_site_label
 _atom_site_symmetry_multiplicity
 _atom_site_fract_x
 _atom_site_fract_y
 _atom_site_fract_z
 _atom_site_occupancy
  Ta  Ta0  1  0.142924  0.142924  0.142924  1
  Ti  Ti1  1  0.997996  0.997996  0.997996  1
  Be  Be2  1  0.415623  0.921936  0.415623  1
  Be  Be3  1  0.415623  0.415623  0.921936  1
  Be  Be4  1  0.921936  0.415623  0.415623  1
  Be  Be5  1  0.585792  0.075771  0.585792  1
  Be  Be6  1  0.585792  0.585792  0.075771  1
  Be  Be7  1  0.075771  0.585792  0.585792  1
  Be  Be8  1  0.665717  0.665717  0.665717  1
  Be  Be9  1  0.335373  0.335373  0.335373  1
  Be  Be10  1  0.500261  0.500261  0.500261  1
  Mo  Mo11  1  0.857192  0.857192  0.857192  1
