# generated using pymatgen
data_KNdH9W
_symmetry_space_group_name_H-M   'P 1'
_cell_length_a   8.93004400
_cell_length_b   8.93004267
_cell_length_c   5.32782800
_cell_angle_alpha   90.00000000
_cell_angle_beta   90.00000000
_cell_angle_gamma   119.99999753
_symmetry_Int_Tables_number   1
_chemical_formula_structural   KNdH9W
_chemical_formula_sum   'K3 Nd3 H27 W3'
_cell_volume   367.94929161
_cell_formula_units_Z   3
loop_
 _symmetry_equiv_pos_site_id
 _symmetry_equiv_pos_as_xyz
  1  'x, y, z'
loop_
 _atom_site_type_symbol
 _atom_site_label
 _atom_site_symmetry_multiplicity
 _atom_site_fract_x
 _atom_site_fract_y
 _atom_site_fract_z
 _atom_site_occupancy
  K  K0  1  0.000000  0.603504  0.000000  1
  K  K1  1  0.396496  0.396496  0.000000  1
  K  K2  1  0.603504  0.000000  0.000000  1
  Nd  Nd3  1  0.000000  0.263372  0.500000  1
  Nd  Nd4  1  0.736628  0.736628  0.500000  1
  Nd  Nd5  1  0.263372  0.000000  0.500000  1
  H  H6  1  0.807692  0.332005  0.737718  1
  H  H7  1  0.667995  0.475686  0.737718  1
  H  H8  1  0.524314  0.192308  0.737718  1
  H  H9  1  0.192308  0.524314  0.262282  1
  H  H10  1  0.524314  0.192308  0.262282  1
  H  H11  1  0.807692  0.332005  0.262282  1
  H  H12  1  0.667995  0.475686  0.262282  1
  H  H13  1  0.332005  0.807692  0.737718  1
  H  H14  1  0.475686  0.667995  0.737718  1
  H  H15  1  0.200872  0.000000  0.000000  1
  H  H16  1  0.799128  0.799128  0.000000  1
  H  H17  1  0.000000  0.200872  0.000000  1
  H  H18  1  0.856867  0.000000  0.253981  1
  H  H19  1  0.143133  0.143133  0.746019  1
  H  H20  1  0.000000  0.856867  0.746019  1
  H  H21  1  0.000000  0.856867  0.253981  1
  H  H22  1  0.143133  0.143133  0.253981  1
  H  H23  1  0.856867  0.000000  0.746019  1
  H  H24  1  0.139072  0.676021  0.500000  1
  H  H25  1  0.536949  0.860928  0.500000  1
  H  H26  1  0.323979  0.463051  0.500000  1
  H  H27  1  0.463051  0.323979  0.500000  1
  H  H28  1  0.860928  0.536949  0.500000  1
  H  H29  1  0.676021  0.139072  0.500000  1
  H  H30  1  0.192308  0.524314  0.737718  1
  H  H31  1  0.332005  0.807692  0.262282  1
  H  H32  1  0.475686  0.667995  0.262282  1
  W  W33  1  0.666667  0.333333  0.500000  1
  W  W34  1  0.333333  0.666667  0.500000  1
  W  W35  1  0.000000  0.000000  0.000000  1
