# generated using pymatgen
data_Pa5AsSe4
_symmetry_space_group_name_H-M   'P 1'
_cell_length_a   7.05792970
_cell_length_b   7.05793024
_cell_length_c   7.05793034
_cell_angle_alpha   99.59741035
_cell_angle_beta   99.59740738
_cell_angle_gamma   131.80147438
_symmetry_Int_Tables_number   1
_chemical_formula_structural   Pa5AsSe4
_chemical_formula_sum   'Pa5 As1 Se4'
_cell_volume   239.24900048
_cell_formula_units_Z   1
loop_
 _symmetry_equiv_pos_site_id
 _symmetry_equiv_pos_as_xyz
  1  'x, y, z'
loop_
 _atom_site_type_symbol
 _atom_site_label
 _atom_site_symmetry_multiplicity
 _atom_site_fract_x
 _atom_site_fract_y
 _atom_site_fract_z
 _atom_site_occupancy
  Pa  Pa0  1  0.400422  0.800021  0.200443  1
  Pa  Pa1  1  0.000000  0.000000  0.000000  1
  Pa  Pa2  1  0.599578  0.199979  0.799557  1
  Pa  Pa3  1  0.199979  0.400422  0.600402  1
  Pa  Pa4  1  0.800021  0.599578  0.399598  1
  As  As5  1  0.500000  0.500000  0.000000  1
  Se  Se6  1  0.100199  0.700399  0.800598  1
  Se  Se7  1  0.700399  0.899801  0.600200  1
  Se  Se8  1  0.299601  0.100199  0.399800  1
  Se  Se9  1  0.899801  0.299601  0.199402  1
