# generated using pymatgen
data_DyErCd2(Ga3Ni)2
_symmetry_space_group_name_H-M   'P 1'
_cell_length_a   4.20334538
_cell_length_b   6.55344700
_cell_length_c   8.08802710
_cell_angle_alpha   90.00000000
_cell_angle_beta   105.06115314
_cell_angle_gamma   90.00000000
_symmetry_Int_Tables_number   1
_chemical_formula_structural   DyErCd2(Ga3Ni)2
_chemical_formula_sum   'Dy1 Er1 Cd2 Ga6 Ni2'
_cell_volume   215.14277981
_cell_formula_units_Z   1
loop_
 _symmetry_equiv_pos_site_id
 _symmetry_equiv_pos_as_xyz
  1  'x, y, z'
loop_
 _atom_site_type_symbol
 _atom_site_label
 _atom_site_symmetry_multiplicity
 _atom_site_fract_x
 _atom_site_fract_y
 _atom_site_fract_z
 _atom_site_occupancy
  Dy  Dy0  1  0.627467  0.250000  0.254933  1
  Er  Er1  1  0.372229  0.750000  0.744459  1
  Cd  Cd2  1  0.999662  0.500650  0.999324  1
  Cd  Cd3  1  0.999662  0.999350  0.999324  1
  Ga  Ga4  1  0.571180  0.750000  0.142361  1
  Ga  Ga5  1  0.428700  0.250000  0.857397  1
  Ga  Ga6  1  0.187156  0.550302  0.374311  1
  Ga  Ga7  1  0.813261  0.450330  0.626522  1
  Ga  Ga8  1  0.187156  0.949698  0.374311  1
  Ga  Ga9  1  0.813261  0.049670  0.626522  1
  Ni  Ni10  1  0.722383  0.750000  0.444765  1
  Ni  Ni11  1  0.277884  0.250000  0.555769  1
