# generated using pymatgen
data_Hf3U(ZnCo2)2
_symmetry_space_group_name_H-M   'P 1'
_cell_length_a   6.94030813
_cell_length_b   6.94030890
_cell_length_c   3.30168600
_cell_angle_alpha   90.00000000
_cell_angle_beta   90.00000000
_cell_angle_gamma   92.74563384
_symmetry_Int_Tables_number   1
_chemical_formula_structural   Hf3U(ZnCo2)2
_chemical_formula_sum   'Hf3 U1 Zn2 Co4'
_cell_volume   158.85265646
_cell_formula_units_Z   1
loop_
 _symmetry_equiv_pos_site_id
 _symmetry_equiv_pos_as_xyz
  1  'x, y, z'
loop_
 _atom_site_type_symbol
 _atom_site_label
 _atom_site_symmetry_multiplicity
 _atom_site_fract_x
 _atom_site_fract_y
 _atom_site_fract_z
 _atom_site_occupancy
  Hf  Hf0  1  0.324451  0.824451  0.500000  1
  Hf  Hf1  1  0.831679  0.673580  0.500000  1
  Hf  Hf2  1  0.173580  0.331679  0.500000  1
  U  U3  1  0.670136  0.170136  0.500000  1
  Zn  Zn4  1  0.013451  0.995060  0.000000  1
  Zn  Zn5  1  0.495060  0.513451  0.000000  1
  Co  Co6  1  0.385688  0.136214  0.000000  1
  Co  Co7  1  0.852238  0.352238  0.000000  1
  Co  Co8  1  0.117501  0.617501  0.000000  1
  Co  Co9  1  0.636214  0.885688  0.000000  1
