# generated using pymatgen
data_LiDy7TmInRh2
_symmetry_space_group_name_H-M   'P 1'
_cell_length_a   9.63163148
_cell_length_b   9.67947715
_cell_length_c   9.63681723
_cell_angle_alpha   59.85344860
_cell_angle_beta   59.98492059
_cell_angle_gamma   59.83553501
_symmetry_Int_Tables_number   1
_chemical_formula_structural   LiDy7TmInRh2
_chemical_formula_sum   'Li2 Dy14 Tm2 In2 Rh4'
_cell_volume   633.71831036
_cell_formula_units_Z   2
loop_
 _symmetry_equiv_pos_site_id
 _symmetry_equiv_pos_as_xyz
  1  'x, y, z'
loop_
 _atom_site_type_symbol
 _atom_site_label
 _atom_site_symmetry_multiplicity
 _atom_site_fract_x
 _atom_site_fract_y
 _atom_site_fract_z
 _atom_site_occupancy
  Li  Li0  1  0.924720  0.927393  0.220495  1
  Li  Li1  1  0.220424  0.927345  0.924888  1
  Dy  Dy2  1  0.317467  0.683034  0.316465  1
  Dy  Dy3  1  0.936155  0.936041  0.563250  1
  Dy  Dy4  1  0.147689  0.151712  0.548887  1
  Dy  Dy5  1  0.562220  0.938271  0.561239  1
  Dy  Dy6  1  0.150926  0.155547  0.151841  1
  Dy  Dy7  1  0.313073  0.311574  0.688756  1
  Dy  Dy8  1  0.936155  0.564555  0.563250  1
  Dy  Dy9  1  0.563514  0.564054  0.937053  1
  Dy  Dy10  1  0.563514  0.935379  0.937053  1
  Dy  Dy11  1  0.934610  0.564700  0.935990  1
  Dy  Dy12  1  0.150926  0.541684  0.151841  1
  Dy  Dy13  1  0.313073  0.686597  0.688756  1
  Dy  Dy14  1  0.692396  0.308238  0.691127  1
  Dy  Dy15  1  0.549827  0.150875  0.148422  1
  Tm  Tm16  1  0.688977  0.312586  0.312526  1
  Tm  Tm17  1  0.688977  0.685911  0.312526  1
  In  In18  1  0.920608  0.244728  0.920767  1
  In  In19  1  0.920608  0.913898  0.920767  1
  Rh  Rh20  1  0.359795  0.355426  0.358854  1
  Rh  Rh21  1  0.925437  0.357757  0.359051  1
  Rh  Rh22  1  0.359116  0.356770  0.927346  1
  Rh  Rh23  1  0.359795  0.925927  0.358854  1
