# generated using pymatgen
data_Pr6Nd10MgIn3Ir4
_symmetry_space_group_name_H-M   'P 1'
_cell_length_a   10.00405042
_cell_length_b   10.03366842
_cell_length_c   10.03366900
_cell_angle_alpha   60.00000139
_cell_angle_beta   59.90201709
_cell_angle_gamma   59.90201700
_symmetry_Int_Tables_number   1
_chemical_formula_structural   Pr6Nd10MgIn3Ir4
_chemical_formula_sum   'Pr6 Nd10 Mg1 In3 Ir4'
_cell_volume   711.10807166
_cell_formula_units_Z   1
loop_
 _symmetry_equiv_pos_site_id
 _symmetry_equiv_pos_as_xyz
  1  'x, y, z'
loop_
 _atom_site_type_symbol
 _atom_site_label
 _atom_site_symmetry_multiplicity
 _atom_site_fract_x
 _atom_site_fract_y
 _atom_site_fract_z
 _atom_site_occupancy
  Pr  Pr0  1  0.937044  0.561666  0.561666  1
  Pr  Pr1  1  0.560988  0.939959  0.939959  1
  Pr  Pr2  1  0.560988  0.939959  0.559093  1
  Pr  Pr3  1  0.937044  0.561666  0.939624  1
  Pr  Pr4  1  0.560988  0.559093  0.939959  1
  Pr  Pr5  1  0.937044  0.939624  0.561666  1
  Nd  Nd6  1  0.347933  0.346777  0.346777  1
  Nd  Nd7  1  0.347933  0.346777  0.958513  1
  Nd  Nd8  1  0.347933  0.958513  0.346777  1
  Nd  Nd9  1  0.957030  0.347657  0.347657  1
  Nd  Nd10  1  0.807623  0.192533  0.192533  1
  Nd  Nd11  1  0.189949  0.809960  0.809960  1
  Nd  Nd12  1  0.189949  0.809960  0.190132  1
  Nd  Nd13  1  0.807623  0.192533  0.807311  1
  Nd  Nd14  1  0.189949  0.190132  0.809960  1
  Nd  Nd15  1  0.807623  0.807311  0.192533  1
  Mg  Mg16  1  0.272186  0.575938  0.575938  1
  In  In17  1  0.579621  0.580669  0.580669  1
  In  In18  1  0.579621  0.580669  0.259042  1
  In  In19  1  0.579621  0.259042  0.580669  1
  Ir  Ir20  1  0.141586  0.140865  0.140865  1
  Ir  Ir21  1  0.141586  0.140865  0.576682  1
  Ir  Ir22  1  0.141586  0.576682  0.140865  1
  Ir  Ir23  1  0.576557  0.141148  0.141148  1
