# generated using pymatgen
data_LiU6TaSb10
_symmetry_space_group_name_H-M   'P 1'
_cell_length_a   9.16157700
_cell_length_b   9.16157602
_cell_length_c   6.15697700
_cell_angle_alpha   90.00000000
_cell_angle_beta   90.00000000
_cell_angle_gamma   120.00000715
_symmetry_Int_Tables_number   1
_chemical_formula_structural   LiU6TaSb10
_chemical_formula_sum   'Li1 U6 Ta1 Sb10'
_cell_volume   447.54690413
_cell_formula_units_Z   1
loop_
 _symmetry_equiv_pos_site_id
 _symmetry_equiv_pos_as_xyz
  1  'x, y, z'
loop_
 _atom_site_type_symbol
 _atom_site_label
 _atom_site_symmetry_multiplicity
 _atom_site_fract_x
 _atom_site_fract_y
 _atom_site_fract_z
 _atom_site_occupancy
  Li  Li0  1  0.000000  0.000000  0.500000  1
  U  U1  1  0.613957  0.000000  0.752010  1
  U  U2  1  0.386043  0.000000  0.247990  1
  U  U3  1  0.000000  0.613957  0.752010  1
  U  U4  1  0.000000  0.386043  0.247990  1
  U  U5  1  0.386043  0.386043  0.752010  1
  U  U6  1  0.613957  0.613957  0.247990  1
  Ta  Ta7  1  0.000000  0.000000  0.000000  1
  Sb  Sb8  1  0.262540  0.000000  0.748751  1
  Sb  Sb9  1  0.737460  0.000000  0.251249  1
  Sb  Sb10  1  0.000000  0.262540  0.748751  1
  Sb  Sb11  1  0.000000  0.737460  0.251249  1
  Sb  Sb12  1  0.737460  0.737460  0.748751  1
  Sb  Sb13  1  0.262540  0.262540  0.251249  1
  Sb  Sb14  1  0.333333  0.666667  0.500000  1
  Sb  Sb15  1  0.666667  0.333333  0.500000  1
  Sb  Sb16  1  0.666667  0.333333  0.000000  1
  Sb  Sb17  1  0.333333  0.666667  0.000000  1
