# generated using pymatgen
data_Tb3Dy4HoAu4
_symmetry_space_group_name_H-M   'P 1'
_cell_length_a   4.95801400
_cell_length_b   7.13900923
_cell_length_c   8.98275331
_cell_angle_alpha   90.06956056
_cell_angle_beta   90.00000000
_cell_angle_gamma   90.00000000
_symmetry_Int_Tables_number   1
_chemical_formula_structural   Tb3Dy4HoAu4
_chemical_formula_sum   'Tb3 Dy4 Ho1 Au4'
_cell_volume   317.94708313
_cell_formula_units_Z   1
loop_
 _symmetry_equiv_pos_site_id
 _symmetry_equiv_pos_as_xyz
  1  'x, y, z'
loop_
 _atom_site_type_symbol
 _atom_site_label
 _atom_site_symmetry_multiplicity
 _atom_site_fract_x
 _atom_site_fract_y
 _atom_site_fract_z
 _atom_site_occupancy
  Tb  Tb0  1  0.250000  0.487139  0.176638  1
  Tb  Tb1  1  0.750000  0.513444  0.823397  1
  Tb  Tb2  1  0.750000  0.012937  0.676633  1
  Dy  Dy3  1  0.250000  0.986842  0.323356  1
  Dy  Dy4  1  0.750000  0.648758  0.419235  1
  Dy  Dy5  1  0.250000  0.351329  0.580770  1
  Dy  Dy6  1  0.750000  0.148545  0.080649  1
  Ho  Ho7  1  0.250000  0.851473  0.919475  1
  Au  Au8  1  0.250000  0.256706  0.900867  1
  Au  Au9  1  0.750000  0.742854  0.098763  1
  Au  Au10  1  0.250000  0.757653  0.599421  1
  Au  Au11  1  0.750000  0.242322  0.400795  1
