# generated using pymatgen
data_ScBi2SbF14
_symmetry_space_group_name_H-M   'P 1'
_cell_length_a   5.65660099
_cell_length_b   8.97386462
_cell_length_c   12.13704900
_cell_angle_alpha   63.19848361
_cell_angle_beta   91.00374527
_cell_angle_gamma   89.36672118
_symmetry_Int_Tables_number   1
_chemical_formula_structural   ScBi2SbF14
_chemical_formula_sum   'Sc2 Bi4 Sb2 F28'
_cell_volume   549.70254764
_cell_formula_units_Z   2
loop_
 _symmetry_equiv_pos_site_id
 _symmetry_equiv_pos_as_xyz
  1  'x, y, z'
loop_
 _atom_site_type_symbol
 _atom_site_label
 _atom_site_symmetry_multiplicity
 _atom_site_fract_x
 _atom_site_fract_y
 _atom_site_fract_z
 _atom_site_occupancy
  Sc  Sc0  1  0.759382  0.722260  0.047120  1
  Sc  Sc1  1  0.240618  0.277740  0.952880  1
  Bi  Bi2  1  0.266265  0.829035  0.240643  1
  Bi  Bi3  1  0.733735  0.170965  0.759357  1
  Bi  Bi4  1  0.758208  0.200432  0.211861  1
  Bi  Bi5  1  0.241792  0.799568  0.788139  1
  Sb  Sb6  1  0.255818  0.271690  0.457378  1
  Sb  Sb7  1  0.744182  0.728310  0.542622  1
  F  F8  1  0.919723  0.704099  0.418943  1
  F  F9  1  0.080277  0.295901  0.581057  1
  F  F10  1  0.433816  0.295873  0.087445  1
  F  F11  1  0.566184  0.704127  0.912555  1
  F  F12  1  0.461257  0.715524  0.136276  1
  F  F13  1  0.538743  0.284476  0.863724  1
  F  F14  1  0.964480  0.272980  0.374555  1
  F  F15  1  0.035520  0.727020  0.625445  1
  F  F16  1  0.937437  0.749711  0.181029  1
  F  F17  1  0.062563  0.250289  0.818971  1
  F  F18  1  0.426693  0.257019  0.327431  1
  F  F19  1  0.573307  0.742981  0.672569  1
  F  F20  1  0.806551  0.477295  0.142108  1
  F  F21  1  0.193449  0.522705  0.857892  1
  F  F22  1  0.270961  0.509141  0.367278  1
  F  F23  1  0.729039  0.490859  0.632722  1
  F  F24  1  0.922586  0.272881  0.034792  1
  F  F25  1  0.077414  0.727119  0.965208  1
  F  F26  1  0.448260  0.726051  0.463326  1
  F  F27  1  0.551740  0.273949  0.536674  1
  F  F28  1  0.742108  0.966839  0.455158  1
  F  F29  1  0.257892  0.033161  0.544842  1
  F  F30  1  0.238750  0.022232  0.049886  1
  F  F31  1  0.761250  0.977768  0.950114  1
  F  F32  1  0.611556  0.965191  0.218660  1
  F  F33  1  0.388444  0.034809  0.781340  1
  F  F34  1  0.102647  0.043440  0.264367  1
  F  F35  1  0.897353  0.956560  0.735633  1
