# generated using pymatgen
data_Ba4CdP3Pt4
_symmetry_space_group_name_H-M   'P 1'
_cell_length_a   6.77623373
_cell_length_b   6.77623369
_cell_length_c   6.77623400
_cell_angle_alpha   90.67175480
_cell_angle_beta   89.32824521
_cell_angle_gamma   90.67175498
_symmetry_Int_Tables_number   1
_chemical_formula_structural   Ba4CdP3Pt4
_chemical_formula_sum   'Ba4 Cd1 P3 Pt4'
_cell_volume   311.08300499
_cell_formula_units_Z   1
loop_
 _symmetry_equiv_pos_site_id
 _symmetry_equiv_pos_as_xyz
  1  'x, y, z'
loop_
 _atom_site_type_symbol
 _atom_site_label
 _atom_site_symmetry_multiplicity
 _atom_site_fract_x
 _atom_site_fract_y
 _atom_site_fract_z
 _atom_site_occupancy
  Ba  Ba0  1  0.635055  0.384918  0.867125  1
  Ba  Ba1  1  0.367125  0.864945  0.615082  1
  Ba  Ba2  1  0.115082  0.132875  0.135055  1
  Ba  Ba3  1  0.871817  0.628183  0.371817  1
  Cd  Cd4  1  0.586822  0.913178  0.086822  1
  P  P5  1  0.085459  0.580451  0.908270  1
  P  P6  1  0.919549  0.091730  0.585459  1
  P  P7  1  0.408270  0.414541  0.419549  1
  Pt  Pt8  1  0.153852  0.346148  0.653852  1
  Pt  Pt9  1  0.663392  0.188943  0.382522  1
  Pt  Pt10  1  0.882522  0.836608  0.811057  1
  Pt  Pt11  1  0.311057  0.617478  0.163392  1
