# generated using pymatgen
data_Ho3ScTl5
_symmetry_space_group_name_H-M   'P 1'
_cell_length_a   8.40423283
_cell_length_b   8.40423392
_cell_length_c   8.40423053
_cell_angle_alpha   66.23486935
_cell_angle_beta   66.23488390
_cell_angle_gamma   66.23485859
_symmetry_Int_Tables_number   1
_chemical_formula_structural   Ho3ScTl5
_chemical_formula_sum   'Ho6 Sc2 Tl10'
_cell_volume   476.24785304
_cell_formula_units_Z   2
loop_
 _symmetry_equiv_pos_site_id
 _symmetry_equiv_pos_as_xyz
  1  'x, y, z'
loop_
 _atom_site_type_symbol
 _atom_site_label
 _atom_site_symmetry_multiplicity
 _atom_site_fract_x
 _atom_site_fract_y
 _atom_site_fract_z
 _atom_site_occupancy
  Ho  Ho0  1  0.892741  0.186036  0.620536  1
  Ho  Ho1  1  0.620536  0.892741  0.186036  1
  Ho  Ho2  1  0.186036  0.620536  0.892741  1
  Ho  Ho3  1  0.107259  0.813964  0.379464  1
  Ho  Ho4  1  0.379464  0.107259  0.813964  1
  Ho  Ho5  1  0.813964  0.379464  0.107259  1
  Sc  Sc6  1  0.656696  0.656696  0.656696  1
  Sc  Sc7  1  0.343304  0.343304  0.343304  1
  Tl  Tl8  1  0.000000  0.000000  0.000000  1
  Tl  Tl9  1  0.500000  0.500000  0.500000  1
  Tl  Tl10  1  0.811899  0.811899  0.811899  1
  Tl  Tl11  1  0.188101  0.188101  0.188101  1
  Tl  Tl12  1  0.944433  0.566506  0.304543  1
  Tl  Tl13  1  0.304543  0.944433  0.566506  1
  Tl  Tl14  1  0.566506  0.304543  0.944433  1
  Tl  Tl15  1  0.055567  0.433494  0.695457  1
  Tl  Tl16  1  0.695457  0.055567  0.433494  1
  Tl  Tl17  1  0.433494  0.695457  0.055567  1
