# generated using pymatgen
data_Dy4Sc6Sn5Sb3
_symmetry_space_group_name_H-M   'P 1'
_cell_length_a   7.81770988
_cell_length_b   7.85010824
_cell_length_c   14.74181777
_cell_angle_alpha   89.98545742
_cell_angle_beta   89.63305048
_cell_angle_gamma   90.10068287
_symmetry_Int_Tables_number   1
_chemical_formula_structural   Dy4Sc6Sn5Sb3
_chemical_formula_sum   'Dy8 Sc12 Sn10 Sb6'
_cell_volume   904.68343937
_cell_formula_units_Z   2
loop_
 _symmetry_equiv_pos_site_id
 _symmetry_equiv_pos_as_xyz
  1  'x, y, z'
loop_
 _atom_site_type_symbol
 _atom_site_label
 _atom_site_symmetry_multiplicity
 _atom_site_fract_x
 _atom_site_fract_y
 _atom_site_fract_z
 _atom_site_occupancy
  Dy  Dy0  1  0.984903  0.178353  0.093402  1
  Dy  Dy1  1  0.015097  0.821647  0.906598  1
  Dy  Dy2  1  0.518073  0.678571  0.903719  1
  Dy  Dy3  1  0.020030  0.819799  0.596100  1
  Dy  Dy4  1  0.481927  0.321429  0.096281  1
  Dy  Dy5  1  0.979970  0.180201  0.403900  1
  Dy  Dy6  1  0.480517  0.318567  0.403911  1
  Dy  Dy7  1  0.519483  0.681433  0.596089  1
  Sc  Sc8  1  0.178994  0.494720  0.750530  1
  Sc  Sc9  1  0.821006  0.505280  0.249470  1
  Sc  Sc10  1  0.321127  0.996070  0.249836  1
  Sc  Sc11  1  0.678873  0.003930  0.750164  1
  Sc  Sc12  1  0.354195  0.155303  0.626059  1
  Sc  Sc13  1  0.645805  0.844697  0.373941  1
  Sc  Sc14  1  0.143570  0.655807  0.374744  1
  Sc  Sc15  1  0.648078  0.841142  0.128530  1
  Sc  Sc16  1  0.856430  0.344193  0.625256  1
  Sc  Sc17  1  0.351922  0.158858  0.871470  1
  Sc  Sc18  1  0.850923  0.341752  0.874350  1
  Sc  Sc19  1  0.149077  0.658248  0.125650  1
  Sn  Sn20  1  0.042742  0.124967  0.749386  1
  Sn  Sn21  1  0.957258  0.875033  0.250614  1
  Sn  Sn22  1  0.454060  0.624624  0.252060  1
  Sn  Sn23  1  0.545940  0.375376  0.747940  1
  Sn  Sn24  1  0.319281  0.848927  0.750352  1
  Sn  Sn25  1  0.680719  0.151073  0.249648  1
  Sn  Sn26  1  0.177657  0.350026  0.249806  1
  Sn  Sn27  1  0.822343  0.649974  0.750194  1
  Sn  Sn28  1  0.690692  0.043324  0.957524  1
  Sn  Sn29  1  0.309308  0.956676  0.042476  1
  Sb  Sb30  1  0.204012  0.455406  0.543511  1
  Sb  Sb31  1  0.795988  0.544594  0.456489  1
  Sb  Sb32  1  0.296671  0.955810  0.456348  1
  Sb  Sb33  1  0.798595  0.543926  0.043706  1
  Sb  Sb34  1  0.703329  0.044190  0.543652  1
  Sb  Sb35  1  0.201405  0.456074  0.956294  1
