# generated using pymatgen
data_Rb4Li2HoScSb4
_symmetry_space_group_name_H-M   'P 1'
_cell_length_a   9.78933618
_cell_length_b   9.78930146
_cell_length_c   9.78950940
_cell_angle_alpha   136.92944871
_cell_angle_beta   62.93344487
_cell_angle_gamma   136.42969186
_symmetry_Int_Tables_number   1
_chemical_formula_structural   Rb4Li2HoScSb4
_chemical_formula_sum   'Rb4 Li2 Ho1 Sc1 Sb4'
_cell_volume   436.03622808
_cell_formula_units_Z   1
loop_
 _symmetry_equiv_pos_site_id
 _symmetry_equiv_pos_as_xyz
  1  'x, y, z'
loop_
 _atom_site_type_symbol
 _atom_site_label
 _atom_site_symmetry_multiplicity
 _atom_site_fract_x
 _atom_site_fract_y
 _atom_site_fract_z
 _atom_site_occupancy
  Rb  Rb0  1  0.822205  0.270156  0.095690  1
  Rb  Rb1  1  0.677773  0.773529  0.447979  1
  Rb  Rb2  1  0.325530  0.229791  0.552026  1
  Rb  Rb3  1  0.174493  0.726523  0.904256  1
  Li  Li4  1  0.749990  0.250005  0.499984  1
  Li  Li5  1  0.249989  0.750005  0.499982  1
  Ho  Ho6  1  0.749927  0.749970  0.999982  1
  Sc  Sc7  1  0.250050  0.249978  0.000089  1
  Sb  Sb8  1  0.398302  0.734074  0.151035  1
  Sb  Sb9  1  0.101689  0.252746  0.335806  1
  Sb  Sb10  1  0.916970  0.765932  0.664218  1
  Sb  Sb11  1  0.583084  0.247295  0.848954  1
