# generated using pymatgen
data_Er3Sc9GaNi4Sn
_symmetry_space_group_name_H-M   'P 1'
_cell_length_a   7.92421586
_cell_length_b   7.92393385
_cell_length_c   7.92015532
_cell_angle_alpha   111.53275232
_cell_angle_beta   110.52354377
_cell_angle_gamma   106.42310525
_symmetry_Int_Tables_number   1
_chemical_formula_structural   Er3Sc9GaNi4Sn
_chemical_formula_sum   'Er3 Sc9 Ga1 Ni4 Sn1'
_cell_volume   381.88878155
_cell_formula_units_Z   1
loop_
 _symmetry_equiv_pos_site_id
 _symmetry_equiv_pos_as_xyz
  1  'x, y, z'
loop_
 _atom_site_type_symbol
 _atom_site_label
 _atom_site_symmetry_multiplicity
 _atom_site_fract_x
 _atom_site_fract_y
 _atom_site_fract_z
 _atom_site_occupancy
  Er  Er0  1  0.815697  0.788098  0.603817  1
  Er  Er1  1  0.186770  0.211639  0.398449  1
  Er  Er2  1  0.814762  0.212089  0.026902  1
  Sc  Sc3  1  0.322717  0.128954  0.806418  1
  Sc  Sc4  1  0.677489  0.483749  0.806438  1
  Sc  Sc5  1  0.425277  0.728308  0.702385  1
  Sc  Sc6  1  0.568824  0.267814  0.295599  1
  Sc  Sc7  1  0.974074  0.277123  0.702397  1
  Sc  Sc8  1  0.027778  0.726765  0.295576  1
  Sc  Sc9  1  0.323220  0.518565  0.191546  1
  Sc  Sc10  1  0.673008  0.868322  0.191517  1
  Sc  Sc11  1  0.186388  0.786872  0.973236  1
  Ga  Ga12  1  0.000499  0.503953  0.504463  1
  Ni  Ni13  1  0.871278  0.866226  0.000520  1
  Ni  Ni14  1  0.134363  0.129326  0.000596  1
  Ni  Ni15  1  0.646929  0.500031  0.146992  1
  Ni  Ni16  1  0.351353  0.502563  0.853982  1
  Sn  Sn17  1  0.499575  0.999603  0.499165  1
