# generated using pymatgen
data_Gd3Y(NCl3)2
_symmetry_space_group_name_H-M   'P 1'
_cell_length_a   9.35942054
_cell_length_b   9.35941983
_cell_length_c   11.48301100
_cell_angle_alpha   124.92889551
_cell_angle_beta   124.92889248
_cell_angle_gamma   23.68057089
_symmetry_Int_Tables_number   1
_chemical_formula_structural   Gd3Y(NCl3)2
_chemical_formula_sum   'Gd3 Y1 N2 Cl6'
_cell_volume   327.66034077
_cell_formula_units_Z   1
loop_
 _symmetry_equiv_pos_site_id
 _symmetry_equiv_pos_as_xyz
  1  'x, y, z'
loop_
 _atom_site_type_symbol
 _atom_site_label
 _atom_site_symmetry_multiplicity
 _atom_site_fract_x
 _atom_site_fract_y
 _atom_site_fract_z
 _atom_site_occupancy
  Gd  Gd0  1  0.423905  0.423905  0.040678  1
  Gd  Gd1  1  0.138465  0.138465  0.291872  1
  Gd  Gd2  1  0.861716  0.861716  0.707831  1
  Y  Y3  1  0.574952  0.574952  0.960029  1
  N  N4  1  0.575360  0.575360  0.155741  1
  N  N5  1  0.424360  0.424360  0.844340  1
  Cl  Cl6  1  0.205551  0.205551  0.114538  1
  Cl  Cl7  1  0.967346  0.967346  0.246003  1
  Cl  Cl8  1  0.327662  0.327662  0.490765  1
  Cl  Cl9  1  0.673542  0.673542  0.508145  1
  Cl  Cl10  1  0.034777  0.034777  0.758884  1
  Cl  Cl11  1  0.792363  0.792363  0.881173  1
