# generated using pymatgen
data_SmThPPt8
_symmetry_space_group_name_H-M   'P 1'
_cell_length_a   9.15729010
_cell_length_b   9.20206205
_cell_length_c   4.31757300
_cell_angle_alpha   90.00000000
_cell_angle_beta   90.00000000
_cell_angle_gamma   145.63025367
_symmetry_Int_Tables_number   1
_chemical_formula_structural   SmThPPt8
_chemical_formula_sum   'Sm1 Th1 P1 Pt8'
_cell_volume   205.39023961
_cell_formula_units_Z   1
loop_
 _symmetry_equiv_pos_site_id
 _symmetry_equiv_pos_as_xyz
  1  'x, y, z'
loop_
 _atom_site_type_symbol
 _atom_site_label
 _atom_site_symmetry_multiplicity
 _atom_site_fract_x
 _atom_site_fract_y
 _atom_site_fract_z
 _atom_site_occupancy
  Sm  Sm0  1  0.620305  0.373319  0.500000  1
  Th  Th1  1  0.372812  0.623876  0.500000  1
  P  P2  1  0.224419  0.220240  0.000000  1
  Pt  Pt3  1  0.108564  0.887499  0.000000  1
  Pt  Pt4  1  0.893545  0.112546  0.000000  1
  Pt  Pt5  1  0.488798  0.977560  0.000000  1
  Pt  Pt6  1  0.985214  0.489547  0.000000  1
  Pt  Pt7  1  0.195087  0.794236  0.500000  1
  Pt  Pt8  1  0.793912  0.197755  0.500000  1
  Pt  Pt9  1  0.000833  0.002218  0.500000  1
  Pt  Pt10  1  0.630108  0.634803  0.000000  1
