# generated using pymatgen
data_Cs2SmY5(CBr6)2
_symmetry_space_group_name_H-M   'P 1'
_cell_length_a   8.88508175
_cell_length_b   8.91770324
_cell_length_c   9.49205953
_cell_angle_alpha   70.98985994
_cell_angle_beta   84.91926534
_cell_angle_gamma   89.20362076
_symmetry_Int_Tables_number   1
_chemical_formula_structural   Cs2SmY5(CBr6)2
_chemical_formula_sum   'Cs2 Sm1 Y5 C2 Br12'
_cell_volume   708.19690992
_cell_formula_units_Z   1
loop_
 _symmetry_equiv_pos_site_id
 _symmetry_equiv_pos_as_xyz
  1  'x, y, z'
loop_
 _atom_site_type_symbol
 _atom_site_label
 _atom_site_symmetry_multiplicity
 _atom_site_fract_x
 _atom_site_fract_y
 _atom_site_fract_z
 _atom_site_occupancy
  Cs  Cs0  1  0.467228  0.365605  0.330889  1
  Cs  Cs1  1  0.532583  0.634532  0.669056  1
  Sm  Sm2  1  0.914944  0.740862  0.004449  1
  Y  Y3  1  0.084458  0.255702  0.994987  1
  Y  Y4  1  0.744267  0.085476  0.001034  1
  Y  Y5  1  0.255729  0.913868  0.999005  1
  Y  Y6  1  0.973325  0.887207  0.324016  1
  Y  Y7  1  0.026850  0.113758  0.675858  1
  C  C8  1  0.006924  0.028250  0.920794  1
  C  C9  1  0.994241  0.975065  0.078978  1
  Br  Br10  1  0.074829  0.196243  0.328629  1
  Br  Br11  1  0.925584  0.805522  0.667770  1
  Br  Br12  1  0.208895  0.591637  0.000696  1
  Br  Br13  1  0.796243  0.404745  0.999013  1
  Br  Br14  1  0.402271  0.199148  0.001800  1
  Br  Br15  1  0.592873  0.802814  0.998250  1
  Br  Br16  1  0.668088  0.001501  0.324864  1
  Br  Br17  1  0.331622  0.998846  0.674804  1
  Br  Br18  1  0.279126  0.776938  0.321623  1
  Br  Br19  1  0.720631  0.222898  0.678688  1
  Br  Br20  1  0.851510  0.590237  0.330738  1
  Br  Br21  1  0.147777  0.409146  0.674057  1
