# generated using pymatgen
data_Fe3P2Pb3WO14
_symmetry_space_group_name_H-M   'P 1'
_cell_length_a   8.55843801
_cell_length_b   8.55868798
_cell_length_c   10.68143701
_cell_angle_alpha   89.99990159
_cell_angle_beta   89.99814817
_cell_angle_gamma   119.99907217
_symmetry_Int_Tables_number   1
_chemical_formula_structural   Fe3P2Pb3WO14
_chemical_formula_sum   'Fe6 P4 Pb6 W2 O28'
_cell_volume   677.58858081
_cell_formula_units_Z   2
loop_
 _symmetry_equiv_pos_site_id
 _symmetry_equiv_pos_as_xyz
  1  'x, y, z'
loop_
 _atom_site_type_symbol
 _atom_site_label
 _atom_site_symmetry_multiplicity
 _atom_site_fract_x
 _atom_site_fract_y
 _atom_site_fract_z
 _atom_site_occupancy
  Fe  Fe0  1  0.249037  0.999971  0.749941  1
  Fe  Fe1  1  0.000054  0.249064  0.249962  1
  Fe  Fe2  1  0.999995  0.249141  0.750044  1
  Fe  Fe3  1  0.750835  0.750848  0.249970  1
  Fe  Fe4  1  0.750932  0.750898  0.750004  1
  Fe  Fe5  1  0.249096  0.999963  0.250044  1
  P  P6  1  0.333343  0.666669  0.279826  1
  P  P7  1  0.333362  0.666696  0.779796  1
  P  P8  1  0.666671  0.333326  0.220226  1
  P  P9  1  0.666650  0.333329  0.720200  1
  Pb  Pb10  1  0.402810  0.402738  0.999837  1
  Pb  Pb11  1  0.402771  0.402814  0.500162  1
  Pb  Pb12  1  0.597204  0.000006  0.500003  1
  Pb  Pb13  1  0.597191  0.999982  0.000004  1
  Pb  Pb14  1  0.000045  0.597270  0.000124  1
  Pb  Pb15  1  0.999932  0.597177  0.499846  1
  W  W16  1  0.999979  0.000005  0.000002  1
  W  W17  1  0.999995  0.000006  0.499988  1
  O  O18  1  0.333365  0.666732  0.135934  1
  O  O19  1  0.333338  0.666658  0.635912  1
  O  O20  1  0.666661  0.333388  0.364065  1
  O  O21  1  0.666605  0.333316  0.864086  1
  O  O22  1  0.733967  0.526325  0.164404  1
  O  O23  1  0.733832  0.526285  0.664415  1
  O  O24  1  0.473696  0.207572  0.164414  1
  O  O25  1  0.473686  0.207567  0.664411  1
  O  O26  1  0.792441  0.266094  0.164447  1
  O  O27  1  0.792428  0.266118  0.664445  1
  O  O28  1  0.266118  0.792408  0.335614  1
  O  O29  1  0.266153  0.792455  0.835574  1
  O  O30  1  0.207555  0.473696  0.335583  1
  O  O31  1  0.207654  0.473709  0.835582  1
  O  O32  1  0.526312  0.733870  0.335605  1
  O  O33  1  0.526347  0.733921  0.835568  1
  O  O34  1  0.088615  0.873796  0.105004  1
  O  O35  1  0.088540  0.873660  0.604959  1
  O  O36  1  0.126286  0.214940  0.104910  1
  O  O37  1  0.126237  0.214743  0.605085  1
  O  O38  1  0.785129  0.911409  0.105009  1
  O  O39  1  0.785066  0.911271  0.604929  1
  O  O40  1  0.911465  0.785238  0.394908  1
  O  O41  1  0.911353  0.785085  0.895085  1
  O  O42  1  0.214896  0.126292  0.395018  1
  O  O43  1  0.214816  0.126198  0.894978  1
  O  O44  1  0.873818  0.088751  0.395065  1
  O  O45  1  0.873720  0.088606  0.895015  1
