# generated using pymatgen
data_TmLu2(P2Rh3)3
_symmetry_space_group_name_H-M   'P 1'
_cell_length_a   3.89954300
_cell_length_b   11.17706200
_cell_length_c   12.68225900
_cell_angle_alpha   90.00000000
_cell_angle_beta   90.00000000
_cell_angle_gamma   90.00000000
_symmetry_Int_Tables_number   1
_chemical_formula_structural   TmLu2(P2Rh3)3
_chemical_formula_sum   'Tm2 Lu4 P12 Rh18'
_cell_volume   552.76176113
_cell_formula_units_Z   2
loop_
 _symmetry_equiv_pos_site_id
 _symmetry_equiv_pos_as_xyz
  1  'x, y, z'
loop_
 _atom_site_type_symbol
 _atom_site_label
 _atom_site_symmetry_multiplicity
 _atom_site_fract_x
 _atom_site_fract_y
 _atom_site_fract_z
 _atom_site_occupancy
  Tm  Tm0  1  0.000000  0.500000  0.521168  1
  Tm  Tm1  1  0.500000  0.000000  0.478832  1
  Lu  Lu2  1  0.500000  0.816055  0.205745  1
  Lu  Lu3  1  0.500000  0.183945  0.205745  1
  Lu  Lu4  1  0.000000  0.683945  0.794255  1
  Lu  Lu5  1  0.000000  0.316055  0.794255  1
  P  P6  1  0.500000  0.500000  0.877718  1
  P  P7  1  0.000000  0.000000  0.122282  1
  P  P8  1  0.500000  0.500000  0.352968  1
  P  P9  1  0.000000  0.000000  0.647032  1
  P  P10  1  0.500000  0.316583  0.619737  1
  P  P11  1  0.500000  0.683417  0.619737  1
  P  P12  1  0.000000  0.183417  0.380263  1
  P  P13  1  0.000000  0.816583  0.380263  1
  P  P14  1  0.500000  0.844890  0.891604  1
  P  P15  1  0.500000  0.155110  0.891604  1
  P  P16  1  0.000000  0.655110  0.108396  1
  P  P17  1  0.000000  0.344890  0.108396  1
  Rh  Rh18  1  0.500000  0.500000  0.169032  1
  Rh  Rh19  1  0.000000  0.000000  0.830968  1
  Rh  Rh20  1  0.500000  0.500000  0.701029  1
  Rh  Rh21  1  0.000000  0.000000  0.298971  1
  Rh  Rh22  1  0.000000  0.500000  0.980307  1
  Rh  Rh23  1  0.500000  0.000000  0.019693  1
  Rh  Rh24  1  0.500000  0.333767  0.992202  1
  Rh  Rh25  1  0.500000  0.666233  0.992202  1
  Rh  Rh26  1  0.000000  0.166233  0.007798  1
  Rh  Rh27  1  0.000000  0.833767  0.007798  1
  Rh  Rh28  1  0.500000  0.296847  0.432017  1
  Rh  Rh29  1  0.500000  0.703153  0.432017  1
  Rh  Rh30  1  0.000000  0.203153  0.567983  1
  Rh  Rh31  1  0.000000  0.796847  0.567983  1
  Rh  Rh32  1  0.500000  0.871215  0.710991  1
  Rh  Rh33  1  0.500000  0.128785  0.710991  1
  Rh  Rh34  1  0.000000  0.628785  0.289009  1
  Rh  Rh35  1  0.000000  0.371215  0.289009  1
