# generated using pymatgen
data_ErCuNi3Hg
_symmetry_space_group_name_H-M   'P 1'
_cell_length_a   5.00106942
_cell_length_b   5.00106886
_cell_length_c   4.95974643
_cell_angle_alpha   59.72400440
_cell_angle_beta   59.72401034
_cell_angle_gamma   59.99998608
_symmetry_Int_Tables_number   1
_chemical_formula_structural   ErCuNi3Hg
_chemical_formula_sum   'Er1 Cu1 Ni3 Hg1'
_cell_volume   87.34655491
_cell_formula_units_Z   1
loop_
 _symmetry_equiv_pos_site_id
 _symmetry_equiv_pos_as_xyz
  1  'x, y, z'
loop_
 _atom_site_type_symbol
 _atom_site_label
 _atom_site_symmetry_multiplicity
 _atom_site_fract_x
 _atom_site_fract_y
 _atom_site_fract_z
 _atom_site_occupancy
  Er  Er0  1  0.499081  0.499081  0.502756  1
  Cu  Cu1  1  0.875470  0.875470  0.373589  1
  Ni  Ni2  1  0.875994  0.373459  0.874553  1
  Ni  Ni3  1  0.373459  0.875994  0.874553  1
  Ni  Ni4  1  0.875994  0.875994  0.874553  1
  Hg  Hg5  1  0.250002  0.250002  0.249994  1
