# generated using pymatgen
data_Rb4AcNpTe6
_symmetry_space_group_name_H-M   'P 1'
_cell_length_a   8.46621397
_cell_length_b   8.46624085
_cell_length_c   8.99295800
_cell_angle_alpha   80.84313129
_cell_angle_beta   80.84298544
_cell_angle_gamma   119.99011057
_symmetry_Int_Tables_number   1
_chemical_formula_structural   Rb4AcNpTe6
_chemical_formula_sum   'Rb4 Ac1 Np1 Te6'
_cell_volume   529.26199167
_cell_formula_units_Z   1
loop_
 _symmetry_equiv_pos_site_id
 _symmetry_equiv_pos_as_xyz
  1  'x, y, z'
loop_
 _atom_site_type_symbol
 _atom_site_label
 _atom_site_symmetry_multiplicity
 _atom_site_fract_x
 _atom_site_fract_y
 _atom_site_fract_z
 _atom_site_occupancy
  Rb  Rb0  1  0.499998  0.500003  0.000000  1
  Rb  Rb1  1  0.656280  0.343722  0.500001  1
  Rb  Rb2  1  0.344511  0.655488  0.500001  1
  Rb  Rb3  1  0.999792  0.000208  0.500000  1
  Ac  Ac4  1  0.832474  0.167528  0.000000  1
  Np  Np5  1  0.167611  0.832382  0.999997  1
  Te  Te6  1  0.816395  0.790484  0.205689  1
  Te  Te7  1  0.209517  0.183606  0.794311  1
  Te  Te8  1  0.401697  0.040844  0.207695  1
  Te  Te9  1  0.543612  0.931043  0.791101  1
  Te  Te10  1  0.959157  0.598304  0.792306  1
  Te  Te11  1  0.068957  0.456388  0.208899  1
