# generated using pymatgen
data_Tb3Pr2Ho5(In2Pd)4
_symmetry_space_group_name_H-M   'P 1'
_cell_length_a   3.64156100
_cell_length_b   8.23193962
_cell_length_c   18.43598239
_cell_angle_alpha   89.95545987
_cell_angle_beta   90.00000000
_cell_angle_gamma   90.00000000
_symmetry_Int_Tables_number   1
_chemical_formula_structural   Tb3Pr2Ho5(In2Pd)4
_chemical_formula_sum   'Tb3 Pr2 Ho5 In8 Pd4'
_cell_volume   552.65731034
_cell_formula_units_Z   1
loop_
 _symmetry_equiv_pos_site_id
 _symmetry_equiv_pos_as_xyz
  1  'x, y, z'
loop_
 _atom_site_type_symbol
 _atom_site_label
 _atom_site_symmetry_multiplicity
 _atom_site_fract_x
 _atom_site_fract_y
 _atom_site_fract_z
 _atom_site_occupancy
  Tb  Tb0  1  0.000000  0.738797  0.282308  1
  Tb  Tb1  1  0.000000  0.261204  0.717691  1
  Tb  Tb2  1  0.000000  0.761252  0.782303  1
  Pr  Pr3  1  0.000000  0.500004  0.499978  1
  Pr  Pr4  1  0.000000  0.000003  0.000004  1
  Ho  Ho5  1  0.000000  0.238879  0.217820  1
  Ho  Ho6  1  0.000000  0.621194  0.084536  1
  Ho  Ho7  1  0.000000  0.378716  0.915526  1
  Ho  Ho8  1  0.000000  0.878712  0.584459  1
  Ho  Ho9  1  0.000000  0.121299  0.415428  1
  In  In10  1  0.500000  0.698348  0.932130  1
  In  In11  1  0.500000  0.301535  0.068091  1
  In  In12  1  0.500000  0.801707  0.432135  1
  In  In13  1  0.500000  0.198368  0.567853  1
  In  In14  1  0.500000  0.583439  0.653749  1
  In  In15  1  0.500000  0.416355  0.346095  1
  In  In16  1  0.500000  0.916898  0.153819  1
  In  In17  1  0.500000  0.083406  0.846256  1
  Pd  Pd18  1  0.500000  0.524151  0.195670  1
  Pd  Pd19  1  0.500000  0.475125  0.804383  1
  Pd  Pd20  1  0.500000  0.975126  0.695615  1
  Pd  Pd21  1  0.500000  0.025482  0.304153  1
