# generated using pymatgen
data_PtNF10
_symmetry_space_group_name_H-M   'P 1'
_cell_length_a   5.69158995
_cell_length_b   7.68751025
_cell_length_c   9.11010452
_cell_angle_alpha   88.64942213
_cell_angle_beta   109.46535078
_cell_angle_gamma   96.76779444
_symmetry_Int_Tables_number   1
_chemical_formula_structural   PtNF10
_chemical_formula_sum   'Pt2 N2 F20'
_cell_volume   373.15070590
_cell_formula_units_Z   2
loop_
 _symmetry_equiv_pos_site_id
 _symmetry_equiv_pos_as_xyz
  1  'x, y, z'
loop_
 _atom_site_type_symbol
 _atom_site_label
 _atom_site_symmetry_multiplicity
 _atom_site_fract_x
 _atom_site_fract_y
 _atom_site_fract_z
 _atom_site_occupancy
  Pt  Pt0  1  0.996588  0.754215  0.295250  1
  Pt  Pt1  1  0.003412  0.245785  0.704750  1
  N  N2  1  0.295432  0.274027  0.214845  1
  N  N3  1  0.704568  0.725973  0.785155  1
  F  F4  1  0.060374  0.232937  0.213911  1
  F  F5  1  0.939626  0.767063  0.786089  1
  F  F6  1  0.369392  0.140182  0.155695  1
  F  F7  1  0.630608  0.859818  0.844305  1
  F  F8  1  0.928967  0.192729  0.894777  1
  F  F9  1  0.071033  0.807271  0.105223  1
  F  F10  1  0.075892  0.300528  0.516512  1
  F  F11  1  0.924108  0.699472  0.483488  1
  F  F12  1  0.782087  0.041536  0.604379  1
  F  F13  1  0.217913  0.958464  0.395621  1
  F  F14  1  0.280696  0.107899  0.778072  1
  F  F15  1  0.719304  0.892101  0.221928  1
  F  F16  1  0.217207  0.454029  0.807798  1
  F  F17  1  0.782793  0.545971  0.192202  1
  F  F18  1  0.723889  0.382548  0.636479  1
  F  F19  1  0.276111  0.617452  0.363521  1
  F  F20  1  0.695943  0.585036  0.873544  1
  F  F21  1  0.304057  0.414964  0.126456  1
  F  F22  1  0.549787  0.692446  0.639090  1
  F  F23  1  0.450213  0.307554  0.360910  1
