# generated using pymatgen
data_La7YSc12Si15Au
_symmetry_space_group_name_H-M   'P 1'
_cell_length_a   7.31964188
_cell_length_b   7.57468908
_cell_length_c   14.37729100
_cell_angle_alpha   89.89559254
_cell_angle_beta   89.78015920
_cell_angle_gamma   90.32942422
_symmetry_Int_Tables_number   1
_chemical_formula_structural   La7YSc12Si15Au
_chemical_formula_sum   'La7 Y1 Sc12 Si15 Au1'
_cell_volume   797.11428768
_cell_formula_units_Z   1
loop_
 _symmetry_equiv_pos_site_id
 _symmetry_equiv_pos_as_xyz
  1  'x, y, z'
loop_
 _atom_site_type_symbol
 _atom_site_label
 _atom_site_symmetry_multiplicity
 _atom_site_fract_x
 _atom_site_fract_y
 _atom_site_fract_z
 _atom_site_occupancy
  La  La0  1  0.012026  0.171049  0.097863  1
  La  La1  1  0.988530  0.829822  0.901485  1
  La  La2  1  0.487735  0.671126  0.902911  1
  La  La3  1  0.990833  0.831519  0.596659  1
  La  La4  1  0.511108  0.328830  0.096354  1
  La  La5  1  0.010142  0.171838  0.401172  1
  La  La6  1  0.510378  0.326320  0.402277  1
  Y  Y7  1  0.493165  0.675890  0.603103  1
  Sc  Sc8  1  0.161971  0.497850  0.749648  1
  Sc  Sc9  1  0.838749  0.503940  0.251405  1
  Sc  Sc10  1  0.339461  0.992325  0.248943  1
  Sc  Sc11  1  0.664074  0.002264  0.750407  1
  Sc  Sc12  1  0.339761  0.176463  0.627410  1
  Sc  Sc13  1  0.666249  0.823588  0.374753  1
  Sc  Sc14  1  0.169333  0.672256  0.373852  1
  Sc  Sc15  1  0.670943  0.825722  0.124828  1
  Sc  Sc16  1  0.823231  0.327372  0.624947  1
  Sc  Sc17  1  0.329474  0.173383  0.873101  1
  Sc  Sc18  1  0.829593  0.324938  0.873860  1
  Sc  Sc19  1  0.168168  0.675784  0.125065  1
  Si  Si20  1  0.034314  0.132251  0.748872  1
  Si  Si21  1  0.965493  0.871815  0.250523  1
  Si  Si22  1  0.465717  0.626094  0.248804  1
  Si  Si23  1  0.535697  0.379401  0.750517  1
  Si  Si24  1  0.292251  0.881983  0.748484  1
  Si  Si25  1  0.708213  0.114841  0.249440  1
  Si  Si26  1  0.209849  0.384050  0.248889  1
  Si  Si27  1  0.788964  0.618773  0.749189  1
  Si  Si28  1  0.839231  0.541232  0.459965  1
  Si  Si29  1  0.348929  0.954497  0.463549  1
  Si  Si30  1  0.850723  0.537674  0.038635  1
  Si  Si31  1  0.647796  0.031261  0.540955  1
  Si  Si32  1  0.148066  0.461686  0.960378  1
  Si  Si33  1  0.650324  0.037885  0.959170  1
  Si  Si34  1  0.349340  0.962204  0.039077  1
  Au  Au35  1  0.160164  0.462076  0.543512  1
