# generated using pymatgen
data_Li12Sm3Dy(BO3)8
_symmetry_space_group_name_H-M   'P 1'
_cell_length_a   6.48123065
_cell_length_b   8.80765535
_cell_length_c   9.98873718
_cell_angle_alpha   114.82843496
_cell_angle_beta   90.10898841
_cell_angle_gamma   90.07337745
_symmetry_Int_Tables_number   1
_chemical_formula_structural   Li12Sm3Dy(BO3)8
_chemical_formula_sum   'Li12 Sm3 Dy1 B8 O24'
_cell_volume   517.49504786
_cell_formula_units_Z   1
loop_
 _symmetry_equiv_pos_site_id
 _symmetry_equiv_pos_as_xyz
  1  'x, y, z'
loop_
 _atom_site_type_symbol
 _atom_site_label
 _atom_site_symmetry_multiplicity
 _atom_site_fract_x
 _atom_site_fract_y
 _atom_site_fract_z
 _atom_site_occupancy
  Li  Li0  1  0.437994  0.038097  0.334262  1
  Li  Li1  1  0.743183  0.127246  0.521869  1
  Li  Li2  1  0.756176  0.626403  0.022129  1
  Li  Li3  1  0.243949  0.373584  0.978990  1
  Li  Li4  1  0.219219  0.296114  0.458385  1
  Li  Li5  1  0.937823  0.462129  0.166544  1
  Li  Li6  1  0.562114  0.961878  0.665717  1
  Li  Li7  1  0.780422  0.704250  0.540426  1
  Li  Li8  1  0.257027  0.872041  0.477861  1
  Li  Li9  1  0.718243  0.205942  0.041808  1
  Li  Li10  1  0.281412  0.795034  0.958925  1
  Li  Li11  1  0.062523  0.537373  0.834035  1
  Sm  Sm12  1  0.027360  0.982243  0.799713  1
  Sm  Sm13  1  0.527083  0.517551  0.699246  1
  Sm  Sm14  1  0.972714  0.017993  0.200749  1
  Dy  Dy15  1  0.472641  0.483654  0.299890  1
  B  B16  1  0.336985  0.216911  0.676630  1
  B  B17  1  0.329615  0.161110  0.109048  1
  B  B18  1  0.660789  0.780835  0.323065  1
  B  B19  1  0.165051  0.716401  0.177642  1
  B  B20  1  0.826872  0.341645  0.391745  1
  B  B21  1  0.671186  0.841464  0.892892  1
  B  B22  1  0.837056  0.283190  0.823403  1
  B  B23  1  0.172432  0.658074  0.605236  1
  O  O24  1  0.292677  0.068752  0.686863  1
  O  O25  1  0.558784  0.781200  0.447422  1
  O  O26  1  0.218422  0.023555  0.013973  1
  O  O27  1  0.707751  0.928863  0.313153  1
  O  O28  1  0.181331  0.695256  0.755805  1
  O  O29  1  0.792194  0.431087  0.813066  1
  O  O30  1  0.438296  0.215956  0.551698  1
  O  O31  1  0.289472  0.374387  0.786882  1
  O  O32  1  0.062342  0.714025  0.052275  1
  O  O33  1  0.938909  0.284290  0.948386  1
  O  O34  1  0.711937  0.477342  0.483444  1
  O  O35  1  0.783769  0.978136  0.986935  1
  O  O36  1  0.565299  0.737618  0.940136  1
  O  O37  1  0.211904  0.569317  0.189405  1
  O  O38  1  0.211086  0.874970  0.287369  1
  O  O39  1  0.064326  0.762347  0.559548  1
  O  O40  1  0.680239  0.802457  0.742222  1
  O  O41  1  0.435467  0.266983  0.064033  1
  O  O42  1  0.819901  0.301918  0.241315  1
  O  O43  1  0.705991  0.622237  0.213130  1
  O  O44  1  0.789419  0.125367  0.712865  1
  O  O45  1  0.286231  0.523625  0.509841  1
  O  O46  1  0.933543  0.239220  0.440658  1
  O  O47  1  0.320849  0.199930  0.259363  1
