# generated using pymatgen
data_Y5Tm15(Bi2As)4
_symmetry_space_group_name_H-M   'P 1'
_cell_length_a   11.99353585
_cell_length_b   9.06304114
_cell_length_c   7.96799451
_cell_angle_alpha   89.99021783
_cell_angle_beta   89.96045884
_cell_angle_gamma   89.98251758
_symmetry_Int_Tables_number   1
_chemical_formula_structural   Y5Tm15(Bi2As)4
_chemical_formula_sum   'Y5 Tm15 Bi8 As4'
_cell_volume   866.10408097
_cell_formula_units_Z   1
loop_
 _symmetry_equiv_pos_site_id
 _symmetry_equiv_pos_as_xyz
  1  'x, y, z'
loop_
 _atom_site_type_symbol
 _atom_site_label
 _atom_site_symmetry_multiplicity
 _atom_site_fract_x
 _atom_site_fract_y
 _atom_site_fract_z
 _atom_site_occupancy
  Y  Y0  1  0.063247  0.054239  0.184041  1
  Y  Y1  1  0.793596  0.250307  0.134246  1
  Y  Y2  1  0.294588  0.250772  0.366004  1
  Y  Y3  1  0.206097  0.750140  0.865559  1
  Y  Y4  1  0.705978  0.750100  0.634357  1
  Tm  Tm5  1  0.563315  0.056744  0.317180  1
  Tm  Tm6  1  0.063463  0.443632  0.183117  1
  Tm  Tm7  1  0.436731  0.556944  0.682989  1
  Tm  Tm8  1  0.936432  0.943096  0.816713  1
  Tm  Tm9  1  0.436804  0.943122  0.682939  1
  Tm  Tm10  1  0.936496  0.556767  0.816595  1
  Tm  Tm11  1  0.563383  0.443362  0.317063  1
  Tm  Tm12  1  0.711599  0.250094  0.656603  1
  Tm  Tm13  1  0.211887  0.250657  0.843445  1
  Tm  Tm14  1  0.288545  0.749900  0.343675  1
  Tm  Tm15  1  0.788399  0.750018  0.156642  1
  Tm  Tm16  1  0.500744  0.250190  0.964601  1
  Tm  Tm17  1  0.000427  0.250566  0.536344  1
  Tm  Tm18  1  0.499475  0.749878  0.035246  1
  Tm  Tm19  1  0.999336  0.749687  0.465187  1
  Bi  Bi20  1  0.826959  0.010114  0.427250  1
  Bi  Bi21  1  0.327426  0.490184  0.072691  1
  Bi  Bi22  1  0.172738  0.510109  0.572866  1
  Bi  Bi23  1  0.672549  0.990049  0.927255  1
  Bi  Bi24  1  0.172855  0.990373  0.573155  1
  Bi  Bi25  1  0.672616  0.510051  0.927242  1
  Bi  Bi26  1  0.827241  0.490172  0.427352  1
  Bi  Bi27  1  0.327901  0.010146  0.072321  1
  As  As28  1  0.981620  0.251356  0.911276  1
  As  As29  1  0.482139  0.250014  0.587699  1
  As  As30  1  0.017344  0.747199  0.085995  1
  As  As31  1  0.518072  0.750016  0.412350  1
