# generated using pymatgen
data_Y16MgNi4Ag3
_symmetry_space_group_name_H-M   'P 1'
_cell_length_a   9.54249062
_cell_length_b   9.54846005
_cell_length_c   9.54846000
_cell_angle_alpha   60.00000019
_cell_angle_beta   59.97930455
_cell_angle_gamma   59.97930669
_symmetry_Int_Tables_number   1
_chemical_formula_structural   Y16MgNi4Ag3
_chemical_formula_sum   'Y16 Mg1 Ni4 Ag3'
_cell_volume   615.00337183
_cell_formula_units_Z   1
loop_
 _symmetry_equiv_pos_site_id
 _symmetry_equiv_pos_as_xyz
  1  'x, y, z'
loop_
 _atom_site_type_symbol
 _atom_site_label
 _atom_site_symmetry_multiplicity
 _atom_site_fract_x
 _atom_site_fract_y
 _atom_site_fract_z
 _atom_site_occupancy
  Y  Y0  1  0.059153  0.439729  0.439729  1
  Y  Y1  1  0.435499  0.063131  0.063131  1
  Y  Y2  1  0.435499  0.063131  0.438239  1
  Y  Y3  1  0.059153  0.439729  0.061389  1
  Y  Y4  1  0.435499  0.438239  0.063131  1
  Y  Y5  1  0.059153  0.061389  0.439729  1
  Y  Y6  1  0.183247  0.815428  0.815428  1
  Y  Y7  1  0.814401  0.185171  0.185171  1
  Y  Y8  1  0.814401  0.185171  0.815257  1
  Y  Y9  1  0.183247  0.815428  0.185897  1
  Y  Y10  1  0.814401  0.815257  0.185171  1
  Y  Y11  1  0.183247  0.185897  0.815428  1
  Y  Y12  1  0.599695  0.597643  0.597643  1
  Y  Y13  1  0.599695  0.597643  0.205018  1
  Y  Y14  1  0.599695  0.205018  0.597643  1
  Y  Y15  1  0.193167  0.602278  0.602278  1
  Mg  Mg16  1  0.536820  0.821060  0.821060  1
  Ni  Ni17  1  0.390813  0.393395  0.393395  1
  Ni  Ni18  1  0.390813  0.393395  0.822395  1
  Ni  Ni19  1  0.390813  0.822395  0.393395  1
  Ni  Ni20  1  0.823732  0.392089  0.392089  1
  Ag  Ag21  1  0.832618  0.833581  0.833581  1
  Ag  Ag22  1  0.832618  0.833581  0.500219  1
  Ag  Ag23  1  0.832618  0.500219  0.833581  1
