# generated using pymatgen
data_Ba3(PaS4)2
_symmetry_space_group_name_H-M   'P 1'
_cell_length_a   7.12727500
_cell_length_b   13.38131192
_cell_length_c   13.05017248
_cell_angle_alpha   71.29970991
_cell_angle_beta   90.00000000
_cell_angle_gamma   90.00000000
_symmetry_Int_Tables_number   1
_chemical_formula_structural   Ba3(PaS4)2
_chemical_formula_sum   'Ba9 Pa6 S24'
_cell_volume   1178.91941336
_cell_formula_units_Z   3
loop_
 _symmetry_equiv_pos_site_id
 _symmetry_equiv_pos_as_xyz
  1  'x, y, z'
loop_
 _atom_site_type_symbol
 _atom_site_label
 _atom_site_symmetry_multiplicity
 _atom_site_fract_x
 _atom_site_fract_y
 _atom_site_fract_z
 _atom_site_occupancy
  Ba  Ba0  1  0.000000  0.500000  0.000000  1
  Ba  Ba1  1  0.000000  0.910756  0.700003  1
  Ba  Ba2  1  0.000000  0.089244  0.299997  1
  Ba  Ba3  1  0.500000  0.676117  0.343727  1
  Ba  Ba4  1  0.500000  0.323883  0.656273  1
  Ba  Ba5  1  0.000000  0.581512  0.643370  1
  Ba  Ba6  1  0.500000  0.217688  0.025349  1
  Ba  Ba7  1  0.500000  0.782312  0.974651  1
  Ba  Ba8  1  0.000000  0.418488  0.356630  1
  Pa  Pa9  1  0.000000  0.000000  0.000000  1
  Pa  Pa10  1  0.500000  0.000000  0.500000  1
  Pa  Pa11  1  0.000000  0.731708  0.177592  1
  Pa  Pa12  1  0.000000  0.268292  0.822408  1
  Pa  Pa13  1  0.500000  0.732006  0.674070  1
  Pa  Pa14  1  0.500000  0.267994  0.325930  1
  S  S15  1  0.763506  0.681325  0.811478  1
  S  S16  1  0.763506  0.318675  0.188522  1
  S  S17  1  0.236494  0.318675  0.188522  1
  S  S18  1  0.236494  0.681325  0.811478  1
  S  S19  1  0.743600  0.608846  0.153585  1
  S  S20  1  0.743600  0.391154  0.846415  1
  S  S21  1  0.256400  0.391154  0.846415  1
  S  S22  1  0.256400  0.608846  0.153585  1
  S  S23  1  0.749234  0.848299  0.518096  1
  S  S24  1  0.749234  0.151701  0.481904  1
  S  S25  1  0.250766  0.151701  0.481904  1
  S  S26  1  0.250766  0.848299  0.518096  1
  S  S27  1  0.753542  0.894233  0.149828  1
  S  S28  1  0.753542  0.105767  0.850172  1
  S  S29  1  0.246458  0.105767  0.850172  1
  S  S30  1  0.500000  0.926669  0.712834  1
  S  S31  1  0.500000  0.073331  0.287166  1
  S  S32  1  0.000000  0.648684  0.386566  1
  S  S33  1  0.000000  0.351316  0.613434  1
  S  S34  1  0.500000  0.578097  0.595962  1
  S  S35  1  0.500000  0.421903  0.404038  1
  S  S36  1  0.000000  0.824255  0.953441  1
  S  S37  1  0.000000  0.175745  0.046559  1
  S  S38  1  0.246458  0.894233  0.149828  1
