# generated using pymatgen
data_BaMn2(P2O7)2
_symmetry_space_group_name_H-M   'P 1'
_cell_length_a   6.12586316
_cell_length_b   6.17777808
_cell_length_c   8.35955408
_cell_angle_alpha   97.13228836
_cell_angle_beta   100.17949888
_cell_angle_gamma   105.07687397
_symmetry_Int_Tables_number   1
_chemical_formula_structural   BaMn2(P2O7)2
_chemical_formula_sum   'Ba1 Mn2 P4 O14'
_cell_volume   295.80574969
_cell_formula_units_Z   1
loop_
 _symmetry_equiv_pos_site_id
 _symmetry_equiv_pos_as_xyz
  1  'x, y, z'
loop_
 _atom_site_type_symbol
 _atom_site_label
 _atom_site_symmetry_multiplicity
 _atom_site_fract_x
 _atom_site_fract_y
 _atom_site_fract_z
 _atom_site_occupancy
  Ba  Ba0  1  0.000000  0.000000  0.000000  1
  Mn  Mn1  1  0.619941  0.308189  0.764216  1
  Mn  Mn2  1  0.380059  0.691811  0.235784  1
  P  P3  1  0.821659  0.529803  0.195431  1
  P  P4  1  0.178341  0.470197  0.804569  1
  P  P5  1  0.518818  0.754974  0.665381  1
  P  P6  1  0.481182  0.245026  0.334619  1
  O  O7  1  0.930250  0.314590  0.732978  1
  O  O8  1  0.069750  0.685410  0.267022  1
  O  O9  1  0.682825  0.634796  0.761547  1
  O  O10  1  0.317175  0.365204  0.238453  1
  O  O11  1  0.673102  0.696841  0.168334  1
  O  O12  1  0.326898  0.303159  0.831666  1
  O  O13  1  0.569313  0.984744  0.782858  1
  O  O14  1  0.430687  0.015256  0.217142  1
  O  O15  1  0.539633  0.767887  0.491446  1
  O  O16  1  0.460367  0.232113  0.508554  1
  O  O17  1  0.255703  0.606755  0.661086  1
  O  O18  1  0.744297  0.393245  0.338914  1
  O  O19  1  0.206582  0.644609  0.956966  1
  O  O20  1  0.793418  0.355391  0.043034  1
