# generated using pymatgen
data_Pr2Sm5MnBr12
_symmetry_space_group_name_H-M   'P 1'
_cell_length_a   9.55664845
_cell_length_b   9.34942823
_cell_length_c   9.56976018
_cell_angle_alpha   106.45783686
_cell_angle_beta   107.07616398
_cell_angle_gamma   107.13792954
_symmetry_Int_Tables_number   1
_chemical_formula_structural   Pr2Sm5MnBr12
_chemical_formula_sum   'Pr2 Sm5 Mn1 Br12'
_cell_volume   714.18397608
_cell_formula_units_Z   1
loop_
 _symmetry_equiv_pos_site_id
 _symmetry_equiv_pos_as_xyz
  1  'x, y, z'
loop_
 _atom_site_type_symbol
 _atom_site_label
 _atom_site_symmetry_multiplicity
 _atom_site_fract_x
 _atom_site_fract_y
 _atom_site_fract_z
 _atom_site_occupancy
  Pr  Pr0  1  0.592841  0.788784  0.522237  1
  Pr  Pr1  1  0.407159  0.211216  0.477763  1
  Sm  Sm2  1  0.812490  0.522512  0.601536  1
  Sm  Sm3  1  0.522455  0.600495  0.810358  1
  Sm  Sm4  1  0.187510  0.477488  0.398464  1
  Sm  Sm5  1  0.477545  0.399505  0.189642  1
  Sm  Sm6  1  0.000000  0.000000  0.000000  1
  Mn  Mn7  1  0.500000  0.500000  0.500000  1
  Br  Br8  1  0.727631  0.190939  0.575236  1
  Br  Br9  1  0.961463  0.882969  0.671781  1
  Br  Br10  1  0.572453  0.719511  0.183787  1
  Br  Br11  1  0.118567  0.335726  0.041346  1
  Br  Br12  1  0.669436  0.959852  0.885303  1
  Br  Br13  1  0.881433  0.664274  0.958654  1
  Br  Br14  1  0.038537  0.117031  0.328219  1
  Br  Br15  1  0.814278  0.427116  0.279679  1
  Br  Br16  1  0.330564  0.040148  0.114697  1
  Br  Br17  1  0.272369  0.809061  0.424764  1
  Br  Br18  1  0.185722  0.572884  0.720321  1
  Br  Br19  1  0.427547  0.280489  0.816213  1
