# generated using pymatgen
data_CaLu7Re(B8Os)3
_symmetry_space_group_name_H-M   'P 1'
_cell_length_a   3.60430500
_cell_length_b   9.06055041
_cell_length_c   11.43579462
_cell_angle_alpha   89.98638970
_cell_angle_beta   90.00000000
_cell_angle_gamma   90.00000000
_symmetry_Int_Tables_number   1
_chemical_formula_structural   CaLu7Re(B8Os)3
_chemical_formula_sum   'Ca1 Lu7 Re1 B24 Os3'
_cell_volume   373.45858759
_cell_formula_units_Z   1
loop_
 _symmetry_equiv_pos_site_id
 _symmetry_equiv_pos_as_xyz
  1  'x, y, z'
loop_
 _atom_site_type_symbol
 _atom_site_label
 _atom_site_symmetry_multiplicity
 _atom_site_fract_x
 _atom_site_fract_y
 _atom_site_fract_z
 _atom_site_occupancy
  Ca  Ca0  1  0.000000  0.321892  0.414237  1
  Lu  Lu1  1  0.000000  0.679093  0.587914  1
  Lu  Lu2  1  0.000000  0.822478  0.084119  1
  Lu  Lu3  1  0.000000  0.177067  0.913241  1
  Lu  Lu4  1  0.000000  0.943103  0.370305  1
  Lu  Lu5  1  0.000000  0.057183  0.628989  1
  Lu  Lu6  1  0.000000  0.442324  0.129456  1
  Lu  Lu7  1  0.000000  0.556680  0.872247  1
  Re  Re8  1  0.000000  0.862329  0.821059  1
  B  B9  1  0.500000  0.554905  0.433702  1
  B  B10  1  0.500000  0.447271  0.567739  1
  B  B11  1  0.500000  0.052735  0.065702  1
  B  B12  1  0.500000  0.946888  0.933663  1
  B  B13  1  0.500000  0.750116  0.419243  1
  B  B14  1  0.500000  0.250701  0.582298  1
  B  B15  1  0.500000  0.248480  0.079995  1
  B  B16  1  0.500000  0.749965  0.919831  1
  B  B17  1  0.500000  0.792470  0.264381  1
  B  B18  1  0.500000  0.208472  0.735589  1
  B  B19  1  0.500000  0.290804  0.233727  1
  B  B20  1  0.500000  0.707405  0.765241  1
  B  B21  1  0.500000  0.631013  0.184797  1
  B  B22  1  0.500000  0.369524  0.816000  1
  B  B23  1  0.500000  0.129528  0.313926  1
  B  B24  1  0.500000  0.869433  0.684233  1
  B  B25  1  0.500000  0.981275  0.211425  1
  B  B26  1  0.500000  0.019320  0.787402  1
  B  B27  1  0.500000  0.482829  0.287437  1
  B  B28  1  0.500000  0.518446  0.713278  1
  B  B29  1  0.500000  0.602042  0.028941  1
  B  B30  1  0.500000  0.396858  0.971983  1
  B  B31  1  0.500000  0.098692  0.472313  1
  B  B32  1  0.500000  0.899195  0.527415  1
  Os  Os33  1  0.000000  0.640574  0.319689  1
  Os  Os34  1  0.000000  0.362361  0.680784  1
  Os  Os35  1  0.000000  0.136556  0.177696  1
