# generated using pymatgen
data_PaGa(Br2Cl)2
_symmetry_space_group_name_H-M   'P 1'
_cell_length_a   7.46279017
_cell_length_b   7.52483393
_cell_length_c   7.98812100
_cell_angle_alpha   90.16295987
_cell_angle_beta   118.33105702
_cell_angle_gamma   119.92052268
_symmetry_Int_Tables_number   1
_chemical_formula_structural   PaGa(Br2Cl)2
_chemical_formula_sum   'Pa1 Ga1 Br4 Cl2'
_cell_volume   324.91574853
_cell_formula_units_Z   1
loop_
 _symmetry_equiv_pos_site_id
 _symmetry_equiv_pos_as_xyz
  1  'x, y, z'
loop_
 _atom_site_type_symbol
 _atom_site_label
 _atom_site_symmetry_multiplicity
 _atom_site_fract_x
 _atom_site_fract_y
 _atom_site_fract_z
 _atom_site_occupancy
  Pa  Pa0  1  0.583280  0.292223  0.872427  1
  Ga  Ga1  1  0.246718  0.629920  0.865596  1
  Br  Br2  1  0.459920  0.068756  0.112024  1
  Br  Br3  1  0.123361  0.208324  0.634794  1
  Br  Br4  1  0.722761  0.512686  0.638160  1
  Br  Br5  1  0.432055  0.913899  0.643969  1
  Cl  Cl6  1  0.706720  0.630797  0.090905  1
  Cl  Cl7  1  0.024183  0.392896  0.090622  1
