# generated using pymatgen
data_Li6Tb3Er3(WO6)4
_symmetry_space_group_name_H-M   'P 1'
_cell_length_a   10.66712476
_cell_length_b   10.66712424
_cell_length_c   10.66726000
_cell_angle_alpha   109.47197384
_cell_angle_beta   109.47195655
_cell_angle_gamma   109.46921539
_symmetry_Int_Tables_number   1
_chemical_formula_structural   Li6Tb3Er3(WO6)4
_chemical_formula_sum   'Li12 Tb6 Er6 W8 O48'
_cell_volume   934.39064957
_cell_formula_units_Z   2
loop_
 _symmetry_equiv_pos_site_id
 _symmetry_equiv_pos_as_xyz
  1  'x, y, z'
loop_
 _atom_site_type_symbol
 _atom_site_label
 _atom_site_symmetry_multiplicity
 _atom_site_fract_x
 _atom_site_fract_y
 _atom_site_fract_z
 _atom_site_occupancy
  Li  Li0  1  0.875395  0.749976  0.125641  1
  Li  Li1  1  0.250247  0.875666  0.125642  1
  Li  Li2  1  0.875226  0.125227  0.250000  1
  Li  Li3  1  0.374773  0.624773  0.250001  1
  Li  Li4  1  0.624335  0.249753  0.374357  1
  Li  Li5  1  0.750022  0.624605  0.374358  1
  Li  Li6  1  0.250029  0.374615  0.624447  1
  Li  Li7  1  0.374420  0.749833  0.624449  1
  Li  Li8  1  0.125256  0.875255  0.750000  1
  Li  Li9  1  0.624745  0.374745  0.750001  1
  Li  Li10  1  0.125385  0.249972  0.875552  1
  Li  Li11  1  0.750166  0.125580  0.875552  1
  Tb  Tb12  1  0.749725  0.874930  0.624449  1
  Tb  Tb13  1  0.874726  0.249520  0.624451  1
  Tb  Tb14  1  0.374999  0.124999  0.750000  1
  Tb  Tb15  1  0.874999  0.625000  0.750000  1
  Tb  Tb16  1  0.250481  0.625275  0.875550  1
  Tb  Tb17  1  0.625070  0.750275  0.875550  1
  Er  Er18  1  0.750444  0.375250  0.125490  1
  Er  Er19  1  0.375047  0.250241  0.125491  1
  Er  Er20  1  0.625000  0.875000  0.250000  1
  Er  Er21  1  0.125001  0.375001  0.250001  1
  Er  Er22  1  0.124751  0.749556  0.374509  1
  Er  Er23  1  0.249759  0.124953  0.374510  1
  W  W24  1  0.001218  0.001278  0.001225  1
  W  W25  1  0.500592  0.001319  0.001640  1
  W  W26  1  0.501047  0.500320  0.001640  1
  W  W27  1  0.000007  0.499947  0.001225  1
  W  W28  1  0.999679  0.998953  0.498359  1
  W  W29  1  0.000053  0.499992  0.498774  1
  W  W30  1  0.498681  0.999407  0.498360  1
  W  W31  1  0.498722  0.498783  0.498775  1
  O  O32  1  0.120711  0.202977  0.029457  1
  O  O33  1  0.908746  0.326479  0.029457  1
  O  O34  1  0.409979  0.881972  0.084339  1
  O  O35  1  0.674361  0.702367  0.084340  1
  O  O36  1  0.673574  0.972450  0.093146  1
  O  O37  1  0.419570  0.620694  0.093146  1
  O  O38  1  0.202941  0.029419  0.120904  1
  O  O39  1  0.917964  0.591486  0.120905  1
  O  O40  1  0.582468  0.203444  0.174047  1
  O  O41  1  0.591580  0.470604  0.174048  1
  O  O42  1  0.029374  0.120806  0.203031  1
  O  O43  1  0.173655  0.582226  0.203032  1
  O  O44  1  0.917775  0.326344  0.296968  1
  O  O45  1  0.379193  0.470625  0.296968  1
  O  O46  1  0.296557  0.917532  0.325953  1
  O  O47  1  0.029396  0.908421  0.325953  1
  O  O48  1  0.470580  0.297058  0.379095  1
  O  O49  1  0.908516  0.582038  0.379096  1
  O  O50  1  0.527549  0.826425  0.406853  1
  O  O51  1  0.879305  0.080430  0.406855  1
  O  O52  1  0.618028  0.090021  0.415659  1
  O  O53  1  0.797633  0.825639  0.415661  1
  O  O54  1  0.297023  0.379289  0.470543  1
  O  O55  1  0.173520  0.591253  0.470543  1
  O  O56  1  0.700296  0.617801  0.526259  1
  O  O57  1  0.825963  0.408457  0.526259  1
  O  O58  1  0.200941  0.173201  0.580396  1
  O  O59  1  0.379458  0.907196  0.580397  1
  O  O60  1  0.117858  0.915655  0.589646  1
  O  O61  1  0.471790  0.173991  0.589647  1
  O  O62  1  0.526306  0.700340  0.617641  1
  O  O63  1  0.091337  0.417303  0.617643  1
  O  O64  1  0.699812  0.082279  0.673510  1
  O  O65  1  0.973698  0.091232  0.673511  1
  O  O66  1  0.082535  0.673904  0.700258  1
  O  O67  1  0.617725  0.526355  0.700259  1
  O  O68  1  0.973646  0.882277  0.799741  1
  O  O69  1  0.826095  0.417466  0.799743  1
  O  O70  1  0.408769  0.526302  0.826490  1
  O  O71  1  0.417721  0.800187  0.826491  1
  O  O72  1  0.082699  0.408665  0.882358  1
  O  O73  1  0.799661  0.973695  0.882358  1
  O  O74  1  0.584344  0.382143  0.910354  1
  O  O75  1  0.326010  0.028211  0.910354  1
  O  O76  1  0.326798  0.299060  0.919604  1
  O  O77  1  0.592805  0.120543  0.919604  1
  O  O78  1  0.091544  0.674037  0.973741  1
  O  O79  1  0.882198  0.799704  0.973742  1
