# generated using pymatgen
data_RbPa3F13
_symmetry_space_group_name_H-M   'P 1'
_cell_length_a   7.47052781
_cell_length_b   8.13675082
_cell_length_c   8.62526800
_cell_angle_alpha   90.00000000
_cell_angle_beta   90.00000000
_cell_angle_gamma   90.20360702
_symmetry_Int_Tables_number   1
_chemical_formula_structural   RbPa3F13
_chemical_formula_sum   'Rb2 Pa6 F26'
_cell_volume   524.29070630
_cell_formula_units_Z   2
loop_
 _symmetry_equiv_pos_site_id
 _symmetry_equiv_pos_as_xyz
  1  'x, y, z'
loop_
 _atom_site_type_symbol
 _atom_site_label
 _atom_site_symmetry_multiplicity
 _atom_site_fract_x
 _atom_site_fract_y
 _atom_site_fract_z
 _atom_site_occupancy
  Rb  Rb0  1  0.398672  0.499924  0.265648  1
  Rb  Rb1  1  0.601328  0.500076  0.765648  1
  Pa  Pa2  1  0.899102  0.252275  0.124022  1
  Pa  Pa3  1  0.898882  0.747639  0.124019  1
  Pa  Pa4  1  0.100898  0.747725  0.624022  1
  Pa  Pa5  1  0.101118  0.252361  0.624019  1
  Pa  Pa6  1  0.606244  0.000537  0.457530  1
  Pa  Pa7  1  0.393756  0.999463  0.957530  1
  F  F8  1  0.811149  0.168855  0.597116  1
  F  F9  1  0.810521  0.830250  0.595250  1
  F  F10  1  0.188851  0.831145  0.097116  1
  F  F11  1  0.189479  0.169750  0.095250  1
  F  F12  1  0.610438  0.191293  0.008477  1
  F  F13  1  0.609458  0.806111  0.004551  1
  F  F14  1  0.389562  0.808707  0.508477  1
  F  F15  1  0.390542  0.193889  0.504551  1
  F  F16  1  0.679612  0.257126  0.318604  1
  F  F17  1  0.678970  0.745363  0.317461  1
  F  F18  1  0.320388  0.742874  0.818604  1
  F  F19  1  0.321030  0.254637  0.817461  1
  F  F20  1  0.048987  0.303772  0.367520  1
  F  F21  1  0.048322  0.696261  0.367751  1
  F  F22  1  0.951013  0.696228  0.867520  1
  F  F23  1  0.951678  0.303739  0.867751  1
  F  F24  1  0.062211  0.500409  0.118909  1
  F  F25  1  0.937789  0.499591  0.618909  1
  F  F26  1  0.728461  0.500608  0.092085  1
  F  F27  1  0.271539  0.499392  0.592085  1
  F  F28  1  0.893618  0.999457  0.000524  1
  F  F29  1  0.106382  0.000543  0.500524  1
  F  F30  1  0.864246  0.001424  0.283631  1
  F  F31  1  0.135754  0.998576  0.783631  1
  F  F32  1  0.463395  0.998910  0.227382  1
  F  F33  1  0.536605  0.001090  0.727382  1
