# generated using pymatgen
data_Dy4YEr(Si3Ru)8
_symmetry_space_group_name_H-M   'P 1'
_cell_length_a   10.12651925
_cell_length_b   10.12651893
_cell_length_c   8.14938401
_cell_angle_alpha   89.98635520
_cell_angle_beta   89.98635360
_cell_angle_gamma   132.56130728
_symmetry_Int_Tables_number   1
_chemical_formula_structural   Dy4YEr(Si3Ru)8
_chemical_formula_sum   'Dy4 Y1 Er1 Si24 Ru8'
_cell_volume   615.53065222
_cell_formula_units_Z   1
loop_
 _symmetry_equiv_pos_site_id
 _symmetry_equiv_pos_as_xyz
  1  'x, y, z'
loop_
 _atom_site_type_symbol
 _atom_site_label
 _atom_site_symmetry_multiplicity
 _atom_site_fract_x
 _atom_site_fract_y
 _atom_site_fract_z
 _atom_site_occupancy
  Dy  Dy0  1  0.497637  0.997490  0.249735  1
  Dy  Dy1  1  0.002510  0.502363  0.750265  1
  Dy  Dy2  1  0.502363  0.002510  0.750265  1
  Dy  Dy3  1  0.997490  0.497637  0.249735  1
  Y  Y4  1  0.500000  0.500000  0.500000  1
  Er  Er5  1  0.000000  0.000000  0.000000  1
  Si  Si6  1  0.388506  0.154905  0.004882  1
  Si  Si7  1  0.654698  0.888199  0.495040  1
  Si  Si8  1  0.111801  0.345302  0.504960  1
  Si  Si9  1  0.845095  0.611494  0.995118  1
  Si  Si10  1  0.611494  0.845095  0.995118  1
  Si  Si11  1  0.345302  0.111801  0.504960  1
  Si  Si12  1  0.888199  0.654698  0.495040  1
  Si  Si13  1  0.154905  0.388506  0.004882  1
  Si  Si14  1  0.613254  0.378842  0.227979  1
  Si  Si15  1  0.878091  0.112100  0.271517  1
  Si  Si16  1  0.887900  0.121909  0.728483  1
  Si  Si17  1  0.621158  0.386746  0.772021  1
  Si  Si18  1  0.386746  0.621158  0.772021  1
  Si  Si19  1  0.121909  0.887900  0.728483  1
  Si  Si20  1  0.705704  0.294296  0.000000  1
  Si  Si21  1  0.794672  0.205328  0.500000  1
  Si  Si22  1  0.294296  0.705704  0.000000  1
  Si  Si23  1  0.205328  0.794672  0.500000  1
  Si  Si24  1  0.167784  0.167784  0.333168  1
  Si  Si25  1  0.667345  0.667345  0.167024  1
  Si  Si26  1  0.332655  0.332655  0.832976  1
  Si  Si27  1  0.832216  0.832216  0.666832  1
  Si  Si28  1  0.378842  0.613254  0.227979  1
  Si  Si29  1  0.112100  0.878091  0.271517  1
  Ru  Ru30  1  0.626823  0.626823  0.874022  1
  Ru  Ru31  1  0.125533  0.125533  0.628052  1
  Ru  Ru32  1  0.874467  0.874467  0.371948  1
  Ru  Ru33  1  0.373177  0.373177  0.125978  1
  Ru  Ru34  1  0.330816  0.669184  0.500000  1
  Ru  Ru35  1  0.168451  0.831549  0.000000  1
  Ru  Ru36  1  0.669184  0.330816  0.500000  1
  Ru  Ru37  1  0.831549  0.168451  0.000000  1
