# generated using pymatgen
data_Er20Co2Bi9Sb
_symmetry_space_group_name_H-M   'P 1'
_cell_length_a   7.99109860
_cell_length_b   9.32751700
_cell_length_c   12.01187889
_cell_angle_alpha   90.00000000
_cell_angle_beta   89.95570756
_cell_angle_gamma   90.00000000
_symmetry_Int_Tables_number   1
_chemical_formula_structural   Er20Co2Bi9Sb
_chemical_formula_sum   'Er20 Co2 Bi9 Sb1'
_cell_volume   895.33044726
_cell_formula_units_Z   1
loop_
 _symmetry_equiv_pos_site_id
 _symmetry_equiv_pos_as_xyz
  1  'x, y, z'
loop_
 _atom_site_type_symbol
 _atom_site_label
 _atom_site_symmetry_multiplicity
 _atom_site_fract_x
 _atom_site_fract_y
 _atom_site_fract_z
 _atom_site_occupancy
  Er  Er0  1  0.429787  0.179912  0.562787  1
  Er  Er1  1  0.569581  0.822804  0.063359  1
  Er  Er2  1  0.073470  0.725639  0.437686  1
  Er  Er3  1  0.928593  0.270968  0.936293  1
  Er  Er4  1  0.073470  0.274361  0.437686  1
  Er  Er5  1  0.928593  0.729032  0.936293  1
  Er  Er6  1  0.429787  0.820088  0.562787  1
  Er  Er7  1  0.569581  0.177196  0.063359  1
  Er  Er8  1  0.571022  0.500000  0.770923  1
  Er  Er9  1  0.424113  0.500000  0.276735  1
  Er  Er10  1  0.907383  0.000000  0.201026  1
  Er  Er11  1  0.092656  0.000000  0.700661  1
  Er  Er12  1  0.259102  0.500000  0.993433  1
  Er  Er13  1  0.736074  0.500000  0.494086  1
  Er  Er14  1  0.198324  0.000000  0.996010  1
  Er  Er15  1  0.803038  0.000000  0.496025  1
  Er  Er16  1  0.094169  0.500000  0.715218  1
  Er  Er17  1  0.909066  0.500000  0.218414  1
  Er  Er18  1  0.370570  0.000000  0.309040  1
  Er  Er19  1  0.629310  0.000000  0.808438  1
  Co  Co20  1  0.173574  0.000000  0.488798  1
  Co  Co21  1  0.826845  0.000000  0.988545  1
  Bi  Bi22  1  0.814292  0.741022  0.671855  1
  Bi  Bi23  1  0.185896  0.258733  0.172117  1
  Bi  Bi24  1  0.679970  0.241900  0.325254  1
  Bi  Bi25  1  0.320384  0.758433  0.824964  1
  Bi  Bi26  1  0.679970  0.758100  0.325254  1
  Bi  Bi27  1  0.320384  0.241567  0.824964  1
  Bi  Bi28  1  0.814292  0.258978  0.671855  1
  Bi  Bi29  1  0.185896  0.741267  0.172117  1
  Bi  Bi30  1  0.653379  0.500000  0.026714  1
  Sb  Sb31  1  0.347432  0.500000  0.527302  1
