# generated using pymatgen
data_Dy2MnAl9Pt2
_symmetry_space_group_name_H-M   'P 1'
_cell_length_a   7.56272701
_cell_length_b   7.56272657
_cell_length_c   9.48535700
_cell_angle_alpha   90.00000000
_cell_angle_beta   90.00000000
_cell_angle_gamma   119.38459625
_symmetry_Int_Tables_number   1
_chemical_formula_structural   Dy2MnAl9Pt2
_chemical_formula_sum   'Dy4 Mn2 Al18 Pt4'
_cell_volume   472.71678680
_cell_formula_units_Z   2
loop_
 _symmetry_equiv_pos_site_id
 _symmetry_equiv_pos_as_xyz
  1  'x, y, z'
loop_
 _atom_site_type_symbol
 _atom_site_label
 _atom_site_symmetry_multiplicity
 _atom_site_fract_x
 _atom_site_fract_y
 _atom_site_fract_z
 _atom_site_occupancy
  Dy  Dy0  1  0.996459  0.674181  0.250972  1
  Dy  Dy1  1  0.003541  0.325819  0.750972  1
  Dy  Dy2  1  0.674181  0.996459  0.249028  1
  Dy  Dy3  1  0.325819  0.003541  0.749028  1
  Mn  Mn4  1  0.327536  0.672464  0.000000  1
  Mn  Mn5  1  0.672464  0.327536  0.500000  1
  Al  Al6  1  0.136016  0.136016  0.250000  1
  Al  Al7  1  0.863984  0.863984  0.750000  1
  Al  Al8  1  0.343378  0.332731  0.550581  1
  Al  Al9  1  0.656622  0.667269  0.050581  1
  Al  Al10  1  0.332731  0.343378  0.949419  1
  Al  Al11  1  0.667269  0.656622  0.449419  1
  Al  Al12  1  0.339483  0.552633  0.243052  1
  Al  Al13  1  0.660517  0.447367  0.743052  1
  Al  Al14  1  0.552633  0.339483  0.256948  1
  Al  Al15  1  0.447367  0.660517  0.756948  1
  Al  Al16  1  0.010005  0.347306  0.074573  1
  Al  Al17  1  0.989995  0.652694  0.574573  1
  Al  Al18  1  0.347306  0.010005  0.425427  1
  Al  Al19  1  0.652694  0.989995  0.925427  1
  Al  Al20  1  0.007892  0.665698  0.925054  1
  Al  Al21  1  0.992108  0.334302  0.425054  1
  Al  Al22  1  0.665698  0.007892  0.574946  1
  Al  Al23  1  0.334302  0.992108  0.074946  1
  Pt  Pt24  1  0.999140  0.000860  0.000000  1
  Pt  Pt25  1  0.000860  0.999140  0.500000  1
  Pt  Pt26  1  0.671860  0.328140  0.000000  1
  Pt  Pt27  1  0.328140  0.671860  0.500000  1
