# generated using pymatgen
data_Li8Ac7LaSi8
_symmetry_space_group_name_H-M   'P 1'
_cell_length_a   9.27627300
_cell_length_b   9.27627110
_cell_length_c   7.94926300
_cell_angle_alpha   90.00157339
_cell_angle_beta   89.99834345
_cell_angle_gamma   120.00040056
_symmetry_Int_Tables_number   1
_chemical_formula_structural   Li8Ac7LaSi8
_chemical_formula_sum   'Li8 Ac7 La1 Si8'
_cell_volume   592.38315209
_cell_formula_units_Z   1
loop_
 _symmetry_equiv_pos_site_id
 _symmetry_equiv_pos_as_xyz
  1  'x, y, z'
loop_
 _atom_site_type_symbol
 _atom_site_label
 _atom_site_symmetry_multiplicity
 _atom_site_fract_x
 _atom_site_fract_y
 _atom_site_fract_z
 _atom_site_occupancy
  Li  Li0  1  0.166269  0.332537  0.283328  1
  Li  Li1  1  0.166269  0.833731  0.283322  1
  Li  Li2  1  0.667463  0.833731  0.283327  1
  Li  Li3  1  0.834644  0.669288  0.793105  1
  Li  Li4  1  0.834643  0.165357  0.793103  1
  Li  Li5  1  0.330712  0.165357  0.793105  1
  Li  Li6  1  0.333335  0.666664  0.667510  1
  Li  Li7  1  0.666665  0.333335  0.163901  1
  Ac  Ac8  1  0.513294  0.026590  0.496272  1
  Ac  Ac9  1  0.513296  0.486705  0.496271  1
  Ac  Ac10  1  0.973411  0.486706  0.496272  1
  Ac  Ac11  1  0.486527  0.973050  0.995997  1
  Ac  Ac12  1  0.486523  0.513476  0.995995  1
  Ac  Ac13  1  0.026950  0.513474  0.995998  1
  Ac  Ac14  1  0.999999  0.000001  0.503090  1
  La  La15  1  0.000000  0.999998  0.004622  1
  Si  Si16  1  0.165767  0.331538  0.727440  1
  Si  Si17  1  0.165768  0.834232  0.727441  1
  Si  Si18  1  0.668462  0.834234  0.727440  1
  Si  Si19  1  0.835499  0.670997  0.217888  1
  Si  Si20  1  0.835497  0.164503  0.217888  1
  Si  Si21  1  0.329003  0.164502  0.217888  1
  Si  Si22  1  0.333334  0.666667  0.282560  1
  Si  Si23  1  0.666668  0.333332  0.778212  1
