# generated using pymatgen
data_CaSc6BBr12
_symmetry_space_group_name_H-M   'P 1'
_cell_length_a   8.69408732
_cell_length_b   8.69408808
_cell_length_c   8.69408747
_cell_angle_alpha   106.33948171
_cell_angle_beta   106.33947515
_cell_angle_gamma   106.33947803
_symmetry_Int_Tables_number   1
_chemical_formula_structural   CaSc6BBr12
_chemical_formula_sum   'Ca1 Sc6 B1 Br12'
_cell_volume   556.85735370
_cell_formula_units_Z   1
loop_
 _symmetry_equiv_pos_site_id
 _symmetry_equiv_pos_as_xyz
  1  'x, y, z'
loop_
 _atom_site_type_symbol
 _atom_site_label
 _atom_site_symmetry_multiplicity
 _atom_site_fract_x
 _atom_site_fract_y
 _atom_site_fract_z
 _atom_site_occupancy
  Ca  Ca0  1  0.500000  0.500000  0.500000  1
  Sc  Sc1  1  0.290733  0.091487  0.020313  1
  Sc  Sc2  1  0.091487  0.020313  0.290733  1
  Sc  Sc3  1  0.020313  0.290733  0.091487  1
  Sc  Sc4  1  0.709267  0.908513  0.979687  1
  Sc  Sc5  1  0.908513  0.979687  0.709267  1
  Sc  Sc6  1  0.979687  0.709267  0.908513  1
  B  B7  1  0.000000  0.000000  0.000000  1
  Br  Br8  1  0.220821  0.073352  0.683158  1
  Br  Br9  1  0.073352  0.683158  0.220821  1
  Br  Br10  1  0.683158  0.220821  0.073352  1
  Br  Br11  1  0.779179  0.926648  0.316842  1
  Br  Br12  1  0.926648  0.316842  0.779179  1
  Br  Br13  1  0.316842  0.779179  0.926648  1
  Br  Br14  1  0.364573  0.441385  0.135079  1
  Br  Br15  1  0.441385  0.135079  0.364573  1
  Br  Br16  1  0.135079  0.364573  0.441385  1
  Br  Br17  1  0.635427  0.558615  0.864921  1
  Br  Br18  1  0.558615  0.864921  0.635427  1
  Br  Br19  1  0.864921  0.635427  0.558615  1
