# generated using pymatgen
data_Sm4Y3Tm13Pt16
_symmetry_space_group_name_H-M   'P 1'
_cell_length_a   7.47780009
_cell_length_b   7.54420488
_cell_length_c   14.67757907
_cell_angle_alpha   89.99200009
_cell_angle_beta   89.99803795
_cell_angle_gamma   89.94092479
_symmetry_Int_Tables_number   1
_chemical_formula_structural   Sm4Y3Tm13Pt16
_chemical_formula_sum   'Sm4 Y3 Tm13 Pt16'
_cell_volume   828.02131872
_cell_formula_units_Z   1
loop_
 _symmetry_equiv_pos_site_id
 _symmetry_equiv_pos_as_xyz
  1  'x, y, z'
loop_
 _atom_site_type_symbol
 _atom_site_label
 _atom_site_symmetry_multiplicity
 _atom_site_fract_x
 _atom_site_fract_y
 _atom_site_fract_z
 _atom_site_occupancy
  Sm  Sm0  1  0.499745  0.678513  0.092987  1
  Sm  Sm1  1  0.500595  0.321876  0.592826  1
  Sm  Sm2  1  0.000552  0.178535  0.907365  1
  Sm  Sm3  1  0.000131  0.177179  0.592510  1
  Y  Y4  1  0.501474  0.320840  0.906637  1
  Y  Y5  1  0.498574  0.680013  0.406659  1
  Y  Y6  1  0.998904  0.820560  0.093421  1
  Tm  Tm7  1  0.681426  0.990161  0.250640  1
  Tm  Tm8  1  0.180353  0.510066  0.250729  1
  Tm  Tm9  1  0.818943  0.490743  0.750136  1
  Tm  Tm10  1  0.319936  0.009230  0.750177  1
  Tm  Tm11  1  0.655550  0.832015  0.622473  1
  Tm  Tm12  1  0.156188  0.667382  0.877304  1
  Tm  Tm13  1  0.843665  0.332704  0.377108  1
  Tm  Tm14  1  0.343759  0.167424  0.122977  1
  Tm  Tm15  1  0.342715  0.166479  0.377247  1
  Tm  Tm16  1  0.844117  0.332369  0.123326  1
  Tm  Tm17  1  0.155191  0.668339  0.622302  1
  Tm  Tm18  1  0.656082  0.832379  0.877141  1
  Tm  Tm19  1  0.997468  0.819074  0.406298  1
  Pt  Pt20  1  0.818586  0.642717  0.251824  1
  Pt  Pt21  1  0.314881  0.859161  0.251292  1
  Pt  Pt22  1  0.683083  0.140735  0.750542  1
  Pt  Pt23  1  0.184525  0.360083  0.750180  1
  Pt  Pt24  1  0.546879  0.383000  0.250581  1
  Pt  Pt25  1  0.045713  0.115793  0.250677  1
  Pt  Pt26  1  0.953599  0.881728  0.749931  1
  Pt  Pt27  1  0.453829  0.617893  0.750226  1
  Pt  Pt28  1  0.819434  0.538380  0.540796  1
  Pt  Pt29  1  0.319276  0.965274  0.957960  1
  Pt  Pt30  1  0.685009  0.031069  0.456576  1
  Pt  Pt31  1  0.180262  0.465542  0.042182  1
  Pt  Pt32  1  0.180920  0.469593  0.456296  1
  Pt  Pt33  1  0.681980  0.035545  0.042156  1
  Pt  Pt34  1  0.319017  0.962429  0.540726  1
  Pt  Pt35  1  0.817642  0.535178  0.957793  1
