# generated using pymatgen
data_HoLu4InPd4
_symmetry_space_group_name_H-M   'P 1'
_cell_length_a   7.74417300
_cell_length_b   7.74417300
_cell_length_c   3.67217000
_cell_angle_alpha   90.00000000
_cell_angle_beta   90.00000000
_cell_angle_gamma   90.00000000
_symmetry_Int_Tables_number   1
_chemical_formula_structural   HoLu4InPd4
_chemical_formula_sum   'Ho1 Lu4 In1 Pd4'
_cell_volume   220.22817042
_cell_formula_units_Z   1
loop_
 _symmetry_equiv_pos_site_id
 _symmetry_equiv_pos_as_xyz
  1  'x, y, z'
loop_
 _atom_site_type_symbol
 _atom_site_label
 _atom_site_symmetry_multiplicity
 _atom_site_fract_x
 _atom_site_fract_y
 _atom_site_fract_z
 _atom_site_occupancy
  Ho  Ho0  1  0.000000  0.000000  0.000000  1
  Lu  Lu1  1  0.353512  0.818788  0.500000  1
  Lu  Lu2  1  0.818788  0.646488  0.500000  1
  Lu  Lu3  1  0.181212  0.353512  0.500000  1
  Lu  Lu4  1  0.646488  0.181212  0.500000  1
  In  In5  1  0.500000  0.500000  0.000000  1
  Pd  Pd6  1  0.361809  0.124776  0.000000  1
  Pd  Pd7  1  0.875224  0.361809  0.000000  1
  Pd  Pd8  1  0.124776  0.638191  0.000000  1
  Pd  Pd9  1  0.638191  0.875224  0.000000  1
