# generated using pymatgen
data_Sm4Si7Ni14P
_symmetry_space_group_name_H-M   'P 1'
_cell_length_a   3.78912200
_cell_length_b   9.22189144
_cell_length_c   10.52296646
_cell_angle_alpha   89.96535870
_cell_angle_beta   90.00000000
_cell_angle_gamma   90.00000000
_symmetry_Int_Tables_number   1
_chemical_formula_structural   Sm4Si7Ni14P
_chemical_formula_sum   'Sm4 Si7 Ni14 P1'
_cell_volume   367.70260010
_cell_formula_units_Z   1
loop_
 _symmetry_equiv_pos_site_id
 _symmetry_equiv_pos_as_xyz
  1  'x, y, z'
loop_
 _atom_site_type_symbol
 _atom_site_label
 _atom_site_symmetry_multiplicity
 _atom_site_fract_x
 _atom_site_fract_y
 _atom_site_fract_z
 _atom_site_occupancy
  Sm  Sm0  1  0.000000  0.062054  0.005803  1
  Sm  Sm1  1  0.500000  0.943846  0.507997  1
  Sm  Sm2  1  0.000000  0.434026  0.781665  1
  Sm  Sm3  1  0.500000  0.562880  0.278055  1
  Si  Si4  1  0.000000  0.021122  0.725847  1
  Si  Si5  1  0.500000  0.977455  0.224585  1
  Si  Si6  1  0.000000  0.315434  0.277397  1
  Si  Si7  1  0.500000  0.684550  0.776682  1
  Si  Si8  1  0.000000  0.660362  0.086786  1
  Si  Si9  1  0.500000  0.339768  0.586952  1
  Si  Si10  1  0.000000  0.686299  0.463176  1
  Ni  Ni11  1  0.000000  0.079638  0.317360  1
  Ni  Ni12  1  0.500000  0.920122  0.820334  1
  Ni  Ni13  1  0.000000  0.188755  0.568504  1
  Ni  Ni14  1  0.500000  0.810790  0.066263  1
  Ni  Ni15  1  0.000000  0.406428  0.073464  1
  Ni  Ni16  1  0.500000  0.593224  0.573581  1
  Ni  Ni17  1  0.000000  0.433291  0.474028  1
  Ni  Ni18  1  0.500000  0.563320  0.974237  1
  Ni  Ni19  1  0.000000  0.756483  0.896700  1
  Ni  Ni20  1  0.500000  0.243733  0.395993  1
  Ni  Ni21  1  0.000000  0.770313  0.665401  1
  Ni  Ni22  1  0.500000  0.231474  0.162917  1
  Ni  Ni23  1  0.000000  0.817846  0.260171  1
  Ni  Ni24  1  0.500000  0.182545  0.763318  1
  P  P25  1  0.500000  0.314239  0.963398  1
