# generated using pymatgen
data_Dy8ZrSi16W11
_symmetry_space_group_name_H-M   'P 1'
_cell_length_a   6.90985312
_cell_length_b   6.90985357
_cell_length_c   12.85639270
_cell_angle_alpha   89.97471972
_cell_angle_beta   90.02528138
_cell_angle_gamma   90.11704857
_symmetry_Int_Tables_number   1
_chemical_formula_structural   Dy8ZrSi16W11
_chemical_formula_sum   'Dy8 Zr1 Si16 W11'
_cell_volume   613.84086739
_cell_formula_units_Z   1
loop_
 _symmetry_equiv_pos_site_id
 _symmetry_equiv_pos_as_xyz
  1  'x, y, z'
loop_
 _atom_site_type_symbol
 _atom_site_label
 _atom_site_symmetry_multiplicity
 _atom_site_fract_x
 _atom_site_fract_y
 _atom_site_fract_z
 _atom_site_occupancy
  Dy  Dy0  1  0.999064  0.664990  0.030927  1
  Dy  Dy1  1  0.998202  0.337064  0.530793  1
  Dy  Dy2  1  0.664990  0.999064  0.969073  1
  Dy  Dy3  1  0.161019  0.500876  0.779597  1
  Dy  Dy4  1  0.836806  0.503014  0.282297  1
  Dy  Dy5  1  0.500876  0.161019  0.220403  1
  Dy  Dy6  1  0.503014  0.836806  0.717703  1
  Dy  Dy7  1  0.337064  0.998202  0.469207  1
  Zr  Zr8  1  0.331591  0.331591  0.000000  1
  Si  Si9  1  0.034573  0.712964  0.437277  1
  Si  Si10  1  0.955425  0.290066  0.932697  1
  Si  Si11  1  0.712964  0.034573  0.562723  1
  Si  Si12  1  0.209257  0.468766  0.190574  1
  Si  Si13  1  0.787946  0.535710  0.686159  1
  Si  Si14  1  0.468766  0.209257  0.809426  1
  Si  Si15  1  0.535710  0.787946  0.313841  1
  Si  Si16  1  0.290066  0.955425  0.067303  1
  Si  Si17  1  0.800245  0.874563  0.184214  1
  Si  Si18  1  0.299534  0.625101  0.565951  1
  Si  Si19  1  0.708272  0.372790  0.067463  1
  Si  Si20  1  0.625101  0.299534  0.434049  1
  Si  Si21  1  0.372790  0.708272  0.932537  1
  Si  Si22  1  0.125318  0.201415  0.316065  1
  Si  Si23  1  0.201415  0.125318  0.683935  1
  Si  Si24  1  0.874563  0.800245  0.815786  1
  W  W25  1  0.333530  0.500887  0.377483  1
  W  W26  1  0.834279  0.001798  0.373226  1
  W  W27  1  0.002170  0.164959  0.125618  1
  W  W28  1  0.001798  0.834279  0.626774  1
  W  W29  1  0.500887  0.333530  0.622517  1
  W  W30  1  0.164959  0.002170  0.874382  1
  W  W31  1  0.667719  0.667719  0.500000  1
  W  W32  1  0.833692  0.164620  0.746843  1
  W  W33  1  0.164620  0.833692  0.253157  1
  W  W34  1  0.501200  0.660571  0.124278  1
  W  W35  1  0.660571  0.501200  0.875722  1
