# generated using pymatgen
data_Gd3MnNbC6
_symmetry_space_group_name_H-M   'P 1'
_cell_length_a   8.36923100
_cell_length_b   8.36923141
_cell_length_c   5.16826500
_cell_angle_alpha   90.00000000
_cell_angle_beta   90.00000000
_cell_angle_gamma   119.99998651
_symmetry_Int_Tables_number   1
_chemical_formula_structural   Gd3MnNbC6
_chemical_formula_sum   'Gd6 Mn2 Nb2 C12'
_cell_volume   313.50653354
_cell_formula_units_Z   2
loop_
 _symmetry_equiv_pos_site_id
 _symmetry_equiv_pos_as_xyz
  1  'x, y, z'
loop_
 _atom_site_type_symbol
 _atom_site_label
 _atom_site_symmetry_multiplicity
 _atom_site_fract_x
 _atom_site_fract_y
 _atom_site_fract_z
 _atom_site_occupancy
  Gd  Gd0  1  0.617744  0.677974  0.750000  1
  Gd  Gd1  1  0.939771  0.617744  0.250000  1
  Gd  Gd2  1  0.677974  0.060229  0.250000  1
  Gd  Gd3  1  0.322026  0.939771  0.750000  1
  Gd  Gd4  1  0.060229  0.382256  0.750000  1
  Gd  Gd5  1  0.382256  0.322026  0.250000  1
  Mn  Mn6  1  0.666667  0.333333  0.750000  1
  Mn  Mn7  1  0.333333  0.666667  0.250000  1
  Nb  Nb8  1  0.000000  0.000000  0.500000  1
  Nb  Nb9  1  0.000000  0.000000  0.000000  1
  C  C10  1  0.960107  0.754927  0.750000  1
  C  C11  1  0.205180  0.960107  0.250000  1
  C  C12  1  0.754927  0.794820  0.250000  1
  C  C13  1  0.245073  0.205180  0.750000  1
  C  C14  1  0.794820  0.039893  0.750000  1
  C  C15  1  0.039893  0.245073  0.250000  1
  C  C16  1  0.859335  0.566709  0.750000  1
  C  C17  1  0.292625  0.859335  0.250000  1
  C  C18  1  0.566709  0.707375  0.250000  1
  C  C19  1  0.433291  0.292625  0.750000  1
  C  C20  1  0.140665  0.433291  0.250000  1
  C  C21  1  0.707375  0.140665  0.750000  1
