# generated using pymatgen
data_Yb3TmLu4(B6Os)4
_symmetry_space_group_name_H-M   'P 1'
_cell_length_a   3.60422700
_cell_length_b   9.07629288
_cell_length_c   11.46313712
_cell_angle_alpha   89.94941149
_cell_angle_beta   90.00000000
_cell_angle_gamma   90.00000000
_symmetry_Int_Tables_number   1
_chemical_formula_structural   Yb3TmLu4(B6Os)4
_chemical_formula_sum   'Yb3 Tm1 Lu4 B24 Os4'
_cell_volume   374.99368616
_cell_formula_units_Z   1
loop_
 _symmetry_equiv_pos_site_id
 _symmetry_equiv_pos_as_xyz
  1  'x, y, z'
loop_
 _atom_site_type_symbol
 _atom_site_label
 _atom_site_symmetry_multiplicity
 _atom_site_fract_x
 _atom_site_fract_y
 _atom_site_fract_z
 _atom_site_occupancy
  Yb  Yb0  1  0.000000  0.324201  0.414285  1
  Yb  Yb1  1  0.000000  0.675945  0.585337  1
  Yb  Yb2  1  0.000000  0.822774  0.086284  1
  Tm  Tm3  1  0.000000  0.176188  0.914693  1
  Lu  Lu4  1  0.000000  0.941920  0.368259  1
  Lu  Lu5  1  0.000000  0.057411  0.630339  1
  Lu  Lu6  1  0.000000  0.443537  0.131284  1
  Lu  Lu7  1  0.000000  0.557795  0.869300  1
  B  B8  1  0.500000  0.553370  0.432952  1
  B  B9  1  0.500000  0.446034  0.567791  1
  B  B10  1  0.500000  0.053871  0.066541  1
  B  B11  1  0.500000  0.946182  0.933383  1
  B  B12  1  0.500000  0.749701  0.417776  1
  B  B13  1  0.500000  0.250150  0.582299  1
  B  B14  1  0.500000  0.249949  0.081126  1
  B  B15  1  0.500000  0.750585  0.918190  1
  B  B16  1  0.500000  0.791864  0.264258  1
  B  B17  1  0.500000  0.207604  0.736147  1
  B  B18  1  0.500000  0.292109  0.234567  1
  B  B19  1  0.500000  0.708967  0.765106  1
  B  B20  1  0.500000  0.630648  0.185283  1
  B  B21  1  0.500000  0.369003  0.815851  1
  B  B22  1  0.500000  0.130759  0.314117  1
  B  B23  1  0.500000  0.869768  0.684814  1
  B  B24  1  0.500000  0.982335  0.211193  1
  B  B25  1  0.500000  0.018038  0.788216  1
  B  B26  1  0.500000  0.482918  0.288219  1
  B  B27  1  0.500000  0.516836  0.712427  1
  B  B28  1  0.500000  0.598266  0.027122  1
  B  B29  1  0.500000  0.400551  0.972718  1
  B  B30  1  0.500000  0.096595  0.473032  1
  B  B31  1  0.500000  0.903506  0.526290  1
  Os  Os32  1  0.000000  0.639242  0.320303  1
  Os  Os33  1  0.000000  0.359466  0.681266  1
  Os  Os34  1  0.000000  0.139007  0.179197  1
  Os  Os35  1  0.000000  0.862905  0.820036  1
