# generated using pymatgen
data_Er5Co3(Si3Ir4)4
_symmetry_space_group_name_H-M   'P 1'
_cell_length_a   12.78039900
_cell_length_b   12.78039821
_cell_length_c   3.89296300
_cell_angle_alpha   90.00000000
_cell_angle_beta   90.00000000
_cell_angle_gamma   120.00000464
_symmetry_Int_Tables_number   1
_chemical_formula_structural   Er5Co3(Si3Ir4)4
_chemical_formula_sum   'Er5 Co3 Si12 Ir16'
_cell_volume   550.68048423
_cell_formula_units_Z   1
loop_
 _symmetry_equiv_pos_site_id
 _symmetry_equiv_pos_as_xyz
  1  'x, y, z'
loop_
 _atom_site_type_symbol
 _atom_site_label
 _atom_site_symmetry_multiplicity
 _atom_site_fract_x
 _atom_site_fract_y
 _atom_site_fract_z
 _atom_site_occupancy
  Er  Er0  1  0.666667  0.333333  0.000000  1
  Er  Er1  1  0.333333  0.666667  0.000000  1
  Er  Er2  1  0.816200  0.816200  0.500000  1
  Er  Er3  1  0.183800  0.000000  0.500000  1
  Er  Er4  1  0.000000  0.183800  0.500000  1
  Co  Co5  1  0.282674  0.282674  0.500000  1
  Co  Co6  1  0.717326  0.000000  0.500000  1
  Co  Co7  1  0.000000  0.717326  0.500000  1
  Si  Si8  1  0.684967  0.160685  0.500000  1
  Si  Si9  1  0.839315  0.524281  0.500000  1
  Si  Si10  1  0.475719  0.315033  0.500000  1
  Si  Si11  1  0.160685  0.684967  0.500000  1
  Si  Si12  1  0.524281  0.839315  0.500000  1
  Si  Si13  1  0.315033  0.475719  0.500000  1
  Si  Si14  1  0.632431  0.632431  0.000000  1
  Si  Si15  1  0.367569  0.000000  0.000000  1
  Si  Si16  1  0.000000  0.367569  0.000000  1
  Si  Si17  1  0.183755  0.183755  0.000000  1
  Si  Si18  1  0.816245  0.000000  0.000000  1
  Si  Si19  1  0.000000  0.816245  0.000000  1
  Ir  Ir20  1  0.805708  0.178747  0.000000  1
  Ir  Ir21  1  0.821253  0.626960  0.000000  1
  Ir  Ir22  1  0.373040  0.194292  0.000000  1
  Ir  Ir23  1  0.178747  0.805708  0.000000  1
  Ir  Ir24  1  0.626960  0.821253  0.000000  1
  Ir  Ir25  1  0.194292  0.373040  0.000000  1
  Ir  Ir26  1  0.444364  0.444364  0.000000  1
  Ir  Ir27  1  0.555636  0.000000  0.000000  1
  Ir  Ir28  1  0.000000  0.555636  0.000000  1
  Ir  Ir29  1  0.872057  0.359144  0.500000  1
  Ir  Ir30  1  0.640856  0.512915  0.500000  1
  Ir  Ir31  1  0.487085  0.127943  0.500000  1
  Ir  Ir32  1  0.359144  0.872057  0.500000  1
  Ir  Ir33  1  0.512915  0.640856  0.500000  1
  Ir  Ir34  1  0.127943  0.487085  0.500000  1
  Ir  Ir35  1  0.000000  0.000000  0.000000  1
