# generated using pymatgen
data_Nd17Ho3Sn11Bi5
_symmetry_space_group_name_H-M   'P 1'
_cell_length_a   8.40916970
_cell_length_b   8.40546271
_cell_length_c   16.06696000
_cell_angle_alpha   90.09154554
_cell_angle_beta   90.39188765
_cell_angle_gamma   89.85970022
_symmetry_Int_Tables_number   1
_chemical_formula_structural   Nd17Ho3Sn11Bi5
_chemical_formula_sum   'Nd17 Ho3 Sn11 Bi5'
_cell_volume   1135.62893949
_cell_formula_units_Z   1
loop_
 _symmetry_equiv_pos_site_id
 _symmetry_equiv_pos_as_xyz
  1  'x, y, z'
loop_
 _atom_site_type_symbol
 _atom_site_label
 _atom_site_symmetry_multiplicity
 _atom_site_fract_x
 _atom_site_fract_y
 _atom_site_fract_z
 _atom_site_occupancy
  Nd  Nd0  1  0.392751  0.838303  0.880406  1
  Nd  Nd1  1  0.892079  0.661279  0.619483  1
  Nd  Nd2  1  0.607483  0.159921  0.379857  1
  Nd  Nd3  1  0.104289  0.337872  0.119980  1
  Nd  Nd4  1  0.609779  0.164954  0.120258  1
  Nd  Nd5  1  0.113829  0.336354  0.381339  1
  Nd  Nd6  1  0.385114  0.838430  0.618319  1
  Nd  Nd7  1  0.888916  0.659509  0.881319  1
  Nd  Nd8  1  0.559484  0.332865  0.891141  1
  Nd  Nd9  1  0.055921  0.173702  0.606886  1
  Nd  Nd10  1  0.444147  0.673667  0.392898  1
  Nd  Nd11  1  0.943639  0.823663  0.110296  1
  Nd  Nd12  1  0.450712  0.666902  0.109479  1
  Nd  Nd13  1  0.958838  0.826996  0.394134  1
  Nd  Nd14  1  0.541226  0.327946  0.604998  1
  Nd  Nd15  1  0.051137  0.174582  0.891092  1
  Nd  Nd16  1  0.220693  0.499507  0.745613  1
  Ho  Ho17  1  0.721919  0.001937  0.748826  1
  Ho  Ho18  1  0.778038  0.499373  0.248006  1
  Ho  Ho19  1  0.277968  0.998417  0.253879  1
  Sn  Sn20  1  0.227414  0.525698  0.543942  1
  Sn  Sn21  1  0.273221  0.023559  0.453042  1
  Sn  Sn22  1  0.769052  0.480454  0.048085  1
  Sn  Sn23  1  0.590800  0.628829  0.748990  1
  Sn  Sn24  1  0.086562  0.876801  0.751605  1
  Sn  Sn25  1  0.410885  0.372691  0.250070  1
  Sn  Sn26  1  0.911840  0.125100  0.251030  1
  Sn  Sn27  1  0.357731  0.139977  0.750886  1
  Sn  Sn28  1  0.851740  0.356729  0.748351  1
  Sn  Sn29  1  0.645502  0.856403  0.251388  1
  Sn  Sn30  1  0.145264  0.640966  0.250309  1
  Bi  Bi31  1  0.266750  0.014802  0.049078  1
  Bi  Bi32  1  0.769546  0.479952  0.452101  1
  Bi  Bi33  1  0.730552  0.980723  0.547242  1
  Bi  Bi34  1  0.232908  0.518083  0.953837  1
  Bi  Bi35  1  0.732270  0.983054  0.951829  1
