# generated using pymatgen
data_CaYb11(ErSn2)8
_symmetry_space_group_name_H-M   'P 1'
_cell_length_a   7.82506088
_cell_length_b   8.41555581
_cell_length_c   15.96692400
_cell_angle_alpha   90.03950186
_cell_angle_beta   90.18293534
_cell_angle_gamma   89.89992142
_symmetry_Int_Tables_number   1
_chemical_formula_structural   CaYb11(ErSn2)8
_chemical_formula_sum   'Ca1 Yb11 Er8 Sn16'
_cell_volume   1051.45044718
_cell_formula_units_Z   1
loop_
 _symmetry_equiv_pos_site_id
 _symmetry_equiv_pos_as_xyz
  1  'x, y, z'
loop_
 _atom_site_type_symbol
 _atom_site_label
 _atom_site_symmetry_multiplicity
 _atom_site_fract_x
 _atom_site_fract_y
 _atom_site_fract_z
 _atom_site_occupancy
  Ca  Ca0  1  0.504492  0.683057  0.593094  1
  Yb  Yb1  1  0.003254  0.812706  0.908152  1
  Yb  Yb2  1  0.496247  0.313182  0.092777  1
  Yb  Yb3  1  0.998001  0.187593  0.406529  1
  Yb  Yb4  1  0.497197  0.313983  0.406251  1
  Yb  Yb5  1  0.995925  0.188276  0.092954  1
  Yb  Yb6  1  0.503099  0.686880  0.906900  1
  Yb  Yb7  1  0.003370  0.813381  0.592399  1
  Yb  Yb8  1  0.834914  0.509539  0.751180  1
  Yb  Yb9  1  0.333608  0.989804  0.750731  1
  Yb  Yb10  1  0.165490  0.489631  0.249911  1
  Yb  Yb11  1  0.665351  0.011194  0.249899  1
  Er  Er12  1  0.670536  0.167186  0.622422  1
  Er  Er13  1  0.171925  0.333415  0.878411  1
  Er  Er14  1  0.327596  0.834461  0.121996  1
  Er  Er15  1  0.828930  0.666784  0.377748  1
  Er  Er16  1  0.328260  0.834560  0.377004  1
  Er  Er17  1  0.827337  0.665987  0.121957  1
  Er  Er18  1  0.672483  0.165796  0.878142  1
  Er  Er19  1  0.170945  0.332090  0.622106  1
  Sn  Sn20  1  0.672354  0.964531  0.459603  1
  Sn  Sn21  1  0.171950  0.536894  0.040484  1
  Sn  Sn22  1  0.328479  0.035928  0.959460  1
  Sn  Sn23  1  0.830081  0.461630  0.539512  1
  Sn  Sn24  1  0.328434  0.035442  0.540109  1
  Sn  Sn25  1  0.827770  0.463759  0.959779  1
  Sn  Sn26  1  0.671742  0.964177  0.040753  1
  Sn  Sn27  1  0.174138  0.537724  0.459952  1
  Sn  Sn28  1  0.469211  0.373570  0.750448  1
  Sn  Sn29  1  0.968718  0.126600  0.750046  1
  Sn  Sn30  1  0.529909  0.626317  0.249603  1
  Sn  Sn31  1  0.029523  0.874061  0.249317  1
  Sn  Sn32  1  0.716175  0.872669  0.750459  1
  Sn  Sn33  1  0.214979  0.626458  0.750313  1
  Sn  Sn34  1  0.283575  0.127324  0.249664  1
  Sn  Sn35  1  0.784003  0.373410  0.249939  1
