# generated using pymatgen
data_Th4Co4SnHg
_symmetry_space_group_name_H-M   'P 1'
_cell_length_a   7.49330500
_cell_length_b   7.49330500
_cell_length_c   3.68422300
_cell_angle_alpha   90.00000000
_cell_angle_beta   90.00000000
_cell_angle_gamma   90.00000000
_symmetry_Int_Tables_number   1
_chemical_formula_structural   Th4Co4SnHg
_chemical_formula_sum   'Th4 Co4 Sn1 Hg1'
_cell_volume   206.86772079
_cell_formula_units_Z   1
loop_
 _symmetry_equiv_pos_site_id
 _symmetry_equiv_pos_as_xyz
  1  'x, y, z'
loop_
 _atom_site_type_symbol
 _atom_site_label
 _atom_site_symmetry_multiplicity
 _atom_site_fract_x
 _atom_site_fract_y
 _atom_site_fract_z
 _atom_site_occupancy
  Th  Th0  1  0.330205  0.829504  0.500000  1
  Th  Th1  1  0.829504  0.669795  0.500000  1
  Th  Th2  1  0.170496  0.330205  0.500000  1
  Th  Th3  1  0.669795  0.170496  0.500000  1
  Co  Co4  1  0.376492  0.135080  0.000000  1
  Co  Co5  1  0.864920  0.376492  0.000000  1
  Co  Co6  1  0.135080  0.623508  0.000000  1
  Co  Co7  1  0.623508  0.864920  0.000000  1
  Sn  Sn8  1  0.500000  0.500000  0.000000  1
  Hg  Hg9  1  0.000000  0.000000  0.000000  1
