# generated using pymatgen
data_Si4Pt3W
_symmetry_space_group_name_H-M   'P 1'
_cell_length_a   3.54532500
_cell_length_b   5.56066200
_cell_length_c   24.52884400
_cell_angle_alpha   90.00000000
_cell_angle_beta   90.00000000
_cell_angle_gamma   90.00000000
_symmetry_Int_Tables_number   1
_chemical_formula_structural   Si4Pt3W
_chemical_formula_sum   'Si16 Pt12 W4'
_cell_volume   483.57031395
_cell_formula_units_Z   4
loop_
 _symmetry_equiv_pos_site_id
 _symmetry_equiv_pos_as_xyz
  1  'x, y, z'
loop_
 _atom_site_type_symbol
 _atom_site_label
 _atom_site_symmetry_multiplicity
 _atom_site_fract_x
 _atom_site_fract_y
 _atom_site_fract_z
 _atom_site_occupancy
  Si  Si0  1  0.250000  0.179382  0.519722  1
  Si  Si1  1  0.750000  0.320618  0.019722  1
  Si  Si2  1  0.250000  0.679382  0.980278  1
  Si  Si3  1  0.750000  0.820618  0.480278  1
  Si  Si4  1  0.750000  0.320082  0.645342  1
  Si  Si5  1  0.250000  0.179918  0.145342  1
  Si  Si6  1  0.750000  0.820082  0.854658  1
  Si  Si7  1  0.250000  0.679918  0.354658  1
  Si  Si8  1  0.250000  0.661034  0.609317  1
  Si  Si9  1  0.750000  0.838966  0.109317  1
  Si  Si10  1  0.250000  0.161034  0.890683  1
  Si  Si11  1  0.750000  0.338966  0.390683  1
  Si  Si12  1  0.750000  0.829944  0.725689  1
  Si  Si13  1  0.250000  0.670056  0.225689  1
  Si  Si14  1  0.750000  0.329944  0.774311  1
  Si  Si15  1  0.250000  0.170056  0.274311  1
  Pt  Pt16  1  0.750000  0.001329  0.574714  1
  Pt  Pt17  1  0.250000  0.498671  0.074714  1
  Pt  Pt18  1  0.750000  0.501329  0.925286  1
  Pt  Pt19  1  0.250000  0.998671  0.425286  1
  Pt  Pt20  1  0.250000  0.004215  0.670000  1
  Pt  Pt21  1  0.750000  0.495785  0.170000  1
  Pt  Pt22  1  0.250000  0.504215  0.830000  1
  Pt  Pt23  1  0.750000  0.995785  0.330000  1
  Pt  Pt24  1  0.750000  0.502038  0.548329  1
  Pt  Pt25  1  0.250000  0.997962  0.048329  1
  Pt  Pt26  1  0.750000  0.002038  0.951671  1
  Pt  Pt27  1  0.250000  0.497962  0.451671  1
  W  W28  1  0.250000  0.503579  0.710342  1
  W  W29  1  0.750000  0.996421  0.210342  1
  W  W30  1  0.250000  0.003579  0.789658  1
  W  W31  1  0.750000  0.496421  0.289658  1
