# generated using pymatgen
data_Pr2DyTm(Zn5Sn)2
_symmetry_space_group_name_H-M   'P 1'
_cell_length_a   8.47371077
_cell_length_b   8.47371229
_cell_length_c   9.03671800
_cell_angle_alpha   90.00000000
_cell_angle_beta   90.00000000
_cell_angle_gamma   149.74543372
_symmetry_Int_Tables_number   1
_chemical_formula_structural   Pr2DyTm(Zn5Sn)2
_chemical_formula_sum   'Pr2 Dy1 Tm1 Zn10 Sn2'
_cell_volume   326.92878047
_cell_formula_units_Z   1
loop_
 _symmetry_equiv_pos_site_id
 _symmetry_equiv_pos_as_xyz
  1  'x, y, z'
loop_
 _atom_site_type_symbol
 _atom_site_label
 _atom_site_symmetry_multiplicity
 _atom_site_fract_x
 _atom_site_fract_y
 _atom_site_fract_z
 _atom_site_occupancy
  Pr  Pr0  1  0.999854  0.000146  0.500382  1
  Pr  Pr1  1  0.999854  0.000146  0.999618  1
  Dy  Dy2  1  0.204749  0.795251  0.250000  1
  Tm  Tm3  1  0.795143  0.204857  0.750000  1
  Zn  Zn4  1  0.811934  0.188066  0.390476  1
  Zn  Zn5  1  0.188308  0.811692  0.610237  1
  Zn  Zn6  1  0.811934  0.188066  0.109524  1
  Zn  Zn7  1  0.188308  0.811692  0.889763  1
  Zn  Zn8  1  0.658726  0.341274  0.482489  1
  Zn  Zn9  1  0.341314  0.658686  0.518030  1
  Zn  Zn10  1  0.658726  0.341274  0.017511  1
  Zn  Zn11  1  0.341314  0.658686  0.981970  1
  Zn  Zn12  1  0.393472  0.606528  0.250000  1
  Zn  Zn13  1  0.606737  0.393263  0.750000  1
  Sn  Sn14  1  0.556862  0.443138  0.250000  1
  Sn  Sn15  1  0.442762  0.557238  0.750000  1
