# generated using pymatgen
data_Cs15V2(InP2)5
_symmetry_space_group_name_H-M   'P 1'
_cell_length_a   8.90992678
_cell_length_b   9.72178940
_cell_length_c   14.74731526
_cell_angle_alpha   86.44765855
_cell_angle_beta   85.66422883
_cell_angle_gamma   84.58926341
_symmetry_Int_Tables_number   1
_chemical_formula_structural   Cs15V2(InP2)5
_chemical_formula_sum   'Cs15 V2 In5 P10'
_cell_volume   1266.15162953
_cell_formula_units_Z   1
loop_
 _symmetry_equiv_pos_site_id
 _symmetry_equiv_pos_as_xyz
  1  'x, y, z'
loop_
 _atom_site_type_symbol
 _atom_site_label
 _atom_site_symmetry_multiplicity
 _atom_site_fract_x
 _atom_site_fract_y
 _atom_site_fract_z
 _atom_site_occupancy
  Cs  Cs0  1  0.854142  0.357516  0.649525  1
  Cs  Cs1  1  0.802830  0.798123  0.147342  1
  Cs  Cs2  1  0.241759  0.005059  0.469260  1
  Cs  Cs3  1  0.271715  0.258272  0.252021  1
  Cs  Cs4  1  0.734165  0.492938  0.975311  1
  Cs  Cs5  1  0.279476  0.488236  0.022100  1
  Cs  Cs6  1  0.644051  0.093825  0.879681  1
  Cs  Cs7  1  0.766971  0.995788  0.530935  1
  Cs  Cs8  1  0.728966  0.730572  0.740225  1
  Cs  Cs9  1  0.335221  0.345884  0.599255  1
  Cs  Cs10  1  0.158028  0.634205  0.352626  1
  Cs  Cs11  1  0.187617  0.209773  0.855640  1
  Cs  Cs12  1  0.336362  0.914203  0.116674  1
  Cs  Cs13  1  0.662329  0.647943  0.407400  1
  Cs  Cs14  1  0.023181  0.840563  0.896355  1
  V  V15  1  0.356458  0.607478  0.773620  1
  V  V16  1  0.647784  0.390747  0.224729  1
  In  In17  1  0.929246  0.183263  0.132255  1
  In  In18  1  0.357886  0.938020  0.711672  1
  In  In19  1  0.103683  0.725832  0.630818  1
  In  In20  1  0.900226  0.279550  0.368965  1
  In  In21  1  0.641996  0.062204  0.291691  1
  P  P22  1  0.898887  0.440429  0.209213  1
  P  P23  1  0.621067  0.212750  0.127685  1
  P  P24  1  0.108147  0.550566  0.780832  1
  P  P25  1  0.594262  0.304784  0.374447  1
  P  P26  1  0.410436  0.696252  0.624457  1
  P  P27  1  0.048195  0.000212  0.690968  1
  P  P28  1  0.508482  0.416771  0.803489  1
  P  P29  1  0.496420  0.580365  0.195767  1
  P  P30  1  0.391941  0.782436  0.872294  1
  P  P31  1  0.958075  0.015442  0.292745  1
