# generated using pymatgen
data_CaLa2(ThB15)2
_symmetry_space_group_name_H-M   'P 1'
_cell_length_a   4.13444100
_cell_length_b   4.13444100
_cell_length_c   20.68711100
_cell_angle_alpha   90.00000000
_cell_angle_beta   90.00000000
_cell_angle_gamma   90.00000000
_symmetry_Int_Tables_number   1
_chemical_formula_structural   CaLa2(ThB15)2
_chemical_formula_sum   'Ca1 La2 Th2 B30'
_cell_volume   353.61724988
_cell_formula_units_Z   1
loop_
 _symmetry_equiv_pos_site_id
 _symmetry_equiv_pos_as_xyz
  1  'x, y, z'
loop_
 _atom_site_type_symbol
 _atom_site_label
 _atom_site_symmetry_multiplicity
 _atom_site_fract_x
 _atom_site_fract_y
 _atom_site_fract_z
 _atom_site_occupancy
  Ca  Ca0  1  0.000000  0.000000  0.000647  1
  La  La1  1  0.000000  0.000000  0.200841  1
  La  La2  1  0.000000  0.000000  0.400138  1
  Th  Th3  1  0.000000  0.000000  0.603896  1
  Th  Th4  1  0.000000  0.000000  0.795193  1
  B  B5  1  0.500000  0.500000  0.159624  1
  B  B6  1  0.500000  0.500000  0.360741  1
  B  B7  1  0.500000  0.500000  0.560994  1
  B  B8  1  0.500000  0.500000  0.760458  1
  B  B9  1  0.500000  0.500000  0.959187  1
  B  B10  1  0.500000  0.200201  0.099345  1
  B  B11  1  0.500000  0.199464  0.300316  1
  B  B12  1  0.500000  0.198733  0.501150  1
  B  B13  1  0.500000  0.197186  0.699866  1
  B  B14  1  0.500000  0.199435  0.899200  1
  B  B15  1  0.200201  0.500000  0.099345  1
  B  B16  1  0.199464  0.500000  0.300316  1
  B  B17  1  0.198733  0.500000  0.501150  1
  B  B18  1  0.197186  0.500000  0.699866  1
  B  B19  1  0.199435  0.500000  0.899200  1
  B  B20  1  0.500000  0.500000  0.039402  1
  B  B21  1  0.500000  0.500000  0.239939  1
  B  B22  1  0.500000  0.500000  0.440680  1
  B  B23  1  0.500000  0.500000  0.639488  1
  B  B24  1  0.500000  0.500000  0.839259  1
  B  B25  1  0.500000  0.799799  0.099345  1
  B  B26  1  0.500000  0.800536  0.300316  1
  B  B27  1  0.500000  0.801267  0.501150  1
  B  B28  1  0.500000  0.802814  0.699866  1
  B  B29  1  0.500000  0.800565  0.899200  1
  B  B30  1  0.799799  0.500000  0.099345  1
  B  B31  1  0.800536  0.500000  0.300316  1
  B  B32  1  0.801267  0.500000  0.501150  1
  B  B33  1  0.802814  0.500000  0.699866  1
  B  B34  1  0.800565  0.500000  0.899200  1
