# generated using pymatgen
data_Lu12Co4CuPb
_symmetry_space_group_name_H-M   'P 1'
_cell_length_a   8.13878558
_cell_length_b   8.13878521
_cell_length_c   8.13878522
_cell_angle_alpha   111.14674483
_cell_angle_beta   110.56896340
_cell_angle_gamma   106.73272959
_symmetry_Int_Tables_number   1
_chemical_formula_structural   Lu12Co4CuPb
_chemical_formula_sum   'Lu12 Co4 Cu1 Pb1'
_cell_volume   414.29056330
_cell_formula_units_Z   1
loop_
 _symmetry_equiv_pos_site_id
 _symmetry_equiv_pos_as_xyz
  1  'x, y, z'
loop_
 _atom_site_type_symbol
 _atom_site_label
 _atom_site_symmetry_multiplicity
 _atom_site_fract_x
 _atom_site_fract_y
 _atom_site_fract_z
 _atom_site_occupancy
  Lu  Lu0  1  0.421349  0.218586  0.202762  1
  Lu  Lu1  1  0.578651  0.781414  0.797238  1
  Lu  Lu2  1  0.015824  0.218586  0.797238  1
  Lu  Lu3  1  0.984176  0.781414  0.202762  1
  Lu  Lu4  1  0.183993  0.286019  0.470012  1
  Lu  Lu5  1  0.816007  0.713981  0.529988  1
  Lu  Lu6  1  0.183993  0.713981  0.897975  1
  Lu  Lu7  1  0.816007  0.286019  0.102025  1
  Lu  Lu8  1  0.313848  0.619002  0.305154  1
  Lu  Lu9  1  0.686152  0.380998  0.694846  1
  Lu  Lu10  1  0.313848  0.008694  0.694846  1
  Lu  Lu11  1  0.686152  0.991306  0.305154  1
  Co  Co12  1  0.375809  0.000000  0.375809  1
  Co  Co13  1  0.624191  0.000000  0.624191  1
  Co  Co14  1  0.113986  0.613986  0.500000  1
  Co  Co15  1  0.886014  0.386014  0.500000  1
  Cu  Cu16  1  0.000000  0.000000  0.000000  1
  Pb  Pb17  1  0.500000  0.500000  0.000000  1
