# generated using pymatgen
data_Gd8MgIn(HgAu4)2
_symmetry_space_group_name_H-M   'P 1'
_cell_length_a   8.12137300
_cell_length_b   8.12137300
_cell_length_c   7.50341600
_cell_angle_alpha   90.00000000
_cell_angle_beta   90.00000000
_cell_angle_gamma   90.00000000
_symmetry_Int_Tables_number   1
_chemical_formula_structural   Gd8MgIn(HgAu4)2
_chemical_formula_sum   'Gd8 Mg1 In1 Hg2 Au8'
_cell_volume   494.90055362
_cell_formula_units_Z   1
loop_
 _symmetry_equiv_pos_site_id
 _symmetry_equiv_pos_as_xyz
  1  'x, y, z'
loop_
 _atom_site_type_symbol
 _atom_site_label
 _atom_site_symmetry_multiplicity
 _atom_site_fract_x
 _atom_site_fract_y
 _atom_site_fract_z
 _atom_site_occupancy
  Gd  Gd0  1  0.827456  0.157148  0.499730  1
  Gd  Gd1  1  0.172544  0.842852  0.499730  1
  Gd  Gd2  1  0.342852  0.327456  0.000270  1
  Gd  Gd3  1  0.657148  0.672544  0.000270  1
  Gd  Gd4  1  0.670602  0.689039  0.499480  1
  Gd  Gd5  1  0.329398  0.310961  0.499480  1
  Gd  Gd6  1  0.189039  0.829398  0.000520  1
  Gd  Gd7  1  0.810961  0.170602  0.000520  1
  Mg  Mg8  1  0.000000  0.500000  0.750000  1
  In  In9  1  0.000000  0.500000  0.250000  1
  Hg  Hg10  1  0.500000  0.000000  0.250000  1
  Hg  Hg11  1  0.500000  0.000000  0.750000  1
  Au  Au12  1  0.632386  0.378809  0.266030  1
  Au  Au13  1  0.367614  0.621191  0.266030  1
  Au  Au14  1  0.116122  0.139532  0.765485  1
  Au  Au15  1  0.883878  0.860468  0.765485  1
  Au  Au16  1  0.360468  0.616122  0.734515  1
  Au  Au17  1  0.639532  0.383878  0.734515  1
  Au  Au18  1  0.878809  0.867614  0.233970  1
  Au  Au19  1  0.121191  0.132386  0.233970  1
