# generated using pymatgen
data_La6Pr2SnPd24
_symmetry_space_group_name_H-M   'P 1'
_cell_length_a   8.59475353
_cell_length_b   8.59475353
_cell_length_c   8.59475353
_cell_angle_alpha   90.02834189
_cell_angle_beta   90.02834189
_cell_angle_gamma   90.02834189
_symmetry_Int_Tables_number   1
_chemical_formula_structural   La6Pr2SnPd24
_chemical_formula_sum   'La6 Pr2 Sn1 Pd24'
_cell_volume   634.89238923
_cell_formula_units_Z   1
loop_
 _symmetry_equiv_pos_site_id
 _symmetry_equiv_pos_as_xyz
  1  'x, y, z'
loop_
 _atom_site_type_symbol
 _atom_site_label
 _atom_site_symmetry_multiplicity
 _atom_site_fract_x
 _atom_site_fract_y
 _atom_site_fract_z
 _atom_site_occupancy
  La  La0  1  0.747552  0.747552  0.252509  1
  La  La1  1  0.747552  0.252509  0.747552  1
  La  La2  1  0.252448  0.252448  0.747491  1
  La  La3  1  0.252448  0.747491  0.252448  1
  La  La4  1  0.252509  0.747552  0.747552  1
  La  La5  1  0.747491  0.252448  0.252448  1
  Pr  Pr6  1  0.251791  0.251791  0.251791  1
  Pr  Pr7  1  0.748209  0.748209  0.748209  1
  Sn  Sn8  1  0.000000  0.000000  0.000000  1
  Pd  Pd9  1  0.267092  0.500042  0.999935  1
  Pd  Pd10  1  0.732908  0.499958  0.000065  1
  Pd  Pd11  1  0.999935  0.267092  0.500042  1
  Pd  Pd12  1  0.500042  0.267092  0.999935  1
  Pd  Pd13  1  0.000065  0.732908  0.499958  1
  Pd  Pd14  1  0.499958  0.732908  0.000065  1
  Pd  Pd15  1  0.500042  0.999935  0.267092  1
  Pd  Pd16  1  0.267092  0.999935  0.500042  1
  Pd  Pd17  1  0.499958  0.000065  0.732908  1
  Pd  Pd18  1  0.732908  0.000065  0.499958  1
  Pd  Pd19  1  0.999935  0.500042  0.267092  1
  Pd  Pd20  1  0.000065  0.499958  0.732908  1
  Pd  Pd21  1  0.255621  0.499929  0.499929  1
  Pd  Pd22  1  0.744379  0.500071  0.500071  1
  Pd  Pd23  1  0.499929  0.255621  0.499929  1
  Pd  Pd24  1  0.500071  0.744379  0.500071  1
  Pd  Pd25  1  0.499929  0.499929  0.255621  1
  Pd  Pd26  1  0.500071  0.500071  0.744379  1
  Pd  Pd27  1  0.313451  0.000141  0.000141  1
  Pd  Pd28  1  0.686549  0.999859  0.999859  1
  Pd  Pd29  1  0.000141  0.313451  0.000141  1
  Pd  Pd30  1  0.999859  0.686549  0.999859  1
  Pd  Pd31  1  0.000141  0.000141  0.313451  1
  Pd  Pd32  1  0.999859  0.999859  0.686549  1
