# generated using pymatgen
data_Ce8(DyS4)3
_symmetry_space_group_name_H-M   'P 1'
_cell_length_a   5.63744300
_cell_length_b   5.63744300
_cell_length_c   16.94057800
_cell_angle_alpha   90.00000000
_cell_angle_beta   90.00000000
_cell_angle_gamma   90.00000000
_symmetry_Int_Tables_number   1
_chemical_formula_structural   Ce8(DyS4)3
_chemical_formula_sum   'Ce8 Dy3 S12'
_cell_volume   538.38450430
_cell_formula_units_Z   1
loop_
 _symmetry_equiv_pos_site_id
 _symmetry_equiv_pos_as_xyz
  1  'x, y, z'
loop_
 _atom_site_type_symbol
 _atom_site_label
 _atom_site_symmetry_multiplicity
 _atom_site_fract_x
 _atom_site_fract_y
 _atom_site_fract_z
 _atom_site_occupancy
  Ce  Ce0  1  0.000000  0.000000  0.333247  1
  Ce  Ce1  1  0.000000  0.500000  0.499864  1
  Ce  Ce2  1  0.000000  0.000000  0.666753  1
  Ce  Ce3  1  0.000000  0.500000  0.837969  1
  Ce  Ce4  1  0.500000  0.000000  0.162031  1
  Ce  Ce5  1  0.500000  0.500000  0.331314  1
  Ce  Ce6  1  0.500000  0.000000  0.500136  1
  Ce  Ce7  1  0.500000  0.500000  0.668686  1
  Dy  Dy8  1  0.000000  0.500000  0.161660  1
  Dy  Dy9  1  0.500000  0.500000  0.000000  1
  Dy  Dy10  1  0.500000  0.000000  0.838340  1
  S  S11  1  0.500000  0.500000  0.161740  1
  S  S12  1  0.500000  0.000000  0.331317  1
  S  S13  1  0.000000  0.000000  0.165221  1
  S  S14  1  0.500000  0.500000  0.500000  1
  S  S15  1  0.500000  0.000000  0.672067  1
  S  S16  1  0.000000  0.500000  0.327933  1
  S  S17  1  0.000000  0.000000  0.500000  1
  S  S18  1  0.500000  0.500000  0.838260  1
  S  S19  1  0.500000  0.000000  0.997966  1
  S  S20  1  0.000000  0.500000  0.668683  1
  S  S21  1  0.000000  0.000000  0.834779  1
  S  S22  1  0.000000  0.500000  0.002034  1
