# generated using pymatgen
data_Sm2Y18Si15Ir
_symmetry_space_group_name_H-M   'P 1'
_cell_length_a   7.42025463
_cell_length_b   7.75645424
_cell_length_c   14.68115400
_cell_angle_alpha   89.73352574
_cell_angle_beta   89.97634893
_cell_angle_gamma   89.92654594
_symmetry_Int_Tables_number   1
_chemical_formula_structural   Sm2Y18Si15Ir
_chemical_formula_sum   'Sm2 Y18 Si15 Ir1'
_cell_volume   844.96194136
_cell_formula_units_Z   1
loop_
 _symmetry_equiv_pos_site_id
 _symmetry_equiv_pos_as_xyz
  1  'x, y, z'
loop_
 _atom_site_type_symbol
 _atom_site_label
 _atom_site_symmetry_multiplicity
 _atom_site_fract_x
 _atom_site_fract_y
 _atom_site_fract_z
 _atom_site_occupancy
  Sm  Sm0  1  0.524940  0.567425  0.344923  1
  Sm  Sm1  1  0.025828  0.430948  0.654976  1
  Y  Y2  1  0.809183  0.575872  0.875984  1
  Y  Y3  1  0.323544  0.431147  0.124602  1
  Y  Y4  1  0.183194  0.928211  0.373029  1
  Y  Y5  1  0.682144  0.069449  0.626805  1
  Y  Y6  1  0.183717  0.928063  0.627611  1
  Y  Y7  1  0.682294  0.070020  0.372619  1
  Y  Y8  1  0.810937  0.574082  0.124702  1
  Y  Y9  1  0.325014  0.433684  0.874692  1
  Y  Y10  1  0.643431  0.235641  0.999640  1
  Y  Y11  1  0.157490  0.761992  0.000410  1
  Y  Y12  1  0.351237  0.263771  0.499849  1
  Y  Y13  1  0.850600  0.734503  0.499941  1
  Y  Y14  1  0.476463  0.926750  0.846938  1
  Y  Y15  1  0.972592  0.066250  0.152967  1
  Y  Y16  1  0.476169  0.927204  0.153221  1
  Y  Y17  1  0.971950  0.067336  0.847086  1
  Y  Y18  1  0.527855  0.565504  0.652523  1
  Y  Y19  1  0.027763  0.433285  0.347203  1
  Si  Si20  1  0.018672  0.350316  0.000039  1
  Si  Si21  1  0.477176  0.855030  0.500451  1
  Si  Si22  1  0.978827  0.143364  0.499636  1
  Si  Si23  1  0.650656  0.276516  0.789279  1
  Si  Si24  1  0.147198  0.720504  0.210714  1
  Si  Si25  1  0.353570  0.220022  0.289061  1
  Si  Si26  1  0.852128  0.779920  0.711285  1
  Si  Si27  1  0.357300  0.221470  0.710402  1
  Si  Si28  1  0.855782  0.778523  0.289276  1
  Si  Si29  1  0.647880  0.272498  0.208922  1
  Si  Si30  1  0.143421  0.723766  0.790845  1
  Si  Si31  1  0.768549  0.882903  0.000531  1
  Si  Si32  1  0.257341  0.126787  0.999756  1
  Si  Si33  1  0.233674  0.624385  0.500792  1
  Si  Si34  1  0.734002  0.375224  0.499319  1
  Ir  Ir35  1  0.517479  0.657635  0.999974  1
