# generated using pymatgen
data_Eu2ReMoO7
_symmetry_space_group_name_H-M   'P 1'
_cell_length_a   7.52245684
_cell_length_b   7.52245653
_cell_length_c   7.50265500
_cell_angle_alpha   60.08704280
_cell_angle_beta   60.08704412
_cell_angle_gamma   60.35713880
_symmetry_Int_Tables_number   1
_chemical_formula_structural   Eu2ReMoO7
_chemical_formula_sum   'Eu4 Re2 Mo2 O14'
_cell_volume   301.40544790
_cell_formula_units_Z   2
loop_
 _symmetry_equiv_pos_site_id
 _symmetry_equiv_pos_as_xyz
  1  'x, y, z'
loop_
 _atom_site_type_symbol
 _atom_site_label
 _atom_site_symmetry_multiplicity
 _atom_site_fract_x
 _atom_site_fract_y
 _atom_site_fract_z
 _atom_site_occupancy
  Eu  Eu0  1  0.625000  0.125000  0.125000  1
  Eu  Eu1  1  0.125000  0.625000  0.125000  1
  Eu  Eu2  1  0.125000  0.125000  0.625000  1
  Eu  Eu3  1  0.125000  0.125000  0.125000  1
  Re  Re4  1  0.125000  0.625000  0.625000  1
  Re  Re5  1  0.625000  0.125000  0.625000  1
  Mo  Mo6  1  0.625000  0.625000  0.125000  1
  Mo  Mo7  1  0.625000  0.625000  0.625000  1
  O  O8  1  0.246396  0.246396  0.253604  1
  O  O9  1  0.003604  0.003604  0.996396  1
  O  O10  1  0.716097  0.716097  0.283903  1
  O  O11  1  0.327891  0.327891  0.672109  1
  O  O12  1  0.714928  0.284506  0.686994  1
  O  O13  1  0.284506  0.714928  0.313572  1
  O  O14  1  0.284506  0.714928  0.686994  1
  O  O15  1  0.714928  0.284506  0.313572  1
  O  O16  1  0.533903  0.533903  0.966097  1
  O  O17  1  0.922109  0.922109  0.577891  1
  O  O18  1  0.535072  0.965494  0.563006  1
  O  O19  1  0.965494  0.535072  0.936428  1
  O  O20  1  0.965494  0.535072  0.563006  1
  O  O21  1  0.535072  0.965494  0.936428  1
