# generated using pymatgen
data_Dy5(MnB3)2
_symmetry_space_group_name_H-M   'P 1'
_cell_length_a   5.42583508
_cell_length_b   5.42583461
_cell_length_c   8.32760211
_cell_angle_alpha   70.98752499
_cell_angle_beta   70.98752844
_cell_angle_gamma   59.99998775
_symmetry_Int_Tables_number   1
_chemical_formula_structural   Dy5(MnB3)2
_chemical_formula_sum   'Dy5 Mn2 B6'
_cell_volume   196.72184775
_cell_formula_units_Z   1
loop_
 _symmetry_equiv_pos_site_id
 _symmetry_equiv_pos_as_xyz
  1  'x, y, z'
loop_
 _atom_site_type_symbol
 _atom_site_label
 _atom_site_symmetry_multiplicity
 _atom_site_fract_x
 _atom_site_fract_y
 _atom_site_fract_z
 _atom_site_occupancy
  Dy  Dy0  1  0.000000  0.000000  0.000000  1
  Dy  Dy1  1  0.250729  0.250729  0.247812  1
  Dy  Dy2  1  0.749271  0.749271  0.752188  1
  Dy  Dy3  1  0.416456  0.416456  0.750631  1
  Dy  Dy4  1  0.583544  0.583544  0.249369  1
  Mn  Mn5  1  0.115530  0.115530  0.653409  1
  Mn  Mn6  1  0.884470  0.884470  0.346591  1
  B  B7  1  0.166448  0.833552  0.500000  1
  B  B8  1  0.833552  0.500000  0.500000  1
  B  B9  1  0.500000  0.166448  0.500000  1
  B  B10  1  0.166448  0.500000  0.500000  1
  B  B11  1  0.500000  0.833552  0.500000  1
  B  B12  1  0.833552  0.166448  0.500000  1
