# generated using pymatgen
data_Li15Sn3Bi
_symmetry_space_group_name_H-M   'P 1'
_cell_length_a   9.80209255
_cell_length_b   9.80240302
_cell_length_c   9.80209211
_cell_angle_alpha   109.48583227
_cell_angle_beta   109.45752773
_cell_angle_gamma   109.46901367
_symmetry_Int_Tables_number   1
_chemical_formula_structural   Li15Sn3Bi
_chemical_formula_sum   'Li30 Sn6 Bi2'
_cell_volume   725.02857929
_cell_formula_units_Z   2
loop_
 _symmetry_equiv_pos_site_id
 _symmetry_equiv_pos_as_xyz
  1  'x, y, z'
loop_
 _atom_site_type_symbol
 _atom_site_label
 _atom_site_symmetry_multiplicity
 _atom_site_fract_x
 _atom_site_fract_y
 _atom_site_fract_z
 _atom_site_occupancy
  Li  Li0  1  0.339851  0.805223  0.726488  1
  Li  Li1  1  0.122401  0.750000  0.872401  1
  Li  Li2  1  0.728897  0.347262  0.808569  1
  Li  Li3  1  0.623835  0.775830  0.586759  1
  Li  Li4  1  0.031305  0.913207  0.690701  1
  Li  Li5  1  0.085061  0.273452  0.116710  1
  Li  Li6  1  0.921264  0.694777  0.034627  1
  Li  Li7  1  0.273510  0.114061  0.087258  1
  Li  Li8  1  0.185971  0.412482  0.526029  1
  Li  Li9  1  0.777495  0.586793  0.618099  1
  Li  Li10  1  0.692322  0.031701  0.919395  1
  Li  Li11  1  0.533299  0.191983  0.410173  1
  Li  Li12  1  0.628560  0.375124  0.255855  1
  Li  Li13  1  0.461308  0.152738  0.881635  1
  Li  Li14  1  0.880730  0.124876  0.753435  1
  Li  Li15  1  0.973196  0.385939  0.659448  1
  Li  Li16  1  0.407715  0.528054  0.189594  1
  Li  Li17  1  0.113549  0.087518  0.273490  1
  Li  Li18  1  0.307821  0.842206  0.218267  1
  Li  Li19  1  0.754547  0.880546  0.126393  1
  Li  Li20  1  0.887696  0.468299  0.160622  1
  Li  Li21  1  0.588590  0.622276  0.775235  1
  Li  Li22  1  0.376060  0.657794  0.965615  1
  Li  Li23  1  0.810929  0.724170  0.348005  1
  Li  Li24  1  0.661540  0.971946  0.379661  1
  Li  Li25  1  0.152959  0.877724  0.466314  1
  Li  Li26  1  0.218190  0.308017  0.841316  1
  Li  Li27  1  0.369687  0.250000  0.619687  1
  Li  Li28  1  0.843258  0.226548  0.311610  1
  Li  Li29  1  0.245846  0.619454  0.374000  1
  Sn  Sn30  1  0.501019  0.000027  0.085155  1
  Sn  Sn31  1  0.000843  0.083260  0.500769  1
  Sn  Sn32  1  0.000205  0.585927  0.499682  1
  Sn  Sn33  1  0.085129  0.499973  0.000992  1
  Sn  Sn34  1  0.417509  0.416740  0.417583  1
  Sn  Sn35  1  0.913757  0.914073  0.914280  1
  Bi  Bi36  1  0.500301  0.000877  0.584725  1
  Bi  Bi37  1  0.583849  0.499123  0.999425  1
