# generated using pymatgen
data_Yb4Sn3Sb3Rh7
_symmetry_space_group_name_H-M   'P 1'
_cell_length_a   7.57904053
_cell_length_b   7.58479989
_cell_length_c   7.57904127
_cell_angle_alpha   109.48661380
_cell_angle_beta   109.45582480
_cell_angle_gamma   109.48661005
_symmetry_Int_Tables_number   1
_chemical_formula_structural   Yb4Sn3Sb3Rh7
_chemical_formula_sum   'Yb4 Sn3 Sb3 Rh7'
_cell_volume   335.32675762
_cell_formula_units_Z   1
loop_
 _symmetry_equiv_pos_site_id
 _symmetry_equiv_pos_as_xyz
  1  'x, y, z'
loop_
 _atom_site_type_symbol
 _atom_site_label
 _atom_site_symmetry_multiplicity
 _atom_site_fract_x
 _atom_site_fract_y
 _atom_site_fract_z
 _atom_site_occupancy
  Yb  Yb0  1  0.501845  0.997535  0.000000  1
  Yb  Yb1  1  0.000000  0.492304  0.000000  1
  Yb  Yb2  1  0.000000  0.997535  0.501845  1
  Yb  Yb3  1  0.498155  0.495689  0.498155  1
  Sn  Sn4  1  0.308718  0.995271  0.308718  1
  Sn  Sn5  1  0.000000  0.686553  0.691282  1
  Sn  Sn6  1  0.691282  0.686553  0.000000  1
  Sb  Sb7  1  0.675500  0.995255  0.675500  1
  Sb  Sb8  1  0.000000  0.319754  0.324500  1
  Sb  Sb9  1  0.324500  0.319754  0.000000  1
  Rh  Rh10  1  0.253063  0.502306  0.752779  1
  Rh  Rh11  1  0.499716  0.249243  0.746937  1
  Rh  Rh12  1  0.746937  0.249243  0.499716  1
  Rh  Rh13  1  0.500284  0.749527  0.247221  1
  Rh  Rh14  1  0.000000  0.011648  0.000000  1
  Rh  Rh15  1  0.247221  0.749527  0.500284  1
  Rh  Rh16  1  0.752779  0.502306  0.253063  1
