# generated using pymatgen
data_Nd2PaCo2Ge7
_symmetry_space_group_name_H-M   'P 1'
_cell_length_a   12.74620497
_cell_length_b   12.74620459
_cell_length_c   4.22147800
_cell_angle_alpha   90.00000000
_cell_angle_beta   90.00000000
_cell_angle_gamma   160.56826284
_symmetry_Int_Tables_number   1
_chemical_formula_structural   Nd2PaCo2Ge7
_chemical_formula_sum   'Nd2 Pa1 Co2 Ge7'
_cell_volume   228.16952543
_cell_formula_units_Z   1
loop_
 _symmetry_equiv_pos_site_id
 _symmetry_equiv_pos_as_xyz
  1  'x, y, z'
loop_
 _atom_site_type_symbol
 _atom_site_label
 _atom_site_symmetry_multiplicity
 _atom_site_fract_x
 _atom_site_fract_y
 _atom_site_fract_z
 _atom_site_occupancy
  Nd  Nd0  1  0.900728  0.099272  0.500000  1
  Nd  Nd1  1  0.533329  0.466671  0.500000  1
  Pa  Pa2  1  0.217024  0.782976  0.000000  1
  Co  Co3  1  0.343434  0.656566  0.000000  1
  Co  Co4  1  0.090744  0.909256  0.000000  1
  Ge  Ge5  1  0.629698  0.370302  0.000000  1
  Ge  Ge6  1  0.437875  0.562125  0.000000  1
  Ge  Ge7  1  0.130137  0.869863  0.500000  1
  Ge  Ge8  1  0.996335  0.003665  0.000000  1
  Ge  Ge9  1  0.804187  0.195813  0.000000  1
  Ge  Ge10  1  0.716040  0.283960  0.500000  1
  Ge  Ge11  1  0.303769  0.696231  0.500000  1
