# generated using pymatgen
data_Rb3HoBi2
_symmetry_space_group_name_H-M   'P 1'
_cell_length_a   10.36626453
_cell_length_b   10.36626472
_cell_length_c   10.36626511
_cell_angle_alpha   128.05876997
_cell_angle_beta   70.52466036
_cell_angle_gamma   135.80173610
_symmetry_Int_Tables_number   1
_chemical_formula_structural   Rb3HoBi2
_chemical_formula_sum   'Rb6 Ho2 Bi4'
_cell_volume   599.38777440
_cell_formula_units_Z   2
loop_
 _symmetry_equiv_pos_site_id
 _symmetry_equiv_pos_as_xyz
  1  'x, y, z'
loop_
 _atom_site_type_symbol
 _atom_site_label
 _atom_site_symmetry_multiplicity
 _atom_site_fract_x
 _atom_site_fract_y
 _atom_site_fract_z
 _atom_site_occupancy
  Rb  Rb0  1  0.250000  0.250000  0.000000  1
  Rb  Rb1  1  0.750000  0.750000  0.000000  1
  Rb  Rb2  1  0.313733  0.804954  0.118685  1
  Rb  Rb3  1  0.186267  0.304953  0.491221  1
  Rb  Rb4  1  0.813733  0.695047  0.508780  1
  Rb  Rb5  1  0.686267  0.195046  0.881314  1
  Ho  Ho6  1  0.750000  0.250000  0.500000  1
  Ho  Ho7  1  0.250000  0.749999  0.499999  1
  Bi  Bi8  1  0.901550  0.304816  0.206366  1
  Bi  Bi9  1  0.598450  0.804816  0.403267  1
  Bi  Bi10  1  0.401550  0.195184  0.596733  1
  Bi  Bi11  1  0.098450  0.695184  0.793633  1
