# generated using pymatgen
data_HoEr5Th2(MgRu)2
_symmetry_space_group_name_H-M   'P 1'
_cell_length_a   9.71220000
_cell_length_b   9.71219967
_cell_length_c   9.71057900
_cell_angle_alpha   60.00552326
_cell_angle_beta   60.00552437
_cell_angle_gamma   59.98895847
_symmetry_Int_Tables_number   1
_chemical_formula_structural   HoEr5Th2(MgRu)2
_chemical_formula_sum   'Ho2 Er10 Th4 Mg4 Ru4'
_cell_volume   647.68724324
_cell_formula_units_Z   2
loop_
 _symmetry_equiv_pos_site_id
 _symmetry_equiv_pos_as_xyz
  1  'x, y, z'
loop_
 _atom_site_type_symbol
 _atom_site_label
 _atom_site_symmetry_multiplicity
 _atom_site_fract_x
 _atom_site_fract_y
 _atom_site_fract_z
 _atom_site_occupancy
  Ho  Ho0  1  0.565003  0.565003  0.934997  1
  Ho  Ho1  1  0.934997  0.934997  0.565003  1
  Er  Er2  1  0.813824  0.186176  0.186176  1
  Er  Er3  1  0.186176  0.813824  0.813824  1
  Er  Er4  1  0.186176  0.813824  0.186176  1
  Er  Er5  1  0.813824  0.186176  0.813824  1
  Er  Er6  1  0.186187  0.186187  0.813813  1
  Er  Er7  1  0.813813  0.813813  0.186187  1
  Er  Er8  1  0.935087  0.564913  0.564913  1
  Er  Er9  1  0.564913  0.935087  0.935087  1
  Er  Er10  1  0.564913  0.935087  0.564913  1
  Er  Er11  1  0.935087  0.564913  0.935087  1
  Th  Th12  1  0.346580  0.346580  0.346656  1
  Th  Th13  1  0.346580  0.346580  0.960183  1
  Th  Th14  1  0.346656  0.960183  0.346580  1
  Th  Th15  1  0.960183  0.346656  0.346580  1
  Mg  Mg16  1  0.579883  0.579883  0.579775  1
  Mg  Mg17  1  0.579883  0.579883  0.260459  1
  Mg  Mg18  1  0.579775  0.260459  0.579883  1
  Mg  Mg19  1  0.260459  0.579775  0.579883  1
  Ru  Ru20  1  0.143351  0.143351  0.143239  1
  Ru  Ru21  1  0.143351  0.143351  0.570060  1
  Ru  Ru22  1  0.143239  0.570060  0.143351  1
  Ru  Ru23  1  0.570060  0.143239  0.143351  1
