# generated using pymatgen
data_PuMgBe26
_symmetry_space_group_name_H-M   'P 1'
_cell_length_a   7.16860831
_cell_length_b   7.16860892
_cell_length_c   7.16860900
_cell_angle_alpha   60.00000422
_cell_angle_beta   60.00000145
_cell_angle_gamma   60.00000374
_symmetry_Int_Tables_number   1
_chemical_formula_structural   PuMgBe26
_chemical_formula_sum   'Pu1 Mg1 Be26'
_cell_volume   260.48916631
_cell_formula_units_Z   1
loop_
 _symmetry_equiv_pos_site_id
 _symmetry_equiv_pos_as_xyz
  1  'x, y, z'
loop_
 _atom_site_type_symbol
 _atom_site_label
 _atom_site_symmetry_multiplicity
 _atom_site_fract_x
 _atom_site_fract_y
 _atom_site_fract_z
 _atom_site_occupancy
  Pu  Pu0  1  0.750000  0.750000  0.750000  1
  Mg  Mg1  1  0.250000  0.250000  0.250000  1
  Be  Be2  1  0.500000  0.500000  0.500000  1
  Be  Be3  1  0.000000  0.000000  0.000000  1
  Be  Be4  1  0.207325  0.790329  0.437510  1
  Be  Be5  1  0.935164  0.292675  0.709671  1
  Be  Be6  1  0.709671  0.062490  0.935164  1
  Be  Be7  1  0.935164  0.062490  0.292675  1
  Be  Be8  1  0.062490  0.935164  0.709671  1
  Be  Be9  1  0.062490  0.292675  0.935164  1
  Be  Be10  1  0.709671  0.935164  0.292675  1
  Be  Be11  1  0.437510  0.790329  0.564836  1
  Be  Be12  1  0.564836  0.790329  0.207325  1
  Be  Be13  1  0.790329  0.564836  0.437510  1
  Be  Be14  1  0.564836  0.207325  0.437510  1
  Be  Be15  1  0.790329  0.437510  0.207325  1
  Be  Be16  1  0.437510  0.207325  0.790329  1
  Be  Be17  1  0.207325  0.564836  0.790329  1
  Be  Be18  1  0.207325  0.437510  0.564836  1
  Be  Be19  1  0.709671  0.292675  0.062490  1
  Be  Be20  1  0.292675  0.935164  0.062490  1
  Be  Be21  1  0.292675  0.062490  0.709671  1
  Be  Be22  1  0.935164  0.709671  0.062490  1
  Be  Be23  1  0.062490  0.709671  0.292675  1
  Be  Be24  1  0.292675  0.709671  0.935164  1
  Be  Be25  1  0.437510  0.564836  0.207325  1
  Be  Be26  1  0.790329  0.207325  0.564836  1
  Be  Be27  1  0.564836  0.437510  0.790329  1
