# generated using pymatgen
data_Ba8Dy4Al3CoO20
_symmetry_space_group_name_H-M   'P 1'
_cell_length_a   6.10160202
_cell_length_b   7.80840655
_cell_length_c   12.62641382
_cell_angle_alpha   91.23952355
_cell_angle_beta   89.93361443
_cell_angle_gamma   90.00404668
_symmetry_Int_Tables_number   1
_chemical_formula_structural   Ba8Dy4Al3CoO20
_chemical_formula_sum   'Ba8 Dy4 Al3 Co1 O20'
_cell_volume   601.42902671
_cell_formula_units_Z   1
loop_
 _symmetry_equiv_pos_site_id
 _symmetry_equiv_pos_as_xyz
  1  'x, y, z'
loop_
 _atom_site_type_symbol
 _atom_site_label
 _atom_site_symmetry_multiplicity
 _atom_site_fract_x
 _atom_site_fract_y
 _atom_site_fract_z
 _atom_site_occupancy
  Ba  Ba0  1  0.758908  0.485988  0.354529  1
  Ba  Ba1  1  0.740958  0.986617  0.855159  1
  Ba  Ba2  1  0.240701  0.512225  0.644879  1
  Ba  Ba3  1  0.259802  0.012143  0.144282  1
  Ba  Ba4  1  0.755257  0.997739  0.376664  1
  Ba  Ba5  1  0.744077  0.497436  0.877282  1
  Ba  Ba6  1  0.245505  0.004270  0.621124  1
  Ba  Ba7  1  0.255487  0.504192  0.121653  1
  Dy  Dy8  1  0.748127  0.261980  0.627488  1
  Dy  Dy9  1  0.752180  0.761735  0.128763  1
  Dy  Dy10  1  0.251821  0.737699  0.372913  1
  Dy  Dy11  1  0.247786  0.236365  0.873622  1
  Al  Al12  1  0.740089  0.746427  0.583336  1
  Al  Al13  1  0.759662  0.245701  0.083818  1
  Al  Al14  1  0.259834  0.254157  0.416405  1
  Co  Co15  1  0.240720  0.753891  0.911568  1
  O  O16  1  0.759284  0.960674  0.637217  1
  O  O17  1  0.740828  0.459733  0.137610  1
  O  O18  1  0.240743  0.039692  0.363110  1
  O  O19  1  0.259195  0.528926  0.865382  1
  O  O20  1  0.737181  0.066997  0.168581  1
  O  O21  1  0.763022  0.567636  0.668140  1
  O  O22  1  0.264990  0.943898  0.829912  1
  O  O23  1  0.237780  0.433630  0.332297  1
  O  O24  1  0.541740  0.747584  0.270858  1
  O  O25  1  0.959355  0.248356  0.769245  1
  O  O26  1  0.458842  0.253692  0.730361  1
  O  O27  1  0.043129  0.752055  0.230667  1
  O  O28  1  0.542637  0.230291  0.986965  1
  O  O29  1  0.957059  0.731375  0.486506  1
  O  O30  1  0.465716  0.769433  0.015775  1
  O  O31  1  0.042763  0.269298  0.513560  1
  O  O32  1  0.019969  0.234772  0.017248  1
  O  O33  1  0.478914  0.735993  0.517850  1
  O  O34  1  0.966352  0.763503  0.981822  1
  O  O35  1  0.519589  0.263899  0.483410  1
