# generated using pymatgen
data_Mn3VBr7F
_symmetry_space_group_name_H-M   'P 1'
_cell_length_a   8.21981432
_cell_length_b   8.21981338
_cell_length_c   8.24282658
_cell_angle_alpha   55.50355369
_cell_angle_beta   55.50355376
_cell_angle_gamma   55.75731669
_symmetry_Int_Tables_number   1
_chemical_formula_structural   Mn3VBr7F
_chemical_formula_sum   'Mn3 V1 Br7 F1'
_cell_volume   353.47863288
_cell_formula_units_Z   1
loop_
 _symmetry_equiv_pos_site_id
 _symmetry_equiv_pos_as_xyz
  1  'x, y, z'
loop_
 _atom_site_type_symbol
 _atom_site_label
 _atom_site_symmetry_multiplicity
 _atom_site_fract_x
 _atom_site_fract_y
 _atom_site_fract_z
 _atom_site_occupancy
  Mn  Mn0  1  0.510964  0.987990  0.485683  1
  Mn  Mn1  1  0.987990  0.510964  0.485683  1
  Mn  Mn2  1  0.497731  0.497731  0.999419  1
  V  V3  1  0.991419  0.991419  0.012789  1
  Br  Br4  1  0.739173  0.739173  0.739262  1
  Br  Br5  1  0.242269  0.740486  0.238731  1
  Br  Br6  1  0.740486  0.242269  0.238731  1
  Br  Br7  1  0.254037  0.254037  0.254119  1
  Br  Br8  1  0.232714  0.232714  0.732972  1
  Br  Br9  1  0.754785  0.251194  0.762645  1
  Br  Br10  1  0.251194  0.754785  0.762645  1
  F  F11  1  0.797237  0.797237  0.287321  1
