# generated using pymatgen
data_Lu16In6TcIr
_symmetry_space_group_name_H-M   'P 1'
_cell_length_a   10.21969100
_cell_length_b   10.21968986
_cell_length_c   6.90497000
_cell_angle_alpha   90.00000000
_cell_angle_beta   90.00000000
_cell_angle_gamma   120.00000045
_symmetry_Int_Tables_number   1
_chemical_formula_structural   Lu16In6TcIr
_chemical_formula_sum   'Lu16 In6 Tc1 Ir1'
_cell_volume   624.55099848
_cell_formula_units_Z   1
loop_
 _symmetry_equiv_pos_site_id
 _symmetry_equiv_pos_as_xyz
  1  'x, y, z'
loop_
 _atom_site_type_symbol
 _atom_site_label
 _atom_site_symmetry_multiplicity
 _atom_site_fract_x
 _atom_site_fract_y
 _atom_site_fract_z
 _atom_site_occupancy
  Lu  Lu0  1  0.530911  0.061824  0.523933  1
  Lu  Lu1  1  0.938176  0.469089  0.523933  1
  Lu  Lu2  1  0.530911  0.469089  0.523933  1
  Lu  Lu3  1  0.468604  0.937207  0.024058  1
  Lu  Lu4  1  0.062793  0.531396  0.024058  1
  Lu  Lu5  1  0.468604  0.531396  0.024058  1
  Lu  Lu6  1  0.177478  0.354957  0.730883  1
  Lu  Lu7  1  0.645043  0.822522  0.730883  1
  Lu  Lu8  1  0.177478  0.822522  0.730883  1
  Lu  Lu9  1  0.823045  0.646089  0.228841  1
  Lu  Lu10  1  0.353911  0.176955  0.228841  1
  Lu  Lu11  1  0.823045  0.176955  0.228841  1
  Lu  Lu12  1  0.666667  0.333333  0.898833  1
  Lu  Lu13  1  0.333333  0.666667  0.403277  1
  Lu  Lu14  1  0.000000  0.000000  0.505500  1
  Lu  Lu15  1  0.000000  0.000000  0.007608  1
  In  In16  1  0.836907  0.673815  0.766799  1
  In  In17  1  0.326185  0.163093  0.766799  1
  In  In18  1  0.836907  0.163093  0.766799  1
  In  In19  1  0.163558  0.327114  0.272014  1
  In  In20  1  0.672886  0.836442  0.272014  1
  In  In21  1  0.163558  0.836442  0.272014  1
  Tc  Tc22  1  0.666667  0.333333  0.299087  1
  Ir  Ir23  1  0.333333  0.666667  0.801791  1
