# generated using pymatgen
data_Tb3Lu5Cd2RuPt
_symmetry_space_group_name_H-M   'P 1'
_cell_length_a   9.53354735
_cell_length_b   9.53354676
_cell_length_c   9.57043400
_cell_angle_alpha   59.87192499
_cell_angle_beta   59.87192707
_cell_angle_gamma   59.80892373
_symmetry_Int_Tables_number   1
_chemical_formula_structural   Tb3Lu5Cd2RuPt
_chemical_formula_sum   'Tb6 Lu10 Cd4 Ru2 Pt2'
_cell_volume   612.99026856
_cell_formula_units_Z   2
loop_
 _symmetry_equiv_pos_site_id
 _symmetry_equiv_pos_as_xyz
  1  'x, y, z'
loop_
 _atom_site_type_symbol
 _atom_site_label
 _atom_site_symmetry_multiplicity
 _atom_site_fract_x
 _atom_site_fract_y
 _atom_site_fract_z
 _atom_site_occupancy
  Tb  Tb0  1  0.938699  0.557950  0.564482  1
  Tb  Tb1  1  0.557950  0.938699  0.938870  1
  Tb  Tb2  1  0.557950  0.938699  0.564482  1
  Tb  Tb3  1  0.938699  0.557950  0.938870  1
  Tb  Tb4  1  0.562036  0.562036  0.937964  1
  Tb  Tb5  1  0.939939  0.939939  0.560061  1
  Lu  Lu6  1  0.348673  0.348673  0.351798  1
  Lu  Lu7  1  0.348673  0.348673  0.950857  1
  Lu  Lu8  1  0.346188  0.955595  0.349109  1
  Lu  Lu9  1  0.955595  0.346188  0.349109  1
  Lu  Lu10  1  0.816957  0.186412  0.187747  1
  Lu  Lu11  1  0.186412  0.816957  0.808883  1
  Lu  Lu12  1  0.186412  0.816957  0.187747  1
  Lu  Lu13  1  0.816957  0.186412  0.808883  1
  Lu  Lu14  1  0.186100  0.186100  0.813900  1
  Lu  Lu15  1  0.810577  0.810577  0.189423  1
  Cd  Cd16  1  0.579674  0.579674  0.580572  1
  Cd  Cd17  1  0.579674  0.579674  0.260080  1
  Cd  Cd18  1  0.580733  0.257211  0.581028  1
  Cd  Cd19  1  0.257211  0.580733  0.581028  1
  Ru  Ru20  1  0.143586  0.143586  0.140011  1
  Ru  Ru21  1  0.143586  0.143586  0.572817  1
  Pt  Pt22  1  0.143785  0.573936  0.141140  1
  Pt  Pt23  1  0.573936  0.143785  0.141140  1
