# generated using pymatgen
data_Yb3DyAl8
_symmetry_space_group_name_H-M   'P 1'
_cell_length_a   9.61436663
_cell_length_b   9.61436659
_cell_length_c   9.61436685
_cell_angle_alpha   34.10046216
_cell_angle_beta   34.10046163
_cell_angle_gamma   34.10046105
_symmetry_Int_Tables_number   1
_chemical_formula_structural   Yb3DyAl8
_chemical_formula_sum   'Yb3 Dy1 Al8'
_cell_volume   249.04205651
_cell_formula_units_Z   1
loop_
 _symmetry_equiv_pos_site_id
 _symmetry_equiv_pos_as_xyz
  1  'x, y, z'
loop_
 _atom_site_type_symbol
 _atom_site_label
 _atom_site_symmetry_multiplicity
 _atom_site_fract_x
 _atom_site_fract_y
 _atom_site_fract_z
 _atom_site_occupancy
  Yb  Yb0  1  0.188011  0.188011  0.188011  1
  Yb  Yb1  1  0.813025  0.813025  0.813025  1
  Yb  Yb2  1  0.311323  0.311323  0.311323  1
  Dy  Dy3  1  0.687561  0.687561  0.687561  1
  Al  Al4  1  0.999756  0.999756  0.999756  1
  Al  Al5  1  0.500299  0.500299  0.500299  1
  Al  Al6  1  0.747354  0.249638  0.249638  1
  Al  Al7  1  0.253071  0.750161  0.750161  1
  Al  Al8  1  0.249638  0.747354  0.249638  1
  Al  Al9  1  0.750161  0.253071  0.750161  1
  Al  Al10  1  0.249638  0.249638  0.747354  1
  Al  Al11  1  0.750161  0.750161  0.253071  1
