# generated using pymatgen
data_Dy7Ho9(AlPt)4
_symmetry_space_group_name_H-M   'P 1'
_cell_length_a   9.57244387
_cell_length_b   9.57244438
_cell_length_c   9.56978900
_cell_angle_alpha   60.00917931
_cell_angle_beta   60.00917754
_cell_angle_gamma   60.02156634
_symmetry_Int_Tables_number   1
_chemical_formula_structural   Dy7Ho9(AlPt)4
_chemical_formula_sum   'Dy7 Ho9 Al4 Pt4'
_cell_volume   620.24609065
_cell_formula_units_Z   1
loop_
 _symmetry_equiv_pos_site_id
 _symmetry_equiv_pos_as_xyz
  1  'x, y, z'
loop_
 _atom_site_type_symbol
 _atom_site_label
 _atom_site_symmetry_multiplicity
 _atom_site_fract_x
 _atom_site_fract_y
 _atom_site_fract_z
 _atom_site_occupancy
  Dy  Dy0  1  0.806613  0.806613  0.193387  1
  Dy  Dy1  1  0.935746  0.563928  0.564510  1
  Dy  Dy2  1  0.563928  0.935746  0.935816  1
  Dy  Dy3  1  0.563928  0.935746  0.564510  1
  Dy  Dy4  1  0.935746  0.563927  0.935816  1
  Dy  Dy5  1  0.564330  0.564330  0.935670  1
  Dy  Dy6  1  0.935886  0.935886  0.564113  1
  Ho  Ho7  1  0.353334  0.353334  0.354001  1
  Ho  Ho8  1  0.353334  0.353334  0.939331  1
  Ho  Ho9  1  0.353261  0.938684  0.354028  1
  Ho  Ho10  1  0.938684  0.353261  0.354028  1
  Ho  Ho11  1  0.807251  0.193615  0.192787  1
  Ho  Ho12  1  0.193615  0.807251  0.806347  1
  Ho  Ho13  1  0.193615  0.807251  0.192787  1
  Ho  Ho14  1  0.807251  0.193615  0.806347  1
  Ho  Ho15  1  0.192969  0.192969  0.807031  1
  Al  Al16  1  0.577693  0.577693  0.577582  1
  Al  Al17  1  0.577693  0.577693  0.267031  1
  Al  Al18  1  0.577556  0.267705  0.577369  1
  Al  Al19  1  0.267705  0.577556  0.577369  1
  Pt  Pt20  1  0.143074  0.143074  0.143453  1
  Pt  Pt21  1  0.143074  0.143074  0.570401  1
  Pt  Pt22  1  0.143372  0.570343  0.143143  1
  Pt  Pt23  1  0.570343  0.143372  0.143143  1
