# generated using pymatgen
data_Nd10In4Ru5Rh
_symmetry_space_group_name_H-M   'P 1'
_cell_length_a   8.74025135
_cell_length_b   8.74589007
_cell_length_c   8.73903819
_cell_angle_alpha   109.51505206
_cell_angle_beta   109.52302600
_cell_angle_gamma   109.49248367
_symmetry_Int_Tables_number   1
_chemical_formula_structural   Nd10In4Ru5Rh
_chemical_formula_sum   'Nd10 In4 Ru5 Rh1'
_cell_volume   513.50126231
_cell_formula_units_Z   1
loop_
 _symmetry_equiv_pos_site_id
 _symmetry_equiv_pos_as_xyz
  1  'x, y, z'
loop_
 _atom_site_type_symbol
 _atom_site_label
 _atom_site_symmetry_multiplicity
 _atom_site_fract_x
 _atom_site_fract_y
 _atom_site_fract_z
 _atom_site_occupancy
  Nd  Nd0  1  0.477036  0.156460  0.225383  1
  Nd  Nd1  1  0.157253  0.225516  0.475331  1
  Nd  Nd2  1  0.226619  0.479017  0.160127  1
  Nd  Nd3  1  0.408237  0.699059  0.906076  1
  Nd  Nd4  1  0.695745  0.903830  0.404265  1
  Nd  Nd5  1  0.904836  0.410398  0.698144  1
  Nd  Nd6  1  0.655164  0.089094  0.839575  1
  Nd  Nd7  1  0.090991  0.837251  0.656192  1
  Nd  Nd8  1  0.839506  0.656906  0.089899  1
  Nd  Nd9  1  0.614251  0.614221  0.614483  1
  In  In10  1  0.407817  0.313875  0.909930  1
  In  In11  1  0.314076  0.909488  0.406958  1
  In  In12  1  0.908919  0.406254  0.313633  1
  In  In13  1  0.001639  0.000824  0.001921  1
  Ru  Ru14  1  0.157582  0.773091  0.021127  1
  Ru  Ru15  1  0.774739  0.022524  0.158362  1
  Ru  Ru16  1  0.659644  0.541643  0.293533  1
  Ru  Ru17  1  0.540270  0.292599  0.659928  1
  Ru  Ru18  1  0.292535  0.659709  0.540098  1
  Rh  Rh19  1  0.023141  0.158242  0.775032  1
