# generated using pymatgen
data_MgZrB4Ru5
_symmetry_space_group_name_H-M   'P 1'
_cell_length_a   2.99633200
_cell_length_b   8.55703950
_cell_length_c   10.09215036
_cell_angle_alpha   91.48047115
_cell_angle_beta   90.00000000
_cell_angle_gamma   90.00000000
_symmetry_Int_Tables_number   1
_chemical_formula_structural   MgZrB4Ru5
_chemical_formula_sum   'Mg2 Zr2 B8 Ru10'
_cell_volume   258.67364659
_cell_formula_units_Z   2
loop_
 _symmetry_equiv_pos_site_id
 _symmetry_equiv_pos_as_xyz
  1  'x, y, z'
loop_
 _atom_site_type_symbol
 _atom_site_label
 _atom_site_symmetry_multiplicity
 _atom_site_fract_x
 _atom_site_fract_y
 _atom_site_fract_z
 _atom_site_occupancy
  Mg  Mg0  1  0.500000  0.152565  0.679426  1
  Mg  Mg1  1  0.500000  0.847435  0.320574  1
  Zr  Zr2  1  0.500000  0.657532  0.816653  1
  Zr  Zr3  1  0.500000  0.342468  0.183347  1
  B  B4  1  0.500000  0.857474  0.599415  1
  B  B5  1  0.500000  0.142526  0.400585  1
  B  B6  1  0.500000  0.348680  0.894669  1
  B  B7  1  0.500000  0.651320  0.105331  1
  B  B8  1  0.500000  0.964124  0.912124  1
  B  B9  1  0.500000  0.035876  0.087876  1
  B  B10  1  0.500000  0.461856  0.587772  1
  B  B11  1  0.500000  0.538144  0.412228  1
  Ru  Ru12  1  0.000000  0.397649  0.736022  1
  Ru  Ru13  1  0.000000  0.602351  0.263978  1
  Ru  Ru14  1  0.000000  0.907097  0.762096  1
  Ru  Ru15  1  0.000000  0.092903  0.237904  1
  Ru  Ru16  1  0.000000  0.000000  0.500000  1
  Ru  Ru17  1  0.000000  0.500000  0.000000  1
  Ru  Ru18  1  0.000000  0.658072  0.551548  1
  Ru  Ru19  1  0.000000  0.341928  0.448452  1
  Ru  Ru20  1  0.000000  0.162563  0.954913  1
  Ru  Ru21  1  0.000000  0.837437  0.045087  1
