# generated using pymatgen
data_Li2Tm3GaSi2Ag
_symmetry_space_group_name_H-M   'P 1'
_cell_length_a   7.02033455
_cell_length_b   7.05192653
_cell_length_c   4.12969100
_cell_angle_alpha   90.00000000
_cell_angle_beta   90.00000000
_cell_angle_gamma   120.14896777
_symmetry_Int_Tables_number   1
_chemical_formula_structural   Li2Tm3GaSi2Ag
_chemical_formula_sum   'Li2 Tm3 Ga1 Si2 Ag1'
_cell_volume   176.79089678
_cell_formula_units_Z   1
loop_
 _symmetry_equiv_pos_site_id
 _symmetry_equiv_pos_as_xyz
  1  'x, y, z'
loop_
 _atom_site_type_symbol
 _atom_site_label
 _atom_site_symmetry_multiplicity
 _atom_site_fract_x
 _atom_site_fract_y
 _atom_site_fract_z
 _atom_site_occupancy
  Li  Li0  1  0.753923  0.757632  0.000000  1
  Li  Li1  1  0.246077  0.003710  0.000000  1
  Tm  Tm2  1  0.428329  0.428641  0.500000  1
  Tm  Tm3  1  0.571671  0.000312  0.500000  1
  Tm  Tm4  1  0.000000  0.569646  0.500000  1
  Ga  Ga5  1  0.000000  0.991407  0.500000  1
  Si  Si6  1  0.663172  0.333633  0.000000  1
  Si  Si7  1  0.336828  0.670462  0.000000  1
  Ag  Ag8  1  0.000000  0.244557  0.000000  1
