# generated using pymatgen
data_Li4Tb2ErSn4
_symmetry_space_group_name_H-M   'P 1'
_cell_length_a   4.60698608
_cell_length_b   7.08961878
_cell_length_c   8.64234288
_cell_angle_alpha   114.21536567
_cell_angle_beta   105.45821858
_cell_angle_gamma   90.00000761
_symmetry_Int_Tables_number   1
_chemical_formula_structural   Li4Tb2ErSn4
_chemical_formula_sum   'Li4 Tb2 Er1 Sn4'
_cell_volume   246.19773445
_cell_formula_units_Z   1
loop_
 _symmetry_equiv_pos_site_id
 _symmetry_equiv_pos_as_xyz
  1  'x, y, z'
loop_
 _atom_site_type_symbol
 _atom_site_label
 _atom_site_symmetry_multiplicity
 _atom_site_fract_x
 _atom_site_fract_y
 _atom_site_fract_z
 _atom_site_occupancy
  Li  Li0  1  0.326834  0.017697  0.653666  1
  Li  Li1  1  0.673166  0.982303  0.346334  1
  Li  Li2  1  0.326834  0.635969  0.653666  1
  Li  Li3  1  0.673166  0.364031  0.346334  1
  Tb  Tb4  1  0.871759  0.371759  0.743517  1
  Tb  Tb5  1  0.128241  0.628241  0.256483  1
  Er  Er6  1  0.000000  0.000000  0.000000  1
  Sn  Sn7  1  0.213048  0.213048  0.426095  1
  Sn  Sn8  1  0.786952  0.786952  0.573905  1
  Sn  Sn9  1  0.500000  0.297470  0.000000  1
  Sn  Sn10  1  0.500000  0.702530  0.000000  1
