# generated using pymatgen
data_HoNb(CoSb)2
_symmetry_space_group_name_H-M   'P 1'
_cell_length_a   6.12863900
_cell_length_b   4.31867300
_cell_length_c   8.66930600
_cell_angle_alpha   90.00000000
_cell_angle_beta   90.00000000
_cell_angle_gamma   90.00000000
_symmetry_Int_Tables_number   1
_chemical_formula_structural   HoNb(CoSb)2
_chemical_formula_sum   'Ho2 Nb2 Co4 Sb4'
_cell_volume   229.45561751
_cell_formula_units_Z   2
loop_
 _symmetry_equiv_pos_site_id
 _symmetry_equiv_pos_as_xyz
  1  'x, y, z'
loop_
 _atom_site_type_symbol
 _atom_site_label
 _atom_site_symmetry_multiplicity
 _atom_site_fract_x
 _atom_site_fract_y
 _atom_site_fract_z
 _atom_site_occupancy
  Ho  Ho0  1  0.006199  0.000000  0.376268  1
  Ho  Ho1  1  0.506200  0.500000  0.623732  1
  Nb  Nb2  1  0.492051  0.500000  0.123207  1
  Nb  Nb3  1  0.992052  0.000000  0.876794  1
  Co  Co4  1  0.734547  0.000000  0.111407  1
  Co  Co5  1  0.271519  0.500000  0.351320  1
  Co  Co6  1  0.771520  0.000000  0.648680  1
  Co  Co7  1  0.234546  0.500000  0.888592  1
  Sb  Sb8  1  0.988173  0.500000  0.121546  1
  Sb  Sb9  1  0.507511  0.000000  0.367781  1
  Sb  Sb10  1  0.007512  0.500000  0.632218  1
  Sb  Sb11  1  0.488172  0.000000  0.878454  1
