# generated using pymatgen
data_CaTbMnSbO6
_symmetry_space_group_name_H-M   'P 1'
_cell_length_a   7.86142002
_cell_length_b   8.01098211
_cell_length_c   7.96572600
_cell_angle_alpha   89.44442626
_cell_angle_beta   89.02422745
_cell_angle_gamma   92.88314524
_symmetry_Int_Tables_number   1
_chemical_formula_structural   CaTbMnSbO6
_chemical_formula_sum   'Ca4 Tb4 Mn4 Sb4 O24'
_cell_volume   500.92742618
_cell_formula_units_Z   4
loop_
 _symmetry_equiv_pos_site_id
 _symmetry_equiv_pos_as_xyz
  1  'x, y, z'
loop_
 _atom_site_type_symbol
 _atom_site_label
 _atom_site_symmetry_multiplicity
 _atom_site_fract_x
 _atom_site_fract_y
 _atom_site_fract_z
 _atom_site_occupancy
  Ca  Ca0  1  0.537343  0.982130  0.250836  1
  Ca  Ca1  1  0.037487  0.482517  0.250403  1
  Ca  Ca2  1  0.479286  0.533970  0.751306  1
  Ca  Ca3  1  0.979026  0.034326  0.751022  1
  Tb  Tb4  1  0.522691  0.455299  0.244606  1
  Tb  Tb5  1  0.022679  0.955972  0.244240  1
  Tb  Tb6  1  0.453557  0.019993  0.746795  1
  Tb  Tb7  1  0.953807  0.520440  0.746158  1
  Mn  Mn8  1  0.251745  0.745792  0.999758  1
  Mn  Mn9  1  0.246381  0.250866  0.499289  1
  Mn  Mn10  1  0.752006  0.245929  0.999827  1
  Mn  Mn11  1  0.746424  0.750992  0.499064  1
  Sb  Sb12  1  0.752316  0.247698  0.499162  1
  Sb  Sb13  1  0.252303  0.747766  0.499108  1
  Sb  Sb14  1  0.747404  0.751834  0.999514  1
  Sb  Sb15  1  0.247431  0.252010  0.999486  1
  O  O16  1  0.331336  0.277730  0.761069  1
  O  O17  1  0.831379  0.778050  0.761182  1
  O  O18  1  0.280740  0.831634  0.261426  1
  O  O19  1  0.781357  0.331621  0.261475  1
  O  O20  1  0.199150  0.009284  0.948162  1
  O  O21  1  0.700129  0.509218  0.947634  1
  O  O22  1  0.507438  0.201715  0.443851  1
  O  O23  1  0.007463  0.700814  0.444891  1
  O  O24  1  0.205420  0.984088  0.568743  1
  O  O25  1  0.705527  0.484111  0.568624  1
  O  O26  1  0.486308  0.205390  0.068172  1
  O  O27  1  0.986357  0.706155  0.068645  1
  O  O28  1  0.709335  0.161264  0.736289  1
  O  O29  1  0.210018  0.661530  0.736457  1
  O  O30  1  0.660781  0.710494  0.237070  1
  O  O31  1  0.160977  0.211060  0.237171  1
  O  O32  1  0.493121  0.808873  0.559581  1
  O  O33  1  0.992922  0.307821  0.560534  1
  O  O34  1  0.807583  0.991157  0.057478  1
  O  O35  1  0.308516  0.491066  0.057118  1
  O  O36  1  0.512994  0.813702  0.933871  1
  O  O37  1  0.013205  0.314665  0.934276  1
  O  O38  1  0.812938  0.015461  0.432775  1
  O  O39  1  0.313120  0.515552  0.432934  1
