# generated using pymatgen
data_Lu5NiHgBi
_symmetry_space_group_name_H-M   'P 1'
_cell_length_a   8.38231229
_cell_length_b   8.38231096
_cell_length_c   8.68341591
_cell_angle_alpha   124.33411189
_cell_angle_beta   124.33410644
_cell_angle_gamma   80.29612170
_symmetry_Int_Tables_number   1
_chemical_formula_structural   Lu5NiHgBi
_chemical_formula_sum   'Lu10 Ni2 Hg2 Bi2'
_cell_volume   405.90344675
_cell_formula_units_Z   2
loop_
 _symmetry_equiv_pos_site_id
 _symmetry_equiv_pos_as_xyz
  1  'x, y, z'
loop_
 _atom_site_type_symbol
 _atom_site_label
 _atom_site_symmetry_multiplicity
 _atom_site_fract_x
 _atom_site_fract_y
 _atom_site_fract_z
 _atom_site_occupancy
  Lu  Lu0  1  0.000000  0.000000  0.000000  1
  Lu  Lu1  1  0.500000  0.500000  0.000000  1
  Lu  Lu2  1  0.777848  0.277848  0.778196  1
  Lu  Lu3  1  0.222152  0.722152  0.221804  1
  Lu  Lu4  1  0.499653  0.999653  0.221804  1
  Lu  Lu5  1  0.314377  0.454163  0.500000  1
  Lu  Lu6  1  0.045837  0.185623  0.500000  1
  Lu  Lu7  1  0.500347  0.000347  0.778196  1
  Lu  Lu8  1  0.685623  0.545837  0.500000  1
  Lu  Lu9  1  0.954163  0.814377  0.500000  1
  Ni  Ni10  1  0.627779  0.872221  0.500000  1
  Ni  Ni11  1  0.372221  0.127779  0.500000  1
  Hg  Hg12  1  0.140274  0.640274  0.780549  1
  Hg  Hg13  1  0.859726  0.359726  0.219451  1
  Bi  Bi14  1  0.250000  0.250000  0.000000  1
  Bi  Bi15  1  0.750000  0.750000  0.000000  1
