# generated using pymatgen
data_Eu4Cu3P4Pd
_symmetry_space_group_name_H-M   'P 1'
_cell_length_a   4.10380900
_cell_length_b   8.17429556
_cell_length_c   7.11643856
_cell_angle_alpha   90.04990670
_cell_angle_beta   90.00000000
_cell_angle_gamma   90.00000000
_symmetry_Int_Tables_number   1
_chemical_formula_structural   Eu4Cu3P4Pd
_chemical_formula_sum   'Eu4 Cu3 P4 Pd1'
_cell_volume   238.72616178
_cell_formula_units_Z   1
loop_
 _symmetry_equiv_pos_site_id
 _symmetry_equiv_pos_as_xyz
  1  'x, y, z'
loop_
 _atom_site_type_symbol
 _atom_site_label
 _atom_site_symmetry_multiplicity
 _atom_site_fract_x
 _atom_site_fract_y
 _atom_site_fract_z
 _atom_site_occupancy
  Eu  Eu0  1  0.250000  0.499769  0.248297  1
  Eu  Eu1  1  0.750000  0.496361  0.750935  1
  Eu  Eu2  1  0.750000  0.003904  0.751183  1
  Eu  Eu3  1  0.250000  0.999984  0.248887  1
  Cu  Cu4  1  0.250000  0.750082  0.583985  1
  Cu  Cu5  1  0.750000  0.250163  0.417190  1
  Cu  Cu6  1  0.750000  0.750013  0.083011  1
  P  P7  1  0.250000  0.749919  0.915870  1
  P  P8  1  0.750000  0.249393  0.095252  1
  P  P9  1  0.750000  0.749963  0.416682  1
  P  P10  1  0.250000  0.250301  0.573786  1
  Pd  Pd11  1  0.250000  0.250147  0.914925  1
