# generated using pymatgen
data_Er5(Cd2Rh)2
_symmetry_space_group_name_H-M   'P 1'
_cell_length_a   3.66051200
_cell_length_b   7.86714500
_cell_length_c   17.80700800
_cell_angle_alpha   90.00000000
_cell_angle_beta   90.00000000
_cell_angle_gamma   90.00000000
_symmetry_Int_Tables_number   1
_chemical_formula_structural   Er5(Cd2Rh)2
_chemical_formula_sum   'Er10 Cd8 Rh4'
_cell_volume   512.80227531
_cell_formula_units_Z   2
loop_
 _symmetry_equiv_pos_site_id
 _symmetry_equiv_pos_as_xyz
  1  'x, y, z'
loop_
 _atom_site_type_symbol
 _atom_site_label
 _atom_site_symmetry_multiplicity
 _atom_site_fract_x
 _atom_site_fract_y
 _atom_site_fract_z
 _atom_site_occupancy
  Er  Er0  1  0.000000  0.112742  0.412084  1
  Er  Er1  1  0.000000  0.887258  0.587916  1
  Er  Er2  1  0.000000  0.387258  0.912084  1
  Er  Er3  1  0.000000  0.612742  0.087916  1
  Er  Er4  1  0.000000  0.242433  0.218072  1
  Er  Er5  1  0.000000  0.757567  0.781928  1
  Er  Er6  1  0.000000  0.257567  0.718072  1
  Er  Er7  1  0.000000  0.742433  0.281928  1
  Er  Er8  1  0.000000  0.000000  0.000000  1
  Er  Er9  1  0.000000  0.500000  0.500000  1
  Cd  Cd10  1  0.500000  0.420910  0.353215  1
  Cd  Cd11  1  0.500000  0.579090  0.646785  1
  Cd  Cd12  1  0.500000  0.079090  0.853215  1
  Cd  Cd13  1  0.500000  0.920910  0.146785  1
  Cd  Cd14  1  0.500000  0.289753  0.064478  1
  Cd  Cd15  1  0.500000  0.710247  0.935522  1
  Cd  Cd16  1  0.500000  0.210247  0.564478  1
  Cd  Cd17  1  0.500000  0.789753  0.435522  1
  Rh  Rh18  1  0.500000  0.028091  0.303514  1
  Rh  Rh19  1  0.500000  0.971909  0.696486  1
  Rh  Rh20  1  0.500000  0.471909  0.803514  1
  Rh  Rh21  1  0.500000  0.528091  0.196486  1
