# generated using pymatgen
data_TbYb8CeIr4
_symmetry_space_group_name_H-M   'P 1'
_cell_length_a   6.54336131
_cell_length_b   7.37194719
_cell_length_c   8.52454485
_cell_angle_alpha   97.27768800
_cell_angle_beta   112.56896826
_cell_angle_gamma   89.99999479
_symmetry_Int_Tables_number   1
_chemical_formula_structural   TbYb8CeIr4
_chemical_formula_sum   'Tb1 Yb8 Ce1 Ir4'
_cell_volume   376.12068203
_cell_formula_units_Z   1
loop_
 _symmetry_equiv_pos_site_id
 _symmetry_equiv_pos_as_xyz
  1  'x, y, z'
loop_
 _atom_site_type_symbol
 _atom_site_label
 _atom_site_symmetry_multiplicity
 _atom_site_fract_x
 _atom_site_fract_y
 _atom_site_fract_z
 _atom_site_occupancy
  Tb  Tb0  1  0.568058  0.250000  0.000000  1
  Yb  Yb1  1  0.974747  0.922676  0.173345  1
  Yb  Yb2  1  0.801402  0.577324  0.826655  1
  Yb  Yb3  1  0.024477  0.081820  0.825276  1
  Yb  Yb4  1  0.199201  0.418180  0.174724  1
  Yb  Yb5  1  0.640586  0.818784  0.440065  1
  Yb  Yb6  1  0.200521  0.681216  0.559935  1
  Yb  Yb7  1  0.361326  0.179886  0.564848  1
  Yb  Yb8  1  0.796479  0.320114  0.435152  1
  Ce  Ce9  1  0.433249  0.750000  0.000000  1
  Ir  Ir10  1  0.806366  0.579063  0.208160  1
  Ir  Ir11  1  0.598206  0.920937  0.791840  1
  Ir  Ir12  1  0.193930  0.431600  0.792477  1
  Ir  Ir13  1  0.401453  0.068400  0.207523  1
