# generated using pymatgen
data_YbPr19Ir12
_symmetry_space_group_name_H-M   'P 1'
_cell_length_a   11.35339700
_cell_length_b   11.35339700
_cell_length_c   6.57904800
_cell_angle_alpha   90.00000000
_cell_angle_beta   90.00000000
_cell_angle_gamma   90.00000000
_symmetry_Int_Tables_number   1
_chemical_formula_structural   YbPr19Ir12
_chemical_formula_sum   'Yb1 Pr19 Ir12'
_cell_volume   848.03680979
_cell_formula_units_Z   1
loop_
 _symmetry_equiv_pos_site_id
 _symmetry_equiv_pos_as_xyz
  1  'x, y, z'
loop_
 _atom_site_type_symbol
 _atom_site_label
 _atom_site_symmetry_multiplicity
 _atom_site_fract_x
 _atom_site_fract_y
 _atom_site_fract_z
 _atom_site_occupancy
  Yb  Yb0  1  0.000000  0.000000  0.500000  1
  Pr  Pr1  1  0.287379  0.088124  0.383762  1
  Pr  Pr2  1  0.290319  0.910815  0.883463  1
  Pr  Pr3  1  0.709681  0.089185  0.883463  1
  Pr  Pr4  1  0.712621  0.911876  0.383762  1
  Pr  Pr5  1  0.590046  0.790888  0.882377  1
  Pr  Pr6  1  0.589059  0.208393  0.381690  1
  Pr  Pr7  1  0.410941  0.791607  0.381690  1
  Pr  Pr8  1  0.409954  0.209112  0.882377  1
  Pr  Pr9  1  0.208393  0.410941  0.618310  1
  Pr  Pr10  1  0.209112  0.590046  0.117623  1
  Pr  Pr11  1  0.790888  0.409954  0.117623  1
  Pr  Pr12  1  0.791607  0.589059  0.618310  1
  Pr  Pr13  1  0.910815  0.709681  0.116537  1
  Pr  Pr14  1  0.911876  0.287379  0.616238  1
  Pr  Pr15  1  0.088124  0.712621  0.616238  1
  Pr  Pr16  1  0.089185  0.290319  0.116537  1
  Pr  Pr17  1  0.000000  0.000000  0.000000  1
  Pr  Pr18  1  0.500000  0.500000  0.000000  1
  Pr  Pr19  1  0.500000  0.500000  0.500000  1
  Ir  Ir20  1  0.845357  0.154562  0.248142  1
  Ir  Ir21  1  0.845438  0.845357  0.751858  1
  Ir  Ir22  1  0.154562  0.154643  0.751858  1
  Ir  Ir23  1  0.154643  0.845438  0.248142  1
  Ir  Ir24  1  0.654648  0.345828  0.748707  1
  Ir  Ir25  1  0.654172  0.654648  0.251293  1
  Ir  Ir26  1  0.345828  0.345352  0.251293  1
  Ir  Ir27  1  0.345352  0.654172  0.748707  1
  Ir  Ir28  1  0.500000  0.000000  0.116541  1
  Ir  Ir29  1  0.500000  0.000000  0.615700  1
  Ir  Ir30  1  0.000000  0.500000  0.883459  1
  Ir  Ir31  1  0.000000  0.500000  0.384300  1
