# generated using pymatgen
data_Dy6Y2Nb12Si15Ge
_symmetry_space_group_name_H-M   'P 1'
_cell_length_a   6.88936497
_cell_length_b   7.08585894
_cell_length_c   13.46891102
_cell_angle_alpha   90.05470222
_cell_angle_beta   89.92564493
_cell_angle_gamma   90.01952765
_symmetry_Int_Tables_number   1
_chemical_formula_structural   Dy6Y2Nb12Si15Ge
_chemical_formula_sum   'Dy6 Y2 Nb12 Si15 Ge1'
_cell_volume   657.51185849
_cell_formula_units_Z   1
loop_
 _symmetry_equiv_pos_site_id
 _symmetry_equiv_pos_as_xyz
  1  'x, y, z'
loop_
 _atom_site_type_symbol
 _atom_site_label
 _atom_site_symmetry_multiplicity
 _atom_site_fract_x
 _atom_site_fract_y
 _atom_site_fract_z
 _atom_site_occupancy
  Dy  Dy0  1  0.500376  0.673231  0.596378  1
  Dy  Dy1  1  0.997416  0.828476  0.904685  1
  Dy  Dy2  1  0.497293  0.671308  0.904558  1
  Dy  Dy3  1  0.997171  0.829329  0.595892  1
  Dy  Dy4  1  0.503138  0.327339  0.403432  1
  Dy  Dy5  1  0.002539  0.171639  0.095475  1
  Y  Y6  1  0.502618  0.328721  0.095682  1
  Y  Y7  1  0.001567  0.170924  0.403960  1
  Nb  Nb8  1  0.664913  0.008601  0.750167  1
  Nb  Nb9  1  0.164757  0.490586  0.751913  1
  Nb  Nb10  1  0.334789  0.991396  0.249795  1
  Nb  Nb11  1  0.835121  0.508906  0.249832  1
  Nb  Nb12  1  0.836623  0.324509  0.625928  1
  Nb  Nb13  1  0.338480  0.174858  0.874676  1
  Nb  Nb14  1  0.161454  0.675140  0.125403  1
  Nb  Nb15  1  0.661070  0.825352  0.374020  1
  Nb  Nb16  1  0.159964  0.677508  0.372890  1
  Nb  Nb17  1  0.660777  0.824779  0.125377  1
  Nb  Nb18  1  0.838361  0.324890  0.874648  1
  Nb  Nb19  1  0.340944  0.171465  0.626801  1
  Si  Si20  1  0.797374  0.625721  0.750156  1
  Si  Si21  1  0.296380  0.873147  0.750551  1
  Si  Si22  1  0.203054  0.374303  0.249718  1
  Si  Si23  1  0.703165  0.125713  0.249618  1
  Si  Si24  1  0.543080  0.376451  0.750396  1
  Si  Si25  1  0.043166  0.123989  0.750094  1
  Si  Si26  1  0.456466  0.623765  0.249881  1
  Si  Si27  1  0.955815  0.876700  0.249044  1
  Si  Si28  1  0.663676  0.037837  0.540125  1
  Si  Si29  1  0.163042  0.462429  0.959590  1
  Si  Si30  1  0.336575  0.962548  0.040508  1
  Si  Si31  1  0.832766  0.538400  0.458669  1
  Si  Si32  1  0.336372  0.962054  0.459577  1
  Si  Si33  1  0.837022  0.537690  0.040682  1
  Si  Si34  1  0.663269  0.037520  0.959543  1
  Ge  Ge35  1  0.169406  0.462778  0.540336  1
