# generated using pymatgen
data_Ti8MnTc4Ir3
_symmetry_space_group_name_H-M   'P 1'
_cell_length_a   6.15681100
_cell_length_b   4.37671500
_cell_length_c   8.75238100
_cell_angle_alpha   90.00000000
_cell_angle_beta   89.99922291
_cell_angle_gamma   90.00000000
_symmetry_Int_Tables_number   1
_chemical_formula_structural   Ti8MnTc4Ir3
_chemical_formula_sum   'Ti8 Mn1 Tc4 Ir3'
_cell_volume   235.84697160
_cell_formula_units_Z   1
loop_
 _symmetry_equiv_pos_site_id
 _symmetry_equiv_pos_as_xyz
  1  'x, y, z'
loop_
 _atom_site_type_symbol
 _atom_site_label
 _atom_site_symmetry_multiplicity
 _atom_site_fract_x
 _atom_site_fract_y
 _atom_site_fract_z
 _atom_site_occupancy
  Ti  Ti0  1  0.007058  0.749999  0.124996  1
  Ti  Ti1  1  0.492984  0.749999  0.125004  1
  Ti  Ti2  1  0.003438  0.249999  0.369502  1
  Ti  Ti3  1  0.496610  0.249999  0.369511  1
  Ti  Ti4  1  0.501024  0.749999  0.625001  1
  Ti  Ti5  1  0.998914  0.749999  0.625001  1
  Ti  Ti6  1  0.496560  0.249999  0.880492  1
  Ti  Ti7  1  0.003381  0.249999  0.880486  1
  Mn  Mn8  1  0.250063  0.249999  0.125024  1
  Tc  Tc9  1  0.750024  0.249999  0.124994  1
  Tc  Tc10  1  0.250017  0.749999  0.375054  1
  Tc  Tc11  1  0.749977  0.249999  0.624993  1
  Tc  Tc12  1  0.249978  0.749999  0.874956  1
  Ir  Ir13  1  0.750019  0.749999  0.374776  1
  Ir  Ir14  1  0.249975  0.249999  0.624990  1
  Ir  Ir15  1  0.749976  0.749999  0.875222  1
