# generated using pymatgen
data_Ho3ErCo18(P6Ru)2
_symmetry_space_group_name_H-M   'P 1'
_cell_length_a   3.66691100
_cell_length_b   10.31961611
_cell_length_c   11.74392411
_cell_angle_alpha   89.98369016
_cell_angle_beta   90.00000000
_cell_angle_gamma   90.00000000
_symmetry_Int_Tables_number   1
_chemical_formula_structural   Ho3ErCo18(P6Ru)2
_chemical_formula_sum   'Ho3 Er1 Co18 P12 Ru2'
_cell_volume   444.40315115
_cell_formula_units_Z   1
loop_
 _symmetry_equiv_pos_site_id
 _symmetry_equiv_pos_as_xyz
  1  'x, y, z'
loop_
 _atom_site_type_symbol
 _atom_site_label
 _atom_site_symmetry_multiplicity
 _atom_site_fract_x
 _atom_site_fract_y
 _atom_site_fract_z
 _atom_site_occupancy
  Ho  Ho0  1  0.250000  0.582031  0.702085  1
  Ho  Ho1  1  0.250000  0.917904  0.202086  1
  Ho  Ho2  1  0.750000  0.086513  0.795368  1
  Er  Er3  1  0.750000  0.413788  0.295473  1
  Co  Co4  1  0.750000  0.283976  0.008309  1
  Co  Co5  1  0.750000  0.216110  0.508245  1
  Co  Co6  1  0.250000  0.405381  0.487084  1
  Co  Co7  1  0.250000  0.094428  0.987519  1
  Co  Co8  1  0.750000  0.589986  0.510298  1
  Co  Co9  1  0.750000  0.909794  0.010433  1
  Co  Co10  1  0.250000  0.221016  0.176699  1
  Co  Co11  1  0.250000  0.279383  0.676531  1
  Co  Co12  1  0.750000  0.778527  0.823174  1
  Co  Co13  1  0.750000  0.721345  0.323004  1
  Co  Co14  1  0.250000  0.886751  0.701927  1
  Co  Co15  1  0.250000  0.612799  0.202316  1
  Co  Co16  1  0.750000  0.116322  0.300705  1
  Co  Co17  1  0.750000  0.384034  0.800829  1
  Co  Co18  1  0.250000  0.464946  0.932508  1
  Co  Co19  1  0.250000  0.035272  0.432212  1
  Co  Co20  1  0.750000  0.532888  0.069584  1
  Co  Co21  1  0.750000  0.966989  0.569001  1
  P  P22  1  0.250000  0.417234  0.112642  1
  P  P23  1  0.250000  0.082856  0.612118  1
  P  P24  1  0.750000  0.579054  0.887089  1
  P  P25  1  0.750000  0.920944  0.386832  1
  P  P26  1  0.250000  0.270701  0.869129  1
  P  P27  1  0.250000  0.229786  0.368869  1
  P  P28  1  0.750000  0.729209  0.132947  1
  P  P29  1  0.750000  0.770745  0.632825  1
  P  P30  1  0.250000  0.593675  0.390223  1
  P  P31  1  0.250000  0.905641  0.890440  1
  P  P32  1  0.750000  0.396828  0.608544  1
  P  P33  1  0.750000  0.103180  0.108479  1
  Ru  Ru34  1  0.250000  0.716052  0.992532  1
  Ru  Ru35  1  0.250000  0.783914  0.491940  1
