# generated using pymatgen
data_Dy7Co4Sn23Os2
_symmetry_space_group_name_H-M   'P 1'
_cell_length_a   9.75673822
_cell_length_b   9.75673894
_cell_length_c   10.04174376
_cell_angle_alpha   90.50113677
_cell_angle_beta   89.49886221
_cell_angle_gamma   119.85775462
_symmetry_Int_Tables_number   1
_chemical_formula_structural   Dy7Co4Sn23Os2
_chemical_formula_sum   'Dy7 Co4 Sn23 Os2'
_cell_volume   828.98684595
_cell_formula_units_Z   1
loop_
 _symmetry_equiv_pos_site_id
 _symmetry_equiv_pos_as_xyz
  1  'x, y, z'
loop_
 _atom_site_type_symbol
 _atom_site_label
 _atom_site_symmetry_multiplicity
 _atom_site_fract_x
 _atom_site_fract_y
 _atom_site_fract_z
 _atom_site_occupancy
  Dy  Dy0  1  0.000000  0.000000  0.000000  1
  Dy  Dy1  1  0.480248  0.519752  0.306797  1
  Dy  Dy2  1  0.519752  0.480248  0.693203  1
  Dy  Dy3  1  0.482178  0.960038  0.304853  1
  Dy  Dy4  1  0.517822  0.039962  0.695147  1
  Dy  Dy5  1  0.039962  0.517822  0.304853  1
  Dy  Dy6  1  0.960038  0.482178  0.695147  1
  Co  Co7  1  0.830328  0.662292  0.198135  1
  Co  Co8  1  0.169672  0.337708  0.801865  1
  Co  Co9  1  0.337708  0.169672  0.198135  1
  Co  Co10  1  0.662292  0.830328  0.801865  1
  Sn  Sn11  1  0.349563  0.003416  0.004338  1
  Sn  Sn12  1  0.650437  0.996584  0.995662  1
  Sn  Sn13  1  0.003416  0.349563  0.995662  1
  Sn  Sn14  1  0.996584  0.650437  0.004338  1
  Sn  Sn15  1  0.654203  0.654203  0.000000  1
  Sn  Sn16  1  0.345797  0.345797  0.000000  1
  Sn  Sn17  1  0.334569  0.665431  0.818967  1
  Sn  Sn18  1  0.665431  0.334569  0.181033  1
  Sn  Sn19  1  0.000000  0.000000  0.500000  1
  Sn  Sn20  1  0.780385  0.219615  0.458540  1
  Sn  Sn21  1  0.219615  0.780385  0.541460  1
  Sn  Sn22  1  0.782309  0.564434  0.451406  1
  Sn  Sn23  1  0.217691  0.435566  0.548594  1
  Sn  Sn24  1  0.435566  0.217691  0.451406  1
  Sn  Sn25  1  0.564434  0.782309  0.548594  1
  Sn  Sn26  1  0.333876  0.666124  0.117529  1
  Sn  Sn27  1  0.666124  0.333876  0.882471  1
  Sn  Sn28  1  0.117062  0.882938  0.270637  1
  Sn  Sn29  1  0.882938  0.117062  0.729363  1
  Sn  Sn30  1  0.123868  0.236295  0.276001  1
  Sn  Sn31  1  0.876132  0.763705  0.723999  1
  Sn  Sn32  1  0.763705  0.876132  0.276001  1
  Sn  Sn33  1  0.236295  0.123868  0.723999  1
  Os  Os34  1  0.832424  0.167576  0.198674  1
  Os  Os35  1  0.167576  0.832424  0.801326  1
