# generated using pymatgen
data_Ho16In6TcPd
_symmetry_space_group_name_H-M   'P 1'
_cell_length_a   10.42098902
_cell_length_b   10.42101294
_cell_length_c   7.00185700
_cell_angle_alpha   90.00050855
_cell_angle_beta   89.99859763
_cell_angle_gamma   120.00719620
_symmetry_Int_Tables_number   1
_chemical_formula_structural   Ho16In6TcPd
_chemical_formula_sum   'Ho16 In6 Tc1 Pd1'
_cell_volume   658.46280134
_cell_formula_units_Z   1
loop_
 _symmetry_equiv_pos_site_id
 _symmetry_equiv_pos_as_xyz
  1  'x, y, z'
loop_
 _atom_site_type_symbol
 _atom_site_label
 _atom_site_symmetry_multiplicity
 _atom_site_fract_x
 _atom_site_fract_y
 _atom_site_fract_z
 _atom_site_occupancy
  Ho  Ho0  1  0.533242  0.066444  0.507969  1
  Ho  Ho1  1  0.933566  0.466756  0.507951  1
  Ho  Ho2  1  0.533192  0.466793  0.507961  1
  Ho  Ho3  1  0.471337  0.942656  0.010850  1
  Ho  Ho4  1  0.057334  0.528655  0.010852  1
  Ho  Ho5  1  0.471338  0.528671  0.010915  1
  Ho  Ho6  1  0.174979  0.349931  0.713678  1
  Ho  Ho7  1  0.650069  0.825019  0.713651  1
  Ho  Ho8  1  0.174970  0.825027  0.713657  1
  Ho  Ho9  1  0.823911  0.647838  0.213805  1
  Ho  Ho10  1  0.352170  0.176091  0.213811  1
  Ho  Ho11  1  0.823929  0.176068  0.213824  1
  Ho  Ho12  1  0.666664  0.333339  0.882423  1
  Ho  Ho13  1  0.333321  0.666671  0.382145  1
  Ho  Ho14  1  0.000009  0.000005  0.490607  1
  Ho  Ho15  1  0.999979  0.000011  0.990311  1
  In  In16  1  0.837384  0.674745  0.751880  1
  In  In17  1  0.325247  0.162621  0.751916  1
  In  In18  1  0.837368  0.162632  0.752001  1
  In  In19  1  0.163280  0.326566  0.252404  1
  In  In20  1  0.673427  0.836717  0.252366  1
  In  In21  1  0.163280  0.836725  0.252408  1
  Tc  Tc22  1  0.666666  0.333355  0.279922  1
  Pd  Pd23  1  0.333337  0.666664  0.780736  1
