# generated using pymatgen
data_La15Pr5Si15Hg
_symmetry_space_group_name_H-M   'P 1'
_cell_length_a   8.05613849
_cell_length_b   8.04629575
_cell_length_c   15.47448919
_cell_angle_alpha   90.02012056
_cell_angle_beta   89.67057867
_cell_angle_gamma   89.87487232
_symmetry_Int_Tables_number   1
_chemical_formula_structural   La15Pr5Si15Hg
_chemical_formula_sum   'La15 Pr5 Si15 Hg1'
_cell_volume   1003.06942872
_cell_formula_units_Z   1
loop_
 _symmetry_equiv_pos_site_id
 _symmetry_equiv_pos_as_xyz
  1  'x, y, z'
loop_
 _atom_site_type_symbol
 _atom_site_label
 _atom_site_symmetry_multiplicity
 _atom_site_fract_x
 _atom_site_fract_y
 _atom_site_fract_z
 _atom_site_occupancy
  La  La0  1  0.307111  0.307978  0.000026  1
  La  La1  1  0.193883  0.808481  0.249190  1
  La  La2  1  0.797961  0.186143  0.752848  1
  La  La3  1  0.692855  0.688232  0.498136  1
  La  La4  1  0.374661  0.012684  0.447564  1
  La  La5  1  0.492952  0.868595  0.699147  1
  La  La6  1  0.510953  0.122490  0.198417  1
  La  La7  1  0.878668  0.488656  0.300687  1
  La  La8  1  0.118557  0.519701  0.803759  1
  La  La9  1  0.626393  0.986466  0.951025  1
  La  La10  1  0.000888  0.384832  0.546572  1
  La  La11  1  0.990229  0.624717  0.052648  1
  La  La12  1  0.129827  0.983248  0.879415  1
  La  La13  1  0.518499  0.629082  0.127454  1
  La  La14  1  0.489119  0.376963  0.625926  1
  Pr  Pr15  1  0.629735  0.520106  0.876889  1
  Pr  Pr16  1  0.373355  0.484359  0.372134  1
  Pr  Pr17  1  0.873163  0.018051  0.375217  1
  Pr  Pr18  1  0.983216  0.127579  0.124991  1
  Pr  Pr19  1  0.007916  0.860208  0.620258  1
  Si  Si20  1  0.332849  0.695969  0.952870  1
  Si  Si21  1  0.662750  0.300355  0.449334  1
  Si  Si22  1  0.700419  0.333236  0.049558  1
  Si  Si23  1  0.303009  0.670041  0.545967  1
  Si  Si24  1  0.805761  0.832888  0.202992  1
  Si  Si25  1  0.167557  0.198243  0.299466  1
  Si  Si26  1  0.834159  0.802255  0.798953  1
  Si  Si27  1  0.288998  0.921873  0.059792  1
  Si  Si28  1  0.581348  0.790304  0.309559  1
  Si  Si29  1  0.432830  0.211447  0.814881  1
  Si  Si30  1  0.787239  0.579273  0.692435  1
  Si  Si31  1  0.211768  0.418906  0.191525  1
  Si  Si32  1  0.708604  0.079100  0.557483  1
  Si  Si33  1  0.921220  0.290133  0.942041  1
  Si  Si34  1  0.080998  0.713998  0.439081  1
  Hg  Hg35  1  0.190545  0.163411  0.691763  1
