# generated using pymatgen
data_Ac2Th(AgSn)4
_symmetry_space_group_name_H-M   'P 1'
_cell_length_a   9.14044200
_cell_length_b   9.14044312
_cell_length_c   9.14044243
_cell_angle_alpha   149.38170291
_cell_angle_beta   130.96678130
_cell_angle_gamma   58.92225110
_symmetry_Int_Tables_number   1
_chemical_formula_structural   Ac2Th(AgSn)4
_chemical_formula_sum   'Ac2 Th1 Ag4 Sn4'
_cell_volume   291.39128546
_cell_formula_units_Z   1
loop_
 _symmetry_equiv_pos_site_id
 _symmetry_equiv_pos_as_xyz
  1  'x, y, z'
loop_
 _atom_site_type_symbol
 _atom_site_label
 _atom_site_symmetry_multiplicity
 _atom_site_fract_x
 _atom_site_fract_y
 _atom_site_fract_z
 _atom_site_occupancy
  Ac  Ac0  1  0.499421  0.999421  0.500000  1
  Ac  Ac1  1  0.130467  0.130467  0.000000  1
  Th  Th2  1  0.868437  0.868437  0.000000  1
  Ag  Ag3  1  0.479047  0.669938  0.809111  1
  Ag  Ag4  1  0.860826  0.669938  0.190889  1
  Ag  Ag5  1  0.137685  0.331432  0.806253  1
  Ag  Ag6  1  0.525180  0.331432  0.193747  1
  Sn  Sn7  1  0.284907  0.784907  0.500000  1
  Sn  Sn8  1  0.720166  0.220166  0.500000  1
  Sn  Sn9  1  0.808459  0.496932  0.311528  1
  Sn  Sn10  1  0.185404  0.496932  0.688472  1
