# generated using pymatgen
data_CeMnFeB6
_symmetry_space_group_name_H-M   'P 1'
_cell_length_a   5.41105587
_cell_length_b   5.41105658
_cell_length_c   5.41105698
_cell_angle_alpha   146.26404705
_cell_angle_beta   109.00628719
_cell_angle_gamma   80.95108455
_symmetry_Int_Tables_number   1
_chemical_formula_structural   CeMnFeB6
_chemical_formula_sum   'Ce1 Mn1 Fe1 B6'
_cell_volume   81.22302788
_cell_formula_units_Z   1
loop_
 _symmetry_equiv_pos_site_id
 _symmetry_equiv_pos_as_xyz
  1  'x, y, z'
loop_
 _atom_site_type_symbol
 _atom_site_label
 _atom_site_symmetry_multiplicity
 _atom_site_fract_x
 _atom_site_fract_y
 _atom_site_fract_z
 _atom_site_occupancy
  Ce  Ce0  1  0.001415  0.001415  0.000000  1
  Mn  Mn1  1  0.343379  0.843380  0.500000  1
  Fe  Fe2  1  0.653986  0.153986  0.500000  1
  B  B3  1  0.542274  0.303509  0.238764  1
  B  B4  1  0.464623  0.697167  0.767456  1
  B  B5  1  0.929710  0.697167  0.232544  1
  B  B6  1  0.358831  0.499934  0.858897  1
  B  B7  1  0.641037  0.499934  0.141103  1
  B  B8  1  0.064745  0.303509  0.761236  1
