# generated using pymatgen
data_Nd12CoOsPd2
_symmetry_space_group_name_H-M   'P 1'
_cell_length_a   6.55232880
_cell_length_b   7.32378002
_cell_length_c   9.94979800
_cell_angle_alpha   90.00000000
_cell_angle_beta   90.00000000
_cell_angle_gamma   89.97556110
_symmetry_Int_Tables_number   1
_chemical_formula_structural   Nd12CoOsPd2
_chemical_formula_sum   'Nd12 Co1 Os1 Pd2'
_cell_volume   477.46901946
_cell_formula_units_Z   1
loop_
 _symmetry_equiv_pos_site_id
 _symmetry_equiv_pos_as_xyz
  1  'x, y, z'
loop_
 _atom_site_type_symbol
 _atom_site_label
 _atom_site_symmetry_multiplicity
 _atom_site_fract_x
 _atom_site_fract_y
 _atom_site_fract_z
 _atom_site_occupancy
  Nd  Nd0  1  0.325327  0.685788  0.061479  1
  Nd  Nd1  1  0.162639  0.163766  0.430773  1
  Nd  Nd2  1  0.663095  0.329269  0.563420  1
  Nd  Nd3  1  0.823929  0.817916  0.938301  1
  Nd  Nd4  1  0.663095  0.329269  0.936580  1
  Nd  Nd5  1  0.823929  0.817916  0.561699  1
  Nd  Nd6  1  0.325327  0.685788  0.438521  1
  Nd  Nd7  1  0.162639  0.163766  0.069227  1
  Nd  Nd8  1  0.876329  0.546216  0.250000  1
  Nd  Nd9  1  0.649560  0.024027  0.250000  1
  Nd  Nd10  1  0.142570  0.474246  0.750000  1
  Nd  Nd11  1  0.371037  0.962232  0.750000  1
  Co  Co12  1  0.071749  0.881542  0.250000  1
  Os  Os13  1  0.566965  0.616014  0.750000  1
  Pd  Pd14  1  0.434613  0.388331  0.250000  1
  Pd  Pd15  1  0.937197  0.113910  0.750000  1
