# generated using pymatgen
data_CeTa6PbO18
_symmetry_space_group_name_H-M   'P 1'
_cell_length_a   7.63245500
_cell_length_b   5.45562721
_cell_length_c   8.37361134
_cell_angle_alpha   87.63342646
_cell_angle_beta   90.00093926
_cell_angle_gamma   89.99846599
_symmetry_Int_Tables_number   1
_chemical_formula_structural   CeTa6PbO18
_chemical_formula_sum   'Ce1 Ta6 Pb1 O18'
_cell_volume   348.37835692
_cell_formula_units_Z   1
loop_
 _symmetry_equiv_pos_site_id
 _symmetry_equiv_pos_as_xyz
  1  'x, y, z'
loop_
 _atom_site_type_symbol
 _atom_site_label
 _atom_site_symmetry_multiplicity
 _atom_site_fract_x
 _atom_site_fract_y
 _atom_site_fract_z
 _atom_site_occupancy
  Ce  Ce0  1  0.249994  0.956771  0.437432  1
  Ta  Ta1  1  0.493412  0.523239  0.696919  1
  Ta  Ta2  1  0.006603  0.523258  0.696932  1
  Ta  Ta3  1  0.995441  0.470486  0.300505  1
  Ta  Ta4  1  0.998956  0.995378  0.999801  1
  Ta  Ta5  1  0.504520  0.470493  0.300493  1
  Ta  Ta6  1  0.501055  0.995384  0.999788  1
  Pb  Pb7  1  0.749991  0.025799  0.561071  1
  O  O8  1  0.954777  0.681964  0.124004  1
  O  O9  1  0.043407  0.310732  0.872768  1
  O  O10  1  0.060259  0.153974  0.216954  1
  O  O11  1  0.749996  0.377197  0.336331  1
  O  O12  1  0.056113  0.265539  0.527531  1
  O  O13  1  0.439734  0.153959  0.216952  1
  O  O14  1  0.545234  0.681951  0.123996  1
  O  O15  1  0.518965  0.733726  0.467380  1
  O  O16  1  0.750005  0.083618  0.020860  1
  O  O17  1  0.953260  0.829786  0.798996  1
  O  O18  1  0.750000  0.461208  0.677940  1
  O  O19  1  0.546740  0.829825  0.798987  1
  O  O20  1  0.249996  0.584957  0.306140  1
  O  O21  1  0.456606  0.310767  0.872786  1
  O  O22  1  0.981034  0.733755  0.467396  1
  O  O23  1  0.443893  0.265523  0.527550  1
  O  O24  1  0.250007  0.654560  0.660590  1
  O  O25  1  0.250000  0.926154  0.989902  1
