# generated using pymatgen
data_Ba2Sn5Ir4
_symmetry_space_group_name_H-M   'P 1'
_cell_length_a   7.08024640
_cell_length_b   7.08024584
_cell_length_c   12.46321500
_cell_angle_alpha   90.00000000
_cell_angle_beta   90.00000000
_cell_angle_gamma   118.10861782
_symmetry_Int_Tables_number   1
_chemical_formula_structural   Ba2Sn5Ir4
_chemical_formula_sum   'Ba4 Sn10 Ir8'
_cell_volume   551.09054569
_cell_formula_units_Z   2
loop_
 _symmetry_equiv_pos_site_id
 _symmetry_equiv_pos_as_xyz
  1  'x, y, z'
loop_
 _atom_site_type_symbol
 _atom_site_label
 _atom_site_symmetry_multiplicity
 _atom_site_fract_x
 _atom_site_fract_y
 _atom_site_fract_z
 _atom_site_occupancy
  Ba  Ba0  1  0.200599  0.799401  0.500000  1
  Ba  Ba1  1  0.200599  0.799401  0.000000  1
  Ba  Ba2  1  0.799401  0.200599  0.500000  1
  Ba  Ba3  1  0.799401  0.200599  0.000000  1
  Sn  Sn4  1  0.502892  0.891528  0.250000  1
  Sn  Sn5  1  0.108472  0.497108  0.750000  1
  Sn  Sn6  1  0.497108  0.108472  0.750000  1
  Sn  Sn7  1  0.891528  0.502892  0.250000  1
  Sn  Sn8  1  0.334800  0.334800  0.430362  1
  Sn  Sn9  1  0.665200  0.665200  0.569638  1
  Sn  Sn10  1  0.334800  0.334800  0.069638  1
  Sn  Sn11  1  0.665200  0.665200  0.930362  1
  Sn  Sn12  1  0.021324  0.021324  0.250000  1
  Sn  Sn13  1  0.978676  0.978675  0.750000  1
  Ir  Ir14  1  0.473745  0.239137  0.250000  1
  Ir  Ir15  1  0.760863  0.526255  0.750000  1
  Ir  Ir16  1  0.526255  0.760863  0.750000  1
  Ir  Ir17  1  0.239137  0.473745  0.250000  1
  Ir  Ir18  1  0.692863  0.692863  0.360794  1
  Ir  Ir19  1  0.307137  0.307137  0.639206  1
  Ir  Ir20  1  0.692863  0.692863  0.139206  1
  Ir  Ir21  1  0.307137  0.307137  0.860794  1
