# generated using pymatgen
data_Ba2GdB18
_symmetry_space_group_name_H-M   'P 1'
_cell_length_a   4.20552400
_cell_length_b   4.20552400
_cell_length_c   12.66419600
_cell_angle_alpha   90.00000000
_cell_angle_beta   90.00000000
_cell_angle_gamma   90.00000000
_symmetry_Int_Tables_number   1
_chemical_formula_structural   Ba2GdB18
_chemical_formula_sum   'Ba2 Gd1 B18'
_cell_volume   223.98444284
_cell_formula_units_Z   1
loop_
 _symmetry_equiv_pos_site_id
 _symmetry_equiv_pos_as_xyz
  1  'x, y, z'
loop_
 _atom_site_type_symbol
 _atom_site_label
 _atom_site_symmetry_multiplicity
 _atom_site_fract_x
 _atom_site_fract_y
 _atom_site_fract_z
 _atom_site_occupancy
  Ba  Ba0  1  0.000000  0.000000  0.332766  1
  Ba  Ba1  1  0.000000  0.000000  0.667234  1
  Gd  Gd2  1  0.000000  0.000000  0.000000  1
  B  B3  1  0.201793  0.500000  0.161506  1
  B  B4  1  0.203630  0.500000  0.500000  1
  B  B5  1  0.201793  0.500000  0.838494  1
  B  B6  1  0.500000  0.500000  0.261595  1
  B  B7  1  0.500000  0.500000  0.599162  1
  B  B8  1  0.500000  0.500000  0.934958  1
  B  B9  1  0.500000  0.201793  0.161506  1
  B  B10  1  0.500000  0.203630  0.500000  1
  B  B11  1  0.500000  0.201793  0.838494  1
  B  B12  1  0.500000  0.500000  0.065042  1
  B  B13  1  0.500000  0.500000  0.400838  1
  B  B14  1  0.500000  0.500000  0.738405  1
  B  B15  1  0.500000  0.798207  0.161506  1
  B  B16  1  0.500000  0.796370  0.500000  1
  B  B17  1  0.500000  0.798207  0.838494  1
  B  B18  1  0.798207  0.500000  0.161506  1
  B  B19  1  0.796370  0.500000  0.500000  1
  B  B20  1  0.798207  0.500000  0.838494  1
