# generated using pymatgen
data_Nd2Dy2GaBr6
_symmetry_space_group_name_H-M   'P 1'
_cell_length_a   4.11344900
_cell_length_b   13.72003200
_cell_length_c   14.45189700
_cell_angle_alpha   90.00000000
_cell_angle_beta   90.00000000
_cell_angle_gamma   90.00000000
_symmetry_Int_Tables_number   1
_chemical_formula_structural   Nd2Dy2GaBr6
_chemical_formula_sum   'Nd4 Dy4 Ga2 Br12'
_cell_volume   815.61668043
_cell_formula_units_Z   2
loop_
 _symmetry_equiv_pos_site_id
 _symmetry_equiv_pos_as_xyz
  1  'x, y, z'
loop_
 _atom_site_type_symbol
 _atom_site_label
 _atom_site_symmetry_multiplicity
 _atom_site_fract_x
 _atom_site_fract_y
 _atom_site_fract_z
 _atom_site_occupancy
  Nd  Nd0  1  0.000000  0.124918  0.583263  1
  Nd  Nd1  1  0.000000  0.875082  0.416737  1
  Nd  Nd2  1  0.000000  0.624918  0.916737  1
  Nd  Nd3  1  0.000000  0.375082  0.083263  1
  Dy  Dy4  1  0.500000  0.117038  0.341315  1
  Dy  Dy5  1  0.500000  0.882962  0.658685  1
  Dy  Dy6  1  0.500000  0.617038  0.158685  1
  Dy  Dy7  1  0.500000  0.382962  0.841315  1
  Ga  Ga8  1  0.500000  0.000000  0.500000  1
  Ga  Ga9  1  0.500000  0.500000  0.000000  1
  Br  Br10  1  0.500000  0.239963  0.169852  1
  Br  Br11  1  0.500000  0.760037  0.830148  1
  Br  Br12  1  0.500000  0.739963  0.330148  1
  Br  Br13  1  0.500000  0.260037  0.669852  1
  Br  Br14  1  0.000000  0.250541  0.406111  1
  Br  Br15  1  0.000000  0.749459  0.593889  1
  Br  Br16  1  0.000000  0.750541  0.093889  1
  Br  Br17  1  0.000000  0.249459  0.906111  1
  Br  Br18  1  0.000000  0.007946  0.244555  1
  Br  Br19  1  0.000000  0.992054  0.755445  1
  Br  Br20  1  0.000000  0.507946  0.255445  1
  Br  Br21  1  0.000000  0.492054  0.744555  1
