# generated using pymatgen
data_YbAl4SnI16
_symmetry_space_group_name_H-M   'P 1'
_cell_length_a   8.26196518
_cell_length_b   8.43973466
_cell_length_c   15.47048256
_cell_angle_alpha   87.63378056
_cell_angle_beta   90.18047237
_cell_angle_gamma   90.00820930
_symmetry_Int_Tables_number   1
_chemical_formula_structural   YbAl4SnI16
_chemical_formula_sum   'Yb1 Al4 Sn1 I16'
_cell_volume   1077.81295224
_cell_formula_units_Z   1
loop_
 _symmetry_equiv_pos_site_id
 _symmetry_equiv_pos_as_xyz
  1  'x, y, z'
loop_
 _atom_site_type_symbol
 _atom_site_label
 _atom_site_symmetry_multiplicity
 _atom_site_fract_x
 _atom_site_fract_y
 _atom_site_fract_z
 _atom_site_occupancy
  Yb  Yb0  1  0.754473  0.075536  0.810400  1
  Al  Al1  1  0.932269  0.218764  0.581415  1
  Al  Al2  1  0.062970  0.220678  0.078184  1
  Al  Al3  1  0.575705  0.642208  0.777812  1
  Al  Al4  1  0.430260  0.641659  0.278185  1
  Sn  Sn5  1  0.243938  0.072058  0.310090  1
  I  I6  1  0.423966  0.616287  0.639464  1
  I  I7  1  0.575557  0.616716  0.137898  1
  I  I8  1  0.873596  0.733557  0.760396  1
  I  I9  1  0.129107  0.730280  0.259467  1
  I  I10  1  0.937965  0.478178  0.497290  1
  I  I11  1  0.062533  0.480947  0.995671  1
  I  I12  1  0.917266  0.998763  0.996540  1
  I  I13  1  0.076803  0.994049  0.502467  1
  I  I14  1  0.638694  0.126687  0.617555  1
  I  I15  1  0.356395  0.126038  0.114649  1
  I  I16  1  0.567614  0.381073  0.873880  1
  I  I17  1  0.439292  0.386893  0.376813  1
  I  I18  1  0.449235  0.866565  0.866999  1
  I  I19  1  0.558714  0.864515  0.367364  1
  I  I20  1  0.925202  0.232376  0.228527  1
  I  I21  1  0.068447  0.230976  0.733338  1
