# generated using pymatgen
data_Ac6Ga3Si8Au
_symmetry_space_group_name_H-M   'P 1'
_cell_length_a   4.55313516
_cell_length_b   4.43776193
_cell_length_c   22.00649900
_cell_angle_alpha   84.21311725
_cell_angle_beta   95.93787390
_cell_angle_gamma   89.99999648
_symmetry_Int_Tables_number   1
_chemical_formula_structural   Ac6Ga3Si8Au
_chemical_formula_sum   'Ac6 Ga3 Si8 Au1'
_cell_volume   439.99328989
_cell_formula_units_Z   1
loop_
 _symmetry_equiv_pos_site_id
 _symmetry_equiv_pos_as_xyz
  1  'x, y, z'
loop_
 _atom_site_type_symbol
 _atom_site_label
 _atom_site_symmetry_multiplicity
 _atom_site_fract_x
 _atom_site_fract_y
 _atom_site_fract_z
 _atom_site_occupancy
  Ac  Ac0  1  0.375516  0.875250  0.249258  1
  Ac  Ac1  1  0.041514  0.208575  0.582302  1
  Ac  Ac2  1  0.705526  0.545095  0.910407  1
  Ac  Ac3  1  0.292083  0.458124  0.083974  1
  Ac  Ac4  1  0.960812  0.789045  0.422137  1
  Ac  Ac5  1  0.626037  0.124407  0.751463  1
  Ga  Ga6  1  0.570622  0.678377  0.640752  1
  Ga  Ga7  1  0.235154  0.014819  0.969180  1
  Ga  Ga8  1  0.762486  0.987480  0.025658  1
  Si  Si9  1  0.432340  0.317347  0.365404  1
  Si  Si10  1  0.096566  0.654104  0.694499  1
  Si  Si11  1  0.843855  0.403599  0.193361  1
  Si  Si12  1  0.512858  0.735843  0.528799  1
  Si  Si13  1  0.176477  0.071899  0.856453  1
  Si  Si14  1  0.821249  0.930724  0.139087  1
  Si  Si15  1  0.489375  0.262440  0.474798  1
  Si  Si16  1  0.152174  0.598257  0.803149  1
  Au  Au17  1  0.905358  0.344615  0.309319  1
