# generated using pymatgen
data_Li28Mg2Si7Bi
_symmetry_space_group_name_H-M   'P 1'
_cell_length_a   9.29383230
_cell_length_b   9.27319362
_cell_length_c   9.28920594
_cell_angle_alpha   109.38067702
_cell_angle_beta   109.59918143
_cell_angle_gamma   109.34897311
_symmetry_Int_Tables_number   1
_chemical_formula_structural   Li28Mg2Si7Bi
_chemical_formula_sum   'Li28 Mg2 Si7 Bi1'
_cell_volume   616.92569105
_cell_formula_units_Z   1
loop_
 _symmetry_equiv_pos_site_id
 _symmetry_equiv_pos_as_xyz
  1  'x, y, z'
loop_
 _atom_site_type_symbol
 _atom_site_label
 _atom_site_symmetry_multiplicity
 _atom_site_fract_x
 _atom_site_fract_y
 _atom_site_fract_z
 _atom_site_occupancy
  Li  Li0  1  0.054219  0.539996  0.286497  1
  Li  Li1  1  0.262730  0.790051  0.720108  1
  Li  Li2  1  0.183497  0.960508  0.973550  1
  Li  Li3  1  0.973501  0.196162  0.018837  1
  Li  Li4  1  0.038166  0.014827  0.223695  1
  Li  Li5  1  0.792674  0.815872  0.777001  1
  Li  Li6  1  0.469441  0.748913  0.542531  1
  Li  Li7  1  0.209949  0.935334  0.474695  1
  Li  Li8  1  0.717767  0.343723  0.061594  1
  Li  Li9  1  0.950229  0.396574  0.859954  1
  Li  Li10  1  0.286897  0.663037  0.930152  1
  Li  Li11  1  0.532775  0.089013  0.128384  1
  Li  Li12  1  0.693492  0.859262  0.089029  1
  Li  Li13  1  0.491635  0.906838  0.342905  1
  Li  Li14  1  0.558795  0.149728  0.668664  1
  Li  Li15  1  0.773818  0.605097  0.909674  1
  Li  Li16  1  0.846667  0.518839  0.410774  1
  Li  Li17  1  0.407282  0.299840  0.166300  1
  Li  Li18  1  0.136010  0.221074  0.820457  1
  Li  Li19  1  0.107893  0.441329  0.589634  1
  Li  Li20  1  0.906304  0.037389  0.437932  1
  Li  Li21  1  0.342054  0.279298  0.627557  1
  Li  Li22  1  0.597241  0.466835  0.563454  1
  Li  Li23  1  0.667180  0.722797  0.379405  1
  Li  Li24  1  0.002633  0.873703  0.626217  1
  Li  Li25  1  0.246607  0.368505  0.381125  1
  Li  Li26  1  0.119887  0.757375  0.123467  1
  Li  Li27  1  0.623279  0.999719  0.876754  1
  Mg  Mg28  1  0.510752  0.495637  0.989985  1
  Mg  Mg29  1  0.750476  0.252259  0.498203  1
  Si  Si30  1  0.373800  0.126751  0.834218  1
  Si  Si31  1  0.957095  0.623041  0.744978  1
  Si  Si32  1  0.876312  0.211183  0.254739  1
  Si  Si33  1  0.376223  0.123868  0.334160  1
  Si  Si34  1  0.788208  0.042843  0.664611  1
  Si  Si35  1  0.461064  0.625755  0.754547  1
  Si  Si36  1  0.872587  0.706695  0.244593  1
  Bi  Bi37  1  0.290860  0.540325  0.169622  1
