# generated using pymatgen
data_EuHo6CoBr12
_symmetry_space_group_name_H-M   'P 1'
_cell_length_a   9.23860654
_cell_length_b   9.23860772
_cell_length_c   9.23860700
_cell_angle_alpha   106.28327086
_cell_angle_beta   106.28327110
_cell_angle_gamma   106.28328094
_symmetry_Int_Tables_number   1
_chemical_formula_structural   EuHo6CoBr12
_chemical_formula_sum   'Eu1 Ho6 Co1 Br12'
_cell_volume   669.12165419
_cell_formula_units_Z   1
loop_
 _symmetry_equiv_pos_site_id
 _symmetry_equiv_pos_as_xyz
  1  'x, y, z'
loop_
 _atom_site_type_symbol
 _atom_site_label
 _atom_site_symmetry_multiplicity
 _atom_site_fract_x
 _atom_site_fract_y
 _atom_site_fract_z
 _atom_site_occupancy
  Eu  Eu0  1  0.998231  0.998231  0.998231  1
  Ho  Ho1  1  0.514401  0.592981  0.796764  1
  Ho  Ho2  1  0.796764  0.514401  0.592981  1
  Ho  Ho3  1  0.592981  0.796764  0.514401  1
  Ho  Ho4  1  0.483227  0.404645  0.200932  1
  Ho  Ho5  1  0.200932  0.483227  0.404645  1
  Ho  Ho6  1  0.404645  0.200932  0.483227  1
  Co  Co7  1  0.498866  0.498866  0.498866  1
  Br  Br8  1  0.280860  0.823139  0.426656  1
  Br  Br9  1  0.426656  0.280860  0.823139  1
  Br  Br10  1  0.823139  0.426656  0.280860  1
  Br  Br11  1  0.716867  0.174617  0.571070  1
  Br  Br12  1  0.571070  0.716867  0.174617  1
  Br  Br13  1  0.174617  0.571070  0.716867  1
  Br  Br14  1  0.057120  0.136373  0.357246  1
  Br  Br15  1  0.357246  0.057120  0.136373  1
  Br  Br16  1  0.136373  0.357246  0.057120  1
  Br  Br17  1  0.940517  0.861125  0.639732  1
  Br  Br18  1  0.639732  0.940517  0.861125  1
  Br  Br19  1  0.861125  0.639732  0.940517  1
