# generated using pymatgen
data_Mn5Zn6Fe3(NiO6)4
_symmetry_space_group_name_H-M   'P 1'
_cell_length_a   6.00288176
_cell_length_b   5.99537749
_cell_length_c   13.27121087
_cell_angle_alpha   77.59970483
_cell_angle_beta   77.26816757
_cell_angle_gamma   90.90952450
_symmetry_Int_Tables_number   1
_chemical_formula_structural   Mn5Zn6Fe3(NiO6)4
_chemical_formula_sum   'Mn5 Zn6 Fe3 Ni4 O24'
_cell_volume   454.01025117
_cell_formula_units_Z   1
loop_
 _symmetry_equiv_pos_site_id
 _symmetry_equiv_pos_as_xyz
  1  'x, y, z'
loop_
 _atom_site_type_symbol
 _atom_site_label
 _atom_site_symmetry_multiplicity
 _atom_site_fract_x
 _atom_site_fract_y
 _atom_site_fract_z
 _atom_site_occupancy
  Mn  Mn0  1  0.000000  0.500000  0.500000  1
  Mn  Mn1  1  0.162210  0.167224  0.167437  1
  Mn  Mn2  1  0.837790  0.832776  0.832563  1
  Mn  Mn3  1  0.170753  0.160777  0.666462  1
  Mn  Mn4  1  0.829247  0.839223  0.333538  1
  Zn  Zn5  1  0.300587  0.023836  0.416410  1
  Zn  Zn6  1  0.973235  0.699047  0.083692  1
  Zn  Zn7  1  0.635115  0.365858  0.749312  1
  Zn  Zn8  1  0.026765  0.300953  0.916308  1
  Zn  Zn9  1  0.699413  0.976164  0.583590  1
  Zn  Zn10  1  0.364885  0.634142  0.250688  1
  Fe  Fe11  1  0.500000  0.000000  0.000000  1
  Fe  Fe12  1  0.500000  0.500000  0.500000  1
  Fe  Fe13  1  0.500000  0.500000  0.000000  1
  Ni  Ni14  1  0.167379  0.662423  0.668187  1
  Ni  Ni15  1  0.832621  0.337577  0.331813  1
  Ni  Ni16  1  0.663259  0.167711  0.167833  1
  Ni  Ni17  1  0.336741  0.832289  0.832167  1
  O  O18  1  0.078194  0.070366  0.822001  1
  O  O19  1  0.742809  0.754624  0.488295  1
  O  O20  1  0.400695  0.396377  0.163132  1
  O  O21  1  0.930587  0.920668  0.677588  1
  O  O22  1  0.603411  0.597822  0.337021  1
  O  O23  1  0.255769  0.242701  0.010211  1
  O  O24  1  0.385129  0.927549  0.671291  1
  O  O25  1  0.050256  0.600024  0.342940  1
  O  O26  1  0.717710  0.250102  0.005642  1
  O  O27  1  0.070172  0.615891  0.829248  1
  O  O28  1  0.757680  0.288091  0.494966  1
  O  O29  1  0.400272  0.947064  0.159945  1
  O  O30  1  0.257191  0.245376  0.511705  1
  O  O31  1  0.921806  0.929634  0.177999  1
  O  O32  1  0.599305  0.603623  0.836868  1
  O  O33  1  0.396589  0.402178  0.662979  1
  O  O34  1  0.069413  0.079333  0.322412  1
  O  O35  1  0.744231  0.757299  0.989789  1
  O  O36  1  0.949744  0.399976  0.657060  1
  O  O37  1  0.614871  0.072451  0.328709  1
  O  O38  1  0.282290  0.749898  0.994358  1
  O  O39  1  0.242320  0.711909  0.505034  1
  O  O40  1  0.929828  0.384109  0.170752  1
  O  O41  1  0.599728  0.052936  0.840055  1
