# generated using pymatgen
data_LiCa21Ga13Ag
_symmetry_space_group_name_H-M   'P 1'
_cell_length_a   11.36819313
_cell_length_b   11.37984505
_cell_length_c   11.36819398
_cell_angle_alpha   59.96609376
_cell_angle_beta   60.06781662
_cell_angle_gamma   59.96609419
_symmetry_Int_Tables_number   1
_chemical_formula_structural   LiCa21Ga13Ag
_chemical_formula_sum   'Li1 Ca21 Ga13 Ag1'
_cell_volume   1039.92823764
_cell_formula_units_Z   1
loop_
 _symmetry_equiv_pos_site_id
 _symmetry_equiv_pos_as_xyz
  1  'x, y, z'
loop_
 _atom_site_type_symbol
 _atom_site_label
 _atom_site_symmetry_multiplicity
 _atom_site_fract_x
 _atom_site_fract_y
 _atom_site_fract_z
 _atom_site_occupancy
  Li  Li0  1  0.499561  0.500439  0.499561  1
  Ca  Ca1  1  0.998034  0.001966  0.998034  1
  Ca  Ca2  1  0.126807  0.134919  0.126807  1
  Ca  Ca3  1  0.388531  0.873193  0.865081  1
  Ca  Ca4  1  0.870871  0.387957  0.870871  1
  Ca  Ca5  1  0.865081  0.873193  0.388531  1
  Ca  Ca6  1  0.126807  0.611469  0.126807  1
  Ca  Ca7  1  0.129701  0.129129  0.612043  1
  Ca  Ca8  1  0.612043  0.129129  0.129701  1
  Ca  Ca9  1  0.870871  0.870299  0.870871  1
  Ca  Ca10  1  0.499534  0.830096  0.499534  1
  Ca  Ca11  1  0.831901  0.500127  0.499873  1
  Ca  Ca12  1  0.506380  0.830026  0.169974  1
  Ca  Ca13  1  0.169904  0.500466  0.829163  1
  Ca  Ca14  1  0.829163  0.500466  0.169904  1
  Ca  Ca15  1  0.499873  0.500127  0.831901  1
  Ca  Ca16  1  0.169974  0.830026  0.506380  1
  Ca  Ca17  1  0.499873  0.168099  0.831901  1
  Ca  Ca18  1  0.506380  0.493620  0.169974  1
  Ca  Ca19  1  0.831901  0.168099  0.499873  1
  Ca  Ca20  1  0.169974  0.493620  0.506380  1
  Ca  Ca21  1  0.499534  0.170837  0.499534  1
  Ga  Ga22  1  0.218106  0.781894  0.785207  1
  Ga  Ga23  1  0.785207  0.214793  0.218106  1
  Ga  Ga24  1  0.785207  0.781894  0.218106  1
  Ga  Ga25  1  0.218106  0.214793  0.785207  1
  Ga  Ga26  1  0.781662  0.218338  0.781662  1
  Ga  Ga27  1  0.307619  0.312461  0.307618  1
  Ga  Ga28  1  0.927697  0.692382  0.687539  1
  Ga  Ga29  1  0.690336  0.928566  0.690336  1
  Ga  Ga30  1  0.687539  0.692382  0.927697  1
  Ga  Ga31  1  0.307618  0.072303  0.307618  1
  Ga  Ga32  1  0.309237  0.309664  0.071434  1
  Ga  Ga33  1  0.071434  0.309664  0.309237  1
  Ga  Ga34  1  0.690336  0.690763  0.690335  1
  Ag  Ag35  1  0.217198  0.782802  0.217198  1
