# generated using pymatgen
data_Y9HoSi5Ge
_symmetry_space_group_name_H-M   'P 1'
_cell_length_a   8.46680200
_cell_length_b   8.46882107
_cell_length_c   6.39153600
_cell_angle_alpha   90.00094723
_cell_angle_beta   89.99953008
_cell_angle_gamma   119.99119944
_symmetry_Int_Tables_number   1
_chemical_formula_structural   Y9HoSi5Ge
_chemical_formula_sum   'Y9 Ho1 Si5 Ge1'
_cell_volume   396.93257214
_cell_formula_units_Z   1
loop_
 _symmetry_equiv_pos_site_id
 _symmetry_equiv_pos_as_xyz
  1  'x, y, z'
loop_
 _atom_site_type_symbol
 _atom_site_label
 _atom_site_symmetry_multiplicity
 _atom_site_fract_x
 _atom_site_fract_y
 _atom_site_fract_z
 _atom_site_occupancy
  Y  Y0  1  0.998962  0.755794  0.749971  1
  Y  Y1  1  0.999955  0.243433  0.250031  1
  Y  Y2  1  0.756504  0.756588  0.250030  1
  Y  Y3  1  0.757358  0.999983  0.749971  1
  Y  Y4  1  0.243152  0.244227  0.749969  1
  Y  Y5  1  0.243107  0.999982  0.250030  1
  Y  Y6  1  0.667340  0.334139  0.000618  1
  Y  Y7  1  0.667341  0.334139  0.499382  1
  Y  Y8  1  0.333201  0.665863  0.000620  1
  Ho  Ho9  1  0.333197  0.665857  0.499382  1
  Si  Si10  1  0.394246  0.394293  0.250093  1
  Si  Si11  1  0.000148  0.605807  0.250091  1
  Si  Si12  1  0.000054  0.394333  0.749909  1
  Si  Si13  1  0.605625  0.605763  0.749909  1
  Si  Si14  1  0.605773  0.999904  0.250090  1
  Ge  Ge15  1  0.394036  0.999896  0.749904  1
