# generated using pymatgen
data_Ho3ZnIn3CoNi
_symmetry_space_group_name_H-M   'P 1'
_cell_length_a   7.64368900
_cell_length_b   7.64368851
_cell_length_c   3.66918000
_cell_angle_alpha   90.00000000
_cell_angle_beta   90.00000000
_cell_angle_gamma   120.00000644
_symmetry_Int_Tables_number   1
_chemical_formula_structural   Ho3ZnIn3CoNi
_chemical_formula_sum   'Ho3 Zn1 In3 Co1 Ni1'
_cell_volume   185.65455559
_cell_formula_units_Z   1
loop_
 _symmetry_equiv_pos_site_id
 _symmetry_equiv_pos_as_xyz
  1  'x, y, z'
loop_
 _atom_site_type_symbol
 _atom_site_label
 _atom_site_symmetry_multiplicity
 _atom_site_fract_x
 _atom_site_fract_y
 _atom_site_fract_z
 _atom_site_occupancy
  Ho  Ho0  1  0.970205  0.577633  0.500000  1
  Ho  Ho1  1  0.422367  0.392572  0.500000  1
  Ho  Ho2  1  0.607428  0.029795  0.500000  1
  Zn  Zn3  1  0.333333  0.666667  0.000000  1
  In  In4  1  0.254450  0.996597  0.000000  1
  In  In5  1  0.742147  0.745550  0.000000  1
  In  In6  1  0.003403  0.257853  0.000000  1
  Co  Co7  1  0.666667  0.333333  0.000000  1
  Ni  Ni8  1  0.000000  0.000000  0.500000  1
