# generated using pymatgen
data_Cs5UF9
_symmetry_space_group_name_H-M   'P 1'
_cell_length_a   8.27065364
_cell_length_b   8.27065301
_cell_length_c   11.69546200
_cell_angle_alpha   90.00000000
_cell_angle_beta   90.00000000
_cell_angle_gamma   116.51570069
_symmetry_Int_Tables_number   1
_chemical_formula_structural   Cs5UF9
_chemical_formula_sum   'Cs10 U2 F18'
_cell_volume   715.86123284
_cell_formula_units_Z   2
loop_
 _symmetry_equiv_pos_site_id
 _symmetry_equiv_pos_as_xyz
  1  'x, y, z'
loop_
 _atom_site_type_symbol
 _atom_site_label
 _atom_site_symmetry_multiplicity
 _atom_site_fract_x
 _atom_site_fract_y
 _atom_site_fract_z
 _atom_site_occupancy
  Cs  Cs0  1  0.137738  0.350673  0.900836  1
  Cs  Cs1  1  0.862262  0.649327  0.400836  1
  Cs  Cs2  1  0.649327  0.862262  0.900836  1
  Cs  Cs3  1  0.350673  0.137738  0.400836  1
  Cs  Cs4  1  0.114097  0.391690  0.554371  1
  Cs  Cs5  1  0.885903  0.608310  0.054371  1
  Cs  Cs6  1  0.608310  0.885903  0.554371  1
  Cs  Cs7  1  0.391690  0.114097  0.054371  1
  Cs  Cs8  1  0.579797  0.420203  0.712882  1
  Cs  Cs9  1  0.420203  0.579797  0.212882  1
  U  U10  1  0.161966  0.838034  0.749241  1
  U  U11  1  0.838034  0.161966  0.249241  1
  F  F12  1  0.461766  0.034153  0.768728  1
  F  F13  1  0.538234  0.965847  0.268728  1
  F  F14  1  0.965847  0.538234  0.768728  1
  F  F15  1  0.034153  0.461766  0.268728  1
  F  F16  1  0.207874  0.119916  0.682948  1
  F  F17  1  0.792126  0.880084  0.182948  1
  F  F18  1  0.880084  0.792126  0.682948  1
  F  F19  1  0.119916  0.207874  0.182948  1
  F  F20  1  0.518036  0.481964  0.961405  1
  F  F21  1  0.481964  0.518036  0.461405  1
  F  F22  1  0.239231  0.760769  0.934352  1
  F  F23  1  0.760769  0.239231  0.434352  1
  F  F24  1  0.946179  0.053821  0.394590  1
  F  F25  1  0.053821  0.946179  0.894590  1
  F  F26  1  0.804126  0.195874  0.060388  1
  F  F27  1  0.195874  0.804126  0.560388  1
  F  F28  1  0.663963  0.336037  0.227874  1
  F  F29  1  0.336037  0.663963  0.727874  1
