# generated using pymatgen
data_YEr3(Ga3Rh)6
_symmetry_space_group_name_H-M   'P 1'
_cell_length_a   7.56378029
_cell_length_b   7.56606051
_cell_length_c   9.51074200
_cell_angle_alpha   90.00000000
_cell_angle_beta   90.00000000
_cell_angle_gamma   119.84852966
_symmetry_Int_Tables_number   1
_chemical_formula_structural   YEr3(Ga3Rh)6
_chemical_formula_sum   'Y1 Er3 Ga18 Rh6'
_cell_volume   472.07890817
_cell_formula_units_Z   1
loop_
 _symmetry_equiv_pos_site_id
 _symmetry_equiv_pos_as_xyz
  1  'x, y, z'
loop_
 _atom_site_type_symbol
 _atom_site_label
 _atom_site_symmetry_multiplicity
 _atom_site_fract_x
 _atom_site_fract_y
 _atom_site_fract_z
 _atom_site_occupancy
  Y  Y0  1  0.996884  0.667913  0.250000  1
  Er  Er1  1  0.003082  0.332059  0.750000  1
  Er  Er2  1  0.667917  0.996972  0.250000  1
  Er  Er3  1  0.332117  0.003113  0.750000  1
  Ga  Ga4  1  0.124722  0.125186  0.250000  1
  Ga  Ga5  1  0.875375  0.875404  0.750000  1
  Ga  Ga6  1  0.999903  0.333667  0.079864  1
  Ga  Ga7  1  0.000088  0.665600  0.919198  1
  Ga  Ga8  1  0.000088  0.665600  0.580802  1
  Ga  Ga9  1  0.335034  0.000538  0.420106  1
  Ga  Ga10  1  0.999903  0.333667  0.420136  1
  Ga  Ga11  1  0.665591  0.000101  0.580324  1
  Ga  Ga12  1  0.665591  0.000101  0.919676  1
  Ga  Ga13  1  0.335034  0.000538  0.079894  1
  Ga  Ga14  1  0.332511  0.332530  0.564868  1
  Ga  Ga15  1  0.666965  0.667560  0.435754  1
  Ga  Ga16  1  0.666965  0.667560  0.064246  1
  Ga  Ga17  1  0.332511  0.332530  0.935132  1
  Ga  Ga18  1  0.339170  0.548124  0.250000  1
  Ga  Ga19  1  0.661193  0.451831  0.750000  1
  Ga  Ga20  1  0.547473  0.338069  0.250000  1
  Ga  Ga21  1  0.451883  0.661259  0.750000  1
  Rh  Rh22  1  0.671402  0.328179  0.999760  1
  Rh  Rh23  1  0.328369  0.671493  0.999752  1
  Rh  Rh24  1  0.328369  0.671493  0.500248  1
  Rh  Rh25  1  0.671402  0.328179  0.500240  1
  Rh  Rh26  1  0.000230  0.000365  0.999645  1
  Rh  Rh27  1  0.000230  0.000365  0.500355  1
