# generated using pymatgen
data_Th3Al3ZnPtRh
_symmetry_space_group_name_H-M   'P 1'
_cell_length_a   7.22745100
_cell_length_b   7.22744924
_cell_length_c   4.24973900
_cell_angle_alpha   90.00000000
_cell_angle_beta   90.00000000
_cell_angle_gamma   119.99999434
_symmetry_Int_Tables_number   1
_chemical_formula_structural   Th3Al3ZnPtRh
_chemical_formula_sum   'Th3 Al3 Zn1 Pt1 Rh1'
_cell_volume   192.24857122
_cell_formula_units_Z   1
loop_
 _symmetry_equiv_pos_site_id
 _symmetry_equiv_pos_as_xyz
  1  'x, y, z'
loop_
 _atom_site_type_symbol
 _atom_site_label
 _atom_site_symmetry_multiplicity
 _atom_site_fract_x
 _atom_site_fract_y
 _atom_site_fract_z
 _atom_site_occupancy
  Th  Th0  1  0.991569  0.415282  0.500000  1
  Th  Th1  1  0.584718  0.576286  0.500000  1
  Th  Th2  1  0.423714  0.008431  0.500000  1
  Al  Al3  1  0.994338  0.763924  0.000000  1
  Al  Al4  1  0.236076  0.230414  0.000000  1
  Al  Al5  1  0.769586  0.005662  0.000000  1
  Zn  Zn6  1  0.333333  0.666667  0.000000  1
  Pt  Pt7  1  0.000000  0.000000  0.500000  1
  Rh  Rh8  1  0.666667  0.333333  0.000000  1
