# generated using pymatgen
data_CaYbHgN
_symmetry_space_group_name_H-M   'P 1'
_cell_length_a   10.31638234
_cell_length_b   10.31638046
_cell_length_c   5.02374900
_cell_angle_alpha   90.00000000
_cell_angle_beta   90.00000000
_cell_angle_gamma   160.99130711
_symmetry_Int_Tables_number   1
_chemical_formula_structural   CaYbHgN
_chemical_formula_sum   'Ca2 Yb2 Hg2 N2'
_cell_volume   174.14697855
_cell_formula_units_Z   2
loop_
 _symmetry_equiv_pos_site_id
 _symmetry_equiv_pos_as_xyz
  1  'x, y, z'
loop_
 _atom_site_type_symbol
 _atom_site_label
 _atom_site_symmetry_multiplicity
 _atom_site_fract_x
 _atom_site_fract_y
 _atom_site_fract_z
 _atom_site_occupancy
  Ca  Ca0  1  0.378069  0.621931  0.750000  1
  Ca  Ca1  1  0.621931  0.378069  0.250000  1
  Yb  Yb2  1  0.219453  0.780547  0.750000  1
  Yb  Yb3  1  0.780547  0.219453  0.250000  1
  Hg  Hg4  1  0.044729  0.955271  0.750000  1
  Hg  Hg5  1  0.955271  0.044729  0.250000  1
  N  N6  1  0.799328  0.200672  0.750000  1
  N  N7  1  0.200672  0.799328  0.250000  1
