# generated using pymatgen
data_Sr12Nb3SbO22
_symmetry_space_group_name_H-M   'P 1'
_cell_length_a   6.04812980
_cell_length_b   6.02926671
_cell_length_c   23.97327108
_cell_angle_alpha   58.50539723
_cell_angle_beta   59.00307808
_cell_angle_gamma   59.96016578
_symmetry_Int_Tables_number   1
_chemical_formula_structural   Sr12Nb3SbO22
_chemical_formula_sum   'Sr12 Nb3 Sb1 O22'
_cell_volume   606.06075590
_cell_formula_units_Z   1
loop_
 _symmetry_equiv_pos_site_id
 _symmetry_equiv_pos_as_xyz
  1  'x, y, z'
loop_
 _atom_site_type_symbol
 _atom_site_label
 _atom_site_symmetry_multiplicity
 _atom_site_fract_x
 _atom_site_fract_y
 _atom_site_fract_z
 _atom_site_occupancy
  Sr  Sr0  1  0.115243  0.332342  0.077501  1
  Sr  Sr1  1  0.440379  0.614956  0.108185  1
  Sr  Sr2  1  0.181307  0.357878  0.290738  1
  Sr  Sr3  1  0.366349  0.544637  0.388106  1
  Sr  Sr4  1  0.630369  0.801423  0.204605  1
  Sr  Sr5  1  0.224062  0.246344  0.577377  1
  Sr  Sr6  1  0.505521  0.513921  0.609127  1
  Sr  Sr7  1  0.224679  0.292263  0.792309  1
  Sr  Sr8  1  0.649251  0.859896  0.419911  1
  Sr  Sr9  1  0.455433  0.476232  0.888328  1
  Sr  Sr10  1  0.683486  0.745076  0.705878  1
  Sr  Sr11  1  0.723172  0.759060  0.918957  1
  Nb  Nb12  1  0.999735  0.046207  0.998476  1
  Nb  Nb13  1  0.905332  0.080915  0.248691  1
  Nb  Nb14  1  0.937050  0.968950  0.498261  1
  Sb  Sb15  1  0.964173  0.013826  0.748344  1
  O  O16  1  0.086422  0.382972  0.183310  1
  O  O17  1  0.211370  0.847133  0.191010  1
  O  O18  1  0.814050  0.377509  0.026372  1
  O  O19  1  0.782415  0.831651  0.079347  1
  O  O20  1  0.685993  0.230247  0.187517  1
  O  O21  1  0.604310  0.333204  0.300902  1
  O  O22  1  0.146317  0.191725  0.417427  1
  O  O23  1  0.111806  0.930655  0.313160  1
  O  O24  1  0.734186  0.770851  0.314855  1
  O  O25  1  0.605944  0.160670  0.469474  1
  O  O26  1  0.729381  0.066253  0.578996  1
  O  O27  1  0.143981  0.793104  0.685262  1
  O  O28  1  0.268543  0.708773  0.527155  1
  O  O29  1  0.331730  0.045132  0.998646  1
  O  O30  1  0.936148  0.636113  0.498754  1
  O  O31  1  0.758048  0.330140  0.683672  1
  O  O32  1  0.261114  0.187022  0.693790  1
  O  O33  1  0.783370  0.225593  0.812016  1
  O  O34  1  0.258572  0.716880  0.969339  1
  O  O35  1  0.185021  0.702454  0.811149  1
  O  O36  1  0.655903  0.849750  0.805145  1
  O  O37  1  0.895337  0.259739  0.918132  1
