# generated using pymatgen
data_Ba4GdTaO8
_symmetry_space_group_name_H-M   'P 1'
_cell_length_a   7.46831328
_cell_length_b   7.46831203
_cell_length_c   6.07800900
_cell_angle_alpha   90.00000000
_cell_angle_beta   90.00000000
_cell_angle_gamma   132.24228377
_symmetry_Int_Tables_number   1
_chemical_formula_structural   Ba4GdTaO8
_chemical_formula_sum   'Ba4 Gd1 Ta1 O8'
_cell_volume   250.96846670
_cell_formula_units_Z   1
loop_
 _symmetry_equiv_pos_site_id
 _symmetry_equiv_pos_as_xyz
  1  'x, y, z'
loop_
 _atom_site_type_symbol
 _atom_site_label
 _atom_site_symmetry_multiplicity
 _atom_site_fract_x
 _atom_site_fract_y
 _atom_site_fract_z
 _atom_site_occupancy
  Ba  Ba0  1  0.353498  0.646502  0.000000  1
  Ba  Ba1  1  0.852789  0.147211  0.500000  1
  Ba  Ba2  1  0.147211  0.852789  0.500000  1
  Ba  Ba3  1  0.646502  0.353498  0.000000  1
  Gd  Gd4  1  0.000000  0.000000  0.000000  1
  Ta  Ta5  1  0.500000  0.500000  0.500000  1
  O  O6  1  0.264174  0.264174  0.731023  1
  O  O7  1  0.735826  0.735826  0.268977  1
  O  O8  1  0.735826  0.735826  0.731023  1
  O  O9  1  0.264174  0.264174  0.268977  1
  O  O10  1  0.167090  0.832910  0.000000  1
  O  O11  1  0.650474  0.349526  0.500000  1
  O  O12  1  0.349526  0.650474  0.500000  1
  O  O13  1  0.832910  0.167090  0.000000  1
