# generated using pymatgen
data_Li2Tm3Si2AgHg
_symmetry_space_group_name_H-M   'P 1'
_cell_length_a   7.08680585
_cell_length_b   7.20720198
_cell_length_c   4.14725300
_cell_angle_alpha   90.00000000
_cell_angle_beta   90.00000000
_cell_angle_gamma   120.56359616
_symmetry_Int_Tables_number   1
_chemical_formula_structural   Li2Tm3Si2AgHg
_chemical_formula_sum   'Li2 Tm3 Si2 Ag1 Hg1'
_cell_volume   182.39538141
_cell_formula_units_Z   1
loop_
 _symmetry_equiv_pos_site_id
 _symmetry_equiv_pos_as_xyz
  1  'x, y, z'
loop_
 _atom_site_type_symbol
 _atom_site_label
 _atom_site_symmetry_multiplicity
 _atom_site_fract_x
 _atom_site_fract_y
 _atom_site_fract_z
 _atom_site_occupancy
  Li  Li0  1  0.748909  0.751541  0.000000  1
  Li  Li1  1  0.251091  0.002632  0.000000  1
  Tm  Tm2  1  0.424891  0.426179  0.500000  1
  Tm  Tm3  1  0.575109  0.001288  0.500000  1
  Tm  Tm4  1  0.000000  0.567371  0.500000  1
  Si  Si5  1  0.659204  0.333739  0.000000  1
  Si  Si6  1  0.340796  0.674536  0.000000  1
  Ag  Ag7  1  0.000000  0.261856  0.000000  1
  Hg  Hg8  1  0.000000  0.980858  0.500000  1
