# generated using pymatgen
data_Pr2NdSi4(AsPd10)2
_symmetry_space_group_name_H-M   'P 1'
_cell_length_a   8.77711364
_cell_length_b   8.87736238
_cell_length_c   8.87736100
_cell_angle_alpha   59.25428071
_cell_angle_beta   60.37285957
_cell_angle_gamma   60.37286046
_symmetry_Int_Tables_number   1
_chemical_formula_structural   Pr2NdSi4(AsPd10)2
_chemical_formula_sum   'Pr2 Nd1 Si4 As2 Pd20'
_cell_volume   488.98440558
_cell_formula_units_Z   1
loop_
 _symmetry_equiv_pos_site_id
 _symmetry_equiv_pos_as_xyz
  1  'x, y, z'
loop_
 _atom_site_type_symbol
 _atom_site_label
 _atom_site_symmetry_multiplicity
 _atom_site_fract_x
 _atom_site_fract_y
 _atom_site_fract_z
 _atom_site_occupancy
  Pr  Pr0  1  0.250000  0.250000  0.250000  1
  Pr  Pr1  1  0.750000  0.750000  0.750000  1
  Nd  Nd2  1  0.000000  0.000000  0.000000  1
  Si  Si3  1  0.267476  0.732524  0.267476  1
  Si  Si4  1  0.732524  0.267476  0.732524  1
  Si  Si5  1  0.267476  0.267476  0.732524  1
  Si  Si6  1  0.732524  0.732524  0.267476  1
  As  As7  1  0.737090  0.262910  0.262910  1
  As  As8  1  0.262910  0.737090  0.737090  1
  Pd  Pd9  1  0.346744  0.000000  0.000000  1
  Pd  Pd10  1  0.653256  0.000000  0.000000  1
  Pd  Pd11  1  0.000000  0.346744  0.653256  1
  Pd  Pd12  1  0.000000  0.653256  0.346744  1
  Pd  Pd13  1  0.009509  0.347900  0.990491  1
  Pd  Pd14  1  0.652100  0.990491  0.347900  1
  Pd  Pd15  1  0.990491  0.652100  0.009509  1
  Pd  Pd16  1  0.347900  0.009509  0.652100  1
  Pd  Pd17  1  0.009509  0.990491  0.347900  1
  Pd  Pd18  1  0.990491  0.009509  0.652100  1
  Pd  Pd19  1  0.652100  0.347900  0.990491  1
  Pd  Pd20  1  0.347900  0.652100  0.009509  1
  Pd  Pd21  1  0.381088  0.387811  0.387811  1
  Pd  Pd22  1  0.618912  0.612189  0.612189  1
  Pd  Pd23  1  0.387811  0.381088  0.843289  1
  Pd  Pd24  1  0.387811  0.843289  0.381088  1
  Pd  Pd25  1  0.612189  0.618912  0.156711  1
  Pd  Pd26  1  0.612189  0.156711  0.618912  1
  Pd  Pd27  1  0.843289  0.387811  0.387811  1
  Pd  Pd28  1  0.156711  0.612189  0.612189  1
