# generated using pymatgen
data_Tm3Mg3TlAgPb
_symmetry_space_group_name_H-M   'P 1'
_cell_length_a   7.50891800
_cell_length_b   7.50891822
_cell_length_c   4.51624600
_cell_angle_alpha   90.00000000
_cell_angle_beta   90.00000000
_cell_angle_gamma   119.99999902
_symmetry_Int_Tables_number   1
_chemical_formula_structural   Tm3Mg3TlAgPb
_chemical_formula_sum   'Tm3 Mg3 Tl1 Ag1 Pb1'
_cell_volume   220.52760565
_cell_formula_units_Z   1
loop_
 _symmetry_equiv_pos_site_id
 _symmetry_equiv_pos_as_xyz
  1  'x, y, z'
loop_
 _atom_site_type_symbol
 _atom_site_label
 _atom_site_symmetry_multiplicity
 _atom_site_fract_x
 _atom_site_fract_y
 _atom_site_fract_z
 _atom_site_occupancy
  Tm  Tm0  1  0.580338  0.993210  0.000000  1
  Tm  Tm1  1  0.006790  0.587127  0.000000  1
  Tm  Tm2  1  0.412873  0.419662  0.000000  1
  Mg  Mg3  1  0.233226  0.995516  0.500000  1
  Mg  Mg4  1  0.004484  0.237710  0.500000  1
  Mg  Mg5  1  0.762290  0.766774  0.500000  1
  Tl  Tl6  1  0.333333  0.666667  0.500000  1
  Ag  Ag7  1  0.000000  0.000000  0.000000  1
  Pb  Pb8  1  0.666667  0.333333  0.500000  1
