# generated using pymatgen
data_CsSm(CO3)2
_symmetry_space_group_name_H-M   'P 1'
_cell_length_a   7.46083392
_cell_length_b   7.46083347
_cell_length_c   7.46083390
_cell_angle_alpha   42.81661594
_cell_angle_beta   42.81661946
_cell_angle_gamma   42.81661276
_symmetry_Int_Tables_number   1
_chemical_formula_structural   CsSm(CO3)2
_chemical_formula_sum   'Cs1 Sm1 C2 O6'
_cell_volume   173.81858449
_cell_formula_units_Z   1
loop_
 _symmetry_equiv_pos_site_id
 _symmetry_equiv_pos_as_xyz
  1  'x, y, z'
loop_
 _atom_site_type_symbol
 _atom_site_label
 _atom_site_symmetry_multiplicity
 _atom_site_fract_x
 _atom_site_fract_y
 _atom_site_fract_z
 _atom_site_occupancy
  Cs  Cs0  1  0.000000  0.000000  0.000000  1
  Sm  Sm1  1  0.500000  0.500000  0.500000  1
  C  C2  1  0.233071  0.233071  0.233071  1
  C  C3  1  0.766929  0.766929  0.766929  1
  O  O4  1  0.674541  0.587464  0.036772  1
  O  O5  1  0.412535  0.963226  0.325459  1
  O  O6  1  0.963228  0.325459  0.412534  1
  O  O7  1  0.036773  0.674541  0.587463  1
  O  O8  1  0.587463  0.036772  0.674542  1
  O  O9  1  0.325458  0.412536  0.963227  1
