# generated using pymatgen
data_H4AuNCl4
_symmetry_space_group_name_H-M   'P 1'
_cell_length_a   8.38076204
_cell_length_b   8.38076118
_cell_length_c   8.38076146
_cell_angle_alpha   126.68686621
_cell_angle_beta   126.68685596
_cell_angle_gamma   78.76213611
_symmetry_Int_Tables_number   1
_chemical_formula_structural   H4AuNCl4
_chemical_formula_sum   'H8 Au2 N2 Cl8'
_cell_volume   366.31720301
_cell_formula_units_Z   2
loop_
 _symmetry_equiv_pos_site_id
 _symmetry_equiv_pos_as_xyz
  1  'x, y, z'
loop_
 _atom_site_type_symbol
 _atom_site_label
 _atom_site_symmetry_multiplicity
 _atom_site_fract_x
 _atom_site_fract_y
 _atom_site_fract_z
 _atom_site_occupancy
  H  H0  1  0.821362  0.721281  0.199502  1
  H  H1  1  0.021780  0.621861  0.300498  1
  H  H2  1  0.221282  0.521780  0.899921  1
  H  H3  1  0.121860  0.321361  0.600080  1
  H  H4  1  0.178638  0.278719  0.800498  1
  H  H5  1  0.978221  0.378140  0.699502  1
  H  H6  1  0.778720  0.478220  0.100081  1
  H  H7  1  0.878140  0.678639  0.399921  1
  Au  Au8  1  0.375001  0.125000  0.250001  1
  Au  Au9  1  0.625001  0.875000  0.750001  1
  N  N10  1  0.875001  0.625000  0.250001  1
  N  N11  1  0.125001  0.375000  0.750001  1
  Cl  Cl12  1  0.313197  0.795660  0.380088  1
  Cl  Cl13  1  0.566893  0.186804  0.982464  1
  Cl  Cl14  1  0.704341  0.584428  0.517538  1
  Cl  Cl15  1  0.084429  0.066892  0.880088  1
  Cl  Cl16  1  0.686803  0.204340  0.619913  1
  Cl  Cl17  1  0.915572  0.933109  0.119912  1
  Cl  Cl18  1  0.295659  0.415572  0.482462  1
  Cl  Cl19  1  0.433109  0.813197  0.017538  1
