# generated using pymatgen
data_Dy2Ho3CoBi2
_symmetry_space_group_name_H-M   'P 1'
_cell_length_a   7.97700800
_cell_length_b   8.87996700
_cell_length_c   12.36983500
_cell_angle_alpha   90.00000000
_cell_angle_beta   90.00000000
_cell_angle_gamma   90.00000000
_symmetry_Int_Tables_number   1
_chemical_formula_structural   Dy2Ho3CoBi2
_chemical_formula_sum   'Dy8 Ho12 Co4 Bi8'
_cell_volume   876.22428580
_cell_formula_units_Z   4
loop_
 _symmetry_equiv_pos_site_id
 _symmetry_equiv_pos_as_xyz
  1  'x, y, z'
loop_
 _atom_site_type_symbol
 _atom_site_label
 _atom_site_symmetry_multiplicity
 _atom_site_fract_x
 _atom_site_fract_y
 _atom_site_fract_z
 _atom_site_occupancy
  Dy  Dy0  1  0.345556  0.750000  0.699983  1
  Dy  Dy1  1  0.654444  0.250000  0.300017  1
  Dy  Dy2  1  0.845556  0.250000  0.800017  1
  Dy  Dy3  1  0.154444  0.750000  0.199983  1
  Dy  Dy4  1  0.885177  0.750000  0.810674  1
  Dy  Dy5  1  0.114823  0.250000  0.189326  1
  Dy  Dy6  1  0.385177  0.250000  0.689326  1
  Dy  Dy7  1  0.614823  0.750000  0.310674  1
  Ho  Ho8  1  0.675874  0.538395  0.562974  1
  Ho  Ho9  1  0.324126  0.461605  0.437026  1
  Ho  Ho10  1  0.175874  0.461605  0.937026  1
  Ho  Ho11  1  0.324126  0.038395  0.437026  1
  Ho  Ho12  1  0.824126  0.538395  0.062974  1
  Ho  Ho13  1  0.675874  0.961605  0.562974  1
  Ho  Ho14  1  0.824126  0.961605  0.062974  1
  Ho  Ho15  1  0.175874  0.038395  0.937026  1
  Ho  Ho16  1  0.052994  0.750000  0.498032  1
  Ho  Ho17  1  0.947006  0.250000  0.501968  1
  Ho  Ho18  1  0.552994  0.250000  0.001968  1
  Ho  Ho19  1  0.447006  0.750000  0.998032  1
  Co  Co20  1  0.067420  0.750000  0.991555  1
  Co  Co21  1  0.932580  0.250000  0.008445  1
  Co  Co22  1  0.567420  0.250000  0.508445  1
  Co  Co23  1  0.432580  0.750000  0.491555  1
  Bi  Bi24  1  0.571530  0.510148  0.826651  1
  Bi  Bi25  1  0.428470  0.489852  0.173349  1
  Bi  Bi26  1  0.071530  0.489852  0.673349  1
  Bi  Bi27  1  0.428470  0.010148  0.173349  1
  Bi  Bi28  1  0.928470  0.510148  0.326651  1
  Bi  Bi29  1  0.571530  0.989852  0.826651  1
  Bi  Bi30  1  0.928470  0.989852  0.326651  1
  Bi  Bi31  1  0.071530  0.010148  0.673349  1
