# generated using pymatgen
data_Ac2GeRhF14
_symmetry_space_group_name_H-M   'P 1'
_cell_length_a   5.70987700
_cell_length_b   9.24107630
_cell_length_c   12.28463000
_cell_angle_alpha   61.82323939
_cell_angle_beta   90.00000000
_cell_angle_gamma   90.00000000
_symmetry_Int_Tables_number   1
_chemical_formula_structural   Ac2GeRhF14
_chemical_formula_sum   'Ac4 Ge2 Rh2 F28'
_cell_volume   571.38819904
_cell_formula_units_Z   2
loop_
 _symmetry_equiv_pos_site_id
 _symmetry_equiv_pos_as_xyz
  1  'x, y, z'
loop_
 _atom_site_type_symbol
 _atom_site_label
 _atom_site_symmetry_multiplicity
 _atom_site_fract_x
 _atom_site_fract_y
 _atom_site_fract_z
 _atom_site_occupancy
  Ac  Ac0  1  0.762082  0.812144  0.264999  1
  Ac  Ac1  1  0.262082  0.187856  0.235001  1
  Ac  Ac2  1  0.237837  0.195618  0.735033  1
  Ac  Ac3  1  0.737837  0.804382  0.764967  1
  Ge  Ge4  1  0.244587  0.724342  0.543563  1
  Ge  Ge5  1  0.744587  0.275658  0.956437  1
  Rh  Rh6  1  0.754225  0.276197  0.454682  1
  Rh  Rh7  1  0.254225  0.723803  0.045318  1
  F  F8  1  0.972468  0.712556  0.468351  1
  F  F9  1  0.472468  0.287444  0.031649  1
  F  F10  1  0.052389  0.286583  0.529464  1
  F  F11  1  0.552389  0.713417  0.970536  1
  F  F12  1  0.083593  0.706606  0.915375  1
  F  F13  1  0.583593  0.293394  0.584625  1
  F  F14  1  0.919896  0.290986  0.074311  1
  F  F15  1  0.419896  0.709014  0.425689  1
  F  F16  1  0.737011  0.498291  0.865042  1
  F  F17  1  0.237011  0.501709  0.634958  1
  F  F18  1  0.259096  0.489401  0.138918  1
  F  F19  1  0.759096  0.510599  0.361082  1
  F  F20  1  0.736020  0.052438  0.044561  1
  F  F21  1  0.236020  0.947562  0.455439  1
  F  F22  1  0.259978  0.960005  0.956661  1
  F  F23  1  0.759978  0.039995  0.543339  1
  F  F24  1  0.072702  0.736738  0.664131  1
  F  F25  1  0.572702  0.263262  0.835869  1
  F  F26  1  0.923635  0.267766  0.321358  1
  F  F27  1  0.423635  0.732234  0.178642  1
  F  F28  1  0.013318  0.271422  0.878094  1
  F  F29  1  0.513318  0.728578  0.621906  1
  F  F30  1  0.957773  0.727037  0.122487  1
  F  F31  1  0.457773  0.272963  0.377513  1
  F  F32  1  0.131441  0.954278  0.220299  1
  F  F33  1  0.631441  0.045722  0.279701  1
  F  F34  1  0.881950  0.040012  0.774334  1
  F  F35  1  0.381950  0.959988  0.725666  1
