# generated using pymatgen
data_Hf18Ta5W3S2
_symmetry_space_group_name_H-M   'P 1'
_cell_length_a   8.75437697
_cell_length_b   8.79198804
_cell_length_c   8.67482600
_cell_angle_alpha   90.00000000
_cell_angle_beta   90.00000000
_cell_angle_gamma   120.14221884
_symmetry_Int_Tables_number   1
_chemical_formula_structural   Hf18Ta5W3S2
_chemical_formula_sum   'Hf18 Ta5 W3 S2'
_cell_volume   577.40370602
_cell_formula_units_Z   1
loop_
 _symmetry_equiv_pos_site_id
 _symmetry_equiv_pos_as_xyz
  1  'x, y, z'
loop_
 _atom_site_type_symbol
 _atom_site_label
 _atom_site_symmetry_multiplicity
 _atom_site_fract_x
 _atom_site_fract_y
 _atom_site_fract_z
 _atom_site_occupancy
  Hf  Hf0  1  0.198069  0.802160  0.448484  1
  Hf  Hf1  1  0.198069  0.395910  0.448484  1
  Hf  Hf2  1  0.605827  0.802914  0.450419  1
  Hf  Hf3  1  0.801995  0.196986  0.553666  1
  Hf  Hf4  1  0.801995  0.605008  0.553666  1
  Hf  Hf5  1  0.396067  0.198033  0.552716  1
  Hf  Hf6  1  0.801995  0.196986  0.946334  1
  Hf  Hf7  1  0.801995  0.605008  0.946334  1
  Hf  Hf8  1  0.396067  0.198033  0.947284  1
  Hf  Hf9  1  0.198069  0.802160  0.051516  1
  Hf  Hf10  1  0.198069  0.395910  0.051516  1
  Hf  Hf11  1  0.605827  0.802914  0.049581  1
  Hf  Hf12  1  0.544111  0.455525  0.250000  1
  Hf  Hf13  1  0.544111  0.088588  0.250000  1
  Hf  Hf14  1  0.910066  0.455033  0.250000  1
  Hf  Hf15  1  0.456512  0.546320  0.750000  1
  Hf  Hf16  1  0.456512  0.910191  0.750000  1
  Hf  Hf17  1  0.089340  0.544670  0.750000  1
  Ta  Ta18  1  0.887529  0.111394  0.250000  1
  Ta  Ta19  1  0.887529  0.776135  0.250000  1
  Ta  Ta20  1  0.223002  0.111501  0.250000  1
  Ta  Ta21  1  0.109990  0.886979  0.750000  1
  Ta  Ta22  1  0.109990  0.223011  0.750000  1
  W  W23  1  0.776781  0.888391  0.750000  1
  W  W24  1  0.998635  0.999317  0.501040  1
  W  W25  1  0.998635  0.999317  0.998960  1
  S  S26  1  0.335016  0.667509  0.250000  1
  S  S27  1  0.668197  0.334098  0.750000  1
