# generated using pymatgen
data_Er15Tm5GaBi11
_symmetry_space_group_name_H-M   'P 1'
_cell_length_a   8.14758085
_cell_length_b   9.41476703
_cell_length_c   11.92478801
_cell_angle_alpha   89.99666509
_cell_angle_beta   89.67187891
_cell_angle_gamma   89.99116921
_symmetry_Int_Tables_number   1
_chemical_formula_structural   Er15Tm5GaBi11
_chemical_formula_sum   'Er15 Tm5 Ga1 Bi11'
_cell_volume   914.70656537
_cell_formula_units_Z   1
loop_
 _symmetry_equiv_pos_site_id
 _symmetry_equiv_pos_as_xyz
  1  'x, y, z'
loop_
 _atom_site_type_symbol
 _atom_site_label
 _atom_site_symmetry_multiplicity
 _atom_site_fract_x
 _atom_site_fract_y
 _atom_site_fract_z
 _atom_site_occupancy
  Er  Er0  1  0.037708  0.250048  0.510098  1
  Er  Er1  1  0.978367  0.749966  0.489800  1
  Er  Er2  1  0.475121  0.749932  0.011019  1
  Er  Er3  1  0.525775  0.250055  0.988788  1
  Er  Er4  1  0.356336  0.250055  0.293892  1
  Er  Er5  1  0.646717  0.749906  0.716407  1
  Er  Er6  1  0.147731  0.749905  0.782786  1
  Er  Er7  1  0.853766  0.250008  0.216077  1
  Er  Er8  1  0.192376  0.250066  0.777262  1
  Er  Er9  1  0.810719  0.749964  0.218126  1
  Er  Er10  1  0.312936  0.749960  0.281116  1
  Er  Er11  1  0.674346  0.249977  0.710620  1
  Er  Er12  1  0.193480  0.065491  0.060420  1
  Er  Er13  1  0.806717  0.935031  0.940681  1
  Er  Er14  1  0.308890  0.949570  0.559177  1
  Tm  Tm15  1  0.806614  0.565087  0.940631  1
  Tm  Tm16  1  0.684362  0.072274  0.444936  1
  Tm  Tm17  1  0.193637  0.434380  0.060506  1
  Tm  Tm18  1  0.684383  0.427761  0.444932  1
  Tm  Tm19  1  0.308883  0.550493  0.559200  1
  Ga  Ga20  1  0.408655  0.250241  0.539795  1
  Bi  Bi21  1  0.593432  0.749898  0.457392  1
  Bi  Bi22  1  0.093665  0.749614  0.042616  1
  Bi  Bi23  1  0.907963  0.250402  0.954878  1
  Bi  Bi24  1  0.064060  0.002862  0.324670  1
  Bi  Bi25  1  0.934501  0.997566  0.674917  1
  Bi  Bi26  1  0.434925  0.996210  0.825291  1
  Bi  Bi27  1  0.934604  0.502384  0.674935  1
  Bi  Bi28  1  0.565217  0.004383  0.174583  1
  Bi  Bi29  1  0.064016  0.497129  0.324619  1
  Bi  Bi30  1  0.565121  0.495603  0.174544  1
  Bi  Bi31  1  0.434979  0.503779  0.825283  1
