# generated using pymatgen
data_CaHo2(B3Ir4)2
_symmetry_space_group_name_H-M   'P 1'
_cell_length_a   9.96238091
_cell_length_b   9.12361859
_cell_length_c   5.59785159
_cell_angle_alpha   81.36993556
_cell_angle_beta   64.88235726
_cell_angle_gamma   33.74770456
_symmetry_Int_Tables_number   1
_chemical_formula_structural   CaHo2(B3Ir4)2
_chemical_formula_sum   'Ca1 Ho2 B6 Ir8'
_cell_volume   234.18674945
_cell_formula_units_Z   1
loop_
 _symmetry_equiv_pos_site_id
 _symmetry_equiv_pos_as_xyz
  1  'x, y, z'
loop_
 _atom_site_type_symbol
 _atom_site_label
 _atom_site_symmetry_multiplicity
 _atom_site_fract_x
 _atom_site_fract_y
 _atom_site_fract_z
 _atom_site_occupancy
  Ca  Ca0  1  0.680764  0.680764  0.319236  1
  Ho  Ho1  1  0.321228  0.321228  0.678772  1
  Ho  Ho2  1  0.502786  0.502786  0.497214  1
  B  B3  1  0.671410  0.980238  0.019762  1
  B  B4  1  0.980238  0.671410  0.328590  1
  B  B5  1  0.326722  0.019309  0.980691  1
  B  B6  1  0.019309  0.326722  0.673278  1
  B  B7  1  0.168539  0.831350  0.168650  1
  B  B8  1  0.831350  0.168539  0.831461  1
  Ir  Ir9  1  0.585655  0.585655  0.914345  1
  Ir  Ir10  1  0.912812  0.912812  0.087188  1
  Ir  Ir11  1  0.414497  0.414497  0.085503  1
  Ir  Ir12  1  0.085655  0.085655  0.414345  1
  Ir  Ir13  1  0.914497  0.914497  0.585503  1
  Ir  Ir14  1  0.249725  0.249725  0.250275  1
  Ir  Ir15  1  0.085086  0.085086  0.914914  1
  Ir  Ir16  1  0.749725  0.749725  0.750275  1
