# generated using pymatgen
data_Na3O4
_symmetry_space_group_name_H-M   'P 1'
_cell_length_a   3.43277796
_cell_length_b   7.30665193
_cell_length_c   5.50338616
_cell_angle_alpha   90.23556314
_cell_angle_beta   71.98745420
_cell_angle_gamma   134.78678867
_symmetry_Int_Tables_number   1
_chemical_formula_structural   Na3O4
_chemical_formula_sum   'Na3 O4'
_cell_volume   88.37307885
_cell_formula_units_Z   1
loop_
 _symmetry_equiv_pos_site_id
 _symmetry_equiv_pos_as_xyz
  1  'x, y, z'
loop_
 _atom_site_type_symbol
 _atom_site_label
 _atom_site_symmetry_multiplicity
 _atom_site_fract_x
 _atom_site_fract_y
 _atom_site_fract_z
 _atom_site_occupancy
  Na  Na0  1  0.934195  0.927918  0.196774  1
  Na  Na1  1  0.737583  0.244258  0.519292  1
  Na  Na2  1  0.123527  0.609532  0.876848  1
  O  O3  1  0.024399  0.761410  0.529975  1
  O  O4  1  0.835458  0.088797  0.860318  1
  O  O5  1  0.841134  0.589418  0.360662  1
  O  O6  1  0.024030  0.262890  0.027440  1
