# generated using pymatgen
data_Y9ErRuRh3
_symmetry_space_group_name_H-M   'P 1'
_cell_length_a   6.44747155
_cell_length_b   7.23903214
_cell_length_c   8.60353050
_cell_angle_alpha   96.69836038
_cell_angle_beta   111.68909963
_cell_angle_gamma   90.03261432
_symmetry_Int_Tables_number   1
_chemical_formula_structural   Y9ErRuRh3
_chemical_formula_sum   'Y9 Er1 Ru1 Rh3'
_cell_volume   370.16521156
_cell_formula_units_Z   1
loop_
 _symmetry_equiv_pos_site_id
 _symmetry_equiv_pos_as_xyz
  1  'x, y, z'
loop_
 _atom_site_type_symbol
 _atom_site_label
 _atom_site_symmetry_multiplicity
 _atom_site_fract_x
 _atom_site_fract_y
 _atom_site_fract_z
 _atom_site_occupancy
  Y  Y0  1  0.792960  0.582086  0.812019  1
  Y  Y1  1  0.978773  0.917337  0.187675  1
  Y  Y2  1  0.207261  0.416397  0.183917  1
  Y  Y3  1  0.021272  0.085270  0.811586  1
  Y  Y4  1  0.210805  0.684175  0.564137  1
  Y  Y5  1  0.647528  0.814769  0.437139  1
  Y  Y6  1  0.792845  0.314216  0.439140  1
  Y  Y7  1  0.350386  0.187365  0.564663  1
  Y  Y8  1  0.423330  0.748101  0.998747  1
  Er  Er9  1  0.573177  0.250189  0.999680  1
  Ru  Ru10  1  0.180173  0.425357  0.782302  1
  Rh  Rh11  1  0.601112  0.927952  0.780869  1
  Rh  Rh12  1  0.817831  0.572912  0.217890  1
  Rh  Rh13  1  0.402546  0.073874  0.220235  1
