# generated using pymatgen
data_Er6Zn21PPt2
_symmetry_space_group_name_H-M   'P 1'
_cell_length_a   8.99235968
_cell_length_b   9.02968318
_cell_length_c   9.02943100
_cell_angle_alpha   59.81051829
_cell_angle_beta   60.14032115
_cell_angle_gamma   60.14071152
_symmetry_Int_Tables_number   1
_chemical_formula_structural   Er6Zn21PPt2
_chemical_formula_sum   'Er6 Zn21 P1 Pt2'
_cell_volume   518.77891743
_cell_formula_units_Z   1
loop_
 _symmetry_equiv_pos_site_id
 _symmetry_equiv_pos_as_xyz
  1  'x, y, z'
loop_
 _atom_site_type_symbol
 _atom_site_label
 _atom_site_symmetry_multiplicity
 _atom_site_fract_x
 _atom_site_fract_y
 _atom_site_fract_z
 _atom_site_occupancy
  Er  Er0  1  0.712434  0.287566  0.287562  1
  Er  Er1  1  0.710584  0.285801  0.714193  1
  Er  Er2  1  0.710577  0.714199  0.285799  1
  Er  Er3  1  0.287566  0.712434  0.712438  1
  Er  Er4  1  0.289416  0.714199  0.285807  1
  Er  Er5  1  0.289423  0.285801  0.714201  1
  Zn  Zn6  1  0.631622  0.121750  0.121752  1
  Zn  Zn7  1  0.122795  0.632959  0.121449  1
  Zn  Zn8  1  0.122799  0.121448  0.632958  1
  Zn  Zn9  1  0.124875  0.121750  0.121753  1
  Zn  Zn10  1  0.368378  0.878250  0.878248  1
  Zn  Zn11  1  0.877205  0.367041  0.878551  1
  Zn  Zn12  1  0.877201  0.878552  0.367042  1
  Zn  Zn13  1  0.875125  0.878250  0.878247  1
  Zn  Zn14  1  0.500000  0.000000  0.500000  1
  Zn  Zn15  1  0.500000  0.500000  0.000000  1
  Zn  Zn16  1  0.000000  0.500000  0.500000  1
  Zn  Zn17  1  0.000000  0.500000  0.000000  1
  Zn  Zn18  1  0.000000  0.000000  0.500000  1
  Zn  Zn19  1  0.007957  0.331141  0.331139  1
  Zn  Zn20  1  0.329239  0.009205  0.332309  1
  Zn  Zn21  1  0.329245  0.332307  0.009202  1
  Zn  Zn22  1  0.329762  0.331144  0.331144  1
  Zn  Zn23  1  0.992043  0.668859  0.668861  1
  Zn  Zn24  1  0.670761  0.990795  0.667691  1
  Zn  Zn25  1  0.670755  0.667693  0.990798  1
  Zn  Zn26  1  0.670238  0.668856  0.668856  1
  P  P27  1  0.500000  0.500000  0.500000  1
  Pt  Pt28  1  0.500000  0.000000  0.000000  1
  Pt  Pt29  1  0.000000  0.000000  0.000000  1
