# generated using pymatgen
data_Dy3MgZn(CdGa)2
_symmetry_space_group_name_H-M   'P 1'
_cell_length_a   7.34088010
_cell_length_b   7.34087996
_cell_length_c   4.30596500
_cell_angle_alpha   90.00000000
_cell_angle_beta   90.00000000
_cell_angle_gamma   119.98122020
_symmetry_Int_Tables_number   1
_chemical_formula_structural   Dy3MgZn(CdGa)2
_chemical_formula_sum   'Dy3 Mg1 Zn1 Cd2 Ga2'
_cell_volume   200.99235266
_cell_formula_units_Z   1
loop_
 _symmetry_equiv_pos_site_id
 _symmetry_equiv_pos_as_xyz
  1  'x, y, z'
loop_
 _atom_site_type_symbol
 _atom_site_label
 _atom_site_symmetry_multiplicity
 _atom_site_fract_x
 _atom_site_fract_y
 _atom_site_fract_z
 _atom_site_occupancy
  Dy  Dy0  1  0.420367  0.420367  0.500000  1
  Dy  Dy1  1  0.577294  0.999806  0.500000  1
  Dy  Dy2  1  0.999806  0.577294  0.500000  1
  Mg  Mg3  1  0.757100  0.757100  0.000000  1
  Zn  Zn4  1  0.998009  0.998009  0.500000  1
  Cd  Cd5  1  0.246628  0.999177  0.000000  1
  Cd  Cd6  1  0.999177  0.246628  0.000000  1
  Ga  Ga7  1  0.666008  0.335613  0.000000  1
  Ga  Ga8  1  0.335613  0.666008  0.000000  1
