# generated using pymatgen
data_Sr2TcH7
_symmetry_space_group_name_H-M   'P 1'
_cell_length_a   5.48039623
_cell_length_b   5.66855935
_cell_length_c   7.81387523
_cell_angle_alpha   46.31195182
_cell_angle_beta   44.75722198
_cell_angle_gamma   60.85969018
_symmetry_Int_Tables_number   1
_chemical_formula_structural   Sr2TcH7
_chemical_formula_sum   'Sr2 Tc1 H7'
_cell_volume   123.58982789
_cell_formula_units_Z   1
loop_
 _symmetry_equiv_pos_site_id
 _symmetry_equiv_pos_as_xyz
  1  'x, y, z'
loop_
 _atom_site_type_symbol
 _atom_site_label
 _atom_site_symmetry_multiplicity
 _atom_site_fract_x
 _atom_site_fract_y
 _atom_site_fract_z
 _atom_site_occupancy
  Sr  Sr0  1  0.898461  0.052257  0.622643  1
  Sr  Sr1  1  0.898328  0.044813  0.126591  1
  Tc  Tc2  1  0.404126  0.551720  0.870754  1
  H  H3  1  0.327402  0.553201  0.686171  1
  H  H4  1  0.390716  0.113918  0.096911  1
  H  H5  1  0.794237  0.544924  0.581884  1
  H  H6  1  0.756757  0.546970  0.820893  1
  H  H7  1  0.292135  0.553667  0.141222  1
  H  H8  1  0.943371  0.561665  0.088509  1
  H  H9  1  0.416156  0.989183  0.645091  1
