# generated using pymatgen
data_ThGaPRu2
_symmetry_space_group_name_H-M   'P 1'
_cell_length_a   5.76974173
_cell_length_b   5.76974233
_cell_length_c   5.76974173
_cell_angle_alpha   136.96296475
_cell_angle_beta   136.96297431
_cell_angle_gamma   62.49502651
_symmetry_Int_Tables_number   1
_chemical_formula_structural   ThGaPRu2
_chemical_formula_sum   'Th1 Ga1 P1 Ru2'
_cell_volume   88.37410568
_cell_formula_units_Z   1
loop_
 _symmetry_equiv_pos_site_id
 _symmetry_equiv_pos_as_xyz
  1  'x, y, z'
loop_
 _atom_site_type_symbol
 _atom_site_label
 _atom_site_symmetry_multiplicity
 _atom_site_fract_x
 _atom_site_fract_y
 _atom_site_fract_z
 _atom_site_occupancy
  Th  Th0  1  0.996816  0.996816  0.000000  1
  Ga  Ga1  1  0.622400  0.622400  0.000000  1
  P  P2  1  0.361812  0.361812  0.000000  1
  Ru  Ru3  1  0.759487  0.259486  0.500001  1
  Ru  Ru4  1  0.259486  0.759487  0.500001  1
