# generated using pymatgen
data_ErTm11(TcRh)2
_symmetry_space_group_name_H-M   'P 1'
_cell_length_a   6.24342122
_cell_length_b   7.26061304
_cell_length_c   9.05636930
_cell_angle_alpha   90.00652490
_cell_angle_beta   90.02882641
_cell_angle_gamma   89.98990140
_symmetry_Int_Tables_number   1
_chemical_formula_structural   ErTm11(TcRh)2
_chemical_formula_sum   'Er1 Tm11 Tc2 Rh2'
_cell_volume   410.53480933
_cell_formula_units_Z   1
loop_
 _symmetry_equiv_pos_site_id
 _symmetry_equiv_pos_as_xyz
  1  'x, y, z'
loop_
 _atom_site_type_symbol
 _atom_site_label
 _atom_site_symmetry_multiplicity
 _atom_site_fract_x
 _atom_site_fract_y
 _atom_site_fract_z
 _atom_site_occupancy
  Er  Er0  1  0.670887  0.176307  0.435718  1
  Tm  Tm1  1  0.670905  0.176154  0.064302  1
  Tm  Tm2  1  0.170864  0.323865  0.935559  1
  Tm  Tm3  1  0.832429  0.678527  0.438826  1
  Tm  Tm4  1  0.332210  0.821320  0.561216  1
  Tm  Tm5  1  0.332333  0.821405  0.938819  1
  Tm  Tm6  1  0.832357  0.678544  0.061159  1
  Tm  Tm7  1  0.170813  0.323908  0.564535  1
  Tm  Tm8  1  0.866427  0.959978  0.750105  1
  Tm  Tm9  1  0.366280  0.539964  0.249926  1
  Tm  Tm10  1  0.631017  0.460752  0.750068  1
  Tm  Tm11  1  0.131091  0.039214  0.249895  1
  Tc  Tc12  1  0.039279  0.612875  0.749964  1
  Tc  Tc13  1  0.539270  0.887042  0.249918  1
  Rh  Rh14  1  0.456790  0.116047  0.750119  1
  Rh  Rh15  1  0.957047  0.384097  0.249872  1
