# generated using pymatgen
data_K2PrPWO8
_symmetry_space_group_name_H-M   'P 1'
_cell_length_a   7.21857768
_cell_length_b   12.44554538
_cell_length_c   12.44554400
_cell_angle_alpha   60.96466519
_cell_angle_beta   73.14165788
_cell_angle_gamma   73.14165523
_symmetry_Int_Tables_number   1
_chemical_formula_structural   K2PrPWO8
_chemical_formula_sum   'K8 Pr4 P4 W4 O32'
_cell_volume   920.55999921
_cell_formula_units_Z   4
loop_
 _symmetry_equiv_pos_site_id
 _symmetry_equiv_pos_as_xyz
  1  'x, y, z'
loop_
 _atom_site_type_symbol
 _atom_site_label
 _atom_site_symmetry_multiplicity
 _atom_site_fract_x
 _atom_site_fract_y
 _atom_site_fract_z
 _atom_site_occupancy
  K  K0  1  0.372410  0.080794  0.230850  1
  K  K1  1  0.315946  0.730850  0.580794  1
  K  K2  1  0.184054  0.419206  0.269150  1
  K  K3  1  0.815946  0.580794  0.730850  1
  K  K4  1  0.627590  0.919206  0.769150  1
  K  K5  1  0.872410  0.230850  0.080794  1
  K  K6  1  0.127590  0.769150  0.919206  1
  K  K7  1  0.684054  0.269150  0.419206  1
  Pr  Pr8  1  0.750000  0.673613  0.326387  1
  Pr  Pr9  1  0.250000  0.326387  0.673613  1
  Pr  Pr10  1  0.250000  0.826387  0.173613  1
  Pr  Pr11  1  0.750000  0.173613  0.826387  1
  P  P12  1  0.750000  0.928106  0.071894  1
  P  P13  1  0.250000  0.571894  0.428106  1
  P  P14  1  0.250000  0.071894  0.928106  1
  P  P15  1  0.750000  0.428106  0.571894  1
  W  W16  1  0.331958  0.418042  0.918042  1
  W  W17  1  0.668042  0.581958  0.081958  1
  W  W18  1  0.831958  0.918042  0.418042  1
  W  W19  1  0.168042  0.081958  0.581958  1
  O  O20  1  0.791485  0.939483  0.937927  1
  O  O21  1  0.208515  0.060517  0.062073  1
  O  O22  1  0.573305  0.859513  0.157762  1
  O  O23  1  0.771962  0.645864  0.917378  1
  O  O24  1  0.412975  0.662905  0.102532  1
  O  O25  1  0.409419  0.657762  0.359513  1
  O  O26  1  0.164795  0.145864  0.417378  1
  O  O27  1  0.168895  0.560517  0.562073  1
  O  O28  1  0.668895  0.562073  0.560517  1
  O  O29  1  0.073305  0.157762  0.859513  1
  O  O30  1  0.271962  0.917378  0.645864  1
  O  O31  1  0.228038  0.354136  0.082622  1
  O  O32  1  0.926695  0.842238  0.140487  1
  O  O33  1  0.835205  0.854136  0.582622  1
  O  O34  1  0.331105  0.437927  0.439483  1
  O  O35  1  0.708515  0.062073  0.060517  1
  O  O36  1  0.587025  0.337095  0.897468  1
  O  O37  1  0.590581  0.342238  0.640487  1
  O  O38  1  0.426695  0.140487  0.842238  1
  O  O39  1  0.178409  0.397468  0.837095  1
  O  O40  1  0.087025  0.897468  0.337095  1
  O  O41  1  0.678409  0.837095  0.397468  1
  O  O42  1  0.321591  0.162905  0.602532  1
  O  O43  1  0.821591  0.602532  0.162905  1
  O  O44  1  0.912975  0.102532  0.662905  1
  O  O45  1  0.831105  0.439483  0.437927  1
  O  O46  1  0.728038  0.082622  0.354136  1
  O  O47  1  0.664795  0.417378  0.145864  1
  O  O48  1  0.090581  0.640487  0.342238  1
  O  O49  1  0.909419  0.359513  0.657762  1
  O  O50  1  0.291485  0.937927  0.939483  1
  O  O51  1  0.335205  0.582622  0.854136  1
