# generated using pymatgen
data_Y3Er2In2Bi
_symmetry_space_group_name_H-M   'P 1'
_cell_length_a   9.04298576
_cell_length_b   9.03988791
_cell_length_c   6.59265200
_cell_angle_alpha   90.00000000
_cell_angle_beta   90.00000000
_cell_angle_gamma   119.98866697
_symmetry_Int_Tables_number   1
_chemical_formula_structural   Y3Er2In2Bi
_chemical_formula_sum   'Y6 Er4 In4 Bi2'
_cell_volume   466.78324676
_cell_formula_units_Z   2
loop_
 _symmetry_equiv_pos_site_id
 _symmetry_equiv_pos_as_xyz
  1  'x, y, z'
loop_
 _atom_site_type_symbol
 _atom_site_label
 _atom_site_symmetry_multiplicity
 _atom_site_fract_x
 _atom_site_fract_y
 _atom_site_fract_z
 _atom_site_occupancy
  Y  Y0  1  0.769116  0.760574  0.750000  1
  Y  Y1  1  0.230884  0.991458  0.750000  1
  Y  Y2  1  0.000000  0.241926  0.750000  1
  Y  Y3  1  0.237505  0.237974  0.250000  1
  Y  Y4  1  0.762495  0.000469  0.250000  1
  Y  Y5  1  0.000000  0.761079  0.250000  1
  Er  Er6  1  0.670784  0.338079  0.006660  1
  Er  Er7  1  0.329216  0.667296  0.006660  1
  Er  Er8  1  0.329216  0.667296  0.493340  1
  Er  Er9  1  0.670784  0.338079  0.493340  1
  In  In10  1  0.000000  0.596740  0.750000  1
  In  In11  1  0.603713  0.605781  0.250000  1
  In  In12  1  0.396287  0.002068  0.250000  1
  In  In13  1  0.000000  0.397200  0.250000  1
  Bi  Bi14  1  0.395556  0.394769  0.750000  1
  Bi  Bi15  1  0.604444  0.999212  0.750000  1
