# generated using pymatgen
data_Ho8Cu3Si12Ag
_symmetry_space_group_name_H-M   'P 1'
_cell_length_a   8.04121951
_cell_length_b   8.04265734
_cell_length_c   8.04922618
_cell_angle_alpha   90.01021871
_cell_angle_beta   89.97526581
_cell_angle_gamma   119.96202718
_symmetry_Int_Tables_number   1
_chemical_formula_structural   Ho8Cu3Si12Ag
_chemical_formula_sum   'Ho8 Cu3 Si12 Ag1'
_cell_volume   450.99555011
_cell_formula_units_Z   1
loop_
 _symmetry_equiv_pos_site_id
 _symmetry_equiv_pos_as_xyz
  1  'x, y, z'
loop_
 _atom_site_type_symbol
 _atom_site_label
 _atom_site_symmetry_multiplicity
 _atom_site_fract_x
 _atom_site_fract_y
 _atom_site_fract_z
 _atom_site_occupancy
  Ho  Ho0  1  0.999969  0.999963  0.252317  1
  Ho  Ho1  1  0.999972  0.999967  0.747615  1
  Ho  Ho2  1  0.502155  0.497776  0.252548  1
  Ho  Ho3  1  0.502187  0.004351  0.252568  1
  Ho  Ho4  1  0.995661  0.497786  0.252588  1
  Ho  Ho5  1  0.502007  0.497922  0.747400  1
  Ho  Ho6  1  0.502053  0.004078  0.747428  1
  Ho  Ho7  1  0.995931  0.497923  0.747410  1
  Cu  Cu8  1  0.333391  0.666509  0.499788  1
  Cu  Cu9  1  0.666577  0.333184  0.500356  1
  Cu  Cu10  1  0.666431  0.333523  0.999811  1
  Si  Si11  1  0.169749  0.830210  0.499975  1
  Si  Si12  1  0.169676  0.339451  0.499898  1
  Si  Si13  1  0.660572  0.830318  0.499895  1
  Si  Si14  1  0.831073  0.168777  0.500080  1
  Si  Si15  1  0.831203  0.662395  0.500056  1
  Si  Si16  1  0.337505  0.168671  0.500054  1
  Si  Si17  1  0.829634  0.170328  0.000045  1
  Si  Si18  1  0.829751  0.659442  0.000009  1
  Si  Si19  1  0.340867  0.170387  0.000011  1
  Si  Si20  1  0.162500  0.837915  0.999904  1
  Si  Si21  1  0.162321  0.324534  0.999813  1
  Si  Si22  1  0.675480  0.837896  0.999808  1
  Ag  Ag23  1  0.333335  0.666691  0.000622  1
