# generated using pymatgen
data_Y3CdSn3Ru2
_symmetry_space_group_name_H-M   'P 1'
_cell_length_a   7.73507300
_cell_length_b   7.73507263
_cell_length_c   3.92272800
_cell_angle_alpha   90.00000000
_cell_angle_beta   90.00000000
_cell_angle_gamma   120.00000587
_symmetry_Int_Tables_number   1
_chemical_formula_structural   Y3CdSn3Ru2
_chemical_formula_sum   'Y3 Cd1 Sn3 Ru2'
_cell_volume   203.25798412
_cell_formula_units_Z   1
loop_
 _symmetry_equiv_pos_site_id
 _symmetry_equiv_pos_as_xyz
  1  'x, y, z'
loop_
 _atom_site_type_symbol
 _atom_site_label
 _atom_site_symmetry_multiplicity
 _atom_site_fract_x
 _atom_site_fract_y
 _atom_site_fract_z
 _atom_site_occupancy
  Y  Y0  1  0.972155  0.387874  0.500000  1
  Y  Y1  1  0.612126  0.584281  0.500000  1
  Y  Y2  1  0.415719  0.027845  0.500000  1
  Cd  Cd3  1  0.333333  0.666667  0.000000  1
  Sn  Sn4  1  0.990359  0.740391  0.000000  1
  Sn  Sn5  1  0.259609  0.249967  0.000000  1
  Sn  Sn6  1  0.750033  0.009641  0.000000  1
  Ru  Ru7  1  0.666667  0.333333  0.000000  1
  Ru  Ru8  1  0.000000  0.000000  0.500000  1
