# generated using pymatgen
data_Sc5Re23Tc
_symmetry_space_group_name_H-M   'P 1'
_cell_length_a   8.45175028
_cell_length_b   8.45175112
_cell_length_c   8.45998916
_cell_angle_alpha   109.47487653
_cell_angle_beta   109.47488989
_cell_angle_gamma   109.51456073
_symmetry_Int_Tables_number   1
_chemical_formula_structural   Sc5Re23Tc
_chemical_formula_sum   'Sc5 Re23 Tc1'
_cell_volume   464.91051468
_cell_formula_units_Z   1
loop_
 _symmetry_equiv_pos_site_id
 _symmetry_equiv_pos_as_xyz
  1  'x, y, z'
loop_
 _atom_site_type_symbol
 _atom_site_label
 _atom_site_symmetry_multiplicity
 _atom_site_fract_x
 _atom_site_fract_y
 _atom_site_fract_z
 _atom_site_occupancy
  Sc  Sc0  1  0.999519  0.999519  0.999215  1
  Sc  Sc1  1  0.001612  0.001612  0.634500  1
  Sc  Sc2  1  0.633568  0.999619  0.999272  1
  Sc  Sc3  1  0.999619  0.633568  0.999272  1
  Sc  Sc4  1  0.365921  0.365921  0.366257  1
  Re  Re5  1  0.398161  0.677648  0.000379  1
  Re  Re6  1  0.677648  0.398161  0.000379  1
  Re  Re7  1  0.601904  0.279017  0.602492  1
  Re  Re8  1  0.398206  0.000964  0.677366  1
  Re  Re9  1  0.000964  0.398206  0.677366  1
  Re  Re10  1  0.279017  0.601904  0.602492  1
  Re  Re11  1  0.721673  0.323129  0.323370  1
  Re  Re12  1  0.323129  0.721673  0.323370  1
  Re  Re13  1  0.677342  0.999907  0.398082  1
  Re  Re14  1  0.999907  0.677342  0.398082  1
  Re  Re15  1  0.602330  0.602330  0.279159  1
  Re  Re16  1  0.807610  0.807610  0.185024  1
  Re  Re17  1  0.378427  0.192280  0.001083  1
  Re  Re18  1  0.192280  0.378427  0.001083  1
  Re  Re19  1  0.621993  0.813563  0.622181  1
  Re  Re20  1  0.377848  0.000054  0.191844  1
  Re  Re21  1  0.000054  0.377848  0.191844  1
  Re  Re22  1  0.813563  0.621993  0.622181  1
  Re  Re23  1  0.185653  0.808311  0.807875  1
  Re  Re24  1  0.808311  0.185653  0.807875  1
  Re  Re25  1  0.191758  0.999632  0.377085  1
  Re  Re26  1  0.999632  0.191758  0.377085  1
  Re  Re27  1  0.620818  0.620818  0.813549  1
  Tc  Tc28  1  0.321531  0.321531  0.720244  1
