# generated using pymatgen
data_Y4Sc3InPt4
_symmetry_space_group_name_H-M   'P 1'
_cell_length_a   4.53441200
_cell_length_b   7.13264191
_cell_length_c   8.43194746
_cell_angle_alpha   93.70300327
_cell_angle_beta   90.00000000
_cell_angle_gamma   90.00000000
_symmetry_Int_Tables_number   1
_chemical_formula_structural   Y4Sc3InPt4
_chemical_formula_sum   'Y4 Sc3 In1 Pt4'
_cell_volume   272.13953448
_cell_formula_units_Z   1
loop_
 _symmetry_equiv_pos_site_id
 _symmetry_equiv_pos_as_xyz
  1  'x, y, z'
loop_
 _atom_site_type_symbol
 _atom_site_label
 _atom_site_symmetry_multiplicity
 _atom_site_fract_x
 _atom_site_fract_y
 _atom_site_fract_z
 _atom_site_occupancy
  Y  Y0  1  0.250000  0.978543  0.318081  1
  Y  Y1  1  0.250000  0.463874  0.168995  1
  Y  Y2  1  0.750000  0.033324  0.681784  1
  Y  Y3  1  0.750000  0.509483  0.837528  1
  Sc  Sc4  1  0.250000  0.371636  0.570628  1
  Sc  Sc5  1  0.250000  0.856688  0.934686  1
  Sc  Sc6  1  0.750000  0.639260  0.429629  1
  In  In7  1  0.750000  0.140656  0.069576  1
  Pt  Pt8  1  0.250000  0.237722  0.868701  1
  Pt  Pt9  1  0.250000  0.754593  0.600780  1
  Pt  Pt10  1  0.750000  0.752022  0.118151  1
  Pt  Pt11  1  0.750000  0.262199  0.401460  1
