# generated using pymatgen
data_Ac3LaGa4
_symmetry_space_group_name_H-M   'P 1'
_cell_length_a   7.63262324
_cell_length_b   7.63262363
_cell_length_c   7.16084400
_cell_angle_alpha   90.00000000
_cell_angle_beta   90.00000000
_cell_angle_gamma   144.12052174
_symmetry_Int_Tables_number   1
_chemical_formula_structural   Ac3LaGa4
_chemical_formula_sum   'Ac3 La1 Ga4'
_cell_volume   244.49523866
_cell_formula_units_Z   1
loop_
 _symmetry_equiv_pos_site_id
 _symmetry_equiv_pos_as_xyz
  1  'x, y, z'
loop_
 _atom_site_type_symbol
 _atom_site_label
 _atom_site_symmetry_multiplicity
 _atom_site_fract_x
 _atom_site_fract_y
 _atom_site_fract_z
 _atom_site_occupancy
  Ac  Ac0  1  0.277304  0.722696  0.250000  1
  Ac  Ac1  1  0.724075  0.275925  0.750000  1
  Ac  Ac2  1  0.552586  0.447414  0.250000  1
  La  La3  1  0.449751  0.550249  0.750000  1
  Ga  Ga4  1  0.088379  0.911621  0.933652  1
  Ga  Ga5  1  0.909763  0.090237  0.059133  1
  Ga  Ga6  1  0.909763  0.090237  0.440867  1
  Ga  Ga7  1  0.088379  0.911621  0.566348  1
