# generated using pymatgen
data_Nd6YRh3
_symmetry_space_group_name_H-M   'P 1'
_cell_length_a   6.35757700
_cell_length_b   10.12092703
_cell_length_c   10.12092702
_cell_angle_alpha   120.00068373
_cell_angle_beta   90.00000000
_cell_angle_gamma   90.00000000
_symmetry_Int_Tables_number   1
_chemical_formula_structural   Nd6YRh3
_chemical_formula_sum   'Nd12 Y2 Rh6'
_cell_volume   563.97500298
_cell_formula_units_Z   2
loop_
 _symmetry_equiv_pos_site_id
 _symmetry_equiv_pos_as_xyz
  1  'x, y, z'
loop_
 _atom_site_type_symbol
 _atom_site_label
 _atom_site_symmetry_multiplicity
 _atom_site_fract_x
 _atom_site_fract_y
 _atom_site_fract_z
 _atom_site_occupancy
  Nd  Nd0  1  0.252811  0.125608  0.874392  1
  Nd  Nd1  1  0.252854  0.748803  0.874415  1
  Nd  Nd2  1  0.252854  0.125585  0.251197  1
  Nd  Nd3  1  0.752811  0.874392  0.125608  1
  Nd  Nd4  1  0.752854  0.251197  0.125585  1
  Nd  Nd5  1  0.752854  0.874415  0.748803  1
  Nd  Nd6  1  0.442066  0.541444  0.458556  1
  Nd  Nd7  1  0.441990  0.917120  0.458570  1
  Nd  Nd8  1  0.441990  0.541430  0.082880  1
  Nd  Nd9  1  0.942066  0.458556  0.541444  1
  Nd  Nd10  1  0.941990  0.082880  0.541430  1
  Nd  Nd11  1  0.941990  0.458570  0.917120  1
  Y  Y12  1  0.464567  0.333329  0.666671  1
  Y  Y13  1  0.964567  0.666671  0.333329  1
  Rh  Rh14  1  0.181225  0.810159  0.189841  1
  Rh  Rh15  1  0.181321  0.379652  0.189847  1
  Rh  Rh16  1  0.181321  0.810153  0.620348  1
  Rh  Rh17  1  0.681225  0.189841  0.810159  1
  Rh  Rh18  1  0.681321  0.620348  0.810153  1
  Rh  Rh19  1  0.681321  0.189847  0.379652  1
