# generated using pymatgen
data_Ho4(Ga8Pd3)3
_symmetry_space_group_name_H-M   'P 1'
_cell_length_a   7.49624317
_cell_length_b   7.55940698
_cell_length_c   13.42509734
_cell_angle_alpha   84.92391164
_cell_angle_beta   79.87658298
_cell_angle_gamma   60.36193295
_symmetry_Int_Tables_number   1
_chemical_formula_structural   Ho4(Ga8Pd3)3
_chemical_formula_sum   'Ho4 Ga24 Pd9'
_cell_volume   650.93346200
_cell_formula_units_Z   1
loop_
 _symmetry_equiv_pos_site_id
 _symmetry_equiv_pos_as_xyz
  1  'x, y, z'
loop_
 _atom_site_type_symbol
 _atom_site_label
 _atom_site_symmetry_multiplicity
 _atom_site_fract_x
 _atom_site_fract_y
 _atom_site_fract_z
 _atom_site_occupancy
  Ho  Ho0  1  0.394236  0.168688  0.811387  1
  Ho  Ho1  1  0.605767  0.831314  0.188620  1
  Ho  Ho2  1  0.731739  0.496397  0.811387  1
  Ho  Ho3  1  0.268260  0.503618  0.188617  1
  Ga  Ga4  1  0.685936  0.833131  0.939250  1
  Ga  Ga5  1  0.314052  0.166885  0.060700  1
  Ga  Ga6  1  0.143067  0.835605  0.558273  1
  Ga  Ga7  1  0.856929  0.164392  0.441718  1
  Ga  Ga8  1  0.477142  0.167351  0.556160  1
  Ga  Ga9  1  0.522892  0.832648  0.443858  1
  Ga  Ga10  1  0.222269  0.165060  0.324167  1
  Ga  Ga11  1  0.777619  0.834922  0.675864  1
  Ga  Ga12  1  0.435449  0.504025  0.674502  1
  Ga  Ga13  1  0.564576  0.495910  0.325527  1
  Ga  Ga14  1  0.106243  0.162684  0.674151  1
  Ga  Ga15  1  0.893791  0.837340  0.325872  1
  Ga  Ga16  1  0.356320  0.498866  0.940398  1
  Ga  Ga17  1  0.643703  0.501124  0.059546  1
  Ga  Ga18  1  0.019747  0.168192  0.944537  1
  Ga  Ga19  1  0.980256  0.831825  0.055421  1
  Ga  Ga20  1  0.188399  0.500101  0.443210  1
  Ga  Ga21  1  0.811612  0.499907  0.556799  1
  Ga  Ga22  1  0.733071  0.164630  0.182060  1
  Ga  Ga23  1  0.266931  0.835359  0.817944  1
  Ga  Ga24  1  0.061083  0.629175  0.816865  1
  Ga  Ga25  1  0.938913  0.370815  0.183139  1
  Ga  Ga26  1  0.856749  0.039307  0.816771  1
  Ga  Ga27  1  0.143259  0.960670  0.183248  1
  Pd  Pd28  1  0.114804  0.497013  0.638890  1
  Pd  Pd29  1  0.885188  0.503018  0.361120  1
  Pd  Pd30  1  0.660132  0.169318  0.998523  1
  Pd  Pd31  1  0.339871  0.830704  0.001470  1
  Pd  Pd32  1  0.543788  0.166814  0.360410  1
  Pd  Pd33  1  0.456191  0.833190  0.639598  1
  Pd  Pd34  1  0.777211  0.172138  0.638604  1
  Pd  Pd35  1  0.222804  0.827860  0.361402  1
  Pd  Pd36  1  0.000001  0.500004  0.999994  1
