# generated using pymatgen
data_TmCr4(AuO4)3
_symmetry_space_group_name_H-M   'P 1'
_cell_length_a   6.58708527
_cell_length_b   6.58699333
_cell_length_c   6.58710500
_cell_angle_alpha   70.52602370
_cell_angle_beta   70.53185317
_cell_angle_gamma   109.47221696
_symmetry_Int_Tables_number   1
_chemical_formula_structural   TmCr4(AuO4)3
_chemical_formula_sum   'Tm1 Cr4 Au3 O12'
_cell_volume   220.01362120
_cell_formula_units_Z   1
loop_
 _symmetry_equiv_pos_site_id
 _symmetry_equiv_pos_as_xyz
  1  'x, y, z'
loop_
 _atom_site_type_symbol
 _atom_site_label
 _atom_site_symmetry_multiplicity
 _atom_site_fract_x
 _atom_site_fract_y
 _atom_site_fract_z
 _atom_site_occupancy
  Tm  Tm0  1  0.999952  0.999856  0.000097  1
  Cr  Cr1  1  0.000024  0.500037  0.000017  1
  Cr  Cr2  1  0.500099  0.500122  0.499916  1
  Cr  Cr3  1  0.499945  0.999971  0.000035  1
  Cr  Cr4  1  0.999981  0.999949  0.499955  1
  Au  Au5  1  0.499981  0.999992  0.499978  1
  Au  Au6  1  0.499970  0.499991  0.999990  1
  Au  Au7  1  0.000009  0.499989  0.500034  1
  O  O8  1  0.878854  0.708608  0.829723  1
  O  O9  1  0.461694  0.291444  0.829766  1
  O  O10  1  0.538325  0.708567  0.170261  1
  O  O11  1  0.121235  0.291479  0.170202  1
  O  O12  1  0.829894  0.121249  0.708571  1
  O  O13  1  0.829754  0.538472  0.291376  1
  O  O14  1  0.170096  0.461512  0.708690  1
  O  O15  1  0.170240  0.878907  0.291256  1
  O  O16  1  0.291494  0.170247  0.538286  1
  O  O17  1  0.708481  0.170209  0.121256  1
  O  O18  1  0.291459  0.829676  0.878807  1
  O  O19  1  0.708516  0.829721  0.461781  1
