# generated using pymatgen
data_Na2YbMg(CoH6)2
_symmetry_space_group_name_H-M   'P 1'
_cell_length_a   6.85629700
_cell_length_b   6.85629700
_cell_length_c   6.81660300
_cell_angle_alpha   90.00000000
_cell_angle_beta   90.00000000
_cell_angle_gamma   90.00000000
_symmetry_Int_Tables_number   1
_chemical_formula_structural   Na2YbMg(CoH6)2
_chemical_formula_sum   'Na4 Yb2 Mg2 Co4 H24'
_cell_volume   320.44038540
_cell_formula_units_Z   2
loop_
 _symmetry_equiv_pos_site_id
 _symmetry_equiv_pos_as_xyz
  1  'x, y, z'
loop_
 _atom_site_type_symbol
 _atom_site_label
 _atom_site_symmetry_multiplicity
 _atom_site_fract_x
 _atom_site_fract_y
 _atom_site_fract_z
 _atom_site_occupancy
  Na  Na0  1  0.000000  0.000000  0.500000  1
  Na  Na1  1  0.000000  0.500000  0.000000  1
  Na  Na2  1  0.500000  0.000000  0.000000  1
  Na  Na3  1  0.000000  0.000000  0.000000  1
  Yb  Yb4  1  0.000000  0.500000  0.500000  1
  Yb  Yb5  1  0.500000  0.000000  0.500000  1
  Mg  Mg6  1  0.500000  0.500000  0.500000  1
  Mg  Mg7  1  0.500000  0.500000  0.000000  1
  Co  Co8  1  0.271296  0.728704  0.740728  1
  Co  Co9  1  0.728704  0.271296  0.740728  1
  Co  Co10  1  0.728704  0.728704  0.259272  1
  Co  Co11  1  0.271296  0.271296  0.259272  1
  H  H12  1  0.734576  0.734576  0.485748  1
  H  H13  1  0.265424  0.265424  0.485748  1
  H  H14  1  0.047134  0.734923  0.747502  1
  H  H15  1  0.265077  0.952866  0.747502  1
  H  H16  1  0.734923  0.047134  0.747502  1
  H  H17  1  0.952866  0.265077  0.747502  1
  H  H18  1  0.736520  0.494480  0.743331  1
  H  H19  1  0.494480  0.736520  0.743331  1
  H  H20  1  0.505520  0.263480  0.743331  1
  H  H21  1  0.263480  0.505520  0.743331  1
  H  H22  1  0.270151  0.729849  0.964837  1
  H  H23  1  0.729849  0.270151  0.964837  1
  H  H24  1  0.729849  0.729849  0.035163  1
  H  H25  1  0.270151  0.270151  0.035163  1
  H  H26  1  0.263480  0.494480  0.256669  1
  H  H27  1  0.505520  0.736520  0.256669  1
  H  H28  1  0.494480  0.263480  0.256669  1
  H  H29  1  0.736520  0.505520  0.256669  1
  H  H30  1  0.952866  0.734923  0.252498  1
  H  H31  1  0.734923  0.952866  0.252498  1
  H  H32  1  0.265077  0.047134  0.252498  1
  H  H33  1  0.047134  0.265077  0.252498  1
  H  H34  1  0.265424  0.734576  0.514252  1
  H  H35  1  0.734576  0.265424  0.514252  1
