# generated using pymatgen
data_Ac8Si15Hg
_symmetry_space_group_name_H-M   'P 1'
_cell_length_a   8.47759300
_cell_length_b   8.47759334
_cell_length_c   9.23652500
_cell_angle_alpha   90.00000000
_cell_angle_beta   90.00000000
_cell_angle_gamma   120.00000259
_symmetry_Int_Tables_number   1
_chemical_formula_structural   Ac8Si15Hg
_chemical_formula_sum   'Ac8 Si15 Hg1'
_cell_volume   574.88949532
_cell_formula_units_Z   1
loop_
 _symmetry_equiv_pos_site_id
 _symmetry_equiv_pos_as_xyz
  1  'x, y, z'
loop_
 _atom_site_type_symbol
 _atom_site_label
 _atom_site_symmetry_multiplicity
 _atom_site_fract_x
 _atom_site_fract_y
 _atom_site_fract_z
 _atom_site_occupancy
  Ac  Ac0  1  0.496666  0.503334  0.743424  1
  Ac  Ac1  1  0.497146  0.502854  0.256296  1
  Ac  Ac2  1  0.006668  0.503334  0.743424  1
  Ac  Ac3  1  0.005708  0.502854  0.256296  1
  Ac  Ac4  1  0.496666  0.993332  0.743424  1
  Ac  Ac5  1  0.497146  0.994292  0.256296  1
  Ac  Ac6  1  0.000000  0.000000  0.746946  1
  Ac  Ac7  1  0.000000  0.000000  0.253704  1
  Si  Si8  1  0.841171  0.158829  0.001816  1
  Si  Si9  1  0.167092  0.832908  0.999216  1
  Si  Si10  1  0.317658  0.158829  0.001816  1
  Si  Si11  1  0.166620  0.833380  0.499441  1
  Si  Si12  1  0.665818  0.832908  0.999216  1
  Si  Si13  1  0.833201  0.166799  0.500498  1
  Si  Si14  1  0.841171  0.682342  0.001816  1
  Si  Si15  1  0.666759  0.833380  0.499441  1
  Si  Si16  1  0.167092  0.334182  0.999216  1
  Si  Si17  1  0.333597  0.166799  0.500498  1
  Si  Si18  1  0.166620  0.333241  0.499441  1
  Si  Si19  1  0.833201  0.666403  0.500498  1
  Si  Si20  1  0.333333  0.666667  0.000851  1
  Si  Si21  1  0.333333  0.666667  0.499665  1
  Si  Si22  1  0.666667  0.333333  0.500182  1
  Hg  Hg23  1  0.666667  0.333333  0.996575  1
