# generated using pymatgen
data_CaTb2(SmSn2)2
_symmetry_space_group_name_H-M   'P 1'
_cell_length_a   7.96338900
_cell_length_b   8.36385000
_cell_length_c   15.77378200
_cell_angle_alpha   90.00000000
_cell_angle_beta   90.00000000
_cell_angle_gamma   90.00000000
_symmetry_Int_Tables_number   1
_chemical_formula_structural   CaTb2(SmSn2)2
_chemical_formula_sum   'Ca4 Tb8 Sm8 Sn16'
_cell_volume   1050.60630002
_cell_formula_units_Z   4
loop_
 _symmetry_equiv_pos_site_id
 _symmetry_equiv_pos_as_xyz
  1  'x, y, z'
loop_
 _atom_site_type_symbol
 _atom_site_label
 _atom_site_symmetry_multiplicity
 _atom_site_fract_x
 _atom_site_fract_y
 _atom_site_fract_z
 _atom_site_occupancy
  Ca  Ca0  1  0.174408  0.496938  0.750000  1
  Ca  Ca1  1  0.674408  0.003062  0.750000  1
  Ca  Ca2  1  0.825592  0.503062  0.250000  1
  Ca  Ca3  1  0.325592  0.996938  0.250000  1
  Tb  Tb4  1  0.340956  0.829724  0.876202  1
  Tb  Tb5  1  0.840956  0.670276  0.623798  1
  Tb  Tb6  1  0.659044  0.170276  0.376202  1
  Tb  Tb7  1  0.159044  0.329724  0.123798  1
  Tb  Tb8  1  0.659044  0.170276  0.123798  1
  Tb  Tb9  1  0.159044  0.329724  0.376202  1
  Tb  Tb10  1  0.340956  0.829724  0.623798  1
  Tb  Tb11  1  0.840956  0.670276  0.876202  1
  Sm  Sm12  1  0.497656  0.318623  0.905791  1
  Sm  Sm13  1  0.997656  0.181377  0.594209  1
  Sm  Sm14  1  0.502344  0.681377  0.405791  1
  Sm  Sm15  1  0.002344  0.818623  0.094209  1
  Sm  Sm16  1  0.502344  0.681377  0.094209  1
  Sm  Sm17  1  0.002344  0.818623  0.405791  1
  Sm  Sm18  1  0.497656  0.318623  0.594209  1
  Sm  Sm19  1  0.997656  0.181377  0.905791  1
  Sn  Sn20  1  0.318534  0.039381  0.037233  1
  Sn  Sn21  1  0.818534  0.460619  0.462767  1
  Sn  Sn22  1  0.681466  0.960619  0.537233  1
  Sn  Sn23  1  0.181466  0.539381  0.962767  1
  Sn  Sn24  1  0.681466  0.960619  0.962767  1
  Sn  Sn25  1  0.181466  0.539381  0.537233  1
  Sn  Sn26  1  0.318534  0.039381  0.462767  1
  Sn  Sn27  1  0.818534  0.460619  0.037233  1
  Sn  Sn28  1  0.541857  0.613610  0.750000  1
  Sn  Sn29  1  0.041857  0.886390  0.750000  1
  Sn  Sn30  1  0.458143  0.386390  0.250000  1
  Sn  Sn31  1  0.958143  0.113610  0.250000  1
  Sn  Sn32  1  0.301589  0.138705  0.750000  1
  Sn  Sn33  1  0.801589  0.361295  0.750000  1
  Sn  Sn34  1  0.698411  0.861295  0.250000  1
  Sn  Sn35  1  0.198411  0.638705  0.250000  1
