# generated using pymatgen
data_CaTa8PbO22
_symmetry_space_group_name_H-M   'P 1'
_cell_length_a   6.30498800
_cell_length_b   6.30498733
_cell_length_c   12.45348300
_cell_angle_alpha   90.00000000
_cell_angle_beta   90.00000000
_cell_angle_gamma   120.00000354
_symmetry_Int_Tables_number   1
_chemical_formula_structural   CaTa8PbO22
_chemical_formula_sum   'Ca1 Ta8 Pb1 O22'
_cell_volume   428.73597919
_cell_formula_units_Z   1
loop_
 _symmetry_equiv_pos_site_id
 _symmetry_equiv_pos_as_xyz
  1  'x, y, z'
loop_
 _atom_site_type_symbol
 _atom_site_label
 _atom_site_symmetry_multiplicity
 _atom_site_fract_x
 _atom_site_fract_y
 _atom_site_fract_z
 _atom_site_occupancy
  Ca  Ca0  1  0.666667  0.333333  0.250000  1
  Ta  Ta1  1  0.666667  0.333333  0.750000  1
  Ta  Ta2  1  0.333333  0.666667  0.250000  1
  Ta  Ta3  1  0.643424  0.000732  0.498442  1
  Ta  Ta4  1  0.643424  0.642693  0.001558  1
  Ta  Ta5  1  0.999268  0.356576  0.001558  1
  Ta  Ta6  1  0.999268  0.642693  0.498442  1
  Ta  Ta7  1  0.357307  0.356576  0.498442  1
  Ta  Ta8  1  0.357307  0.000732  0.001558  1
  Pb  Pb9  1  0.333333  0.666667  0.750000  1
  O  O10  1  0.333333  0.666667  0.530726  1
  O  O11  1  0.666667  0.333333  0.035841  1
  O  O12  1  0.666667  0.333333  0.464159  1
  O  O13  1  0.333333  0.666667  0.969274  1
  O  O14  1  0.243514  0.999592  0.498751  1
  O  O15  1  0.243514  0.243922  0.001249  1
  O  O16  1  0.000408  0.756486  0.001249  1
  O  O17  1  0.000408  0.243922  0.498751  1
  O  O18  1  0.756078  0.756486  0.498751  1
  O  O19  1  0.756078  0.999592  0.001249  1
  O  O20  1  0.379395  0.944944  0.156294  1
  O  O21  1  0.434758  0.371879  0.653294  1
  O  O22  1  0.937120  0.565242  0.653294  1
  O  O23  1  0.055056  0.434451  0.156294  1
  O  O24  1  0.565549  0.620605  0.156294  1
  O  O25  1  0.434758  0.062880  0.846706  1
  O  O26  1  0.628121  0.565242  0.846706  1
  O  O27  1  0.628121  0.062880  0.653294  1
  O  O28  1  0.937120  0.371879  0.846706  1
  O  O29  1  0.055056  0.620605  0.343706  1
  O  O30  1  0.565549  0.944944  0.343706  1
  O  O31  1  0.379395  0.434451  0.343706  1
