# generated using pymatgen
data_HoEr19(Bi2Pt)4
_symmetry_space_group_name_H-M   'P 1'
_cell_length_a   8.01272302
_cell_length_b   9.00800800
_cell_length_c   12.29377403
_cell_angle_alpha   90.00000000
_cell_angle_beta   89.99248238
_cell_angle_gamma   90.00000000
_symmetry_Int_Tables_number   1
_chemical_formula_structural   HoEr19(Bi2Pt)4
_chemical_formula_sum   'Ho1 Er19 Bi8 Pt4'
_cell_volume   887.34828826
_cell_formula_units_Z   1
loop_
 _symmetry_equiv_pos_site_id
 _symmetry_equiv_pos_as_xyz
  1  'x, y, z'
loop_
 _atom_site_type_symbol
 _atom_site_label
 _atom_site_symmetry_multiplicity
 _atom_site_fract_x
 _atom_site_fract_y
 _atom_site_fract_z
 _atom_site_occupancy
  Ho  Ho0  1  0.127671  0.250000  0.196651  1
  Er  Er1  1  0.165673  0.750000  0.210603  1
  Er  Er2  1  0.334266  0.750000  0.710588  1
  Er  Er3  1  0.834295  0.250000  0.789386  1
  Er  Er4  1  0.665696  0.250000  0.289405  1
  Er  Er5  1  0.451832  0.750000  0.999951  1
  Er  Er6  1  0.048174  0.750000  0.499950  1
  Er  Er7  1  0.548199  0.250000  0.000043  1
  Er  Er8  1  0.951779  0.250000  0.500117  1
  Er  Er9  1  0.627327  0.750000  0.303653  1
  Er  Er10  1  0.872645  0.750000  0.803658  1
  Er  Er11  1  0.372670  0.250000  0.696323  1
  Er  Er12  1  0.822855  0.548213  0.066329  1
  Er  Er13  1  0.677065  0.951856  0.566369  1
  Er  Er14  1  0.177055  0.048081  0.933555  1
  Er  Er15  1  0.322998  0.451936  0.433700  1
  Er  Er16  1  0.177055  0.451919  0.933555  1
  Er  Er17  1  0.322998  0.048064  0.433700  1
  Er  Er18  1  0.822855  0.951787  0.066329  1
  Er  Er19  1  0.677065  0.548144  0.566369  1
  Bi  Bi20  1  0.932461  0.509781  0.327057  1
  Bi  Bi21  1  0.567398  0.990365  0.826984  1
  Bi  Bi22  1  0.067395  0.009623  0.672997  1
  Bi  Bi23  1  0.432824  0.490520  0.173003  1
  Bi  Bi24  1  0.067395  0.490377  0.672997  1
  Bi  Bi25  1  0.432824  0.009480  0.173003  1
  Bi  Bi26  1  0.932461  0.990219  0.327057  1
  Bi  Bi27  1  0.567398  0.509635  0.826984  1
  Pt  Pt28  1  0.418708  0.750000  0.487622  1
  Pt  Pt29  1  0.081320  0.750000  0.987607  1
  Pt  Pt30  1  0.581287  0.250000  0.512357  1
  Pt  Pt31  1  0.918358  0.250000  0.012100  1
