# generated using pymatgen
data_La2Tb3IrRh
_symmetry_space_group_name_H-M   'P 1'
_cell_length_a   6.57356136
_cell_length_b   7.26092172
_cell_length_c   8.96355806
_cell_angle_alpha   96.83659678
_cell_angle_beta   111.51116388
_cell_angle_gamma   90.00000097
_symmetry_Int_Tables_number   1
_chemical_formula_structural   La2Tb3IrRh
_chemical_formula_sum   'La4 Tb6 Ir2 Rh2'
_cell_volume   394.75993073
_cell_formula_units_Z   2
loop_
 _symmetry_equiv_pos_site_id
 _symmetry_equiv_pos_as_xyz
  1  'x, y, z'
loop_
 _atom_site_type_symbol
 _atom_site_label
 _atom_site_symmetry_multiplicity
 _atom_site_fract_x
 _atom_site_fract_y
 _atom_site_fract_z
 _atom_site_occupancy
  La  La0  1  0.981672  0.917658  0.194544  1
  La  La1  1  0.787127  0.582342  0.805456  1
  La  La2  1  0.020129  0.082649  0.806040  1
  La  La3  1  0.214090  0.417351  0.193960  1
  Tb  Tb4  1  0.640122  0.816487  0.431751  1
  Tb  Tb5  1  0.208371  0.683513  0.568249  1
  Tb  Tb6  1  0.358166  0.184449  0.566437  1
  Tb  Tb7  1  0.791729  0.315551  0.433563  1
  Tb  Tb8  1  0.427283  0.750000  0.000000  1
  Tb  Tb9  1  0.570266  0.250000  0.000000  1
  Ir  Ir10  1  0.184432  0.422646  0.772646  1
  Ir  Ir11  1  0.411785  0.077354  0.227354  1
  Rh  Rh12  1  0.815682  0.578262  0.226536  1
  Rh  Rh13  1  0.589145  0.921738  0.773464  1
