# generated using pymatgen
data_TbCe2Ga2Sn3
_symmetry_space_group_name_H-M   'P 1'
_cell_length_a   6.44813400
_cell_length_b   6.44813393
_cell_length_c   10.21331200
_cell_angle_alpha   90.00000000
_cell_angle_beta   90.00000000
_cell_angle_gamma   102.02082686
_symmetry_Int_Tables_number   1
_chemical_formula_structural   TbCe2Ga2Sn3
_chemical_formula_sum   'Tb2 Ce4 Ga4 Sn6'
_cell_volume   415.34167647
_cell_formula_units_Z   2
loop_
 _symmetry_equiv_pos_site_id
 _symmetry_equiv_pos_as_xyz
  1  'x, y, z'
loop_
 _atom_site_type_symbol
 _atom_site_label
 _atom_site_symmetry_multiplicity
 _atom_site_fract_x
 _atom_site_fract_y
 _atom_site_fract_z
 _atom_site_occupancy
  Tb  Tb0  1  0.634312  0.634312  0.250000  1
  Tb  Tb1  1  0.365688  0.365688  0.750000  1
  Ce  Ce2  1  0.795624  0.204376  0.000000  1
  Ce  Ce3  1  0.204376  0.795624  0.000000  1
  Ce  Ce4  1  0.204376  0.795624  0.500000  1
  Ce  Ce5  1  0.795624  0.204376  0.500000  1
  Ga  Ga6  1  0.315592  0.315592  0.039349  1
  Ga  Ga7  1  0.684408  0.684408  0.960651  1
  Ga  Ga8  1  0.684408  0.684408  0.539349  1
  Ga  Ga9  1  0.315592  0.315592  0.460651  1
  Sn  Sn10  1  0.088062  0.493007  0.250000  1
  Sn  Sn11  1  0.911938  0.506993  0.750000  1
  Sn  Sn12  1  0.493007  0.088062  0.250000  1
  Sn  Sn13  1  0.506993  0.911938  0.750000  1
  Sn  Sn14  1  0.020006  0.020006  0.250000  1
  Sn  Sn15  1  0.979994  0.979994  0.750000  1
