# generated using pymatgen
data_Ba3GdLu3O9
_symmetry_space_group_name_H-M   'P 1'
_cell_length_a   9.09529223
_cell_length_b   9.09529380
_cell_length_c   9.09529310
_cell_angle_alpha   39.07239001
_cell_angle_beta   39.07237993
_cell_angle_gamma   39.07239220
_symmetry_Int_Tables_number   1
_chemical_formula_structural   Ba3GdLu3O9
_chemical_formula_sum   'Ba3 Gd1 Lu3 O9'
_cell_volume   268.85518801
_cell_formula_units_Z   1
loop_
 _symmetry_equiv_pos_site_id
 _symmetry_equiv_pos_as_xyz
  1  'x, y, z'
loop_
 _atom_site_type_symbol
 _atom_site_label
 _atom_site_symmetry_multiplicity
 _atom_site_fract_x
 _atom_site_fract_y
 _atom_site_fract_z
 _atom_site_occupancy
  Ba  Ba0  1  0.997370  0.997370  0.997370  1
  Ba  Ba1  1  0.162634  0.162634  0.162634  1
  Ba  Ba2  1  0.590197  0.590197  0.590197  1
  Gd  Gd3  1  0.423008  0.423008  0.423008  1
  Lu  Lu4  1  0.861394  0.861394  0.861394  1
  Lu  Lu5  1  0.736279  0.736279  0.736279  1
  Lu  Lu6  1  0.296636  0.296636  0.296636  1
  O  O7  1  0.030190  0.126355  0.582079  1
  O  O8  1  0.126355  0.582079  0.030190  1
  O  O9  1  0.582079  0.030190  0.126355  1
  O  O10  1  0.579836  0.107862  0.714448  1
  O  O11  1  0.107862  0.714448  0.579836  1
  O  O12  1  0.714448  0.579836  0.107862  1
  O  O13  1  0.491304  0.026012  0.543098  1
  O  O14  1  0.026012  0.543098  0.491304  1
  O  O15  1  0.543098  0.491304  0.026012  1
