# generated using pymatgen
data_TbDy3(LuGa2)2
_symmetry_space_group_name_H-M   'P 1'
_cell_length_a   7.57427479
_cell_length_b   7.57427479
_cell_length_c   4.32034600
_cell_angle_alpha   90.00000000
_cell_angle_beta   90.00000000
_cell_angle_gamma   90.07880721
_symmetry_Int_Tables_number   1
_chemical_formula_structural   TbDy3(LuGa2)2
_chemical_formula_sum   'Tb1 Dy3 Lu2 Ga4'
_cell_volume   247.85645425
_cell_formula_units_Z   1
loop_
 _symmetry_equiv_pos_site_id
 _symmetry_equiv_pos_as_xyz
  1  'x, y, z'
loop_
 _atom_site_type_symbol
 _atom_site_label
 _atom_site_symmetry_multiplicity
 _atom_site_fract_x
 _atom_site_fract_y
 _atom_site_fract_z
 _atom_site_occupancy
  Tb  Tb0  1  0.674335  0.825665  0.500000  1
  Dy  Dy1  1  0.325445  0.174554  0.500000  1
  Dy  Dy2  1  0.825731  0.325649  0.500000  1
  Dy  Dy3  1  0.174350  0.674269  0.500000  1
  Lu  Lu4  1  0.000108  0.000049  0.000000  1
  Lu  Lu5  1  0.499951  0.499892  0.000000  1
  Ga  Ga6  1  0.620991  0.121206  0.000000  1
  Ga  Ga7  1  0.121072  0.378928  0.000000  1
  Ga  Ga8  1  0.879222  0.620778  0.000000  1
  Ga  Ga9  1  0.378794  0.879009  0.000000  1
