# generated using pymatgen
data_TiNb(FeP)2
_symmetry_space_group_name_H-M   'P 1'
_cell_length_a   3.60284800
_cell_length_b   6.10018900
_cell_length_c   6.88801400
_cell_angle_alpha   90.00000000
_cell_angle_beta   90.00000000
_cell_angle_gamma   90.00000000
_symmetry_Int_Tables_number   1
_chemical_formula_structural   TiNb(FeP)2
_chemical_formula_sum   'Ti2 Nb2 Fe4 P4'
_cell_volume   151.38514184
_cell_formula_units_Z   2
loop_
 _symmetry_equiv_pos_site_id
 _symmetry_equiv_pos_as_xyz
  1  'x, y, z'
loop_
 _atom_site_type_symbol
 _atom_site_label
 _atom_site_symmetry_multiplicity
 _atom_site_fract_x
 _atom_site_fract_y
 _atom_site_fract_z
 _atom_site_occupancy
  Ti  Ti0  1  0.750000  0.981078  0.182141  1
  Ti  Ti1  1  0.750000  0.481078  0.317859  1
  Nb  Nb2  1  0.250000  0.021484  0.823736  1
  Nb  Nb3  1  0.250000  0.521484  0.676264  1
  Fe  Fe4  1  0.250000  0.144138  0.435582  1
  Fe  Fe5  1  0.250000  0.644138  0.064418  1
  Fe  Fe6  1  0.750000  0.855024  0.558183  1
  Fe  Fe7  1  0.750000  0.355024  0.941817  1
  P  P8  1  0.250000  0.776068  0.376443  1
  P  P9  1  0.250000  0.276068  0.123557  1
  P  P10  1  0.750000  0.222209  0.613151  1
  P  P11  1  0.750000  0.722209  0.886849  1
