# generated using pymatgen
data_Zr6Zn16Ag7C
_symmetry_space_group_name_H-M   'P 1'
_cell_length_a   8.82675500
_cell_length_b   8.83401031
_cell_length_c   8.83401000
_cell_angle_alpha   60.00000117
_cell_angle_beta   59.97280694
_cell_angle_gamma   59.97279844
_symmetry_Int_Tables_number   1
_chemical_formula_structural   Zr6Zn16Ag7C
_chemical_formula_sum   'Zr6 Zn16 Ag7 C1'
_cell_volume   486.88143091
_cell_formula_units_Z   1
loop_
 _symmetry_equiv_pos_site_id
 _symmetry_equiv_pos_as_xyz
  1  'x, y, z'
loop_
 _atom_site_type_symbol
 _atom_site_label
 _atom_site_symmetry_multiplicity
 _atom_site_fract_x
 _atom_site_fract_y
 _atom_site_fract_z
 _atom_site_occupancy
  Zr  Zr0  1  0.686130  0.313653  0.313653  1
  Zr  Zr1  1  0.313040  0.686777  0.686777  1
  Zr  Zr2  1  0.313040  0.686777  0.313407  1
  Zr  Zr3  1  0.686130  0.313653  0.686565  1
  Zr  Zr4  1  0.313040  0.313407  0.686777  1
  Zr  Zr5  1  0.686130  0.686565  0.313653  1
  Zn  Zn6  1  0.359046  0.880317  0.880317  1
  Zn  Zn7  1  0.498441  0.998933  0.998933  1
  Zn  Zn8  1  0.000295  0.499824  0.499824  1
  Zn  Zn9  1  0.000295  0.499824  0.000057  1
  Zn  Zn10  1  0.498441  0.998933  0.503693  1
  Zn  Zn11  1  0.000295  0.000057  0.499824  1
  Zn  Zn12  1  0.498441  0.503693  0.998933  1
  Zn  Zn13  1  0.333093  0.332358  0.332358  1
  Zn  Zn14  1  0.666927  0.668017  0.668017  1
  Zn  Zn15  1  0.333093  0.332358  0.002192  1
  Zn  Zn16  1  0.333093  0.002192  0.332358  1
  Zn  Zn17  1  0.666927  0.668017  0.997038  1
  Zn  Zn18  1  0.666927  0.997038  0.668017  1
  Zn  Zn19  1  0.002413  0.332529  0.332529  1
  Zn  Zn20  1  0.997395  0.667535  0.667535  1
  Zn  Zn21  1  0.004041  0.998653  0.998653  1
  Ag  Ag22  1  0.121178  0.118553  0.118553  1
  Ag  Ag23  1  0.879897  0.880364  0.880364  1
  Ag  Ag24  1  0.121178  0.118553  0.641717  1
  Ag  Ag25  1  0.121178  0.641717  0.118553  1
  Ag  Ag26  1  0.879897  0.880364  0.359373  1
  Ag  Ag27  1  0.879897  0.359373  0.880364  1
  Ag  Ag28  1  0.640392  0.119870  0.119870  1
  C  C29  1  0.499710  0.500097  0.500097  1
