# generated using pymatgen
data_Sc5TiCo16Si6Ge
_symmetry_space_group_name_H-M   'P 1'
_cell_length_a   8.04909802
_cell_length_b   8.03149870
_cell_length_c   8.05413084
_cell_angle_alpha   60.08811427
_cell_angle_beta   59.85061551
_cell_angle_gamma   60.06647615
_symmetry_Int_Tables_number   1
_chemical_formula_structural   Sc5TiCo16Si6Ge
_chemical_formula_sum   'Sc5 Ti1 Co16 Si6 Ge1'
_cell_volume   368.17985524
_cell_formula_units_Z   1
loop_
 _symmetry_equiv_pos_site_id
 _symmetry_equiv_pos_as_xyz
  1  'x, y, z'
loop_
 _atom_site_type_symbol
 _atom_site_label
 _atom_site_symmetry_multiplicity
 _atom_site_fract_x
 _atom_site_fract_y
 _atom_site_fract_z
 _atom_site_occupancy
  Sc  Sc0  1  0.210077  0.789950  0.791380  1
  Sc  Sc1  1  0.791426  0.789861  0.210169  1
  Sc  Sc2  1  0.791449  0.208553  0.210180  1
  Sc  Sc3  1  0.210087  0.208601  0.791407  1
  Sc  Sc4  1  0.787425  0.212676  0.787223  1
  Ti  Ti5  1  0.220124  0.779843  0.220272  1
  Co  Co6  1  0.615459  0.623578  0.137366  1
  Co  Co7  1  0.172556  0.483551  0.172618  1
  Co  Co8  1  0.865254  0.378819  0.377096  1
  Co  Co9  1  0.516451  0.827423  0.828714  1
  Co  Co10  1  0.478899  0.173574  0.173936  1
  Co  Co11  1  0.828708  0.827400  0.516501  1
  Co  Co12  1  0.173927  0.173616  0.478825  1
  Co  Co13  1  0.137416  0.623541  0.615481  1
  Co  Co14  1  0.172569  0.171269  0.172629  1
  Co  Co15  1  0.377113  0.378803  0.865267  1
  Co  Co16  1  0.621142  0.622861  0.621179  1
  Co  Co17  1  0.376452  0.862588  0.376423  1
  Co  Co18  1  0.376446  0.384523  0.376420  1
  Co  Co19  1  0.826416  0.826090  0.826394  1
  Co  Co20  1  0.621128  0.134832  0.621169  1
  Co  Co21  1  0.826428  0.521066  0.826408  1
  Si  Si22  1  0.500067  0.999929  0.500073  1
  Si  Si23  1  0.499316  0.500783  0.001198  1
  Si  Si24  1  0.001190  0.998687  0.499338  1
  Si  Si25  1  0.999966  0.500044  0.999962  1
  Si  Si26  1  0.001193  0.500786  0.499326  1
  Si  Si27  1  0.499330  0.998696  0.001195  1
  Ge  Ge28  1  0.501986  0.498058  0.501850  1
