# generated using pymatgen
data_Hf5Nb5Si6C
_symmetry_space_group_name_H-M   'P 1'
_cell_length_a   7.76674985
_cell_length_b   7.74819206
_cell_length_c   5.35978586
_cell_angle_alpha   89.84323286
_cell_angle_beta   90.31277890
_cell_angle_gamma   120.07925284
_symmetry_Int_Tables_number   1
_chemical_formula_structural   Hf5Nb5Si6C
_chemical_formula_sum   'Hf5 Nb5 Si6 C1'
_cell_volume   279.10261799
_cell_formula_units_Z   1
loop_
 _symmetry_equiv_pos_site_id
 _symmetry_equiv_pos_as_xyz
  1  'x, y, z'
loop_
 _atom_site_type_symbol
 _atom_site_label
 _atom_site_symmetry_multiplicity
 _atom_site_fract_x
 _atom_site_fract_y
 _atom_site_fract_z
 _atom_site_occupancy
  Hf  Hf0  1  0.000381  0.759552  0.252203  1
  Hf  Hf1  1  0.240829  0.240448  0.252203  1
  Hf  Hf2  1  0.757600  0.000000  0.260099  1
  Hf  Hf3  1  0.999883  0.241877  0.748437  1
  Hf  Hf4  1  0.758005  0.758123  0.748437  1
  Nb  Nb5  1  0.244050  0.000000  0.740119  1
  Nb  Nb6  1  0.332361  0.665132  0.999881  1
  Nb  Nb7  1  0.667231  0.334868  0.999881  1
  Nb  Nb8  1  0.666899  0.333361  0.499145  1
  Nb  Nb9  1  0.333538  0.666639  0.499145  1
  Si  Si10  1  0.999655  0.400688  0.244804  1
  Si  Si11  1  0.598966  0.599312  0.244804  1
  Si  Si12  1  0.401856  0.000000  0.239765  1
  Si  Si13  1  0.001343  0.602147  0.754974  1
  Si  Si14  1  0.399196  0.397853  0.754974  1
  Si  Si15  1  0.595856  0.000000  0.758439  1
  C  C16  1  0.002350  0.000000  0.502690  1
