# generated using pymatgen
data_RbDy(NbBr3)6
_symmetry_space_group_name_H-M   'P 1'
_cell_length_a   10.76546628
_cell_length_b   10.76546625
_cell_length_c   10.76546703
_cell_angle_alpha   55.48024928
_cell_angle_beta   55.48024726
_cell_angle_gamma   55.48025191
_symmetry_Int_Tables_number   1
_chemical_formula_structural   RbDy(NbBr3)6
_chemical_formula_sum   'Rb1 Dy1 Nb6 Br18'
_cell_volume   789.64366299
_cell_formula_units_Z   1
loop_
 _symmetry_equiv_pos_site_id
 _symmetry_equiv_pos_as_xyz
  1  'x, y, z'
loop_
 _atom_site_type_symbol
 _atom_site_label
 _atom_site_symmetry_multiplicity
 _atom_site_fract_x
 _atom_site_fract_y
 _atom_site_fract_z
 _atom_site_occupancy
  Rb  Rb0  1  0.220736  0.220736  0.220736  1
  Dy  Dy1  1  0.498456  0.498456  0.498456  1
  Nb  Nb2  1  0.808770  0.142831  0.915879  1
  Nb  Nb3  1  0.915879  0.808770  0.142831  1
  Nb  Nb4  1  0.142831  0.915879  0.808770  1
  Nb  Nb5  1  0.192299  0.857567  0.083449  1
  Nb  Nb6  1  0.083449  0.192299  0.857567  1
  Nb  Nb7  1  0.857567  0.083449  0.192299  1
  Br  Br8  1  0.864794  0.411562  0.726125  1
  Br  Br9  1  0.726125  0.864794  0.411562  1
  Br  Br10  1  0.411562  0.726125  0.864794  1
  Br  Br11  1  0.134685  0.588532  0.276292  1
  Br  Br12  1  0.276292  0.134685  0.588532  1
  Br  Br13  1  0.588532  0.276292  0.134685  1
  Br  Br14  1  0.531132  0.342004  0.804726  1
  Br  Br15  1  0.804726  0.531132  0.342004  1
  Br  Br16  1  0.342004  0.804726  0.531132  1
  Br  Br17  1  0.465654  0.659502  0.197418  1
  Br  Br18  1  0.197418  0.465654  0.659502  1
  Br  Br19  1  0.659502  0.197418  0.465654  1
  Br  Br20  1  0.663029  0.938380  0.071085  1
  Br  Br21  1  0.071085  0.663029  0.938380  1
  Br  Br22  1  0.938380  0.071085  0.663029  1
  Br  Br23  1  0.339844  0.060437  0.925948  1
  Br  Br24  1  0.925948  0.339844  0.060437  1
  Br  Br25  1  0.060437  0.925948  0.339844  1
