# generated using pymatgen
data_Sr3La(Cd4Au3)2
_symmetry_space_group_name_H-M   'P 1'
_cell_length_a   15.40429300
_cell_length_b   15.40429493
_cell_length_c   4.52448100
_cell_angle_alpha   90.00000000
_cell_angle_beta   90.00000000
_cell_angle_gamma   120.37683096
_symmetry_Int_Tables_number   1
_chemical_formula_structural   Sr3La(Cd4Au3)2
_chemical_formula_sum   'Sr6 La2 Cd16 Au12'
_cell_volume   926.23531970
_cell_formula_units_Z   2
loop_
 _symmetry_equiv_pos_site_id
 _symmetry_equiv_pos_as_xyz
  1  'x, y, z'
loop_
 _atom_site_type_symbol
 _atom_site_label
 _atom_site_symmetry_multiplicity
 _atom_site_fract_x
 _atom_site_fract_y
 _atom_site_fract_z
 _atom_site_occupancy
  Sr  Sr0  1  0.546215  0.546215  0.000000  1
  Sr  Sr1  1  0.332074  0.667544  0.000000  1
  Sr  Sr2  1  0.667544  0.332074  0.000000  1
  Sr  Sr3  1  0.820793  0.001266  0.500000  1
  Sr  Sr4  1  0.001266  0.820793  0.500000  1
  Sr  Sr5  1  0.179177  0.179177  0.500000  1
  La  La6  1  0.452598  0.000824  0.000000  1
  La  La7  1  0.000824  0.452598  0.000000  1
  Cd  Cd8  1  0.176745  0.377974  0.000000  1
  Cd  Cd9  1  0.623909  0.802880  0.000000  1
  Cd  Cd10  1  0.377974  0.176745  0.000000  1
  Cd  Cd11  1  0.200207  0.821987  0.000000  1
  Cd  Cd12  1  0.802880  0.623909  0.000000  1
  Cd  Cd13  1  0.821987  0.200207  0.000000  1
  Cd  Cd14  1  0.283964  0.999881  0.500000  1
  Cd  Cd15  1  0.999881  0.283964  0.500000  1
  Cd  Cd16  1  0.716156  0.716156  0.500000  1
  Cd  Cd17  1  0.342508  0.469457  0.500000  1
  Cd  Cd18  1  0.529115  0.877105  0.500000  1
  Cd  Cd19  1  0.469457  0.342508  0.500000  1
  Cd  Cd20  1  0.126079  0.654916  0.500000  1
  Cd  Cd21  1  0.877105  0.529115  0.500000  1
  Cd  Cd22  1  0.654916  0.126079  0.500000  1
  Cd  Cd23  1  0.000477  0.000477  0.000000  1
  Au  Au24  1  0.165834  0.493247  0.500000  1
  Au  Au25  1  0.505330  0.676680  0.500000  1
  Au  Au26  1  0.493247  0.165834  0.500000  1
  Au  Au27  1  0.326300  0.833335  0.500000  1
  Au  Au28  1  0.676680  0.505330  0.500000  1
  Au  Au29  1  0.833335  0.326300  0.500000  1
  Au  Au30  1  0.176128  0.998972  0.000000  1
  Au  Au31  1  0.998972  0.176128  0.000000  1
  Au  Au32  1  0.823316  0.823316  0.000000  1
  Au  Au33  1  0.653657  0.001460  0.000000  1
  Au  Au34  1  0.001460  0.653657  0.000000  1
  Au  Au35  1  0.341891  0.341891  0.000000  1
