# generated using pymatgen
data_KHf2(TlBr4)3
_symmetry_space_group_name_H-M   'P 1'
_cell_length_a   7.33027500
_cell_length_b   7.33027451
_cell_length_c   11.10669600
_cell_angle_alpha   90.00000000
_cell_angle_beta   90.00000000
_cell_angle_gamma   89.50594767
_symmetry_Int_Tables_number   1
_chemical_formula_structural   KHf2(TlBr4)3
_chemical_formula_sum   'K1 Hf2 Tl3 Br12'
_cell_volume   596.77310987
_cell_formula_units_Z   1
loop_
 _symmetry_equiv_pos_site_id
 _symmetry_equiv_pos_as_xyz
  1  'x, y, z'
loop_
 _atom_site_type_symbol
 _atom_site_label
 _atom_site_symmetry_multiplicity
 _atom_site_fract_x
 _atom_site_fract_y
 _atom_site_fract_z
 _atom_site_occupancy
  K  K0  1  0.000000  0.500000  0.250000  1
  Hf  Hf1  1  0.500000  0.500000  0.498681  1
  Hf  Hf2  1  0.000000  0.000000  0.001319  1
  Tl  Tl3  1  0.500000  0.000000  0.750000  1
  Tl  Tl4  1  0.000000  0.500000  0.750000  1
  Tl  Tl5  1  0.500000  0.000000  0.250000  1
  Br  Br6  1  0.702400  0.198112  0.999933  1
  Br  Br7  1  0.698112  0.202400  0.500067  1
  Br  Br8  1  0.301888  0.797600  0.500067  1
  Br  Br9  1  0.297600  0.801888  0.999933  1
  Br  Br10  1  0.796255  0.695326  0.496946  1
  Br  Br11  1  0.203745  0.304674  0.496946  1
  Br  Br12  1  0.000000  0.000000  0.237932  1
  Br  Br13  1  0.500000  0.500000  0.262068  1
  Br  Br14  1  0.000000  0.000000  0.764545  1
  Br  Br15  1  0.500000  0.500000  0.735455  1
  Br  Br16  1  0.804674  0.703745  0.003054  1
  Br  Br17  1  0.195326  0.296255  0.003054  1
