# generated using pymatgen
data_YHo3Fe4(WO6)4
_symmetry_space_group_name_H-M   'P 1'
_cell_length_a   5.22381531
_cell_length_b   7.43288132
_cell_length_c   11.10835809
_cell_angle_alpha   90.03266012
_cell_angle_beta   90.03891038
_cell_angle_gamma   89.99243329
_symmetry_Int_Tables_number   1
_chemical_formula_structural   YHo3Fe4(WO6)4
_chemical_formula_sum   'Y1 Ho3 Fe4 W4 O24'
_cell_volume   431.31514632
_cell_formula_units_Z   1
loop_
 _symmetry_equiv_pos_site_id
 _symmetry_equiv_pos_as_xyz
  1  'x, y, z'
loop_
 _atom_site_type_symbol
 _atom_site_label
 _atom_site_symmetry_multiplicity
 _atom_site_fract_x
 _atom_site_fract_y
 _atom_site_fract_z
 _atom_site_occupancy
  Y  Y0  1  0.455517  0.750978  0.955442  1
  Ho  Ho1  1  0.545533  0.250959  0.044872  1
  Ho  Ho2  1  0.045158  0.750985  0.455226  1
  Ho  Ho3  1  0.954768  0.250995  0.544737  1
  Fe  Fe4  1  0.042231  0.995877  0.139792  1
  Fe  Fe5  1  0.542331  0.495604  0.360579  1
  Fe  Fe6  1  0.457853  0.995746  0.639190  1
  Fe  Fe7  1  0.958125  0.495119  0.860340  1
  W  W8  1  0.051644  0.506718  0.142604  1
  W  W9  1  0.551663  0.007011  0.357881  1
  W  W10  1  0.448313  0.506932  0.641866  1
  W  W11  1  0.948698  0.007675  0.857537  1
  O  O12  1  0.756076  0.961945  0.020719  1
  O  O13  1  0.764057  0.545230  0.028568  1
  O  O14  1  0.176622  0.748842  0.117422  1
  O  O15  1  0.932097  0.258598  0.144009  1
  O  O16  1  0.376444  0.432900  0.205981  1
  O  O17  1  0.391771  0.068619  0.212505  1
  O  O18  1  0.891404  0.568416  0.287747  1
  O  O19  1  0.875853  0.932922  0.294144  1
  O  O20  1  0.432069  0.758805  0.356514  1
  O  O21  1  0.678682  0.248826  0.383655  1
  O  O22  1  0.263204  0.046527  0.471567  1
  O  O23  1  0.254901  0.460535  0.479284  1
  O  O24  1  0.745111  0.960618  0.520526  1
  O  O25  1  0.736793  0.546480  0.528273  1
  O  O26  1  0.321206  0.748859  0.616391  1
  O  O27  1  0.567926  0.258780  0.643260  1
  O  O28  1  0.124224  0.432868  0.705880  1
  O  O29  1  0.108806  0.068954  0.712445  1
  O  O30  1  0.609476  0.567995  0.786884  1
  O  O31  1  0.624617  0.934057  0.793352  1
  O  O32  1  0.065228  0.758856  0.856207  1
  O  O33  1  0.820733  0.249115  0.883446  1
  O  O34  1  0.236498  0.047427  0.971565  1
  O  O35  1  0.244368  0.459627  0.979591  1
