# generated using pymatgen
data_Dy4Re15Si8Ru
_symmetry_space_group_name_H-M   'P 1'
_cell_length_a   4.12395300
_cell_length_b   7.29295241
_cell_length_c   15.33238815
_cell_angle_alpha   89.90206904
_cell_angle_beta   90.00000000
_cell_angle_gamma   90.00000000
_symmetry_Int_Tables_number   1
_chemical_formula_structural   Dy4Re15Si8Ru
_chemical_formula_sum   'Dy4 Re15 Si8 Ru1'
_cell_volume   461.13305837
_cell_formula_units_Z   1
loop_
 _symmetry_equiv_pos_site_id
 _symmetry_equiv_pos_as_xyz
  1  'x, y, z'
loop_
 _atom_site_type_symbol
 _atom_site_label
 _atom_site_symmetry_multiplicity
 _atom_site_fract_x
 _atom_site_fract_y
 _atom_site_fract_z
 _atom_site_occupancy
  Dy  Dy0  1  0.000000  0.576561  0.118952  1
  Dy  Dy1  1  0.000000  0.421888  0.881984  1
  Dy  Dy2  1  0.500000  0.077669  0.380486  1
  Dy  Dy3  1  0.500000  0.920932  0.618997  1
  Re  Re4  1  0.000000  0.859633  0.951629  1
  Re  Re5  1  0.500000  0.643388  0.448463  1
  Re  Re6  1  0.500000  0.359879  0.549995  1
  Re  Re7  1  0.000000  0.735991  0.321340  1
  Re  Re8  1  0.000000  0.266600  0.678579  1
  Re  Re9  1  0.500000  0.234120  0.176931  1
  Re  Re10  1  0.500000  0.765769  0.823001  1
  Re  Re11  1  0.000000  0.429616  0.416548  1
  Re  Re12  1  0.000000  0.570935  0.581083  1
  Re  Re13  1  0.500000  0.930714  0.083557  1
  Re  Re14  1  0.500000  0.067826  0.920102  1
  Re  Re15  1  0.000000  0.984480  0.202814  1
  Re  Re16  1  0.000000  0.011889  0.794532  1
  Re  Re17  1  0.500000  0.484635  0.293743  1
  Re  Re18  1  0.500000  0.510408  0.706908  1
  Si  Si19  1  0.000000  0.836625  0.477238  1
  Si  Si20  1  0.000000  0.165872  0.522647  1
  Si  Si21  1  0.500000  0.334444  0.023005  1
  Si  Si22  1  0.500000  0.665421  0.978376  1
  Si  Si23  1  0.000000  0.285238  0.271679  1
  Si  Si24  1  0.000000  0.710648  0.726681  1
  Si  Si25  1  0.500000  0.783855  0.226642  1
  Si  Si26  1  0.500000  0.209381  0.774709  1
  Ru  Ru27  1  0.000000  0.155583  0.049382  1
