# generated using pymatgen
data_Tb8Ti12Si15P
_symmetry_space_group_name_H-M   'P 1'
_cell_length_a   7.05557192
_cell_length_b   7.06157131
_cell_length_c   12.98117502
_cell_angle_alpha   89.96968301
_cell_angle_beta   89.94360311
_cell_angle_gamma   89.93700313
_symmetry_Int_Tables_number   1
_chemical_formula_structural   Tb8Ti12Si15P
_chemical_formula_sum   'Tb8 Ti12 Si15 P1'
_cell_volume   646.76579644
_cell_formula_units_Z   1
loop_
 _symmetry_equiv_pos_site_id
 _symmetry_equiv_pos_as_xyz
  1  'x, y, z'
loop_
 _atom_site_type_symbol
 _atom_site_label
 _atom_site_symmetry_multiplicity
 _atom_site_fract_x
 _atom_site_fract_y
 _atom_site_fract_z
 _atom_site_occupancy
  Tb  Tb0  1  0.340029  0.003354  0.467850  1
  Tb  Tb1  1  0.493978  0.843867  0.716821  1
  Tb  Tb2  1  0.502638  0.159573  0.216294  1
  Tb  Tb3  1  0.839825  0.497021  0.283451  1
  Tb  Tb4  1  0.159804  0.498381  0.782383  1
  Tb  Tb5  1  0.660394  0.995594  0.966602  1
  Tb  Tb6  1  0.004035  0.339109  0.534625  1
  Tb  Tb7  1  0.997222  0.660016  0.032994  1
  Ti  Ti8  1  0.326066  0.326708  0.999370  1
  Ti  Ti9  1  0.172960  0.827214  0.249973  1
  Ti  Ti10  1  0.827524  0.173108  0.749529  1
  Ti  Ti11  1  0.672920  0.672934  0.500264  1
  Ti  Ti12  1  0.154407  0.010307  0.872952  1
  Ti  Ti13  1  0.490933  0.653146  0.125795  1
  Ti  Ti14  1  0.507036  0.344673  0.627550  1
  Ti  Ti15  1  0.654290  0.493599  0.873716  1
  Ti  Ti16  1  0.347028  0.508391  0.373781  1
  Ti  Ti17  1  0.847308  0.991266  0.376314  1
  Ti  Ti18  1  0.008641  0.152468  0.123621  1
  Ti  Ti19  1  0.993976  0.849165  0.624961  1
  Si  Si20  1  0.369440  0.702105  0.933970  1
  Si  Si21  1  0.629624  0.298220  0.435944  1
  Si  Si22  1  0.701937  0.370835  0.064767  1
  Si  Si23  1  0.298055  0.629506  0.565342  1
  Si  Si24  1  0.797509  0.870608  0.184966  1
  Si  Si25  1  0.129857  0.202034  0.315390  1
  Si  Si26  1  0.870863  0.796766  0.814733  1
  Si  Si27  1  0.290331  0.953105  0.063954  1
  Si  Si28  1  0.546285  0.790853  0.314900  1
  Si  Si29  1  0.459037  0.211414  0.817615  1
  Si  Si30  1  0.789190  0.547401  0.684801  1
  Si  Si31  1  0.209404  0.452961  0.185069  1
  Si  Si32  1  0.709573  0.046111  0.564657  1
  Si  Si33  1  0.953421  0.290290  0.935308  1
  Si  Si34  1  0.046680  0.708984  0.435605  1
  P  P35  1  0.197779  0.128911  0.684134  1
