# generated using pymatgen
data_CaSmAl20RuRh3
_symmetry_space_group_name_H-M   'P 1'
_cell_length_a   6.88717734
_cell_length_b   6.88813323
_cell_length_c   9.15841849
_cell_angle_alpha   90.07034657
_cell_angle_beta   90.06628660
_cell_angle_gamma   97.12280844
_symmetry_Int_Tables_number   1
_chemical_formula_structural   CaSmAl20RuRh3
_chemical_formula_sum   'Ca1 Sm1 Al20 Ru1 Rh3'
_cell_volume   431.11981484
_cell_formula_units_Z   1
loop_
 _symmetry_equiv_pos_site_id
 _symmetry_equiv_pos_as_xyz
  1  'x, y, z'
loop_
 _atom_site_type_symbol
 _atom_site_label
 _atom_site_symmetry_multiplicity
 _atom_site_fract_x
 _atom_site_fract_y
 _atom_site_fract_z
 _atom_site_occupancy
  Ca  Ca0  1  0.871514  0.126460  0.749856  1
  Sm  Sm1  1  0.126759  0.875275  0.249914  1
  Al  Al2  1  0.620865  0.376157  0.549199  1
  Al  Al3  1  0.379921  0.622774  0.450082  1
  Al  Al4  1  0.379480  0.621208  0.051386  1
  Al  Al5  1  0.621467  0.377993  0.949315  1
  Al  Al6  1  0.225056  0.224247  0.499359  1
  Al  Al7  1  0.774449  0.777058  0.501164  1
  Al  Al8  1  0.773718  0.774950  0.999523  1
  Al  Al9  1  0.225398  0.225623  0.999801  1
  Al  Al10  1  0.843142  0.157275  0.102522  1
  Al  Al11  1  0.158465  0.841134  0.896220  1
  Al  Al12  1  0.159222  0.842226  0.602090  1
  Al  Al13  1  0.842121  0.155884  0.399170  1
  Al  Al14  1  0.856097  0.587430  0.749563  1
  Al  Al15  1  0.142325  0.410795  0.250509  1
  Al  Al16  1  0.412902  0.142966  0.749097  1
  Al  Al17  1  0.589267  0.858425  0.250838  1
  Al  Al18  1  0.223990  0.479492  0.750029  1
  Al  Al19  1  0.774733  0.518967  0.250094  1
  Al  Al20  1  0.520338  0.777830  0.747121  1
  Al  Al21  1  0.481559  0.223726  0.252978  1
  Ru  Ru22  1  0.498239  0.999527  0.499207  1
  Rh  Rh23  1  0.000051  0.501193  0.499503  1
  Rh  Rh24  1  0.000145  0.501338  0.000778  1
  Rh  Rh25  1  0.498781  0.000045  0.000682  1
