# generated using pymatgen
data_Er4ThPd15
_symmetry_space_group_name_H-M   'P 1'
_cell_length_a   4.13889800
_cell_length_b   4.13889800
_cell_length_c   20.58702800
_cell_angle_alpha   90.00000000
_cell_angle_beta   90.00000000
_cell_angle_gamma   90.00000000
_symmetry_Int_Tables_number   1
_chemical_formula_structural   Er4ThPd15
_chemical_formula_sum   'Er4 Th1 Pd15'
_cell_volume   352.66560254
_cell_formula_units_Z   1
loop_
 _symmetry_equiv_pos_site_id
 _symmetry_equiv_pos_as_xyz
  1  'x, y, z'
loop_
 _atom_site_type_symbol
 _atom_site_label
 _atom_site_symmetry_multiplicity
 _atom_site_fract_x
 _atom_site_fract_y
 _atom_site_fract_z
 _atom_site_occupancy
  Er  Er0  1  0.000000  0.000000  0.202332  1
  Er  Er1  1  0.000000  0.000000  0.399706  1
  Er  Er2  1  0.000000  0.000000  0.600294  1
  Er  Er3  1  0.000000  0.000000  0.797668  1
  Th  Th4  1  0.000000  0.000000  0.000000  1
  Pd  Pd5  1  0.500000  0.500000  0.000000  1
  Pd  Pd6  1  0.500000  0.500000  0.200165  1
  Pd  Pd7  1  0.500000  0.500000  0.400135  1
  Pd  Pd8  1  0.500000  0.500000  0.599865  1
  Pd  Pd9  1  0.500000  0.500000  0.799835  1
  Pd  Pd10  1  0.500000  0.000000  0.101188  1
  Pd  Pd11  1  0.500000  0.000000  0.299952  1
  Pd  Pd12  1  0.500000  0.000000  0.500000  1
  Pd  Pd13  1  0.500000  0.000000  0.700048  1
  Pd  Pd14  1  0.500000  0.000000  0.898812  1
  Pd  Pd15  1  0.000000  0.500000  0.101188  1
  Pd  Pd16  1  0.000000  0.500000  0.299952  1
  Pd  Pd17  1  0.000000  0.500000  0.500000  1
  Pd  Pd18  1  0.000000  0.500000  0.700048  1
  Pd  Pd19  1  0.000000  0.500000  0.898812  1
