# generated using pymatgen
data_Ti3BeP2Ru2W
_symmetry_space_group_name_H-M   'P 1'
_cell_length_a   6.52643061
_cell_length_b   6.59330917
_cell_length_c   3.27949500
_cell_angle_alpha   90.00000000
_cell_angle_beta   90.00000000
_cell_angle_gamma   120.33956175
_symmetry_Int_Tables_number   1
_chemical_formula_structural   Ti3BeP2Ru2W
_chemical_formula_sum   'Ti3 Be1 P2 Ru2 W1'
_cell_volume   121.79250834
_cell_formula_units_Z   1
loop_
 _symmetry_equiv_pos_site_id
 _symmetry_equiv_pos_as_xyz
  1  'x, y, z'
loop_
 _atom_site_type_symbol
 _atom_site_label
 _atom_site_symmetry_multiplicity
 _atom_site_fract_x
 _atom_site_fract_y
 _atom_site_fract_z
 _atom_site_occupancy
  Ti  Ti0  1  0.395563  0.405118  0.500000  1
  Ti  Ti1  1  0.604437  0.009555  0.500000  1
  Ti  Ti2  1  0.000000  0.594665  0.500000  1
  Be  Be3  1  0.000000  0.987895  0.500000  1
  P  P4  1  0.664596  0.335654  0.000000  1
  P  P5  1  0.335404  0.671059  0.000000  1
  Ru  Ru6  1  0.253871  0.000853  0.000000  1
  Ru  Ru7  1  0.746129  0.746982  0.000000  1
  W  W8  1  0.000000  0.248219  0.000000  1
