# generated using pymatgen
data_Tb2YFe(Co4P3)2
_symmetry_space_group_name_H-M   'P 1'
_cell_length_a   3.70369600
_cell_length_b   10.53328900
_cell_length_c   12.18990100
_cell_angle_alpha   90.00000000
_cell_angle_beta   90.00000000
_cell_angle_gamma   90.00000000
_symmetry_Int_Tables_number   1
_chemical_formula_structural   Tb2YFe(Co4P3)2
_chemical_formula_sum   'Tb4 Y2 Fe2 Co16 P12'
_cell_volume   475.55364090
_cell_formula_units_Z   2
loop_
 _symmetry_equiv_pos_site_id
 _symmetry_equiv_pos_as_xyz
  1  'x, y, z'
loop_
 _atom_site_type_symbol
 _atom_site_label
 _atom_site_symmetry_multiplicity
 _atom_site_fract_x
 _atom_site_fract_y
 _atom_site_fract_z
 _atom_site_occupancy
  Tb  Tb0  1  0.000000  0.500000  0.521896  1
  Tb  Tb1  1  0.500000  0.000000  0.478146  1
  Tb  Tb2  1  0.500000  0.817671  0.205067  1
  Tb  Tb3  1  0.500000  0.182329  0.205067  1
  Y  Y4  1  0.000000  0.682342  0.794930  1
  Y  Y5  1  0.000000  0.317658  0.794930  1
  Fe  Fe6  1  0.500000  0.500000  0.156943  1
  Fe  Fe7  1  0.000000  0.000000  0.843052  1
  Co  Co8  1  0.500000  0.500000  0.702046  1
  Co  Co9  1  0.000000  0.000000  0.297989  1
  Co  Co10  1  0.000000  0.500000  0.986269  1
  Co  Co11  1  0.500000  0.000000  0.013715  1
  Co  Co12  1  0.500000  0.333045  0.994218  1
  Co  Co13  1  0.500000  0.666955  0.994218  1
  Co  Co14  1  0.000000  0.166981  0.005715  1
  Co  Co15  1  0.000000  0.833019  0.005715  1
  Co  Co16  1  0.500000  0.296844  0.430693  1
  Co  Co17  1  0.500000  0.703156  0.430693  1
  Co  Co18  1  0.000000  0.203158  0.569344  1
  Co  Co19  1  0.000000  0.796842  0.569344  1
  Co  Co20  1  0.500000  0.879145  0.709218  1
  Co  Co21  1  0.500000  0.120855  0.709218  1
  Co  Co22  1  0.000000  0.620820  0.290812  1
  Co  Co23  1  0.000000  0.379180  0.290812  1
  P  P24  1  0.500000  0.500000  0.882354  1
  P  P25  1  0.000000  0.000000  0.117484  1
  P  P26  1  0.500000  0.500000  0.342281  1
  P  P27  1  0.000000  0.000000  0.657697  1
  P  P28  1  0.500000  0.309932  0.616029  1
  P  P29  1  0.500000  0.690068  0.616029  1
  P  P30  1  0.000000  0.190134  0.384073  1
  P  P31  1  0.000000  0.809866  0.384073  1
  P  P32  1  0.500000  0.847672  0.892922  1
  P  P33  1  0.500000  0.152328  0.892922  1
  P  P34  1  0.000000  0.652250  0.107045  1
  P  P35  1  0.000000  0.347750  0.107045  1
