# generated using pymatgen
data_Rb2LaCeF8
_symmetry_space_group_name_H-M   'P 1'
_cell_length_a   3.86461600
_cell_length_b   6.52750005
_cell_length_c   16.41885305
_cell_angle_alpha   89.98838175
_cell_angle_beta   90.00000000
_cell_angle_gamma   90.00000000
_symmetry_Int_Tables_number   1
_chemical_formula_structural   Rb2LaCeF8
_chemical_formula_sum   'Rb4 La2 Ce2 F16'
_cell_volume   414.18659443
_cell_formula_units_Z   2
loop_
 _symmetry_equiv_pos_site_id
 _symmetry_equiv_pos_as_xyz
  1  'x, y, z'
loop_
 _atom_site_type_symbol
 _atom_site_label
 _atom_site_symmetry_multiplicity
 _atom_site_fract_x
 _atom_site_fract_y
 _atom_site_fract_z
 _atom_site_occupancy
  Rb  Rb0  1  0.250000  0.723204  0.698933  1
  Rb  Rb1  1  0.750000  0.276796  0.301067  1
  Rb  Rb2  1  0.750000  0.777092  0.200588  1
  Rb  Rb3  1  0.250000  0.222908  0.799412  1
  La  La4  1  0.250000  0.251951  0.058467  1
  La  La5  1  0.750000  0.748049  0.941533  1
  Ce  Ce6  1  0.750000  0.247960  0.558583  1
  Ce  Ce7  1  0.250000  0.752040  0.441417  1
  F  F8  1  0.250000  0.609095  0.869549  1
  F  F9  1  0.750000  0.390905  0.130451  1
  F  F10  1  0.750000  0.888256  0.370979  1
  F  F11  1  0.250000  0.111744  0.629021  1
  F  F12  1  0.250000  0.632334  0.036410  1
  F  F13  1  0.750000  0.367666  0.963590  1
  F  F14  1  0.750000  0.870018  0.536720  1
  F  F15  1  0.250000  0.129982  0.463280  1
  F  F16  1  0.250000  0.498608  0.554719  1
  F  F17  1  0.750000  0.501392  0.445281  1
  F  F18  1  0.750000  0.999580  0.055639  1
  F  F19  1  0.250000  0.000420  0.944361  1
  F  F20  1  0.250000  0.597198  0.314473  1
  F  F21  1  0.750000  0.402802  0.685527  1
  F  F22  1  0.750000  0.903544  0.812952  1
  F  F23  1  0.250000  0.096456  0.187048  1
