# generated using pymatgen
data_Ho2CdNiAg
_symmetry_space_group_name_H-M   'P 1'
_cell_length_a   7.72059981
_cell_length_b   7.72059947
_cell_length_c   3.65349400
_cell_angle_alpha   90.00000000
_cell_angle_beta   90.00000000
_cell_angle_gamma   88.09075280
_symmetry_Int_Tables_number   1
_chemical_formula_structural   Ho2CdNiAg
_chemical_formula_sum   'Ho4 Cd2 Ni2 Ag2'
_cell_volume   217.65532564
_cell_formula_units_Z   2
loop_
 _symmetry_equiv_pos_site_id
 _symmetry_equiv_pos_as_xyz
  1  'x, y, z'
loop_
 _atom_site_type_symbol
 _atom_site_label
 _atom_site_symmetry_multiplicity
 _atom_site_fract_x
 _atom_site_fract_y
 _atom_site_fract_z
 _atom_site_occupancy
  Ho  Ho0  1  0.656181  0.156181  0.500000  1
  Ho  Ho1  1  0.343819  0.843819  0.500000  1
  Ho  Ho2  1  0.195193  0.304807  0.500000  1
  Ho  Ho3  1  0.804807  0.695193  0.500000  1
  Cd  Cd4  1  0.000000  0.000000  0.000000  1
  Cd  Cd5  1  0.500000  0.500000  0.000000  1
  Ni  Ni6  1  0.618073  0.881927  0.000000  1
  Ni  Ni7  1  0.381927  0.118073  0.000000  1
  Ag  Ag8  1  0.126739  0.626739  0.000000  1
  Ag  Ag9  1  0.873261  0.373261  0.000000  1
