# generated using pymatgen
data_Y4Tm3Cd(Co3Sn11)2
_symmetry_space_group_name_H-M   'P 1'
_cell_length_a   9.65500700
_cell_length_b   9.65500783
_cell_length_c   10.00662600
_cell_angle_alpha   90.00000000
_cell_angle_beta   90.00000000
_cell_angle_gamma   120.00000060
_symmetry_Int_Tables_number   1
_chemical_formula_structural   Y4Tm3Cd(Co3Sn11)2
_chemical_formula_sum   'Y4 Tm3 Cd1 Co6 Sn22'
_cell_volume   807.83659049
_cell_formula_units_Z   1
loop_
 _symmetry_equiv_pos_site_id
 _symmetry_equiv_pos_as_xyz
  1  'x, y, z'
loop_
 _atom_site_type_symbol
 _atom_site_label
 _atom_site_symmetry_multiplicity
 _atom_site_fract_x
 _atom_site_fract_y
 _atom_site_fract_z
 _atom_site_occupancy
  Y  Y0  1  0.000000  0.000000  0.000444  1
  Y  Y1  1  0.956145  0.478072  0.693098  1
  Y  Y2  1  0.521928  0.043855  0.693098  1
  Y  Y3  1  0.521928  0.478072  0.693098  1
  Tm  Tm4  1  0.041797  0.520899  0.305873  1
  Tm  Tm5  1  0.479101  0.958203  0.305873  1
  Tm  Tm6  1  0.479101  0.520899  0.305873  1
  Cd  Cd7  1  0.000000  0.000000  0.499749  1
  Co  Co8  1  0.167870  0.832130  0.803799  1
  Co  Co9  1  0.664259  0.832130  0.803799  1
  Co  Co10  1  0.167870  0.335741  0.803799  1
  Co  Co11  1  0.831717  0.168283  0.197078  1
  Co  Co12  1  0.336566  0.168283  0.197078  1
  Co  Co13  1  0.831717  0.663434  0.197078  1
  Sn  Sn14  1  0.116934  0.883066  0.271605  1
  Sn  Sn15  1  0.766132  0.883066  0.271605  1
  Sn  Sn16  1  0.116934  0.233868  0.271605  1
  Sn  Sn17  1  0.883768  0.116232  0.728982  1
  Sn  Sn18  1  0.232465  0.116232  0.728982  1
  Sn  Sn19  1  0.883768  0.767535  0.728982  1
  Sn  Sn20  1  0.346218  0.000004  0.000305  1
  Sn  Sn21  1  0.653786  0.653782  0.000305  1
  Sn  Sn22  1  0.999996  0.346214  0.000305  1
  Sn  Sn23  1  0.346218  0.346214  0.000305  1
  Sn  Sn24  1  0.999996  0.653782  0.000305  1
  Sn  Sn25  1  0.653786  0.000004  0.000305  1
  Sn  Sn26  1  0.782291  0.564582  0.451343  1
  Sn  Sn27  1  0.782291  0.217709  0.451343  1
  Sn  Sn28  1  0.435418  0.217709  0.451343  1
  Sn  Sn29  1  0.217758  0.435516  0.546351  1
  Sn  Sn30  1  0.217758  0.782242  0.546351  1
  Sn  Sn31  1  0.564484  0.782242  0.546351  1
  Sn  Sn32  1  0.666667  0.333333  0.181928  1
  Sn  Sn33  1  0.333333  0.666667  0.818132  1
  Sn  Sn34  1  0.666667  0.333333  0.883347  1
  Sn  Sn35  1  0.333333  0.666667  0.120182  1
