# generated using pymatgen
data_YbPa3(InNi2)2
_symmetry_space_group_name_H-M   'P 1'
_cell_length_a   7.47360500
_cell_length_b   7.47360482
_cell_length_c   3.52880100
_cell_angle_alpha   90.00000000
_cell_angle_beta   90.00000000
_cell_angle_gamma   91.50549743
_symmetry_Int_Tables_number   1
_chemical_formula_structural   YbPa3(InNi2)2
_chemical_formula_sum   'Yb1 Pa3 In2 Ni4'
_cell_volume   197.03233222
_cell_formula_units_Z   1
loop_
 _symmetry_equiv_pos_site_id
 _symmetry_equiv_pos_as_xyz
  1  'x, y, z'
loop_
 _atom_site_type_symbol
 _atom_site_label
 _atom_site_symmetry_multiplicity
 _atom_site_fract_x
 _atom_site_fract_y
 _atom_site_fract_z
 _atom_site_occupancy
  Yb  Yb0  1  0.827781  0.672219  0.500000  1
  Pa  Pa1  1  0.674732  0.172517  0.500000  1
  Pa  Pa2  1  0.327483  0.825268  0.500000  1
  Pa  Pa3  1  0.170152  0.329848  0.500000  1
  In  In4  1  0.508630  0.503879  0.000000  1
  In  In5  1  0.996121  0.991370  0.000000  1
  Ni  Ni6  1  0.141447  0.618420  0.000000  1
  Ni  Ni7  1  0.881580  0.358553  0.000000  1
  Ni  Ni8  1  0.606240  0.893760  0.000000  1
  Ni  Ni9  1  0.365835  0.134165  0.000000  1
