# generated using pymatgen
data_Li2Ac3In4
_symmetry_space_group_name_H-M   'P 1'
_cell_length_a   7.95527584
_cell_length_b   7.99863362
_cell_length_c   5.01550200
_cell_angle_alpha   90.00000000
_cell_angle_beta   90.00000000
_cell_angle_gamma   120.18046961
_symmetry_Int_Tables_number   1
_chemical_formula_structural   Li2Ac3In4
_chemical_formula_sum   'Li2 Ac3 In4'
_cell_volume   275.88204257
_cell_formula_units_Z   1
loop_
 _symmetry_equiv_pos_site_id
 _symmetry_equiv_pos_as_xyz
  1  'x, y, z'
loop_
 _atom_site_type_symbol
 _atom_site_label
 _atom_site_symmetry_multiplicity
 _atom_site_fract_x
 _atom_site_fract_y
 _atom_site_fract_z
 _atom_site_occupancy
  Li  Li0  1  0.771237  0.772807  0.500000  1
  Li  Li1  1  0.228763  0.001570  0.500000  1
  Ac  Ac2  1  0.000000  0.561479  0.000000  1
  Ac  Ac3  1  0.428877  0.431467  0.000000  1
  Ac  Ac4  1  0.571123  0.002590  0.000000  1
  In  In5  1  0.000000  0.232635  0.500000  1
  In  In6  1  0.661294  0.336155  0.500000  1
  In  In7  1  0.000000  0.986435  0.000000  1
  In  In8  1  0.338706  0.674862  0.500000  1
