# generated using pymatgen
data_Y8Sn(Pd7Pt)3
_symmetry_space_group_name_H-M   'P 1'
_cell_length_a   8.41848400
_cell_length_b   8.41196400
_cell_length_c   8.42984500
_cell_angle_alpha   90.00000000
_cell_angle_beta   90.00000000
_cell_angle_gamma   90.00000000
_symmetry_Int_Tables_number   1
_chemical_formula_structural   Y8Sn(Pd7Pt)3
_chemical_formula_sum   'Y8 Sn1 Pd21 Pt3'
_cell_volume   596.96777153
_cell_formula_units_Z   1
loop_
 _symmetry_equiv_pos_site_id
 _symmetry_equiv_pos_as_xyz
  1  'x, y, z'
loop_
 _atom_site_type_symbol
 _atom_site_label
 _atom_site_symmetry_multiplicity
 _atom_site_fract_x
 _atom_site_fract_y
 _atom_site_fract_z
 _atom_site_occupancy
  Y  Y0  1  0.746771  0.746754  0.252692  1
  Y  Y1  1  0.746771  0.253246  0.747308  1
  Y  Y2  1  0.253197  0.746392  0.746836  1
  Y  Y3  1  0.746771  0.746754  0.747308  1
  Y  Y4  1  0.746771  0.253246  0.252692  1
  Y  Y5  1  0.253197  0.253608  0.746836  1
  Y  Y6  1  0.253197  0.746392  0.253164  1
  Y  Y7  1  0.253197  0.253608  0.253164  1
  Sn  Sn8  1  0.000218  0.000000  0.000000  1
  Pd  Pd9  1  0.999902  0.000000  0.307717  1
  Pd  Pd10  1  0.735086  0.000000  0.500000  1
  Pd  Pd11  1  0.734708  0.500000  0.000000  1
  Pd  Pd12  1  0.500071  0.000000  0.734927  1
  Pd  Pd13  1  0.000030  0.735147  0.500000  1
  Pd  Pd14  1  0.500071  0.000000  0.265073  1
  Pd  Pd15  1  0.000030  0.264853  0.500000  1
  Pd  Pd16  1  0.500069  0.735029  0.000000  1
  Pd  Pd17  1  0.500102  0.254785  0.500000  1
  Pd  Pd18  1  0.500102  0.745215  0.500000  1
  Pd  Pd19  1  0.745022  0.500000  0.500000  1
  Pd  Pd20  1  0.307937  0.000000  0.000000  1
  Pd  Pd21  1  0.999902  0.000000  0.692283  1
  Pd  Pd22  1  0.000099  0.500000  0.265248  1
  Pd  Pd23  1  0.999913  0.307878  0.000000  1
  Pd  Pd24  1  0.999913  0.692122  0.000000  1
  Pd  Pd25  1  0.692332  0.000000  0.000000  1
  Pd  Pd26  1  0.265078  0.500000  0.000000  1
  Pd  Pd27  1  0.264884  0.000000  0.500000  1
  Pd  Pd28  1  0.000099  0.500000  0.734752  1
  Pd  Pd29  1  0.500069  0.264971  0.000000  1
  Pt  Pt30  1  0.254638  0.500000  0.500000  1
  Pt  Pt31  1  0.499929  0.500000  0.745398  1
  Pt  Pt32  1  0.499929  0.500000  0.254602  1
