# generated using pymatgen
data_Ba2DyThTe8
_symmetry_space_group_name_H-M   'P 1'
_cell_length_a   8.77249731
_cell_length_b   8.77249673
_cell_length_c   10.59490597
_cell_angle_alpha   53.85089912
_cell_angle_beta   53.85090352
_cell_angle_gamma   42.78310566
_symmetry_Int_Tables_number   1
_chemical_formula_structural   Ba2DyThTe8
_chemical_formula_sum   'Ba2 Dy1 Th1 Te8'
_cell_volume   428.48797078
_cell_formula_units_Z   1
loop_
 _symmetry_equiv_pos_site_id
 _symmetry_equiv_pos_as_xyz
  1  'x, y, z'
loop_
 _atom_site_type_symbol
 _atom_site_label
 _atom_site_symmetry_multiplicity
 _atom_site_fract_x
 _atom_site_fract_y
 _atom_site_fract_z
 _atom_site_occupancy
  Ba  Ba0  1  0.901074  0.901074  0.306676  1
  Ba  Ba1  1  0.100139  0.100139  0.693268  1
  Dy  Dy2  1  0.638069  0.638069  0.226346  1
  Th  Th3  1  0.361995  0.361995  0.773593  1
  Te  Te4  1  0.103932  0.606576  0.046637  1
  Te  Te5  1  0.394180  0.892184  0.955030  1
  Te  Te6  1  0.892184  0.394180  0.955030  1
  Te  Te7  1  0.606576  0.103932  0.046637  1
  Te  Te8  1  0.101286  0.101286  0.348438  1
  Te  Te9  1  0.899074  0.899074  0.651829  1
  Te  Te10  1  0.612146  0.612146  0.549583  1
  Te  Te11  1  0.389346  0.389346  0.446933  1
