# generated using pymatgen
data_Er4ReTc3Ru4
_symmetry_space_group_name_H-M   'P 1'
_cell_length_a   5.19696411
_cell_length_b   5.42050709
_cell_length_c   9.01730800
_cell_angle_alpha   90.00000000
_cell_angle_beta   90.00000000
_cell_angle_gamma   121.43340126
_symmetry_Int_Tables_number   1
_chemical_formula_structural   Er4ReTc3Ru4
_chemical_formula_sum   'Er4 Re1 Tc3 Ru4'
_cell_volume   216.74109803
_cell_formula_units_Z   1
loop_
 _symmetry_equiv_pos_site_id
 _symmetry_equiv_pos_as_xyz
  1  'x, y, z'
loop_
 _atom_site_type_symbol
 _atom_site_label
 _atom_site_symmetry_multiplicity
 _atom_site_fract_x
 _atom_site_fract_y
 _atom_site_fract_z
 _atom_site_occupancy
  Er  Er0  1  0.334178  0.667090  0.436299  1
  Er  Er1  1  0.656967  0.328483  0.566475  1
  Er  Er2  1  0.656967  0.328483  0.933525  1
  Er  Er3  1  0.334178  0.667090  0.063701  1
  Re  Re4  1  0.676608  0.838305  0.750000  1
  Tc  Tc5  1  0.831090  0.170695  0.250000  1
  Tc  Tc6  1  0.831090  0.660394  0.250000  1
  Tc  Tc7  1  0.351941  0.175970  0.250000  1
  Ru  Ru8  1  0.981265  0.990632  0.502117  1
  Ru  Ru9  1  0.981265  0.990632  0.997883  1
  Ru  Ru10  1  0.182225  0.829811  0.750000  1
  Ru  Ru11  1  0.182225  0.352414  0.750000  1
