# generated using pymatgen
data_Tb3TmC7
_symmetry_space_group_name_H-M   'P 1'
_cell_length_a   13.77862187
_cell_length_b   3.71194061
_cell_length_c   6.48053176
_cell_angle_alpha   74.85917450
_cell_angle_beta   90.51550639
_cell_angle_gamma   90.59831826
_symmetry_Int_Tables_number   1
_chemical_formula_structural   Tb3TmC7
_chemical_formula_sum   'Tb6 Tm2 C14'
_cell_volume   319.91967879
_cell_formula_units_Z   2
loop_
 _symmetry_equiv_pos_site_id
 _symmetry_equiv_pos_as_xyz
  1  'x, y, z'
loop_
 _atom_site_type_symbol
 _atom_site_label
 _atom_site_symmetry_multiplicity
 _atom_site_fract_x
 _atom_site_fract_y
 _atom_site_fract_z
 _atom_site_occupancy
  Tb  Tb0  1  0.835537  0.052553  0.835558  1
  Tb  Tb1  1  0.164463  0.947447  0.164442  1
  Tb  Tb2  1  0.055636  0.634684  0.739414  1
  Tb  Tb3  1  0.944364  0.365316  0.260586  1
  Tb  Tb4  1  0.556567  0.370109  0.762047  1
  Tb  Tb5  1  0.443433  0.629891  0.237953  1
  Tm  Tm6  1  0.340773  0.939081  0.660078  1
  Tm  Tm7  1  0.659227  0.060919  0.339922  1
  C  C8  1  0.895797  0.733119  0.550125  1
  C  C9  1  0.104203  0.266881  0.449875  1
  C  C10  1  0.395464  0.264373  0.942925  1
  C  C11  1  0.604536  0.735627  0.057075  1
  C  C12  1  0.218765  0.545370  0.926309  1
  C  C13  1  0.781235  0.454630  0.073691  1
  C  C14  1  0.715390  0.476149  0.565217  1
  C  C15  1  0.284610  0.523851  0.434783  1
  C  C16  1  0.803452  0.628494  0.539156  1
  C  C17  1  0.196548  0.371506  0.460844  1
  C  C18  1  0.304629  0.382023  0.951107  1
  C  C19  1  0.695371  0.617977  0.048893  1
  C  C20  1  0.500000  0.000000  0.500000  1
  C  C21  1  0.000000  0.000000  0.000000  1
