# generated using pymatgen
data_Nd2Y3HoCoI10
_symmetry_space_group_name_H-M   'P 1'
_cell_length_a   7.76666056
_cell_length_b   9.77182536
_cell_length_c   9.73702127
_cell_angle_alpha   106.93927368
_cell_angle_beta   96.37963051
_cell_angle_gamma   105.17175612
_symmetry_Int_Tables_number   1
_chemical_formula_structural   Nd2Y3HoCoI10
_chemical_formula_sum   'Nd2 Y3 Ho1 Co1 I10'
_cell_volume   668.08749024
_cell_formula_units_Z   1
loop_
 _symmetry_equiv_pos_site_id
 _symmetry_equiv_pos_as_xyz
  1  'x, y, z'
loop_
 _atom_site_type_symbol
 _atom_site_label
 _atom_site_symmetry_multiplicity
 _atom_site_fract_x
 _atom_site_fract_y
 _atom_site_fract_z
 _atom_site_occupancy
  Nd  Nd0  1  0.887849  0.958473  0.231128  1
  Nd  Nd1  1  0.112094  0.041004  0.768687  1
  Y  Y2  1  0.970532  0.282087  0.084682  1
  Y  Y3  1  0.656335  0.876607  0.836960  1
  Y  Y4  1  0.343787  0.123087  0.163044  1
  Ho  Ho5  1  0.028973  0.719276  0.915496  1
  Co  Co6  1  0.999973  0.999251  0.999756  1
  I  I7  1  0.650956  0.551272  0.729633  1
  I  I8  1  0.350360  0.448905  0.270894  1
  I  I9  1  0.733928  0.910329  0.540499  1
  I  I10  1  0.266025  0.089844  0.459558  1
  I  I11  1  0.084161  0.376759  0.822342  1
  I  I12  1  0.916008  0.623600  0.177079  1
  I  I13  1  0.448670  0.815594  0.090267  1
  I  I14  1  0.550766  0.184249  0.909400  1
  I  I15  1  0.223152  0.738528  0.656279  1
  I  I16  1  0.776432  0.261134  0.344297  1
