# generated using pymatgen
data_Pu4Ga5Ni9
_symmetry_space_group_name_H-M   'P 1'
_cell_length_a   5.26538353
_cell_length_b   5.26538274
_cell_length_c   12.10641137
_cell_angle_alpha   77.43995514
_cell_angle_beta   77.43995835
_cell_angle_gamma   59.99999020
_symmetry_Int_Tables_number   1
_chemical_formula_structural   Pu4Ga5Ni9
_chemical_formula_sum   'Pu4 Ga5 Ni9'
_cell_volume   281.36068551
_cell_formula_units_Z   1
loop_
 _symmetry_equiv_pos_site_id
 _symmetry_equiv_pos_as_xyz
  1  'x, y, z'
loop_
 _atom_site_type_symbol
 _atom_site_label
 _atom_site_symmetry_multiplicity
 _atom_site_fract_x
 _atom_site_fract_y
 _atom_site_fract_z
 _atom_site_occupancy
  Pu  Pu0  1  0.952222  0.952222  0.143336  1
  Pu  Pu1  1  0.047778  0.047778  0.856664  1
  Pu  Pu2  1  0.854666  0.854666  0.436002  1
  Pu  Pu3  1  0.145334  0.145334  0.563998  1
  Ga  Ga4  1  0.500000  0.500000  0.500000  1
  Ga  Ga5  1  0.722601  0.722601  0.832198  1
  Ga  Ga6  1  0.277399  0.277399  0.167802  1
  Ga  Ga7  1  0.610810  0.610810  0.167571  1
  Ga  Ga8  1  0.389190  0.389190  0.832429  1
  Ni  Ni9  1  0.000000  0.500000  0.000000  1
  Ni  Ni10  1  0.500000  0.000000  0.000000  1
  Ni  Ni11  1  0.500000  0.500000  0.000000  1
  Ni  Ni12  1  0.387204  0.387204  0.332399  1
  Ni  Ni13  1  0.893191  0.387204  0.332399  1
  Ni  Ni14  1  0.387204  0.893191  0.332399  1
  Ni  Ni15  1  0.612796  0.612796  0.667601  1
  Ni  Ni16  1  0.106809  0.612796  0.667601  1
  Ni  Ni17  1  0.612796  0.106809  0.667601  1
