# generated using pymatgen
data_Nb10ZnPt4
_symmetry_space_group_name_H-M   'P 1'
_cell_length_a   9.98201300
_cell_length_b   9.98201300
_cell_length_c   5.19798600
_cell_angle_alpha   90.00000000
_cell_angle_beta   90.00000000
_cell_angle_gamma   90.00000000
_symmetry_Int_Tables_number   1
_chemical_formula_structural   Nb10ZnPt4
_chemical_formula_sum   'Nb20 Zn2 Pt8'
_cell_volume   517.93035823
_cell_formula_units_Z   2
loop_
 _symmetry_equiv_pos_site_id
 _symmetry_equiv_pos_as_xyz
  1  'x, y, z'
loop_
 _atom_site_type_symbol
 _atom_site_label
 _atom_site_symmetry_multiplicity
 _atom_site_fract_x
 _atom_site_fract_y
 _atom_site_fract_z
 _atom_site_occupancy
  Nb  Nb0  1  0.396012  0.396012  0.000000  1
  Nb  Nb1  1  0.896012  0.103988  0.500000  1
  Nb  Nb2  1  0.103988  0.896012  0.500000  1
  Nb  Nb3  1  0.603988  0.603988  0.000000  1
  Nb  Nb4  1  0.127171  0.464328  0.000000  1
  Nb  Nb5  1  0.964328  0.372829  0.500000  1
  Nb  Nb6  1  0.035672  0.627171  0.500000  1
  Nb  Nb7  1  0.872829  0.535672  0.000000  1
  Nb  Nb8  1  0.372829  0.964328  0.500000  1
  Nb  Nb9  1  0.627171  0.035672  0.500000  1
  Nb  Nb10  1  0.464328  0.127171  0.000000  1
  Nb  Nb11  1  0.535672  0.872829  0.000000  1
  Nb  Nb12  1  0.181752  0.181752  0.252758  1
  Nb  Nb13  1  0.681752  0.318248  0.752758  1
  Nb  Nb14  1  0.318248  0.681752  0.752758  1
  Nb  Nb15  1  0.818248  0.818248  0.252758  1
  Nb  Nb16  1  0.318248  0.681752  0.247242  1
  Nb  Nb17  1  0.681752  0.318248  0.247242  1
  Nb  Nb18  1  0.181752  0.181752  0.747242  1
  Nb  Nb19  1  0.818248  0.818248  0.747242  1
  Zn  Zn20  1  0.000000  0.000000  0.000000  1
  Zn  Zn21  1  0.500000  0.500000  0.500000  1
  Pt  Pt22  1  0.262847  0.936863  0.000000  1
  Pt  Pt23  1  0.436863  0.237153  0.500000  1
  Pt  Pt24  1  0.563137  0.762847  0.500000  1
  Pt  Pt25  1  0.737153  0.063137  0.000000  1
  Pt  Pt26  1  0.237153  0.436863  0.500000  1
  Pt  Pt27  1  0.762847  0.563137  0.500000  1
  Pt  Pt28  1  0.936863  0.262847  0.000000  1
  Pt  Pt29  1  0.063137  0.737153  0.000000  1
