# generated using pymatgen
data_LiTm4Al16ZnPd6
_symmetry_space_group_name_H-M   'P 1'
_cell_length_a   7.57804601
_cell_length_b   7.57804140
_cell_length_c   9.41620100
_cell_angle_alpha   90.00000000
_cell_angle_beta   90.00000000
_cell_angle_gamma   119.00329522
_symmetry_Int_Tables_number   1
_chemical_formula_structural   LiTm4Al16ZnPd6
_chemical_formula_sum   'Li1 Tm4 Al16 Zn1 Pd6'
_cell_volume   472.92834544
_cell_formula_units_Z   1
loop_
 _symmetry_equiv_pos_site_id
 _symmetry_equiv_pos_as_xyz
  1  'x, y, z'
loop_
 _atom_site_type_symbol
 _atom_site_label
 _atom_site_symmetry_multiplicity
 _atom_site_fract_x
 _atom_site_fract_y
 _atom_site_fract_z
 _atom_site_occupancy
  Li  Li0  1  0.132123  0.132122  0.250000  1
  Tm  Tm1  1  0.994854  0.667669  0.250000  1
  Tm  Tm2  1  0.006882  0.324888  0.750000  1
  Tm  Tm3  1  0.667669  0.994852  0.250000  1
  Tm  Tm4  1  0.324888  0.006881  0.750000  1
  Al  Al5  1  0.001176  0.329959  0.082664  1
  Al  Al6  1  0.999132  0.666569  0.921397  1
  Al  Al7  1  0.999132  0.666569  0.578603  1
  Al  Al8  1  0.329959  0.001176  0.417336  1
  Al  Al9  1  0.001176  0.329959  0.417336  1
  Al  Al10  1  0.666570  0.999132  0.578604  1
  Al  Al11  1  0.666570  0.999132  0.921396  1
  Al  Al12  1  0.329959  0.001176  0.082664  1
  Al  Al13  1  0.334143  0.334143  0.544917  1
  Al  Al14  1  0.672137  0.672137  0.442211  1
  Al  Al15  1  0.672137  0.672137  0.057789  1
  Al  Al16  1  0.334143  0.334143  0.955083  1
  Al  Al17  1  0.341751  0.545100  0.250000  1
  Al  Al18  1  0.657245  0.451438  0.750000  1
  Al  Al19  1  0.545100  0.341751  0.250000  1
  Al  Al20  1  0.451438  0.657246  0.750000  1
  Zn  Zn21  1  0.857819  0.857820  0.750000  1
  Pd  Pd22  1  0.676350  0.328435  0.000036  1
  Pd  Pd23  1  0.328435  0.676351  0.000035  1
  Pd  Pd24  1  0.328435  0.676351  0.499965  1
  Pd  Pd25  1  0.676350  0.328435  0.499964  1
  Pd  Pd26  1  0.002213  0.002214  0.998696  1
  Pd  Pd27  1  0.002213  0.002214  0.501304  1
