# generated using pymatgen
data_Hf18Cr2Re6GeIr
_symmetry_space_group_name_H-M   'P 1'
_cell_length_a   8.60668000
_cell_length_b   8.60667868
_cell_length_c   8.51292200
_cell_angle_alpha   90.00000000
_cell_angle_beta   90.00000000
_cell_angle_gamma   120.00000507
_symmetry_Int_Tables_number   1
_chemical_formula_structural   Hf18Cr2Re6GeIr
_chemical_formula_sum   'Hf18 Cr2 Re6 Ge1 Ir1'
_cell_volume   546.11047794
_cell_formula_units_Z   1
loop_
 _symmetry_equiv_pos_site_id
 _symmetry_equiv_pos_as_xyz
  1  'x, y, z'
loop_
 _atom_site_type_symbol
 _atom_site_label
 _atom_site_symmetry_multiplicity
 _atom_site_fract_x
 _atom_site_fract_y
 _atom_site_fract_z
 _atom_site_occupancy
  Hf  Hf0  1  0.195451  0.804549  0.447433  1
  Hf  Hf1  1  0.195451  0.390900  0.447433  1
  Hf  Hf2  1  0.609100  0.804549  0.447433  1
  Hf  Hf3  1  0.809416  0.190584  0.547924  1
  Hf  Hf4  1  0.809416  0.618831  0.547924  1
  Hf  Hf5  1  0.381169  0.190584  0.547924  1
  Hf  Hf6  1  0.809416  0.190584  0.952076  1
  Hf  Hf7  1  0.809416  0.618831  0.952076  1
  Hf  Hf8  1  0.381169  0.190584  0.952076  1
  Hf  Hf9  1  0.195451  0.804549  0.052567  1
  Hf  Hf10  1  0.195451  0.390900  0.052567  1
  Hf  Hf11  1  0.609100  0.804549  0.052567  1
  Hf  Hf12  1  0.541730  0.458270  0.250000  1
  Hf  Hf13  1  0.541730  0.083459  0.250000  1
  Hf  Hf14  1  0.916541  0.458270  0.250000  1
  Hf  Hf15  1  0.459660  0.540340  0.750000  1
  Hf  Hf16  1  0.459660  0.919320  0.750000  1
  Hf  Hf17  1  0.080680  0.540340  0.750000  1
  Cr  Cr18  1  0.000000  0.000000  0.498839  1
  Cr  Cr19  1  0.000000  0.000000  0.001161  1
  Re  Re20  1  0.892084  0.107916  0.250000  1
  Re  Re21  1  0.892084  0.784171  0.250000  1
  Re  Re22  1  0.215829  0.107916  0.250000  1
  Re  Re23  1  0.107680  0.892320  0.750000  1
  Re  Re24  1  0.107680  0.215359  0.750000  1
  Re  Re25  1  0.784641  0.892320  0.750000  1
  Ge  Ge26  1  0.666667  0.333333  0.750000  1
  Ir  Ir27  1  0.333333  0.666667  0.250000  1
