# generated using pymatgen
data_Sr2B2PdPt7
_symmetry_space_group_name_H-M   'P 1'
_cell_length_a   5.59658700
_cell_length_b   6.15217100
_cell_length_c   11.99288200
_cell_angle_alpha   90.00000000
_cell_angle_beta   90.00000000
_cell_angle_gamma   90.00000000
_symmetry_Int_Tables_number   1
_chemical_formula_structural   Sr2B2PdPt7
_chemical_formula_sum   'Sr4 B4 Pd2 Pt14'
_cell_volume   412.92884189
_cell_formula_units_Z   2
loop_
 _symmetry_equiv_pos_site_id
 _symmetry_equiv_pos_as_xyz
  1  'x, y, z'
loop_
 _atom_site_type_symbol
 _atom_site_label
 _atom_site_symmetry_multiplicity
 _atom_site_fract_x
 _atom_site_fract_y
 _atom_site_fract_z
 _atom_site_occupancy
  Sr  Sr0  1  0.750000  0.313795  0.162670  1
  Sr  Sr1  1  0.750000  0.813795  0.337330  1
  Sr  Sr2  1  0.250000  0.686394  0.837339  1
  Sr  Sr3  1  0.250000  0.186394  0.662661  1
  B  B4  1  0.750000  0.402919  0.550071  1
  B  B5  1  0.750000  0.902919  0.949929  1
  B  B6  1  0.250000  0.594144  0.450266  1
  B  B7  1  0.250000  0.094144  0.049734  1
  Pd  Pd8  1  0.250000  0.937949  0.442617  1
  Pd  Pd9  1  0.250000  0.437949  0.057383  1
  Pt  Pt10  1  0.750000  0.387939  0.736364  1
  Pt  Pt11  1  0.750000  0.887939  0.763636  1
  Pt  Pt12  1  0.250000  0.611512  0.266009  1
  Pt  Pt13  1  0.250000  0.111512  0.233991  1
  Pt  Pt14  1  0.750000  0.065437  0.559049  1
  Pt  Pt15  1  0.750000  0.565437  0.940951  1
  Pt  Pt16  1  0.996765  0.167148  0.913588  1
  Pt  Pt17  1  0.503235  0.667148  0.586412  1
  Pt  Pt18  1  0.497146  0.832808  0.089125  1
  Pt  Pt19  1  0.002854  0.332808  0.410875  1
  Pt  Pt20  1  0.002854  0.832808  0.089125  1
  Pt  Pt21  1  0.497146  0.332808  0.410875  1
  Pt  Pt22  1  0.503235  0.167148  0.913588  1
  Pt  Pt23  1  0.996765  0.667148  0.586412  1
