# generated using pymatgen
data_La9YC4I15
_symmetry_space_group_name_H-M   'P 1'
_cell_length_a   9.90862902
_cell_length_b   10.83560220
_cell_length_c   11.91049186
_cell_angle_alpha   93.69824328
_cell_angle_beta   114.19866383
_cell_angle_gamma   109.50908189
_symmetry_Int_Tables_number   1
_chemical_formula_structural   La9YC4I15
_chemical_formula_sum   'La9 Y1 C4 I15'
_cell_volume   1068.86094128
_cell_formula_units_Z   1
loop_
 _symmetry_equiv_pos_site_id
 _symmetry_equiv_pos_as_xyz
  1  'x, y, z'
loop_
 _atom_site_type_symbol
 _atom_site_label
 _atom_site_symmetry_multiplicity
 _atom_site_fract_x
 _atom_site_fract_y
 _atom_site_fract_z
 _atom_site_occupancy
  La  La0  1  0.343324  0.745740  0.165034  1
  La  La1  1  0.778989  0.884084  0.258804  1
  La  La2  1  0.529017  0.187576  0.103661  1
  La  La3  1  0.221448  0.114744  0.742625  1
  La  La4  1  0.402806  0.458876  0.657072  1
  La  La5  1  0.472319  0.812651  0.897916  1
  La  La6  1  0.705567  0.566955  0.044547  1
  La  La7  1  0.294605  0.432162  0.955828  1
  La  La8  1  0.656725  0.255029  0.832544  1
  Y  Y9  1  0.593507  0.545349  0.333489  1
  C  C10  1  0.482364  0.300363  0.937252  1
  C  C11  1  0.518264  0.698386  0.062869  1
  C  C12  1  0.452775  0.361567  0.833635  1
  C  C13  1  0.546589  0.636974  0.165746  1
  I  I14  1  0.206590  0.906737  0.937813  1
  I  I15  1  0.102214  0.185746  0.466685  1
  I  I16  1  0.150261  0.554343  0.703739  1
  I  I17  1  0.404104  0.967163  0.646235  1
  I  I18  1  0.716338  0.734112  0.822354  1
  I  I19  1  0.296948  0.275665  0.187500  1
  I  I20  1  0.840180  0.449553  0.303061  1
  I  I21  1  0.883650  0.799040  0.527429  1
  I  I22  1  0.369512  0.626789  0.412585  1
  I  I23  1  0.056969  0.832834  0.221941  1
  I  I24  1  0.794335  0.095653  0.062840  1
  I  I25  1  0.641855  0.375030  0.582291  1
  I  I26  1  0.944027  0.166108  0.779415  1
  I  I27  1  0.594721  0.031304  0.354001  1
  I  I28  1  0.999995  0.499464  0.001090  1
