# generated using pymatgen
data_Ta3Be2Fe3Co2
_symmetry_space_group_name_H-M   'P 1'
_cell_length_a   8.81030536
_cell_length_b   8.76634031
_cell_length_c   3.08778000
_cell_angle_alpha   90.00000000
_cell_angle_beta   90.00000000
_cell_angle_gamma   90.13754240
_symmetry_Int_Tables_number   1
_chemical_formula_structural   Ta3Be2Fe3Co2
_chemical_formula_sum   'Ta6 Be4 Fe6 Co4'
_cell_volume   238.48133004
_cell_formula_units_Z   2
loop_
 _symmetry_equiv_pos_site_id
 _symmetry_equiv_pos_as_xyz
  1  'x, y, z'
loop_
 _atom_site_type_symbol
 _atom_site_label
 _atom_site_symmetry_multiplicity
 _atom_site_fract_x
 _atom_site_fract_y
 _atom_site_fract_z
 _atom_site_occupancy
  Ta  Ta0  1  0.500000  0.500000  0.000000  1
  Ta  Ta1  1  0.000000  0.000000  0.000000  1
  Ta  Ta2  1  0.820954  0.324527  0.000000  1
  Ta  Ta3  1  0.179046  0.675473  0.000000  1
  Ta  Ta4  1  0.325722  0.177537  0.000000  1
  Ta  Ta5  1  0.674278  0.822463  0.000000  1
  Be  Be6  1  0.617334  0.115666  0.000000  1
  Be  Be7  1  0.382666  0.884334  0.000000  1
  Be  Be8  1  0.115121  0.380950  0.000000  1
  Be  Be9  1  0.884879  0.619050  0.000000  1
  Fe  Fe10  1  0.718493  0.570668  0.500000  1
  Fe  Fe11  1  0.281507  0.429332  0.500000  1
  Fe  Fe12  1  0.215724  0.933182  0.500000  1
  Fe  Fe13  1  0.784276  0.066818  0.500000  1
  Fe  Fe14  1  0.430163  0.717172  0.500000  1
  Fe  Fe15  1  0.569837  0.282828  0.500000  1
  Co  Co16  1  0.500000  0.000000  0.500000  1
  Co  Co17  1  0.000000  0.500000  0.500000  1
  Co  Co18  1  0.067223  0.217530  0.500000  1
  Co  Co19  1  0.932777  0.782470  0.500000  1
