# generated using pymatgen
data_La2Lu3InIr18
_symmetry_space_group_name_H-M   'P 1'
_cell_length_a   9.00789580
_cell_length_b   9.00789580
_cell_length_c   5.20466000
_cell_angle_alpha   90.00000000
_cell_angle_beta   90.00000000
_cell_angle_gamma   89.71529847
_symmetry_Int_Tables_number   1
_chemical_formula_structural   La2Lu3InIr18
_chemical_formula_sum   'La2 Lu3 In1 Ir18'
_cell_volume   422.31228014
_cell_formula_units_Z   1
loop_
 _symmetry_equiv_pos_site_id
 _symmetry_equiv_pos_as_xyz
  1  'x, y, z'
loop_
 _atom_site_type_symbol
 _atom_site_label
 _atom_site_symmetry_multiplicity
 _atom_site_fract_x
 _atom_site_fract_y
 _atom_site_fract_z
 _atom_site_occupancy
  La  La0  1  0.503783  0.500492  0.000000  1
  La  La1  1  0.999508  0.996217  0.000000  1
  Lu  Lu2  1  0.621533  0.121040  0.000000  1
  Lu  Lu3  1  0.378960  0.878467  0.000000  1
  Lu  Lu4  1  0.118642  0.381358  0.000000  1
  In  In5  1  0.878341  0.621659  0.000000  1
  Ir  Ir6  1  0.501272  0.998728  0.500000  1
  Ir  Ir7  1  0.999180  0.500820  0.500000  1
  Ir  Ir8  1  0.702563  0.556105  0.500000  1
  Ir  Ir9  1  0.294333  0.442208  0.500000  1
  Ir  Ir10  1  0.206073  0.942782  0.500000  1
  Ir  Ir11  1  0.794438  0.058798  0.500000  1
  Ir  Ir12  1  0.441202  0.705562  0.500000  1
  Ir  Ir13  1  0.557218  0.293927  0.500000  1
  Ir  Ir14  1  0.057792  0.205667  0.500000  1
  Ir  Ir15  1  0.943895  0.797437  0.500000  1
  Ir  Ir16  1  0.820359  0.321039  0.755638  1
  Ir  Ir17  1  0.178961  0.679641  0.755638  1
  Ir  Ir18  1  0.320545  0.179455  0.755142  1
  Ir  Ir19  1  0.680769  0.819231  0.756768  1
  Ir  Ir20  1  0.178961  0.679641  0.244362  1
  Ir  Ir21  1  0.820359  0.321039  0.244362  1
  Ir  Ir22  1  0.680769  0.819231  0.243232  1
  Ir  Ir23  1  0.320545  0.179455  0.244858  1
