# generated using pymatgen
data_Sr9YbSi10O
_symmetry_space_group_name_H-M   'P 1'
_cell_length_a   11.25685110
_cell_length_b   11.25685077
_cell_length_c   11.25684942
_cell_angle_alpha   155.47647279
_cell_angle_beta   110.55925501
_cell_angle_gamma   74.87256390
_symmetry_Int_Tables_number   1
_chemical_formula_structural   Sr9YbSi10O
_chemical_formula_sum   'Sr9 Yb1 Si10 O1'
_cell_volume   548.03229207
_cell_formula_units_Z   1
loop_
 _symmetry_equiv_pos_site_id
 _symmetry_equiv_pos_as_xyz
  1  'x, y, z'
loop_
 _atom_site_type_symbol
 _atom_site_label
 _atom_site_symmetry_multiplicity
 _atom_site_fract_x
 _atom_site_fract_y
 _atom_site_fract_z
 _atom_site_occupancy
  Sr  Sr0  1  0.847852  0.847852  0.000000  1
  Sr  Sr1  1  0.196109  0.000000  0.196109  1
  Sr  Sr2  1  0.474416  0.810245  0.664170  1
  Sr  Sr3  1  0.853926  0.189755  0.664170  1
  Sr  Sr4  1  0.803891  0.000000  0.803891  1
  Sr  Sr5  1  0.152148  0.152148  0.000000  1
  Sr  Sr6  1  0.525584  0.189755  0.335830  1
  Sr  Sr7  1  0.500000  0.000000  0.500000  1
  Sr  Sr8  1  0.146074  0.810245  0.335830  1
  Yb  Yb9  1  0.000000  0.500000  0.500000  1
  Si  Si10  1  0.411810  0.567581  0.844230  1
  Si  Si11  1  0.276649  0.432419  0.844230  1
  Si  Si12  1  0.588190  0.432419  0.155770  1
  Si  Si13  1  0.723351  0.567581  0.155770  1
  Si  Si14  1  0.690863  0.370883  0.319980  1
  Si  Si15  1  0.641952  0.641952  0.000000  1
  Si  Si16  1  0.309137  0.629117  0.680020  1
  Si  Si17  1  0.358048  0.358048  0.000000  1
  Si  Si18  1  0.050903  0.370883  0.680020  1
  Si  Si19  1  0.949097  0.629117  0.319980  1
  O  O20  1  0.000000  0.000000  0.000000  1
