# generated using pymatgen
data_Er3Al3ZnGePt
_symmetry_space_group_name_H-M   'P 1'
_cell_length_a   6.95444200
_cell_length_b   6.95444162
_cell_length_c   4.22109200
_cell_angle_alpha   90.00000000
_cell_angle_beta   90.00000000
_cell_angle_gamma   120.00000182
_symmetry_Int_Tables_number   1
_chemical_formula_structural   Er3Al3ZnGePt
_chemical_formula_sum   'Er3 Al3 Zn1 Ge1 Pt1'
_cell_volume   176.79907832
_cell_formula_units_Z   1
loop_
 _symmetry_equiv_pos_site_id
 _symmetry_equiv_pos_as_xyz
  1  'x, y, z'
loop_
 _atom_site_type_symbol
 _atom_site_label
 _atom_site_symmetry_multiplicity
 _atom_site_fract_x
 _atom_site_fract_y
 _atom_site_fract_z
 _atom_site_occupancy
  Er  Er0  1  0.418299  0.001211  0.000000  1
  Er  Er1  1  0.998789  0.417087  0.000000  1
  Er  Er2  1  0.582912  0.581701  0.000000  1
  Al  Al3  1  0.768189  0.008549  0.499999  1
  Al  Al4  1  0.240361  0.231812  0.499999  1
  Al  Al5  1  0.991451  0.759639  0.499999  1
  Zn  Zn6  1  0.666667  0.333333  0.499999  1
  Ge  Ge7  1  0.333334  0.666667  0.499999  1
  Pt  Pt8  1  0.000000  0.000000  0.000000  1
