# generated using pymatgen
data_LiCeNd7CdIr2
_symmetry_space_group_name_H-M   'P 1'
_cell_length_a   9.95772267
_cell_length_b   9.95772293
_cell_length_c   10.06129400
_cell_angle_alpha   59.65533445
_cell_angle_beta   59.65533358
_cell_angle_gamma   59.47667037
_symmetry_Int_Tables_number   1
_chemical_formula_structural   LiCeNd7CdIr2
_chemical_formula_sum   'Li2 Ce2 Nd14 Cd2 Ir4'
_cell_volume   698.95215701
_cell_formula_units_Z   2
loop_
 _symmetry_equiv_pos_site_id
 _symmetry_equiv_pos_as_xyz
  1  'x, y, z'
loop_
 _atom_site_type_symbol
 _atom_site_label
 _atom_site_symmetry_multiplicity
 _atom_site_fract_x
 _atom_site_fract_y
 _atom_site_fract_z
 _atom_site_occupancy
  Li  Li0  1  0.569483  0.569483  0.580119  1
  Li  Li1  1  0.569483  0.569483  0.280915  1
  Ce  Ce2  1  0.344340  0.344340  0.344362  1
  Ce  Ce3  1  0.344340  0.344340  0.966960  1
  Nd  Nd4  1  0.348991  0.956887  0.347060  1
  Nd  Nd5  1  0.956887  0.348991  0.347060  1
  Nd  Nd6  1  0.812450  0.188045  0.191022  1
  Nd  Nd7  1  0.188045  0.812450  0.808484  1
  Nd  Nd8  1  0.188045  0.812450  0.191022  1
  Nd  Nd9  1  0.812450  0.188045  0.808484  1
  Nd  Nd10  1  0.193174  0.193174  0.806826  1
  Nd  Nd11  1  0.814611  0.814611  0.185389  1
  Nd  Nd12  1  0.940173  0.559174  0.563558  1
  Nd  Nd13  1  0.559174  0.940173  0.937094  1
  Nd  Nd14  1  0.559174  0.940173  0.563558  1
  Nd  Nd15  1  0.940173  0.559174  0.937094  1
  Nd  Nd16  1  0.559171  0.559171  0.940829  1
  Nd  Nd17  1  0.936601  0.936601  0.563399  1
  Cd  Cd18  1  0.578982  0.258780  0.581119  1
  Cd  Cd19  1  0.258780  0.578982  0.581119  1
  Ir  Ir20  1  0.149858  0.149858  0.132026  1
  Ir  Ir21  1  0.149858  0.149858  0.568257  1
  Ir  Ir22  1  0.155607  0.570148  0.137122  1
  Ir  Ir23  1  0.570148  0.155607  0.137122  1
