# generated using pymatgen
data_Na2YTl(H6Ir)2
_symmetry_space_group_name_H-M   'P 1'
_cell_length_a   7.57484100
_cell_length_b   7.57484100
_cell_length_c   7.41011800
_cell_angle_alpha   90.00000000
_cell_angle_beta   90.00000000
_cell_angle_gamma   90.00000000
_symmetry_Int_Tables_number   1
_chemical_formula_structural   Na2YTl(H6Ir)2
_chemical_formula_sum   'Na4 Y2 Tl2 H24 Ir4'
_cell_volume   425.17935249
_cell_formula_units_Z   2
loop_
 _symmetry_equiv_pos_site_id
 _symmetry_equiv_pos_as_xyz
  1  'x, y, z'
loop_
 _atom_site_type_symbol
 _atom_site_label
 _atom_site_symmetry_multiplicity
 _atom_site_fract_x
 _atom_site_fract_y
 _atom_site_fract_z
 _atom_site_occupancy
  Na  Na0  1  0.000000  0.000000  0.500000  1
  Na  Na1  1  0.000000  0.500000  0.000000  1
  Na  Na2  1  0.500000  0.000000  0.000000  1
  Na  Na3  1  0.000000  0.000000  0.000000  1
  Y  Y4  1  0.500000  0.500000  0.500000  1
  Y  Y5  1  0.500000  0.500000  0.000000  1
  Tl  Tl6  1  0.000000  0.500000  0.500000  1
  Tl  Tl7  1  0.500000  0.000000  0.500000  1
  H  H8  1  0.728849  0.728849  0.469028  1
  H  H9  1  0.271151  0.271151  0.469028  1
  H  H10  1  0.058958  0.739561  0.770700  1
  H  H11  1  0.260439  0.941042  0.770700  1
  H  H12  1  0.739561  0.058958  0.770700  1
  H  H13  1  0.941042  0.260439  0.770700  1
  H  H14  1  0.722460  0.503568  0.759719  1
  H  H15  1  0.503568  0.722460  0.759719  1
  H  H16  1  0.496432  0.277540  0.759719  1
  H  H17  1  0.277540  0.496432  0.759719  1
  H  H18  1  0.271550  0.728450  0.986097  1
  H  H19  1  0.728450  0.271550  0.986097  1
  H  H20  1  0.728450  0.728450  0.013903  1
  H  H21  1  0.271550  0.271550  0.013903  1
  H  H22  1  0.277540  0.503568  0.240281  1
  H  H23  1  0.496432  0.722460  0.240281  1
  H  H24  1  0.503568  0.277540  0.240281  1
  H  H25  1  0.722460  0.496432  0.240281  1
  H  H26  1  0.941042  0.739561  0.229300  1
  H  H27  1  0.739561  0.941042  0.229300  1
  H  H28  1  0.260439  0.058958  0.229300  1
  H  H29  1  0.058958  0.260439  0.229300  1
  H  H30  1  0.271151  0.728849  0.530972  1
  H  H31  1  0.728849  0.271151  0.530972  1
  Ir  Ir32  1  0.278312  0.721688  0.760160  1
  Ir  Ir33  1  0.721688  0.278312  0.760160  1
  Ir  Ir34  1  0.721688  0.721688  0.239840  1
  Ir  Ir35  1  0.278312  0.278312  0.239840  1
