# generated using pymatgen
data_YbDyPa2(Ga3Ir)6
_symmetry_space_group_name_H-M   'P 1'
_cell_length_a   7.62610432
_cell_length_b   7.65083399
_cell_length_c   9.41406500
_cell_angle_alpha   90.00000000
_cell_angle_beta   90.00000000
_cell_angle_gamma   119.85516414
_symmetry_Int_Tables_number   1
_chemical_formula_structural   YbDyPa2(Ga3Ir)6
_chemical_formula_sum   'Yb1 Dy1 Pa2 Ga18 Ir6'
_cell_volume   476.37760046
_cell_formula_units_Z   1
loop_
 _symmetry_equiv_pos_site_id
 _symmetry_equiv_pos_as_xyz
  1  'x, y, z'
loop_
 _atom_site_type_symbol
 _atom_site_label
 _atom_site_symmetry_multiplicity
 _atom_site_fract_x
 _atom_site_fract_y
 _atom_site_fract_z
 _atom_site_occupancy
  Yb  Yb0  1  0.669499  0.995888  0.250000  1
  Dy  Dy1  1  0.331733  0.005239  0.750000  1
  Pa  Pa2  1  0.999521  0.668624  0.250000  1
  Pa  Pa3  1  0.000424  0.331019  0.750000  1
  Ga  Ga4  1  0.129509  0.127017  0.250000  1
  Ga  Ga5  1  0.868651  0.872598  0.750000  1
  Ga  Ga6  1  0.996634  0.327881  0.084070  1
  Ga  Ga7  1  0.000616  0.669827  0.917302  1
  Ga  Ga8  1  0.000616  0.669827  0.582698  1
  Ga  Ga9  1  0.341051  0.001797  0.418691  1
  Ga  Ga10  1  0.996634  0.327881  0.415930  1
  Ga  Ga11  1  0.661218  0.997401  0.577125  1
  Ga  Ga12  1  0.661218  0.997401  0.922875  1
  Ga  Ga13  1  0.341051  0.001797  0.081309  1
  Ga  Ga14  1  0.334658  0.331922  0.566721  1
  Ga  Ga15  1  0.665749  0.670551  0.431193  1
  Ga  Ga16  1  0.665749  0.670551  0.068807  1
  Ga  Ga17  1  0.334658  0.331922  0.933279  1
  Ga  Ga18  1  0.341088  0.547297  0.250000  1
  Ga  Ga19  1  0.659494  0.454828  0.750000  1
  Ga  Ga20  1  0.546995  0.339377  0.250000  1
  Ga  Ga21  1  0.453882  0.661680  0.750000  1
  Ir  Ir22  1  0.676488  0.332887  0.998998  1
  Ir  Ir23  1  0.321534  0.666164  0.999521  1
  Ir  Ir24  1  0.321534  0.666164  0.500479  1
  Ir  Ir25  1  0.676488  0.332887  0.501002  1
  Ir  Ir26  1  0.001654  0.999786  0.999267  1
  Ir  Ir27  1  0.001654  0.999786  0.500733  1
