# generated using pymatgen
data_Yb4Hf3SnO12
_symmetry_space_group_name_H-M   'P 1'
_cell_length_a   5.51703552
_cell_length_b   5.72464984
_cell_length_c   7.94309826
_cell_angle_alpha   89.75179176
_cell_angle_beta   90.07256532
_cell_angle_gamma   89.95570561
_symmetry_Int_Tables_number   1
_chemical_formula_structural   Yb4Hf3SnO12
_chemical_formula_sum   'Yb4 Hf3 Sn1 O12'
_cell_volume   250.86500768
_cell_formula_units_Z   1
loop_
 _symmetry_equiv_pos_site_id
 _symmetry_equiv_pos_as_xyz
  1  'x, y, z'
loop_
 _atom_site_type_symbol
 _atom_site_label
 _atom_site_symmetry_multiplicity
 _atom_site_fract_x
 _atom_site_fract_y
 _atom_site_fract_z
 _atom_site_occupancy
  Yb  Yb0  1  0.984911  0.054966  0.249352  1
  Yb  Yb1  1  0.487335  0.443876  0.751186  1
  Yb  Yb2  1  0.512665  0.556124  0.248814  1
  Yb  Yb3  1  0.015089  0.945034  0.750648  1
  Hf  Hf4  1  0.500000  0.000000  0.500000  1
  Hf  Hf5  1  0.000000  0.500000  0.000000  1
  Hf  Hf6  1  0.000000  0.500000  0.500000  1
  Sn  Sn7  1  0.500000  0.000000  0.000000  1
  O  O8  1  0.608583  0.041928  0.749939  1
  O  O9  1  0.194476  0.196927  0.555853  1
  O  O10  1  0.194489  0.198632  0.942568  1
  O  O11  1  0.694949  0.302339  0.056252  1
  O  O12  1  0.694536  0.302579  0.444125  1
  O  O13  1  0.106014  0.459181  0.250017  1
  O  O14  1  0.893986  0.540819  0.749983  1
  O  O15  1  0.305464  0.697421  0.555875  1
  O  O16  1  0.305051  0.697661  0.943748  1
  O  O17  1  0.805511  0.801368  0.057432  1
  O  O18  1  0.805524  0.803073  0.444147  1
  O  O19  1  0.391417  0.958072  0.250061  1
