# generated using pymatgen
data_DyTmMnB6
_symmetry_space_group_name_H-M   'P 1'
_cell_length_a   3.53386000
_cell_length_b   9.06616600
_cell_length_c   11.44646900
_cell_angle_alpha   90.00000000
_cell_angle_beta   90.00000000
_cell_angle_gamma   90.00000000
_symmetry_Int_Tables_number   1
_chemical_formula_structural   DyTmMnB6
_chemical_formula_sum   'Dy4 Tm4 Mn4 B24'
_cell_volume   366.72839965
_cell_formula_units_Z   4
loop_
 _symmetry_equiv_pos_site_id
 _symmetry_equiv_pos_as_xyz
  1  'x, y, z'
loop_
 _atom_site_type_symbol
 _atom_site_label
 _atom_site_symmetry_multiplicity
 _atom_site_fract_x
 _atom_site_fract_y
 _atom_site_fract_z
 _atom_site_occupancy
  Dy  Dy0  1  0.000000  0.323591  0.414899  1
  Dy  Dy1  1  0.000000  0.676409  0.585101  1
  Dy  Dy2  1  0.000000  0.823591  0.085101  1
  Dy  Dy3  1  0.000000  0.176409  0.914899  1
  Tm  Tm4  1  0.000000  0.942291  0.368454  1
  Tm  Tm5  1  0.000000  0.057709  0.631546  1
  Tm  Tm6  1  0.000000  0.442291  0.131546  1
  Tm  Tm7  1  0.000000  0.557709  0.868454  1
  Mn  Mn8  1  0.000000  0.639341  0.319661  1
  Mn  Mn9  1  0.000000  0.360659  0.680339  1
  Mn  Mn10  1  0.000000  0.139341  0.180339  1
  Mn  Mn11  1  0.000000  0.860659  0.819661  1
  B  B12  1  0.500000  0.554376  0.431815  1
  B  B13  1  0.500000  0.445624  0.568185  1
  B  B14  1  0.500000  0.054376  0.068185  1
  B  B15  1  0.500000  0.945624  0.931815  1
  B  B16  1  0.500000  0.747835  0.417249  1
  B  B17  1  0.500000  0.252165  0.582751  1
  B  B18  1  0.500000  0.247835  0.082751  1
  B  B19  1  0.500000  0.752165  0.917249  1
  B  B20  1  0.500000  0.790443  0.265088  1
  B  B21  1  0.500000  0.209557  0.734912  1
  B  B22  1  0.500000  0.290443  0.234912  1
  B  B23  1  0.500000  0.709557  0.765088  1
  B  B24  1  0.500000  0.630818  0.185960  1
  B  B25  1  0.500000  0.369182  0.814040  1
  B  B26  1  0.500000  0.130818  0.314040  1
  B  B27  1  0.500000  0.869182  0.685960  1
  B  B28  1  0.500000  0.984368  0.211562  1
  B  B29  1  0.500000  0.015632  0.788438  1
  B  B30  1  0.500000  0.484368  0.288438  1
  B  B31  1  0.500000  0.515632  0.711562  1
  B  B32  1  0.500000  0.600971  0.027841  1
  B  B33  1  0.500000  0.399029  0.972159  1
  B  B34  1  0.500000  0.100971  0.472159  1
  B  B35  1  0.500000  0.899029  0.527841  1
