# generated using pymatgen
data_Sc5Ti3(P3Ir4)4
_symmetry_space_group_name_H-M   'P 1'
_cell_length_a   12.68065500
_cell_length_b   12.68065357
_cell_length_c   3.88882700
_cell_angle_alpha   90.00000000
_cell_angle_beta   90.00000000
_cell_angle_gamma   120.00000113
_symmetry_Int_Tables_number   1
_chemical_formula_structural   Sc5Ti3(P3Ir4)4
_chemical_formula_sum   'Sc5 Ti3 P12 Ir16'
_cell_volume   541.54253665
_cell_formula_units_Z   1
loop_
 _symmetry_equiv_pos_site_id
 _symmetry_equiv_pos_as_xyz
  1  'x, y, z'
loop_
 _atom_site_type_symbol
 _atom_site_label
 _atom_site_symmetry_multiplicity
 _atom_site_fract_x
 _atom_site_fract_y
 _atom_site_fract_z
 _atom_site_occupancy
  Sc  Sc0  1  0.333333  0.666667  0.000000  1
  Sc  Sc1  1  0.666667  0.333333  0.000000  1
  Sc  Sc2  1  0.812566  0.000000  0.500000  1
  Sc  Sc3  1  0.000000  0.812566  0.500000  1
  Sc  Sc4  1  0.187434  0.187434  0.500000  1
  Ti  Ti5  1  0.448377  0.000000  0.000000  1
  Ti  Ti6  1  0.000000  0.448377  0.000000  1
  Ti  Ti7  1  0.551623  0.551623  0.000000  1
  P  P8  1  0.174547  0.000000  0.000000  1
  P  P9  1  0.000000  0.174547  0.000000  1
  P  P10  1  0.825453  0.825453  0.000000  1
  P  P11  1  0.168937  0.483897  0.500000  1
  P  P12  1  0.516103  0.685039  0.500000  1
  P  P13  1  0.314961  0.831063  0.500000  1
  P  P14  1  0.685039  0.516103  0.500000  1
  P  P15  1  0.831063  0.314961  0.500000  1
  P  P16  1  0.483897  0.168937  0.500000  1
  P  P17  1  0.642643  0.000000  0.000000  1
  P  P18  1  0.000000  0.642643  0.000000  1
  P  P19  1  0.357357  0.357357  0.000000  1
  Ir  Ir20  1  0.357558  0.492950  0.500000  1
  Ir  Ir21  1  0.507050  0.864609  0.500000  1
  Ir  Ir22  1  0.135391  0.642442  0.500000  1
  Ir  Ir23  1  0.864609  0.507050  0.500000  1
  Ir  Ir24  1  0.642442  0.135391  0.500000  1
  Ir  Ir25  1  0.492950  0.357558  0.500000  1
  Ir  Ir26  1  0.178882  0.370087  0.000000  1
  Ir  Ir27  1  0.629913  0.808797  0.000000  1
  Ir  Ir28  1  0.191203  0.821118  0.000000  1
  Ir  Ir29  1  0.808797  0.629913  0.000000  1
  Ir  Ir30  1  0.821118  0.191203  0.000000  1
  Ir  Ir31  1  0.370087  0.178882  0.000000  1
  Ir  Ir32  1  0.281239  0.000000  0.500000  1
  Ir  Ir33  1  0.000000  0.281239  0.500000  1
  Ir  Ir34  1  0.718761  0.718761  0.500000  1
  Ir  Ir35  1  0.000000  0.000000  0.000000  1
