# generated using pymatgen
data_SrY2Lu(Ir2O7)2
_symmetry_space_group_name_H-M   'P 1'
_cell_length_a   7.27356519
_cell_length_b   7.29846188
_cell_length_c   7.26269382
_cell_angle_alpha   60.14767538
_cell_angle_beta   59.95046933
_cell_angle_gamma   60.11277693
_symmetry_Int_Tables_number   1
_chemical_formula_structural   SrY2Lu(Ir2O7)2
_chemical_formula_sum   'Sr1 Y2 Lu1 Ir4 O14'
_cell_volume   273.05486674
_cell_formula_units_Z   1
loop_
 _symmetry_equiv_pos_site_id
 _symmetry_equiv_pos_as_xyz
  1  'x, y, z'
loop_
 _atom_site_type_symbol
 _atom_site_label
 _atom_site_symmetry_multiplicity
 _atom_site_fract_x
 _atom_site_fract_y
 _atom_site_fract_z
 _atom_site_occupancy
  Sr  Sr0  1  0.125000  0.625000  0.125000  1
  Y  Y1  1  0.625000  0.125000  0.125000  1
  Y  Y2  1  0.125000  0.125000  0.125000  1
  Lu  Lu3  1  0.125000  0.125000  0.625000  1
  Ir  Ir4  1  0.125000  0.625000  0.625000  1
  Ir  Ir5  1  0.625000  0.125000  0.625000  1
  Ir  Ir6  1  0.625000  0.625000  0.125000  1
  Ir  Ir7  1  0.625000  0.625000  0.625000  1
  O  O8  1  0.693025  0.720315  0.293639  1
  O  O9  1  0.292751  0.290259  0.702939  1
  O  O10  1  0.714050  0.290259  0.702939  1
  O  O11  1  0.293021  0.720315  0.293639  1
  O  O12  1  0.292833  0.725967  0.688368  1
  O  O13  1  0.708603  0.289819  0.292975  1
  O  O14  1  0.556975  0.529685  0.956361  1
  O  O15  1  0.957249  0.959741  0.547061  1
  O  O16  1  0.535950  0.959741  0.547061  1
  O  O17  1  0.956979  0.529685  0.956361  1
  O  O18  1  0.957167  0.524033  0.561632  1
  O  O19  1  0.541397  0.960181  0.957025  1
  O  O20  1  0.255060  0.225193  0.264688  1
  O  O21  1  0.994940  0.024807  0.985312  1
