# generated using pymatgen
data_TbGd2Th(CBr)2
_symmetry_space_group_name_H-M   'P 1'
_cell_length_a   3.70895000
_cell_length_b   3.70894870
_cell_length_c   14.73135400
_cell_angle_alpha   90.00000000
_cell_angle_beta   90.00000000
_cell_angle_gamma   119.99999374
_symmetry_Int_Tables_number   1
_chemical_formula_structural   TbGd2Th(CBr)2
_chemical_formula_sum   'Tb1 Gd2 Th1 C2 Br2'
_cell_volume   175.49919567
_cell_formula_units_Z   1
loop_
 _symmetry_equiv_pos_site_id
 _symmetry_equiv_pos_as_xyz
  1  'x, y, z'
loop_
 _atom_site_type_symbol
 _atom_site_label
 _atom_site_symmetry_multiplicity
 _atom_site_fract_x
 _atom_site_fract_y
 _atom_site_fract_z
 _atom_site_occupancy
  Tb  Tb0  1  0.333333  0.666667  0.913283  1
  Gd  Gd1  1  0.666667  0.333333  0.404610  1
  Gd  Gd2  1  0.666667  0.333333  0.089914  1
  Th  Th3  1  0.333333  0.666667  0.590104  1
  C  C4  1  0.000000  0.000000  0.001618  1
  C  C5  1  0.000000  0.000000  0.491507  1
  Br  Br6  1  0.333333  0.666667  0.248389  1
  Br  Br7  1  0.666667  0.333333  0.760575  1
