# generated using pymatgen
data_La6AlSn2Sb13
_symmetry_space_group_name_H-M   'P 1'
_cell_length_a   12.77211992
_cell_length_b   12.77211980
_cell_length_c   4.36260979
_cell_angle_alpha   80.18088451
_cell_angle_beta   80.18088263
_cell_angle_gamma   101.30607943
_symmetry_Int_Tables_number   1
_chemical_formula_structural   La6AlSn2Sb13
_chemical_formula_sum   'La6 Al1 Sn2 Sb13'
_cell_volume   672.13009735
_cell_formula_units_Z   1
loop_
 _symmetry_equiv_pos_site_id
 _symmetry_equiv_pos_as_xyz
  1  'x, y, z'
loop_
 _atom_site_type_symbol
 _atom_site_label
 _atom_site_symmetry_multiplicity
 _atom_site_fract_x
 _atom_site_fract_y
 _atom_site_fract_z
 _atom_site_occupancy
  La  La0  1  0.327206  0.676904  0.928644  1
  La  La1  1  0.676904  0.327206  0.928644  1
  La  La2  1  0.270311  0.999989  0.798569  1
  La  La3  1  0.724623  0.995953  0.072157  1
  La  La4  1  0.995953  0.724623  0.072157  1
  La  La5  1  0.999989  0.270311  0.798569  1
  Al  Al6  1  0.263836  0.263836  0.678510  1
  Sn  Sn7  1  0.407960  0.407960  0.026095  1
  Sn  Sn8  1  0.597773  0.597773  0.832294  1
  Sb  Sb9  1  0.472544  0.247938  0.564694  1
  Sb  Sb10  1  0.544554  0.748052  0.290120  1
  Sb  Sb11  1  0.748052  0.544554  0.290120  1
  Sb  Sb12  1  0.247938  0.472544  0.564694  1
  Sb  Sb13  1  0.512393  0.915415  0.714216  1
  Sb  Sb14  1  0.484918  0.076942  0.154367  1
  Sb  Sb15  1  0.076942  0.484918  0.154367  1
  Sb  Sb16  1  0.915415  0.512393  0.714216  1
  Sb  Sb17  1  0.152200  0.152200  0.285775  1
  Sb  Sb18  1  0.854512  0.854512  0.582622  1
  Sb  Sb19  1  0.199079  0.798654  0.433830  1
  Sb  Sb20  1  0.798654  0.199079  0.433830  1
  Sb  Sb21  1  0.988845  0.988845  0.948815  1
