# generated using pymatgen
data_Nd5Ho3Sc12Si15Pb
_symmetry_space_group_name_H-M   'P 1'
_cell_length_a   7.21928372
_cell_length_b   7.50156018
_cell_length_c   14.22630932
_cell_angle_alpha   89.94834331
_cell_angle_beta   89.61713424
_cell_angle_gamma   90.19606208
_symmetry_Int_Tables_number   1
_chemical_formula_structural   Nd5Ho3Sc12Si15Pb
_chemical_formula_sum   'Nd5 Ho3 Sc12 Si15 Pb1'
_cell_volume   770.41642018
_cell_formula_units_Z   1
loop_
 _symmetry_equiv_pos_site_id
 _symmetry_equiv_pos_as_xyz
  1  'x, y, z'
loop_
 _atom_site_type_symbol
 _atom_site_label
 _atom_site_symmetry_multiplicity
 _atom_site_fract_x
 _atom_site_fract_y
 _atom_site_fract_z
 _atom_site_occupancy
  Nd  Nd0  1  0.011602  0.173581  0.098023  1
  Nd  Nd1  1  0.988704  0.827309  0.902645  1
  Nd  Nd2  1  0.489802  0.672867  0.904183  1
  Nd  Nd3  1  0.988021  0.832653  0.596714  1
  Nd  Nd4  1  0.510749  0.326866  0.098127  1
  Ho  Ho5  1  0.005876  0.169537  0.396915  1
  Ho  Ho6  1  0.513380  0.319132  0.397359  1
  Ho  Ho7  1  0.503414  0.685657  0.600201  1
  Sc  Sc8  1  0.161815  0.500834  0.755870  1
  Sc  Sc9  1  0.837388  0.499055  0.250594  1
  Sc  Sc10  1  0.338067  0.001097  0.250909  1
  Sc  Sc11  1  0.663357  0.999950  0.750989  1
  Sc  Sc12  1  0.344524  0.160319  0.631043  1
  Sc  Sc13  1  0.663545  0.824959  0.373038  1
  Sc  Sc14  1  0.164402  0.682809  0.369663  1
  Sc  Sc15  1  0.669125  0.824290  0.126145  1
  Sc  Sc16  1  0.820080  0.324765  0.625104  1
  Sc  Sc17  1  0.330264  0.174127  0.874473  1
  Sc  Sc18  1  0.830014  0.324988  0.875019  1
  Sc  Sc19  1  0.169470  0.675708  0.126786  1
  Si  Si20  1  0.034793  0.127290  0.750000  1
  Si  Si21  1  0.963436  0.880893  0.249230  1
  Si  Si22  1  0.465008  0.619509  0.250570  1
  Si  Si23  1  0.533097  0.381210  0.750358  1
  Si  Si24  1  0.290578  0.873095  0.750305  1
  Si  Si25  1  0.711060  0.122646  0.251185  1
  Si  Si26  1  0.210701  0.376359  0.252984  1
  Si  Si27  1  0.788742  0.621947  0.748845  1
  Si  Si28  1  0.825883  0.536243  0.456133  1
  Si  Si29  1  0.341650  0.965598  0.458756  1
  Si  Si30  1  0.847549  0.537026  0.040252  1
  Si  Si31  1  0.655382  0.039345  0.536245  1
  Si  Si32  1  0.152161  0.463256  0.961775  1
  Si  Si33  1  0.652486  0.037384  0.961376  1
  Si  Si34  1  0.347100  0.963213  0.040211  1
  Pb  Pb35  1  0.176773  0.454484  0.537976  1
