# generated using pymatgen
data_DyY2(MgHg)3
_symmetry_space_group_name_H-M   'P 1'
_cell_length_a   7.69919000
_cell_length_b   7.69042911
_cell_length_c   4.35572400
_cell_angle_alpha   90.00000000
_cell_angle_beta   90.00000000
_cell_angle_gamma   120.03769140
_symmetry_Int_Tables_number   1
_chemical_formula_structural   DyY2(MgHg)3
_chemical_formula_sum   'Dy1 Y2 Mg3 Hg3'
_cell_volume   223.26545061
_cell_formula_units_Z   1
loop_
 _symmetry_equiv_pos_site_id
 _symmetry_equiv_pos_as_xyz
  1  'x, y, z'
loop_
 _atom_site_type_symbol
 _atom_site_label
 _atom_site_symmetry_multiplicity
 _atom_site_fract_x
 _atom_site_fract_y
 _atom_site_fract_z
 _atom_site_occupancy
  Dy  Dy0  1  0.413722  0.000000  0.000000  1
  Y  Y1  1  0.999494  0.413135  0.000000  1
  Y  Y2  1  0.586358  0.586865  0.000000  1
  Mg  Mg3  1  0.751322  0.000000  0.500000  1
  Mg  Mg4  1  0.248830  0.248852  0.500000  1
  Mg  Mg5  1  0.999979  0.751149  0.500000  1
  Hg  Hg6  1  0.001026  0.000000  0.000000  1
  Hg  Hg7  1  0.665673  0.332080  0.500000  1
  Hg  Hg8  1  0.333594  0.667920  0.500000  1
