# generated using pymatgen
data_Tb5Dy3Tc2(B12Os)2
_symmetry_space_group_name_H-M   'P 1'
_cell_length_a   3.68170900
_cell_length_b   9.17742683
_cell_length_c   11.56594902
_cell_angle_alpha   89.92159307
_cell_angle_beta   90.00000000
_cell_angle_gamma   90.00000000
_symmetry_Int_Tables_number   1
_chemical_formula_structural   Tb5Dy3Tc2(B12Os)2
_chemical_formula_sum   'Tb5 Dy3 Tc2 B24 Os2'
_cell_volume   390.79703230
_cell_formula_units_Z   1
loop_
 _symmetry_equiv_pos_site_id
 _symmetry_equiv_pos_as_xyz
  1  'x, y, z'
loop_
 _atom_site_type_symbol
 _atom_site_label
 _atom_site_symmetry_multiplicity
 _atom_site_fract_x
 _atom_site_fract_y
 _atom_site_fract_z
 _atom_site_occupancy
  Tb  Tb0  1  0.000000  0.325062  0.415150  1
  Tb  Tb1  1  0.000000  0.674923  0.584964  1
  Tb  Tb2  1  0.000000  0.821423  0.087279  1
  Tb  Tb3  1  0.000000  0.178568  0.912607  1
  Tb  Tb4  1  0.000000  0.941670  0.371006  1
  Dy  Dy5  1  0.000000  0.058403  0.629258  1
  Dy  Dy6  1  0.000000  0.443621  0.129841  1
  Dy  Dy7  1  0.000000  0.556394  0.870100  1
  Tc  Tc8  1  0.000000  0.638181  0.320257  1
  Tc  Tc9  1  0.000000  0.361490  0.679774  1
  B  B10  1  0.500000  0.553094  0.432749  1
  B  B11  1  0.500000  0.446760  0.567297  1
  B  B12  1  0.500000  0.053799  0.067259  1
  B  B13  1  0.500000  0.946235  0.932638  1
  B  B14  1  0.500000  0.747608  0.418750  1
  B  B15  1  0.500000  0.252019  0.581287  1
  B  B16  1  0.500000  0.248400  0.081499  1
  B  B17  1  0.500000  0.751669  0.918462  1
  B  B18  1  0.500000  0.790691  0.265705  1
  B  B19  1  0.500000  0.208979  0.734199  1
  B  B20  1  0.500000  0.290470  0.233777  1
  B  B21  1  0.500000  0.709672  0.766176  1
  B  B22  1  0.500000  0.631328  0.185570  1
  B  B23  1  0.500000  0.368580  0.814367  1
  B  B24  1  0.500000  0.131177  0.313428  1
  B  B25  1  0.500000  0.869109  0.686446  1
  B  B26  1  0.500000  0.983565  0.211844  1
  B  B27  1  0.500000  0.016625  0.787921  1
  B  B28  1  0.500000  0.483229  0.287518  1
  B  B29  1  0.500000  0.516723  0.712457  1
  B  B30  1  0.500000  0.604009  0.028661  1
  B  B31  1  0.500000  0.395991  0.971308  1
  B  B32  1  0.500000  0.104280  0.471134  1
  B  B33  1  0.500000  0.896043  0.529498  1
  Os  Os34  1  0.000000  0.137672  0.178007  1
  Os  Os35  1  0.000000  0.862538  0.821808  1
