# generated using pymatgen
data_SmTa8CdS16
_symmetry_space_group_name_H-M   'P 1'
_cell_length_a   6.70573200
_cell_length_b   6.70573141
_cell_length_c   13.80300200
_cell_angle_alpha   90.00000000
_cell_angle_beta   90.00000000
_cell_angle_gamma   120.00001280
_symmetry_Int_Tables_number   1
_chemical_formula_structural   SmTa8CdS16
_chemical_formula_sum   'Sm1 Ta8 Cd1 S16'
_cell_volume   537.52228365
_cell_formula_units_Z   1
loop_
 _symmetry_equiv_pos_site_id
 _symmetry_equiv_pos_as_xyz
  1  'x, y, z'
loop_
 _atom_site_type_symbol
 _atom_site_label
 _atom_site_symmetry_multiplicity
 _atom_site_fract_x
 _atom_site_fract_y
 _atom_site_fract_z
 _atom_site_occupancy
  Sm  Sm0  1  0.000000  0.000000  0.500000  1
  Ta  Ta1  1  0.505946  0.494053  0.753122  1
  Ta  Ta2  1  0.011892  0.505946  0.246878  1
  Ta  Ta3  1  0.494054  0.988108  0.246878  1
  Ta  Ta4  1  0.505946  0.011892  0.753122  1
  Ta  Ta5  1  0.988108  0.494054  0.753122  1
  Ta  Ta6  1  0.494054  0.505947  0.246878  1
  Ta  Ta7  1  0.000000  0.999999  0.750466  1
  Ta  Ta8  1  0.000000  0.000001  0.249534  1
  Cd  Cd9  1  0.000000  0.000000  0.000000  1
  S  S10  1  0.829646  0.170354  0.359844  1
  S  S11  1  0.829645  0.659292  0.359844  1
  S  S12  1  0.340708  0.170355  0.359844  1
  S  S13  1  0.664193  0.832096  0.863936  1
  S  S14  1  0.170355  0.340708  0.640156  1
  S  S15  1  0.167904  0.832097  0.863936  1
  S  S16  1  0.167904  0.335807  0.863936  1
  S  S17  1  0.832096  0.167903  0.136064  1
  S  S18  1  0.335807  0.167904  0.136064  1
  S  S19  1  0.659292  0.829645  0.640156  1
  S  S20  1  0.333333  0.666668  0.131419  1
  S  S21  1  0.666667  0.333332  0.635905  1
  S  S22  1  0.666667  0.333332  0.868581  1
  S  S23  1  0.333333  0.666668  0.364095  1
  S  S24  1  0.832096  0.664193  0.136064  1
  S  S25  1  0.170354  0.829646  0.640156  1
