# generated using pymatgen
data_Yb3Ho3(Co7C2)2
_symmetry_space_group_name_H-M   'P 1'
_cell_length_a   5.03784800
_cell_length_b   5.03784733
_cell_length_c   13.66787200
_cell_angle_alpha   90.00000000
_cell_angle_beta   90.00000000
_cell_angle_gamma   120.00001752
_symmetry_Int_Tables_number   1
_chemical_formula_structural   Yb3Ho3(Co7C2)2
_chemical_formula_sum   'Yb3 Ho3 Co14 C4'
_cell_volume   300.41493555
_cell_formula_units_Z   1
loop_
 _symmetry_equiv_pos_site_id
 _symmetry_equiv_pos_as_xyz
  1  'x, y, z'
loop_
 _atom_site_type_symbol
 _atom_site_label
 _atom_site_symmetry_multiplicity
 _atom_site_fract_x
 _atom_site_fract_y
 _atom_site_fract_z
 _atom_site_occupancy
  Yb  Yb0  1  0.666667  0.333333  0.755000  1
  Yb  Yb1  1  0.666667  0.333333  0.962842  1
  Yb  Yb2  1  0.333333  0.666667  0.249105  1
  Ho  Ho3  1  0.666667  0.333333  0.538833  1
  Ho  Ho4  1  0.333333  0.666667  0.463080  1
  Ho  Ho5  1  0.333333  0.666667  0.034465  1
  Co  Co6  1  0.164549  0.329099  0.655059  1
  Co  Co7  1  0.329261  0.164630  0.345152  1
  Co  Co8  1  0.329745  0.164872  0.154785  1
  Co  Co9  1  0.164893  0.835107  0.844713  1
  Co  Co10  1  0.835370  0.670739  0.345152  1
  Co  Co11  1  0.835128  0.164872  0.154785  1
  Co  Co12  1  0.670901  0.835451  0.655059  1
  Co  Co13  1  0.670214  0.835107  0.844713  1
  Co  Co14  1  0.164549  0.835451  0.655059  1
  Co  Co15  1  0.835128  0.670255  0.154785  1
  Co  Co16  1  0.000000  0.000000  0.998683  1
  Co  Co17  1  0.164893  0.329786  0.844713  1
  Co  Co18  1  0.835370  0.164630  0.345152  1
  Co  Co19  1  0.000000  0.000000  0.499990  1
  C  C20  1  0.666667  0.333333  0.249865  1
  C  C21  1  0.000000  0.000000  0.749813  1
  C  C22  1  0.333333  0.666667  0.749461  1
  C  C23  1  0.000000  0.000000  0.249736  1
