# generated using pymatgen
data_Ho3Tm5Lu2(In2Pt)4
_symmetry_space_group_name_H-M   'P 1'
_cell_length_a   3.61845200
_cell_length_b   8.06424718
_cell_length_c   18.07445938
_cell_angle_alpha   89.96555346
_cell_angle_beta   90.00000000
_cell_angle_gamma   90.00000000
_symmetry_Int_Tables_number   1
_chemical_formula_structural   Ho3Tm5Lu2(In2Pt)4
_chemical_formula_sum   'Ho3 Tm5 Lu2 In8 Pt4'
_cell_volume   527.41428012
_cell_formula_units_Z   1
loop_
 _symmetry_equiv_pos_site_id
 _symmetry_equiv_pos_as_xyz
  1  'x, y, z'
loop_
 _atom_site_type_symbol
 _atom_site_label
 _atom_site_symmetry_multiplicity
 _atom_site_fract_x
 _atom_site_fract_y
 _atom_site_fract_z
 _atom_site_occupancy
  Ho  Ho0  1  0.000000  0.743215  0.279900  1
  Ho  Ho1  1  0.000000  0.999952  0.999816  1
  Ho  Ho2  1  0.000000  0.500267  0.500046  1
  Tm  Tm3  1  0.000000  0.383297  0.913916  1
  Tm  Tm4  1  0.000000  0.616416  0.085633  1
  Tm  Tm5  1  0.000000  0.243624  0.221203  1
  Tm  Tm6  1  0.000000  0.756366  0.778677  1
  Tm  Tm7  1  0.000000  0.256399  0.720492  1
  Lu  Lu8  1  0.000000  0.116617  0.414125  1
  Lu  Lu9  1  0.000000  0.883910  0.586345  1
  In  In10  1  0.500000  0.421282  0.351823  1
  In  In11  1  0.500000  0.578172  0.648270  1
  In  In12  1  0.500000  0.076243  0.851090  1
  In  In13  1  0.500000  0.923565  0.148769  1
  In  In14  1  0.500000  0.292822  0.066407  1
  In  In15  1  0.500000  0.706575  0.933287  1
  In  In16  1  0.500000  0.205357  0.565640  1
  In  In17  1  0.500000  0.795255  0.434981  1
  Pt  Pt18  1  0.500000  0.027542  0.305338  1
  Pt  Pt19  1  0.500000  0.974707  0.695023  1
  Pt  Pt20  1  0.500000  0.474606  0.803753  1
  Pt  Pt21  1  0.500000  0.523812  0.195467  1
