# generated using pymatgen
data_DyTm7Sc12Si15Hg
_symmetry_space_group_name_H-M   'P 1'
_cell_length_a   7.09331396
_cell_length_b   7.36243958
_cell_length_c   14.02238525
_cell_angle_alpha   89.97078659
_cell_angle_beta   89.54476121
_cell_angle_gamma   90.15122600
_symmetry_Int_Tables_number   1
_chemical_formula_structural   DyTm7Sc12Si15Hg
_chemical_formula_sum   'Dy1 Tm7 Sc12 Si15 Hg1'
_cell_volume   732.28061745
_cell_formula_units_Z   1
loop_
 _symmetry_equiv_pos_site_id
 _symmetry_equiv_pos_as_xyz
  1  'x, y, z'
loop_
 _atom_site_type_symbol
 _atom_site_label
 _atom_site_symmetry_multiplicity
 _atom_site_fract_x
 _atom_site_fract_y
 _atom_site_fract_z
 _atom_site_occupancy
  Dy  Dy0  1  0.011720  0.175561  0.096385  1
  Tm  Tm1  1  0.987371  0.824048  0.904291  1
  Tm  Tm2  1  0.487564  0.677671  0.903874  1
  Tm  Tm3  1  0.988635  0.830366  0.598044  1
  Tm  Tm4  1  0.511868  0.323141  0.096298  1
  Tm  Tm5  1  0.007534  0.171959  0.398228  1
  Tm  Tm6  1  0.511138  0.321704  0.399623  1
  Tm  Tm7  1  0.496473  0.682382  0.599947  1
  Sc  Sc8  1  0.162622  0.502336  0.753931  1
  Sc  Sc9  1  0.836691  0.497814  0.250493  1
  Sc  Sc10  1  0.337500  0.001889  0.249212  1
  Sc  Sc11  1  0.664944  0.995338  0.751458  1
  Sc  Sc12  1  0.341782  0.167953  0.628786  1
  Sc  Sc13  1  0.664237  0.824619  0.373163  1
  Sc  Sc14  1  0.166930  0.677872  0.371109  1
  Sc  Sc15  1  0.669123  0.823224  0.124573  1
  Sc  Sc16  1  0.826129  0.325134  0.626062  1
  Sc  Sc17  1  0.329198  0.175272  0.876038  1
  Sc  Sc18  1  0.829788  0.323258  0.876106  1
  Sc  Sc19  1  0.169219  0.676494  0.124954  1
  Si  Si20  1  0.034988  0.118418  0.751472  1
  Si  Si21  1  0.964652  0.884895  0.248289  1
  Si  Si22  1  0.466461  0.613175  0.248032  1
  Si  Si23  1  0.533265  0.387694  0.752028  1
  Si  Si24  1  0.284638  0.870227  0.751785  1
  Si  Si25  1  0.711933  0.129426  0.248487  1
  Si  Si26  1  0.214314  0.370169  0.248578  1
  Si  Si27  1  0.788358  0.630193  0.752703  1
  Si  Si28  1  0.831151  0.537542  0.459096  1
  Si  Si29  1  0.337333  0.963391  0.459916  1
  Si  Si30  1  0.841681  0.536153  0.038483  1
  Si  Si31  1  0.661387  0.036721  0.537466  1
  Si  Si32  1  0.158056  0.465581  0.961825  1
  Si  Si33  1  0.656858  0.034298  0.960629  1
  Si  Si34  1  0.343899  0.964699  0.039648  1
  Hg  Hg35  1  0.170557  0.459384  0.538990  1
