# generated using pymatgen
data_Ta4Al6FeRh
_symmetry_space_group_name_H-M   'P 1'
_cell_length_a   5.13967000
_cell_length_b   5.13967068
_cell_length_c   7.99086100
_cell_angle_alpha   90.00000000
_cell_angle_beta   90.00000000
_cell_angle_gamma   120.00000847
_symmetry_Int_Tables_number   1
_chemical_formula_structural   Ta4Al6FeRh
_chemical_formula_sum   'Ta4 Al6 Fe1 Rh1'
_cell_volume   182.80779045
_cell_formula_units_Z   1
loop_
 _symmetry_equiv_pos_site_id
 _symmetry_equiv_pos_as_xyz
  1  'x, y, z'
loop_
 _atom_site_type_symbol
 _atom_site_label
 _atom_site_symmetry_multiplicity
 _atom_site_fract_x
 _atom_site_fract_y
 _atom_site_fract_z
 _atom_site_occupancy
  Ta  Ta0  1  0.666666  0.333334  0.067046  1
  Ta  Ta1  1  0.666666  0.333334  0.431095  1
  Ta  Ta2  1  0.333333  0.666666  0.568906  1
  Ta  Ta3  1  0.333333  0.666666  0.932955  1
  Al  Al4  1  0.168262  0.336524  0.253639  1
  Al  Al5  1  0.168262  0.831737  0.253639  1
  Al  Al6  1  0.663475  0.831737  0.253639  1
  Al  Al7  1  0.336523  0.168261  0.746361  1
  Al  Al8  1  0.831738  0.168261  0.746361  1
  Al  Al9  1  0.831737  0.663476  0.746361  1
  Fe  Fe10  1  0.000000  0.000000  0.500000  1
  Rh  Rh11  1  0.000000  0.000000  0.000000  1
