# generated using pymatgen
data_La2Er3Sb4
_symmetry_space_group_name_H-M   'P 1'
_cell_length_a   8.21696000
_cell_length_b   8.16568600
_cell_length_c   15.35161000
_cell_angle_alpha   90.00000000
_cell_angle_beta   90.00000000
_cell_angle_gamma   90.00000000
_symmetry_Int_Tables_number   1
_chemical_formula_structural   La2Er3Sb4
_chemical_formula_sum   'La8 Er12 Sb16'
_cell_volume   1030.04874521
_cell_formula_units_Z   4
loop_
 _symmetry_equiv_pos_site_id
 _symmetry_equiv_pos_as_xyz
  1  'x, y, z'
loop_
 _atom_site_type_symbol
 _atom_site_label
 _atom_site_symmetry_multiplicity
 _atom_site_fract_x
 _atom_site_fract_y
 _atom_site_fract_z
 _atom_site_occupancy
  La  La0  1  0.477704  0.676126  0.595391  1
  La  La1  1  0.977704  0.823874  0.904609  1
  La  La2  1  0.522296  0.323874  0.095391  1
  La  La3  1  0.022296  0.176126  0.404609  1
  La  La4  1  0.522296  0.323874  0.404609  1
  La  La5  1  0.022296  0.176126  0.095391  1
  La  La6  1  0.477704  0.676126  0.904609  1
  La  La7  1  0.977704  0.823874  0.595391  1
  Er  Er8  1  0.648305  0.149478  0.623821  1
  Er  Er9  1  0.148305  0.350522  0.876179  1
  Er  Er10  1  0.351695  0.850522  0.123821  1
  Er  Er11  1  0.851695  0.649478  0.376179  1
  Er  Er12  1  0.351695  0.850522  0.376179  1
  Er  Er13  1  0.851695  0.649478  0.123821  1
  Er  Er14  1  0.648305  0.149478  0.876179  1
  Er  Er15  1  0.148305  0.350522  0.623821  1
  Er  Er16  1  0.810503  0.500176  0.750000  1
  Er  Er17  1  0.310503  0.999824  0.750000  1
  Er  Er18  1  0.189497  0.499824  0.250000  1
  Er  Er19  1  0.689497  0.000176  0.250000  1
  Sb  Sb20  1  0.700241  0.956158  0.452418  1
  Sb  Sb21  1  0.200241  0.543842  0.047582  1
  Sb  Sb22  1  0.299759  0.043842  0.952418  1
  Sb  Sb23  1  0.799759  0.456158  0.547582  1
  Sb  Sb24  1  0.299759  0.043842  0.547582  1
  Sb  Sb25  1  0.799759  0.456158  0.952418  1
  Sb  Sb26  1  0.700241  0.956158  0.047582  1
  Sb  Sb27  1  0.200241  0.543842  0.452418  1
  Sb  Sb28  1  0.451224  0.362220  0.750000  1
  Sb  Sb29  1  0.951224  0.137780  0.750000  1
  Sb  Sb30  1  0.548776  0.637780  0.250000  1
  Sb  Sb31  1  0.048776  0.862220  0.250000  1
  Sb  Sb32  1  0.665146  0.848944  0.750000  1
  Sb  Sb33  1  0.165146  0.651056  0.750000  1
  Sb  Sb34  1  0.334854  0.151056  0.250000  1
  Sb  Sb35  1  0.834854  0.348944  0.250000  1
