# generated using pymatgen
data_Th2Co11Si8Ni7
_symmetry_space_group_name_H-M   'P 1'
_cell_length_a   7.97590161
_cell_length_b   7.97590210
_cell_length_c   7.98446094
_cell_angle_alpha   121.58928042
_cell_angle_beta   121.30537375
_cell_angle_gamma   87.44687936
_symmetry_Int_Tables_number   1
_chemical_formula_structural   Th2Co11Si8Ni7
_chemical_formula_sum   'Th2 Co11 Si8 Ni7'
_cell_volume   351.12986193
_cell_formula_units_Z   1
loop_
 _symmetry_equiv_pos_site_id
 _symmetry_equiv_pos_as_xyz
  1  'x, y, z'
loop_
 _atom_site_type_symbol
 _atom_site_label
 _atom_site_symmetry_multiplicity
 _atom_site_fract_x
 _atom_site_fract_y
 _atom_site_fract_z
 _atom_site_occupancy
  Th  Th0  1  0.750808  0.750442  0.000106  1
  Th  Th1  1  0.249664  0.249298  0.000106  1
  Co  Co2  1  0.294382  0.426593  0.720976  1
  Co  Co3  1  0.449861  0.950198  0.766203  1
  Co  Co4  1  0.184426  0.684464  0.234449  1
  Co  Co5  1  0.950427  0.184942  0.500134  1
  Co  Co6  1  0.683655  0.450851  0.501021  1
  Co  Co7  1  0.549985  0.050022  0.234449  1
  Co  Co8  1  0.816006  0.316343  0.766203  1
  Co  Co9  1  0.050169  0.817365  0.501021  1
  Co  Co10  1  0.315192  0.549707  0.500134  1
  Co  Co11  1  0.999936  0.499040  0.498976  1
  Co  Co12  1  0.500006  0.999957  0.499963  1
  Si  Si13  1  0.048814  0.546336  0.834352  1
  Si  Si14  1  0.712749  0.212553  0.165147  1
  Si  Si15  1  0.546839  0.712639  0.499622  1
  Si  Si16  1  0.214257  0.050263  0.502833  1
  Si  Si17  1  0.952592  0.452397  0.165147  1
  Si  Si18  1  0.288017  0.785539  0.834352  1
  Si  Si19  1  0.452570  0.288576  0.502833  1
  Si  Si20  1  0.786983  0.952784  0.499622  1
  Ni  Ni21  1  0.071677  0.202073  0.273749  1
  Ni  Ni22  1  0.928178  0.796430  0.724609  1
  Ni  Ni23  1  0.571670  0.298246  0.869917  1
  Ni  Ni24  1  0.427711  0.701188  0.128899  1
  Ni  Ni25  1  0.796335  0.072073  0.868407  1
  Ni  Ni26  1  0.203302  0.926862  0.130164  1
  Ni  Ni27  1  0.703789  0.572816  0.276604  1
