# generated using pymatgen
data_Y2Ta3Ni9P7
_symmetry_space_group_name_H-M   'P 1'
_cell_length_a   9.31692000
_cell_length_b   9.31691928
_cell_length_c   3.71381000
_cell_angle_alpha   90.00000000
_cell_angle_beta   90.00000000
_cell_angle_gamma   120.00000965
_symmetry_Int_Tables_number   1
_chemical_formula_structural   Y2Ta3Ni9P7
_chemical_formula_sum   'Y2 Ta3 Ni9 P7'
_cell_volume   279.18685740
_cell_formula_units_Z   1
loop_
 _symmetry_equiv_pos_site_id
 _symmetry_equiv_pos_as_xyz
  1  'x, y, z'
loop_
 _atom_site_type_symbol
 _atom_site_label
 _atom_site_symmetry_multiplicity
 _atom_site_fract_x
 _atom_site_fract_y
 _atom_site_fract_z
 _atom_site_occupancy
  Y  Y0  1  0.333333  0.666667  0.000000  1
  Y  Y1  1  0.666667  0.333333  0.500000  1
  Ta  Ta2  1  0.225112  0.119503  0.500000  1
  Ta  Ta3  1  0.880497  0.105609  0.500000  1
  Ta  Ta4  1  0.894391  0.774888  0.500000  1
  Ni  Ni5  1  0.128115  0.283163  0.000000  1
  Ni  Ni6  1  0.716837  0.844952  0.000000  1
  Ni  Ni7  1  0.155048  0.871885  0.000000  1
  Ni  Ni8  1  0.432081  0.368373  0.000000  1
  Ni  Ni9  1  0.631627  0.063709  0.000000  1
  Ni  Ni10  1  0.936291  0.567919  0.000000  1
  Ni  Ni11  1  0.057839  0.443034  0.500000  1
  Ni  Ni12  1  0.556966  0.614804  0.500000  1
  Ni  Ni13  1  0.385196  0.942161  0.500000  1
  P  P14  1  0.291120  0.410640  0.500000  1
  P  P15  1  0.589360  0.880480  0.500000  1
  P  P16  1  0.119520  0.708880  0.500000  1
  P  P17  1  0.415390  0.111090  0.000000  1
  P  P18  1  0.888910  0.304301  0.000000  1
  P  P19  1  0.695699  0.584610  0.000000  1
  P  P20  1  0.000000  0.000000  0.000000  1
