# generated using pymatgen
data_TbCe2Er7(Al2Ru3)2
_symmetry_space_group_name_H-M   'P 1'
_cell_length_a   8.41749800
_cell_length_b   8.33080948
_cell_length_c   8.30388136
_cell_angle_alpha   109.98018357
_cell_angle_beta   109.33350034
_cell_angle_gamma   110.19664892
_symmetry_Int_Tables_number   1
_chemical_formula_structural   TbCe2Er7(Al2Ru3)2
_chemical_formula_sum   'Tb1 Ce2 Er7 Al4 Ru6'
_cell_volume   442.06827256
_cell_formula_units_Z   1
loop_
 _symmetry_equiv_pos_site_id
 _symmetry_equiv_pos_as_xyz
  1  'x, y, z'
loop_
 _atom_site_type_symbol
 _atom_site_label
 _atom_site_symmetry_multiplicity
 _atom_site_fract_x
 _atom_site_fract_y
 _atom_site_fract_z
 _atom_site_occupancy
  Tb  Tb0  1  0.779688  0.783960  0.777693  1
  Ce  Ce1  1  0.943715  0.252569  0.195129  1
  Ce  Ce2  1  0.196297  0.942267  0.251521  1
  Er  Er3  1  0.317637  0.567361  0.752907  1
  Er  Er4  1  0.750329  0.317302  0.568968  1
  Er  Er5  1  0.568893  0.747945  0.314254  1
  Er  Er6  1  0.718271  0.501918  0.998693  1
  Er  Er7  1  0.998732  0.718898  0.504795  1
  Er  Er8  1  0.500373  0.993516  0.715996  1
  Er  Er9  1  0.254259  0.186794  0.932143  1
  Al  Al10  1  0.415145  0.410536  0.407707  1
  Al  Al11  1  0.092526  0.493207  0.996004  1
  Al  Al12  1  0.998201  0.092465  0.504461  1
  Al  Al13  1  0.502802  0.007917  0.094214  1
  Ru  Ru14  1  0.867962  0.117975  0.742967  1
  Ru  Ru15  1  0.754987  0.899582  0.124206  1
  Ru  Ru16  1  0.127103  0.762176  0.903834  1
  Ru  Ru17  1  0.226707  0.595719  0.364976  1
  Ru  Ru18  1  0.359821  0.224629  0.598392  1
  Ru  Ru19  1  0.626554  0.383264  0.251137  1
