# generated using pymatgen
data_NdDy3AlIr
_symmetry_space_group_name_H-M   'P 1'
_cell_length_a   9.60457113
_cell_length_b   9.61169691
_cell_length_c   9.61163596
_cell_angle_alpha   60.25285842
_cell_angle_beta   60.02388500
_cell_angle_gamma   60.02416470
_symmetry_Int_Tables_number   1
_chemical_formula_structural   NdDy3AlIr
_chemical_formula_sum   'Nd4 Dy12 Al4 Ir4'
_cell_volume   628.84214063
_cell_formula_units_Z   4
loop_
 _symmetry_equiv_pos_site_id
 _symmetry_equiv_pos_as_xyz
  1  'x, y, z'
loop_
 _atom_site_type_symbol
 _atom_site_label
 _atom_site_symmetry_multiplicity
 _atom_site_fract_x
 _atom_site_fract_y
 _atom_site_fract_z
 _atom_site_occupancy
  Nd  Nd0  1  0.564824  0.935063  0.564907  1
  Nd  Nd1  1  0.935206  0.564912  0.935062  1
  Nd  Nd2  1  0.564819  0.564909  0.935064  1
  Nd  Nd3  1  0.935205  0.935067  0.564908  1
  Dy  Dy4  1  0.355048  0.347942  0.347946  1
  Dy  Dy5  1  0.347884  0.355734  0.948500  1
  Dy  Dy6  1  0.347882  0.948500  0.355738  1
  Dy  Dy7  1  0.949062  0.347945  0.347947  1
  Dy  Dy8  1  0.809577  0.190420  0.190421  1
  Dy  Dy9  1  0.190501  0.809501  0.809496  1
  Dy  Dy10  1  0.195131  0.806075  0.192281  1
  Dy  Dy11  1  0.806512  0.192281  0.806076  1
  Dy  Dy12  1  0.195131  0.192280  0.806074  1
  Dy  Dy13  1  0.806509  0.806077  0.192283  1
  Dy  Dy14  1  0.947247  0.552753  0.552754  1
  Dy  Dy15  1  0.553049  0.946951  0.946952  1
  Al  Al16  1  0.576290  0.574189  0.574191  1
  Al  Al17  1  0.574274  0.577170  0.274282  1
  Al  Al18  1  0.574274  0.274282  0.577172  1
  Al  Al19  1  0.275329  0.574190  0.574191  1
  Ir  Ir20  1  0.145584  0.139684  0.139685  1
  Ir  Ir21  1  0.137807  0.147679  0.576708  1
  Ir  Ir22  1  0.137806  0.576708  0.147678  1
  Ir  Ir23  1  0.575046  0.139685  0.139685  1
