# generated using pymatgen
data_Gd6Zn23N
_symmetry_space_group_name_H-M   'P 1'
_cell_length_a   9.01606756
_cell_length_b   9.01606704
_cell_length_c   9.01606800
_cell_angle_alpha   60.00000380
_cell_angle_beta   60.00000573
_cell_angle_gamma   59.99999977
_symmetry_Int_Tables_number   1
_chemical_formula_structural   Gd6Zn23N
_chemical_formula_sum   'Gd6 Zn23 N1'
_cell_volume   518.24664664
_cell_formula_units_Z   1
loop_
 _symmetry_equiv_pos_site_id
 _symmetry_equiv_pos_as_xyz
  1  'x, y, z'
loop_
 _atom_site_type_symbol
 _atom_site_label
 _atom_site_symmetry_multiplicity
 _atom_site_fract_x
 _atom_site_fract_y
 _atom_site_fract_z
 _atom_site_occupancy
  Gd  Gd0  1  0.695493  0.304507  0.304507  1
  Gd  Gd1  1  0.695493  0.304507  0.695493  1
  Gd  Gd2  1  0.695493  0.695493  0.304507  1
  Gd  Gd3  1  0.304507  0.695493  0.695493  1
  Gd  Gd4  1  0.304507  0.695493  0.304507  1
  Gd  Gd5  1  0.304507  0.304507  0.695493  1
  Zn  Zn6  1  0.632988  0.122338  0.122338  1
  Zn  Zn7  1  0.122338  0.632988  0.122338  1
  Zn  Zn8  1  0.122338  0.122338  0.632988  1
  Zn  Zn9  1  0.122338  0.122338  0.122338  1
  Zn  Zn10  1  0.367012  0.877662  0.877662  1
  Zn  Zn11  1  0.877662  0.367012  0.877662  1
  Zn  Zn12  1  0.877662  0.877662  0.367012  1
  Zn  Zn13  1  0.877662  0.877662  0.877662  1
  Zn  Zn14  1  0.500000  0.000000  0.000000  1
  Zn  Zn15  1  0.500000  0.000000  0.500000  1
  Zn  Zn16  1  0.500000  0.500000  0.000000  1
  Zn  Zn17  1  0.000000  0.500000  0.500000  1
  Zn  Zn18  1  0.000000  0.500000  0.000000  1
  Zn  Zn19  1  0.000000  0.000000  0.500000  1
  Zn  Zn20  1  0.000000  0.000000  0.000000  1
  Zn  Zn21  1  0.018559  0.327147  0.327147  1
  Zn  Zn22  1  0.327147  0.018559  0.327147  1
  Zn  Zn23  1  0.327147  0.327147  0.018559  1
  Zn  Zn24  1  0.327147  0.327147  0.327147  1
  Zn  Zn25  1  0.981441  0.672853  0.672853  1
  Zn  Zn26  1  0.672853  0.981441  0.672853  1
  Zn  Zn27  1  0.672853  0.672853  0.981441  1
  Zn  Zn28  1  0.672853  0.672853  0.672853  1
  N  N29  1  0.500000  0.500000  0.500000  1
