# generated using pymatgen
data_Sr8Yb11HfPt16
_symmetry_space_group_name_H-M   'P 1'
_cell_length_a   7.66391747
_cell_length_b   7.79970297
_cell_length_c   14.79514257
_cell_angle_alpha   90.05539007
_cell_angle_beta   90.15004054
_cell_angle_gamma   89.86929660
_symmetry_Int_Tables_number   1
_chemical_formula_structural   Sr8Yb11HfPt16
_chemical_formula_sum   'Sr8 Yb11 Hf1 Pt16'
_cell_volume   884.39284106
_cell_formula_units_Z   1
loop_
 _symmetry_equiv_pos_site_id
 _symmetry_equiv_pos_as_xyz
  1  'x, y, z'
loop_
 _atom_site_type_symbol
 _atom_site_label
 _atom_site_symmetry_multiplicity
 _atom_site_fract_x
 _atom_site_fract_y
 _atom_site_fract_z
 _atom_site_occupancy
  Sr  Sr0  1  0.502639  0.327196  0.904726  1
  Sr  Sr1  1  0.001349  0.176007  0.595713  1
  Sr  Sr2  1  0.498034  0.674413  0.403949  1
  Sr  Sr3  1  0.998089  0.824259  0.096360  1
  Sr  Sr4  1  0.498473  0.674034  0.095997  1
  Sr  Sr5  1  0.998036  0.825026  0.403664  1
  Sr  Sr6  1  0.503015  0.324427  0.595780  1
  Sr  Sr7  1  0.001827  0.175983  0.904196  1
  Yb  Yb8  1  0.838711  0.665844  0.623273  1
  Yb  Yb9  1  0.661146  0.166917  0.376873  1
  Yb  Yb10  1  0.161338  0.333616  0.122140  1
  Yb  Yb11  1  0.660576  0.165386  0.122253  1
  Yb  Yb12  1  0.161181  0.333596  0.377100  1
  Yb  Yb13  1  0.338913  0.832746  0.623518  1
  Yb  Yb14  1  0.839052  0.665149  0.878171  1
  Yb  Yb15  1  0.176212  0.497706  0.749443  1
  Yb  Yb16  1  0.679243  0.002785  0.749739  1
  Yb  Yb17  1  0.822822  0.501538  0.250259  1
  Yb  Yb18  1  0.322277  0.997217  0.250970  1
  Hf  Hf19  1  0.339423  0.834765  0.873563  1
  Pt  Pt20  1  0.325747  0.029640  0.031746  1
  Pt  Pt21  1  0.834537  0.460056  0.457839  1
  Pt  Pt22  1  0.665525  0.960214  0.543259  1
  Pt  Pt23  1  0.177157  0.566545  0.952405  1
  Pt  Pt24  1  0.647514  0.951966  0.950407  1
  Pt  Pt25  1  0.165120  0.538892  0.543364  1
  Pt  Pt26  1  0.335365  0.039512  0.457591  1
  Pt  Pt27  1  0.842025  0.459017  0.041392  1
  Pt  Pt28  1  0.535064  0.640405  0.761104  1
  Pt  Pt29  1  0.056348  0.862567  0.757679  1
  Pt  Pt30  1  0.454393  0.368707  0.248908  1
  Pt  Pt31  1  0.955159  0.129631  0.249632  1
  Pt  Pt32  1  0.311962  0.114732  0.757838  1
  Pt  Pt33  1  0.797242  0.379263  0.749385  1
  Pt  Pt34  1  0.696768  0.875004  0.249894  1
  Pt  Pt35  1  0.197719  0.625240  0.249869  1
