# generated using pymatgen
data_NdU(AsSe)2
_symmetry_space_group_name_H-M   'P 1'
_cell_length_a   4.00337619
_cell_length_b   4.00337630
_cell_length_c   17.43332100
_cell_angle_alpha   90.00000000
_cell_angle_beta   90.00000000
_cell_angle_gamma   90.02494565
_symmetry_Int_Tables_number   1
_chemical_formula_structural   NdU(AsSe)2
_chemical_formula_sum   'Nd2 U2 As4 Se4'
_cell_volume   279.40418184
_cell_formula_units_Z   2
loop_
 _symmetry_equiv_pos_site_id
 _symmetry_equiv_pos_as_xyz
  1  'x, y, z'
loop_
 _atom_site_type_symbol
 _atom_site_label
 _atom_site_symmetry_multiplicity
 _atom_site_fract_x
 _atom_site_fract_y
 _atom_site_fract_z
 _atom_site_occupancy
  Nd  Nd0  1  0.753935  0.753935  0.865241  1
  Nd  Nd1  1  0.746065  0.746065  0.365241  1
  U  U2  1  0.246397  0.246397  0.135972  1
  U  U3  1  0.253603  0.253603  0.635972  1
  As  As4  1  0.752098  0.249360  0.504574  1
  As  As5  1  0.747902  0.250640  0.004574  1
  As  As6  1  0.249360  0.752098  0.504574  1
  As  As7  1  0.250640  0.747902  0.004574  1
  Se  Se8  1  0.245714  0.245714  0.310033  1
  Se  Se9  1  0.254286  0.254286  0.810033  1
  Se  Se10  1  0.753841  0.753841  0.679605  1
  Se  Se11  1  0.746159  0.746159  0.179605  1
