# generated using pymatgen
data_Ca2Pr8Si5Pb
_symmetry_space_group_name_H-M   'P 1'
_cell_length_a   7.86465001
_cell_length_b   7.86464984
_cell_length_c   9.17197028
_cell_angle_alpha   115.38717975
_cell_angle_beta   115.38717613
_cell_angle_gamma   89.99999898
_symmetry_Int_Tables_number   1
_chemical_formula_structural   Ca2Pr8Si5Pb
_chemical_formula_sum   'Ca2 Pr8 Si5 Pb1'
_cell_volume   451.13773104
_cell_formula_units_Z   1
loop_
 _symmetry_equiv_pos_site_id
 _symmetry_equiv_pos_as_xyz
  1  'x, y, z'
loop_
 _atom_site_type_symbol
 _atom_site_label
 _atom_site_symmetry_multiplicity
 _atom_site_fract_x
 _atom_site_fract_y
 _atom_site_fract_z
 _atom_site_occupancy
  Ca  Ca0  1  0.506767  0.506767  0.013533  1
  Ca  Ca1  1  0.993233  0.993233  0.986467  1
  Pr  Pr2  1  0.972808  0.826778  0.283047  1
  Pr  Pr3  1  0.310239  0.456268  0.283047  1
  Pr  Pr4  1  0.826778  0.310239  0.283047  1
  Pr  Pr5  1  0.456268  0.972808  0.283047  1
  Pr  Pr6  1  0.043732  0.189761  0.716953  1
  Pr  Pr7  1  0.673222  0.527192  0.716953  1
  Pr  Pr8  1  0.189761  0.673222  0.716953  1
  Pr  Pr9  1  0.527192  0.043732  0.716953  1
  Si  Si10  1  0.250000  0.250000  0.500000  1
  Si  Si11  1  0.613938  0.886062  0.000000  1
  Si  Si12  1  0.386062  0.113938  0.000000  1
  Si  Si13  1  0.886062  0.386062  0.000000  1
  Si  Si14  1  0.113938  0.613938  0.000000  1
  Pb  Pb15  1  0.750000  0.750000  0.500000  1
