# generated using pymatgen
data_Y12Th4MgIn3Ir4
_symmetry_space_group_name_H-M   'P 1'
_cell_length_a   9.82332127
_cell_length_b   9.83332065
_cell_length_c   9.83345900
_cell_angle_alpha   60.00003549
_cell_angle_beta   59.96619648
_cell_angle_gamma   59.96609712
_symmetry_Int_Tables_number   1
_chemical_formula_structural   Y12Th4MgIn3Ir4
_chemical_formula_sum   'Y12 Th4 Mg1 In3 Ir4'
_cell_volume   671.31687540
_cell_formula_units_Z   1
loop_
 _symmetry_equiv_pos_site_id
 _symmetry_equiv_pos_as_xyz
  1  'x, y, z'
loop_
 _atom_site_type_symbol
 _atom_site_label
 _atom_site_symmetry_multiplicity
 _atom_site_fract_x
 _atom_site_fract_y
 _atom_site_fract_z
 _atom_site_occupancy
  Y  Y0  1  0.060751  0.439160  0.439162  1
  Y  Y1  1  0.437717  0.062305  0.062308  1
  Y  Y2  1  0.437720  0.062304  0.437670  1
  Y  Y3  1  0.060749  0.439161  0.060926  1
  Y  Y4  1  0.437719  0.437669  0.062307  1
  Y  Y5  1  0.060749  0.060924  0.439163  1
  Y  Y6  1  0.185525  0.814307  0.814307  1
  Y  Y7  1  0.814786  0.185983  0.185980  1
  Y  Y8  1  0.814788  0.185981  0.813250  1
  Y  Y9  1  0.185525  0.814305  0.185863  1
  Y  Y10  1  0.814788  0.813249  0.185982  1
  Y  Y11  1  0.185524  0.185863  0.814307  1
  Th  Th12  1  0.596841  0.597801  0.597798  1
  Th  Th13  1  0.596839  0.597800  0.207564  1
  Th  Th14  1  0.596843  0.207562  0.597795  1
  Th  Th15  1  0.206183  0.597942  0.597938  1
  Mg  Mg16  1  0.511704  0.829432  0.829432  1
  In  In17  1  0.832906  0.834357  0.834359  1
  In  In18  1  0.832908  0.834358  0.498374  1
  In  In19  1  0.832905  0.498378  0.834360  1
  Ir  Ir20  1  0.392366  0.393470  0.393470  1
  Ir  Ir21  1  0.392364  0.393471  0.820692  1
  Ir  Ir22  1  0.392365  0.820694  0.393470  1
  Ir  Ir23  1  0.819432  0.393522  0.393522  1
