# generated using pymatgen
data_YHo3NbOs7
_symmetry_space_group_name_H-M   'P 1'
_cell_length_a   5.44864100
_cell_length_b   5.44864080
_cell_length_c   8.64472800
_cell_angle_alpha   90.00000000
_cell_angle_beta   90.00000000
_cell_angle_gamma   120.00000730
_symmetry_Int_Tables_number   1
_chemical_formula_structural   YHo3NbOs7
_chemical_formula_sum   'Y1 Ho3 Nb1 Os7'
_cell_volume   222.25846203
_cell_formula_units_Z   1
loop_
 _symmetry_equiv_pos_site_id
 _symmetry_equiv_pos_as_xyz
  1  'x, y, z'
loop_
 _atom_site_type_symbol
 _atom_site_label
 _atom_site_symmetry_multiplicity
 _atom_site_fract_x
 _atom_site_fract_y
 _atom_site_fract_z
 _atom_site_occupancy
  Y  Y0  1  0.333333  0.666667  0.427678  1
  Ho  Ho1  1  0.666667  0.333333  0.572317  1
  Ho  Ho2  1  0.666667  0.333333  0.938524  1
  Ho  Ho3  1  0.333333  0.666667  0.061209  1
  Nb  Nb4  1  0.000000  0.000000  0.500102  1
  Os  Os5  1  0.000000  0.000000  0.000179  1
  Os  Os6  1  0.826162  0.173838  0.247761  1
  Os  Os7  1  0.826162  0.652325  0.247761  1
  Os  Os8  1  0.347675  0.173838  0.247761  1
  Os  Os9  1  0.173780  0.826220  0.752235  1
  Os  Os10  1  0.173780  0.347561  0.752235  1
  Os  Os11  1  0.652439  0.826220  0.752235  1
