# generated using pymatgen
data_Tb9Y(IrRh2)2
_symmetry_space_group_name_H-M   'P 1'
_cell_length_a   10.93896542
_cell_length_b   10.93693600
_cell_length_c   6.39883983
_cell_angle_alpha   90.00000000
_cell_angle_beta   89.94158663
_cell_angle_gamma   90.00000000
_symmetry_Int_Tables_number   1
_chemical_formula_structural   Tb9Y(IrRh2)2
_chemical_formula_sum   'Tb18 Y2 Ir4 Rh8'
_cell_volume   765.54889520
_cell_formula_units_Z   2
loop_
 _symmetry_equiv_pos_site_id
 _symmetry_equiv_pos_as_xyz
  1  'x, y, z'
loop_
 _atom_site_type_symbol
 _atom_site_label
 _atom_site_symmetry_multiplicity
 _atom_site_fract_x
 _atom_site_fract_y
 _atom_site_fract_z
 _atom_site_occupancy
  Tb  Tb0  1  0.291782  0.090429  0.379733  1
  Tb  Tb1  1  0.291782  0.909571  0.879733  1
  Tb  Tb2  1  0.708433  0.090448  0.879954  1
  Tb  Tb3  1  0.708433  0.909552  0.379954  1
  Tb  Tb4  1  0.588123  0.790164  0.880844  1
  Tb  Tb5  1  0.588123  0.209836  0.380844  1
  Tb  Tb6  1  0.411804  0.790154  0.380930  1
  Tb  Tb7  1  0.411804  0.209846  0.880930  1
  Tb  Tb8  1  0.209556  0.412077  0.618957  1
  Tb  Tb9  1  0.209556  0.587923  0.118957  1
  Tb  Tb10  1  0.790191  0.411831  0.119324  1
  Tb  Tb11  1  0.790191  0.588169  0.619324  1
  Tb  Tb12  1  0.909885  0.708294  0.119826  1
  Tb  Tb13  1  0.909885  0.291706  0.619826  1
  Tb  Tb14  1  0.000025  0.999876  0.500070  1
  Tb  Tb15  1  0.000025  0.000124  0.000070  1
  Tb  Tb16  1  0.500052  0.499833  0.000307  1
  Tb  Tb17  1  0.500052  0.500167  0.500307  1
  Y  Y18  1  0.090461  0.708636  0.620519  1
  Y  Y19  1  0.090461  0.291364  0.120519  1
  Ir  Ir20  1  0.654646  0.345286  0.750011  1
  Ir  Ir21  1  0.654646  0.654714  0.250011  1
  Ir  Ir22  1  0.345600  0.345216  0.250333  1
  Ir  Ir23  1  0.345600  0.654784  0.750333  1
  Rh  Rh24  1  0.846562  0.153315  0.249768  1
  Rh  Rh25  1  0.846562  0.846685  0.749768  1
  Rh  Rh26  1  0.153196  0.152937  0.749245  1
  Rh  Rh27  1  0.153196  0.847063  0.249245  1
  Rh  Rh28  1  0.500129  0.000082  0.125455  1
  Rh  Rh29  1  0.500129  0.999918  0.625455  1
  Rh  Rh30  1  0.999556  0.499961  0.874724  1
  Rh  Rh31  1  0.999556  0.500039  0.374724  1
