# generated using pymatgen
data_Na4USbSe6
_symmetry_space_group_name_H-M   'P 1'
_cell_length_a   7.27297977
_cell_length_b   7.27297990
_cell_length_c   7.33019276
_cell_angle_alpha   80.38371856
_cell_angle_beta   80.38372647
_cell_angle_gamma   120.10700383
_symmetry_Int_Tables_number   1
_chemical_formula_structural   Na4USbSe6
_chemical_formula_sum   'Na4 U1 Sb1 Se6'
_cell_volume   316.09095631
_cell_formula_units_Z   1
loop_
 _symmetry_equiv_pos_site_id
 _symmetry_equiv_pos_as_xyz
  1  'x, y, z'
loop_
 _atom_site_type_symbol
 _atom_site_label
 _atom_site_symmetry_multiplicity
 _atom_site_fract_x
 _atom_site_fract_y
 _atom_site_fract_z
 _atom_site_occupancy
  Na  Na0  1  0.000178  0.999822  0.000000  1
  Na  Na1  1  0.502674  0.497326  0.500000  1
  Na  Na2  1  0.837475  0.162525  0.500000  1
  Na  Na3  1  0.159822  0.840178  0.500000  1
  U  U4  1  0.332935  0.667065  0.000000  1
  Sb  Sb5  1  0.668835  0.331165  0.000000  1
  Se  Se6  1  0.271985  0.282583  0.229524  1
  Se  Se7  1  0.426105  0.066982  0.771356  1
  Se  Se8  1  0.085224  0.435667  0.773265  1
  Se  Se9  1  0.717417  0.728015  0.770476  1
  Se  Se10  1  0.564333  0.914776  0.226735  1
  Se  Se11  1  0.933018  0.573895  0.228644  1
