# generated using pymatgen
data_CeDy4Mn2O12
_symmetry_space_group_name_H-M   'P 1'
_cell_length_a   6.81690233
_cell_length_b   6.81691232
_cell_length_c   7.22110541
_cell_angle_alpha   74.70321419
_cell_angle_beta   74.70323209
_cell_angle_gamma   50.41629658
_symmetry_Int_Tables_number   1
_chemical_formula_structural   CeDy4Mn2O12
_chemical_formula_sum   'Ce1 Dy4 Mn2 O12'
_cell_volume   247.38065059
_cell_formula_units_Z   1
loop_
 _symmetry_equiv_pos_site_id
 _symmetry_equiv_pos_as_xyz
  1  'x, y, z'
loop_
 _atom_site_type_symbol
 _atom_site_label
 _atom_site_symmetry_multiplicity
 _atom_site_fract_x
 _atom_site_fract_y
 _atom_site_fract_z
 _atom_site_occupancy
  Ce  Ce0  1  0.305637  0.305636  0.355862  1
  Dy  Dy1  1  0.693297  0.693288  0.648600  1
  Dy  Dy2  1  0.305308  0.305299  0.841538  1
  Dy  Dy3  1  0.693747  0.693747  0.159057  1
  Dy  Dy4  1  0.999852  0.999848  0.499663  1
  Mn  Mn5  1  0.758505  0.243898  0.998569  1
  Mn  Mn6  1  0.243882  0.758520  0.998561  1
  O  O7  1  0.902130  0.422591  0.917819  1
  O  O8  1  0.422588  0.902129  0.917818  1
  O  O9  1  0.098455  0.576237  0.083407  1
  O  O10  1  0.576240  0.098451  0.083409  1
  O  O11  1  0.097609  0.595445  0.573007  1
  O  O12  1  0.595454  0.097596  0.573010  1
  O  O13  1  0.906122  0.400649  0.425274  1
  O  O14  1  0.400652  0.906120  0.425273  1
  O  O15  1  0.999262  0.999274  0.820746  1
  O  O16  1  0.000393  0.000396  0.178978  1
  O  O17  1  0.499515  0.499517  0.819656  1
  O  O18  1  0.501352  0.501358  0.179753  1
