# generated using pymatgen
data_Tb8Y4CdCo5
_symmetry_space_group_name_H-M   'P 1'
_cell_length_a   8.32114206
_cell_length_b   8.32113595
_cell_length_c   8.32114200
_cell_angle_alpha   110.79748113
_cell_angle_beta   110.00533970
_cell_angle_gamma   107.62748385
_symmetry_Int_Tables_number   1
_chemical_formula_structural   Tb8Y4CdCo5
_chemical_formula_sum   'Tb8 Y4 Cd1 Co5'
_cell_volume   443.16843172
_cell_formula_units_Z   1
loop_
 _symmetry_equiv_pos_site_id
 _symmetry_equiv_pos_as_xyz
  1  'x, y, z'
loop_
 _atom_site_type_symbol
 _atom_site_label
 _atom_site_symmetry_multiplicity
 _atom_site_fract_x
 _atom_site_fract_y
 _atom_site_fract_z
 _atom_site_occupancy
  Tb  Tb0  1  0.683802  0.378712  0.694910  1
  Tb  Tb1  1  0.316198  0.621288  0.305090  1
  Tb  Tb2  1  0.683802  0.988890  0.305090  1
  Tb  Tb3  1  0.316198  0.011110  0.694910  1
  Tb  Tb4  1  0.600095  0.792505  0.807592  1
  Tb  Tb5  1  0.399905  0.207495  0.192408  1
  Tb  Tb6  1  0.984913  0.792505  0.192408  1
  Tb  Tb7  1  0.015087  0.207495  0.807592  1
  Y  Y8  1  0.816155  0.708194  0.524349  1
  Y  Y9  1  0.183845  0.291806  0.475651  1
  Y  Y10  1  0.183845  0.708194  0.892040  1
  Y  Y11  1  0.816155  0.291806  0.107960  1
  Cd  Cd12  1  0.500000  0.500000  0.000000  1
  Co  Co13  1  0.623486  0.000000  0.623486  1
  Co  Co14  1  0.376514  0.000000  0.376514  1
  Co  Co15  1  0.113094  0.613095  0.500000  1
  Co  Co16  1  0.886906  0.386905  0.500000  1
  Co  Co17  1  0.000000  0.000000  0.000000  1
