# generated using pymatgen
data_Dy15HoCdIn3Rh4
_symmetry_space_group_name_H-M   'P 1'
_cell_length_a   9.65905189
_cell_length_b   9.64437843
_cell_length_c   9.65359900
_cell_angle_alpha   59.96836545
_cell_angle_beta   60.01866955
_cell_angle_gamma   59.99602820
_symmetry_Int_Tables_number   1
_chemical_formula_structural   Dy15HoCdIn3Rh4
_chemical_formula_sum   'Dy15 Ho1 Cd1 In3 Rh4'
_cell_volume   635.80982735
_cell_formula_units_Z   1
loop_
 _symmetry_equiv_pos_site_id
 _symmetry_equiv_pos_as_xyz
  1  'x, y, z'
loop_
 _atom_site_type_symbol
 _atom_site_label
 _atom_site_symmetry_multiplicity
 _atom_site_fract_x
 _atom_site_fract_y
 _atom_site_fract_z
 _atom_site_occupancy
  Dy  Dy0  1  0.936904  0.934509  0.564294  1
  Dy  Dy1  1  0.563026  0.560076  0.938448  1
  Dy  Dy2  1  0.690406  0.690478  0.309559  1
  Dy  Dy3  1  0.148593  0.549977  0.150715  1
  Dy  Dy4  1  0.688976  0.312352  0.688220  1
  Dy  Dy5  1  0.150952  0.150051  0.152852  1
  Dy  Dy6  1  0.549119  0.148602  0.151138  1
  Dy  Dy7  1  0.688976  0.312352  0.310451  1
  Dy  Dy8  1  0.150952  0.150051  0.546143  1
  Dy  Dy9  1  0.310912  0.690436  0.308931  1
  Dy  Dy10  1  0.310912  0.690436  0.689723  1
  Dy  Dy11  1  0.937213  0.560531  0.565260  1
  Dy  Dy12  1  0.937213  0.560531  0.936994  1
  Dy  Dy13  1  0.562917  0.936166  0.563462  1
  Dy  Dy14  1  0.562917  0.936166  0.937455  1
  Ho  Ho15  1  0.311654  0.310753  0.688796  1
  Cd  Cd16  1  0.918526  0.246493  0.917491  1
  In  In17  1  0.917168  0.919767  0.246620  1
  In  In18  1  0.246303  0.920423  0.916638  1
  In  In19  1  0.917168  0.919767  0.916447  1
  Rh  Rh20  1  0.357145  0.357895  0.927280  1
  Rh  Rh21  1  0.358279  0.925826  0.357948  1
  Rh  Rh22  1  0.926624  0.358461  0.357457  1
  Rh  Rh23  1  0.357145  0.357895  0.357680  1
