# generated using pymatgen
data_HoEr15(ZnIn3)2
_symmetry_space_group_name_H-M   'P 1'
_cell_length_a   10.56055200
_cell_length_b   10.55972525
_cell_length_c   6.72997301
_cell_angle_alpha   89.99968683
_cell_angle_beta   89.99933701
_cell_angle_gamma   120.00302538
_symmetry_Int_Tables_number   1
_chemical_formula_structural   HoEr15(ZnIn3)2
_chemical_formula_sum   'Ho1 Er15 Zn2 In6'
_cell_volume   649.93503977
_cell_formula_units_Z   1
loop_
 _symmetry_equiv_pos_site_id
 _symmetry_equiv_pos_as_xyz
  1  'x, y, z'
loop_
 _atom_site_type_symbol
 _atom_site_label
 _atom_site_symmetry_multiplicity
 _atom_site_fract_x
 _atom_site_fract_y
 _atom_site_fract_z
 _atom_site_occupancy
  Ho  Ho0  1  0.522030  0.044067  0.796726  1
  Er  Er1  1  0.955324  0.477490  0.797155  1
  Er  Er2  1  0.522178  0.477485  0.797167  1
  Er  Er3  1  0.477767  0.955516  0.296937  1
  Er  Er4  1  0.044441  0.522252  0.297128  1
  Er  Er5  1  0.477831  0.522271  0.297170  1
  Er  Er6  1  0.827117  0.654212  0.510560  1
  Er  Er7  1  0.345913  0.173078  0.510070  1
  Er  Er8  1  0.827154  0.173089  0.510035  1
  Er  Er9  1  0.173102  0.346181  0.010530  1
  Er  Er10  1  0.654023  0.826794  0.010475  1
  Er  Er11  1  0.172754  0.826778  0.010469  1
  Er  Er12  1  0.666780  0.333569  0.151099  1
  Er  Er13  1  0.333168  0.666333  0.650725  1
  Er  Er14  1  0.000015  0.000020  0.776468  1
  Er  Er15  1  0.000029  0.000065  0.276308  1
  Zn  Zn16  1  0.666898  0.333789  0.579886  1
  Zn  Zn17  1  0.333435  0.666865  0.080293  1
  In  In18  1  0.835811  0.671635  0.029383  1
  In  In19  1  0.328104  0.164162  0.029478  1
  In  In20  1  0.836051  0.164153  0.029479  1
  In  In21  1  0.164156  0.328315  0.529441  1
  In  In22  1  0.671653  0.835936  0.529435  1
  In  In23  1  0.164267  0.835943  0.529487  1
