# generated using pymatgen
data_Na8ZrAs4
_symmetry_space_group_name_H-M   'P 1'
_cell_length_a   9.96200080
_cell_length_b   9.96200096
_cell_length_c   9.96200100
_cell_angle_alpha   60.00000317
_cell_angle_beta   60.00000267
_cell_angle_gamma   60.00000228
_symmetry_Int_Tables_number   1
_chemical_formula_structural   Na8ZrAs4
_chemical_formula_sum   'Na16 Zr2 As8'
_cell_volume   699.07659345
_cell_formula_units_Z   2
loop_
 _symmetry_equiv_pos_site_id
 _symmetry_equiv_pos_as_xyz
  1  'x, y, z'
loop_
 _atom_site_type_symbol
 _atom_site_label
 _atom_site_symmetry_multiplicity
 _atom_site_fract_x
 _atom_site_fract_y
 _atom_site_fract_z
 _atom_site_occupancy
  Na  Na0  1  0.625000  0.625000  0.125000  1
  Na  Na1  1  0.625000  0.125000  0.625000  1
  Na  Na2  1  0.125000  0.625000  0.625000  1
  Na  Na3  1  0.625000  0.625000  0.625000  1
  Na  Na4  1  0.029423  0.470577  0.470577  1
  Na  Na5  1  0.779423  0.220577  0.220577  1
  Na  Na6  1  0.470577  0.029423  0.470577  1
  Na  Na7  1  0.470577  0.470577  0.029423  1
  Na  Na8  1  0.029423  0.029423  0.470577  1
  Na  Na9  1  0.029423  0.470577  0.029423  1
  Na  Na10  1  0.470577  0.029423  0.029423  1
  Na  Na11  1  0.779423  0.220577  0.779423  1
  Na  Na12  1  0.220577  0.779423  0.220577  1
  Na  Na13  1  0.220577  0.220577  0.779423  1
  Na  Na14  1  0.779423  0.779423  0.220577  1
  Na  Na15  1  0.220577  0.779423  0.779423  1
  Zr  Zr16  1  0.750000  0.750000  0.750000  1
  Zr  Zr17  1  0.500000  0.500000  0.500000  1
  As  As18  1  0.857864  0.857864  0.426408  1
  As  As19  1  0.857864  0.426408  0.857864  1
  As  As20  1  0.392136  0.392136  0.823592  1
  As  As21  1  0.392136  0.823592  0.392136  1
  As  As22  1  0.823592  0.392136  0.392136  1
  As  As23  1  0.857864  0.857864  0.857864  1
  As  As24  1  0.426408  0.857864  0.857864  1
  As  As25  1  0.392136  0.392136  0.392136  1
