# generated using pymatgen
data_SrHgPd3Au
_symmetry_space_group_name_H-M   'P 1'
_cell_length_a   5.54547897
_cell_length_b   5.71587342
_cell_length_c   4.58631400
_cell_angle_alpha   90.00000000
_cell_angle_beta   90.00000000
_cell_angle_gamma   120.20377198
_symmetry_Int_Tables_number   1
_chemical_formula_structural   SrHgPd3Au
_chemical_formula_sum   'Sr1 Hg1 Pd3 Au1'
_cell_volume   125.63789746
_cell_formula_units_Z   1
loop_
 _symmetry_equiv_pos_site_id
 _symmetry_equiv_pos_as_xyz
  1  'x, y, z'
loop_
 _atom_site_type_symbol
 _atom_site_label
 _atom_site_symmetry_multiplicity
 _atom_site_fract_x
 _atom_site_fract_y
 _atom_site_fract_z
 _atom_site_occupancy
  Sr  Sr0  1  0.000000  0.000000  0.000000  1
  Hg  Hg1  1  0.500000  0.500000  0.500000  1
  Pd  Pd2  1  0.680941  0.334794  0.000000  1
  Pd  Pd3  1  0.000000  0.500000  0.500000  1
  Pd  Pd4  1  0.319059  0.665206  0.000000  1
  Au  Au5  1  0.500000  0.000000  0.500000  1
