# generated using pymatgen
data_La2Pr3(GeC)2
_symmetry_space_group_name_H-M   'P 1'
_cell_length_a   8.18905300
_cell_length_b   12.90807400
_cell_length_c   4.27008900
_cell_angle_alpha   90.00000000
_cell_angle_beta   90.00000000
_cell_angle_gamma   90.00000000
_symmetry_Int_Tables_number   1
_chemical_formula_structural   La2Pr3(GeC)2
_chemical_formula_sum   'La4 Pr6 Ge4 C4'
_cell_volume   451.36933976
_cell_formula_units_Z   2
loop_
 _symmetry_equiv_pos_site_id
 _symmetry_equiv_pos_as_xyz
  1  'x, y, z'
loop_
 _atom_site_type_symbol
 _atom_site_label
 _atom_site_symmetry_multiplicity
 _atom_site_fract_x
 _atom_site_fract_y
 _atom_site_fract_z
 _atom_site_occupancy
  La  La0  1  0.831386  0.060779  0.499998  1
  La  La1  1  0.331386  0.439221  0.499998  1
  La  La2  1  0.668615  0.560779  0.499998  1
  La  La3  1  0.168615  0.939221  0.499998  1
  Pr  Pr4  1  0.500000  0.000000  0.000000  1
  Pr  Pr5  1  0.173597  0.212200  0.000000  1
  Pr  Pr6  1  0.673598  0.287800  0.000000  1
  Pr  Pr7  1  0.000000  0.500000  0.000000  1
  Pr  Pr8  1  0.326403  0.712200  0.000000  1
  Pr  Pr9  1  0.826403  0.787800  0.000000  1
  Ge  Ge10  1  0.451991  0.171338  0.499998  1
  Ge  Ge11  1  0.951991  0.328662  0.499998  1
  Ge  Ge12  1  0.048008  0.671338  0.499998  1
  Ge  Ge13  1  0.548010  0.828662  0.499998  1
  C  C14  1  0.039898  0.046722  0.000000  1
  C  C15  1  0.539897  0.453278  0.000000  1
  C  C16  1  0.460102  0.546722  0.000000  1
  C  C17  1  0.960103  0.953278  0.000000  1
