# generated using pymatgen
data_Nd2YTm(Ir2O7)2
_symmetry_space_group_name_H-M   'P 1'
_cell_length_a   7.36695141
_cell_length_b   7.31121779
_cell_length_c   7.30975952
_cell_angle_alpha   59.50774523
_cell_angle_beta   59.74084481
_cell_angle_gamma   59.74751947
_symmetry_Int_Tables_number   1
_chemical_formula_structural   Nd2YTm(Ir2O7)2
_chemical_formula_sum   'Nd2 Y1 Tm1 Ir4 O14'
_cell_volume   276.27794213
_cell_formula_units_Z   1
loop_
 _symmetry_equiv_pos_site_id
 _symmetry_equiv_pos_as_xyz
  1  'x, y, z'
loop_
 _atom_site_type_symbol
 _atom_site_label
 _atom_site_symmetry_multiplicity
 _atom_site_fract_x
 _atom_site_fract_y
 _atom_site_fract_z
 _atom_site_occupancy
  Nd  Nd0  1  0.625000  0.125000  0.125000  1
  Nd  Nd1  1  0.125000  0.125000  0.125000  1
  Y  Y2  1  0.125000  0.125000  0.625000  1
  Tm  Tm3  1  0.125000  0.625000  0.125000  1
  Ir  Ir4  1  0.125000  0.625000  0.625000  1
  Ir  Ir5  1  0.625000  0.125000  0.625000  1
  Ir  Ir6  1  0.625000  0.625000  0.125000  1
  Ir  Ir7  1  0.625000  0.625000  0.625000  1
  O  O8  1  0.721290  0.699767  0.289719  1
  O  O9  1  0.289742  0.290436  0.701644  1
  O  O10  1  0.718177  0.290436  0.701644  1
  O  O11  1  0.289224  0.699767  0.289719  1
  O  O12  1  0.290277  0.707346  0.712100  1
  O  O13  1  0.710488  0.289685  0.289339  1
  O  O14  1  0.528710  0.550233  0.960281  1
  O  O15  1  0.960258  0.959564  0.548356  1
  O  O16  1  0.531823  0.959564  0.548356  1
  O  O17  1  0.960776  0.550233  0.960281  1
  O  O18  1  0.959723  0.542654  0.537900  1
  O  O19  1  0.539512  0.960315  0.960661  1
  O  O20  1  0.242316  0.260594  0.254774  1
  O  O21  1  0.007684  0.989406  0.995226  1
