# generated using pymatgen
data_K3Ru2Cl9
_symmetry_space_group_name_H-M   'P 1'
_cell_length_a   7.08823300
_cell_length_b   7.08823165
_cell_length_c   17.32653300
_cell_angle_alpha   90.00000000
_cell_angle_beta   90.00000000
_cell_angle_gamma   120.00001096
_symmetry_Int_Tables_number   1
_chemical_formula_structural   K3Ru2Cl9
_chemical_formula_sum   'K6 Ru4 Cl18'
_cell_volume   753.90763426
_cell_formula_units_Z   2
loop_
 _symmetry_equiv_pos_site_id
 _symmetry_equiv_pos_as_xyz
  1  'x, y, z'
loop_
 _atom_site_type_symbol
 _atom_site_label
 _atom_site_symmetry_multiplicity
 _atom_site_fract_x
 _atom_site_fract_y
 _atom_site_fract_z
 _atom_site_occupancy
  K  K0  1  0.000000  0.000000  0.250000  1
  K  K1  1  0.000000  0.000000  0.750000  1
  K  K2  1  0.333333  0.666667  0.063157  1
  K  K3  1  0.666667  0.333333  0.563157  1
  K  K4  1  0.333333  0.666667  0.436843  1
  K  K5  1  0.666667  0.333333  0.936843  1
  Ru  Ru6  1  0.333333  0.666667  0.826868  1
  Ru  Ru7  1  0.666667  0.333333  0.326868  1
  Ru  Ru8  1  0.666667  0.333333  0.173132  1
  Ru  Ru9  1  0.333333  0.666667  0.673132  1
  Cl  Cl10  1  0.823241  0.176759  0.405641  1
  Cl  Cl11  1  0.823241  0.646482  0.405641  1
  Cl  Cl12  1  0.353518  0.176759  0.405641  1
  Cl  Cl13  1  0.646482  0.823241  0.905641  1
  Cl  Cl14  1  0.176759  0.353518  0.594359  1
  Cl  Cl15  1  0.176759  0.823241  0.905641  1
  Cl  Cl16  1  0.176759  0.353518  0.905641  1
  Cl  Cl17  1  0.823241  0.176759  0.094359  1
  Cl  Cl18  1  0.353518  0.176759  0.094359  1
  Cl  Cl19  1  0.646482  0.823241  0.594359  1
  Cl  Cl20  1  0.503537  0.007075  0.250000  1
  Cl  Cl21  1  0.496463  0.503537  0.750000  1
  Cl  Cl22  1  0.007075  0.503537  0.750000  1
  Cl  Cl23  1  0.992925  0.496463  0.250000  1
  Cl  Cl24  1  0.503537  0.496463  0.250000  1
  Cl  Cl25  1  0.496463  0.992925  0.750000  1
  Cl  Cl26  1  0.823241  0.646482  0.094359  1
  Cl  Cl27  1  0.176759  0.823241  0.594359  1
