# generated using pymatgen
data_TbLuRe2C3
_symmetry_space_group_name_H-M   'P 1'
_cell_length_a   6.05210749
_cell_length_b   6.05210697
_cell_length_c   5.64725463
_cell_angle_alpha   67.48496009
_cell_angle_beta   67.48496109
_cell_angle_gamma   31.55147245
_symmetry_Int_Tables_number   1
_chemical_formula_structural   TbLuRe2C3
_chemical_formula_sum   'Tb1 Lu1 Re2 C3'
_cell_volume   99.29816223
_cell_formula_units_Z   1
loop_
 _symmetry_equiv_pos_site_id
 _symmetry_equiv_pos_as_xyz
  1  'x, y, z'
loop_
 _atom_site_type_symbol
 _atom_site_label
 _atom_site_symmetry_multiplicity
 _atom_site_fract_x
 _atom_site_fract_y
 _atom_site_fract_z
 _atom_site_occupancy
  Tb  Tb0  1  0.392663  0.392663  0.816031  1
  Lu  Lu1  1  0.610903  0.610903  0.175820  1
  Re  Re2  1  0.842964  0.842964  0.322018  1
  Re  Re3  1  0.156329  0.156329  0.678801  1
  C  C4  1  0.751362  0.751362  0.733869  1
  C  C5  1  0.244167  0.244167  0.267598  1
  C  C6  1  0.001613  0.001613  0.005862  1
