# generated using pymatgen
data_HoEr11Co5Bi
_symmetry_space_group_name_H-M   'P 1'
_cell_length_a   8.23583605
_cell_length_b   8.23583524
_cell_length_c   8.23041738
_cell_angle_alpha   110.94842807
_cell_angle_beta   110.84828601
_cell_angle_gamma   106.68125475
_symmetry_Int_Tables_number   1
_chemical_formula_structural   HoEr11Co5Bi
_chemical_formula_sum   'Ho1 Er11 Co5 Bi1'
_cell_volume   428.83305380
_cell_formula_units_Z   1
loop_
 _symmetry_equiv_pos_site_id
 _symmetry_equiv_pos_as_xyz
  1  'x, y, z'
loop_
 _atom_site_type_symbol
 _atom_site_label
 _atom_site_symmetry_multiplicity
 _atom_site_fract_x
 _atom_site_fract_y
 _atom_site_fract_z
 _atom_site_occupancy
  Ho  Ho0  1  0.287903  0.183901  0.471805  1
  Er  Er1  1  0.712544  0.816114  0.528657  1
  Er  Er2  1  0.287883  0.815541  0.103424  1
  Er  Er3  1  0.712553  0.184039  0.896593  1
  Er  Er4  1  0.620769  0.311554  0.309235  1
  Er  Er5  1  0.379411  0.688955  0.690800  1
  Er  Er6  1  0.001845  0.311389  0.690800  1
  Er  Er7  1  0.997679  0.688465  0.309235  1
  Er  Er8  1  0.208058  0.403074  0.194524  1
  Er  Er9  1  0.792369  0.597821  0.805806  1
  Er  Er10  1  0.207985  0.013437  0.805806  1
  Er  Er11  1  0.791450  0.986466  0.194524  1
  Co  Co12  1  0.999303  0.374828  0.374132  1
  Co  Co13  1  0.000091  0.625314  0.625405  1
  Co  Co14  1  0.388611  0.887769  0.499825  1
  Co  Co15  1  0.612056  0.111215  0.499825  1
  Co  Co16  1  0.999529  0.000166  0.999695  1
  Bi  Bi17  1  0.499959  0.499950  0.999909  1
