# generated using pymatgen
data_Dy4AlRh
_symmetry_space_group_name_H-M   'P 1'
_cell_length_a   9.50883417
_cell_length_b   9.50883447
_cell_length_c   9.50883600
_cell_angle_alpha   60.00000163
_cell_angle_beta   60.00000059
_cell_angle_gamma   60.00000143
_symmetry_Int_Tables_number   1
_chemical_formula_structural   Dy4AlRh
_chemical_formula_sum   'Dy16 Al4 Rh4'
_cell_volume   607.94869700
_cell_formula_units_Z   4
loop_
 _symmetry_equiv_pos_site_id
 _symmetry_equiv_pos_as_xyz
  1  'x, y, z'
loop_
 _atom_site_type_symbol
 _atom_site_label
 _atom_site_symmetry_multiplicity
 _atom_site_fract_x
 _atom_site_fract_y
 _atom_site_fract_z
 _atom_site_occupancy
  Dy  Dy0  1  0.692177  0.307823  0.307823  1
  Dy  Dy1  1  0.692177  0.692177  0.307823  1
  Dy  Dy2  1  0.307823  0.692177  0.307823  1
  Dy  Dy3  1  0.937127  0.937127  0.562873  1
  Dy  Dy4  1  0.147253  0.147253  0.558241  1
  Dy  Dy5  1  0.562873  0.937127  0.562873  1
  Dy  Dy6  1  0.147253  0.147253  0.147253  1
  Dy  Dy7  1  0.307823  0.307823  0.692177  1
  Dy  Dy8  1  0.937127  0.562873  0.562873  1
  Dy  Dy9  1  0.562873  0.562873  0.937127  1
  Dy  Dy10  1  0.562873  0.937127  0.937127  1
  Dy  Dy11  1  0.937127  0.562873  0.937127  1
  Dy  Dy12  1  0.147253  0.558241  0.147253  1
  Dy  Dy13  1  0.307823  0.692177  0.692177  1
  Dy  Dy14  1  0.692177  0.307823  0.692177  1
  Dy  Dy15  1  0.558241  0.147253  0.147253  1
  Al  Al16  1  0.922569  0.922569  0.232292  1
  Al  Al17  1  0.232292  0.922569  0.922569  1
  Al  Al18  1  0.922569  0.232292  0.922569  1
  Al  Al19  1  0.922569  0.922569  0.922569  1
  Rh  Rh20  1  0.356835  0.356835  0.356835  1
  Rh  Rh21  1  0.929496  0.356835  0.356835  1
  Rh  Rh22  1  0.356835  0.356835  0.929496  1
  Rh  Rh23  1  0.356835  0.929496  0.356835  1
