# generated using pymatgen
data_YHo10(Lu3Bi4)3
_symmetry_space_group_name_H-M   'P 1'
_cell_length_a   8.16888866
_cell_length_b   9.43439260
_cell_length_c   11.95271270
_cell_angle_alpha   89.98336744
_cell_angle_beta   90.05380219
_cell_angle_gamma   89.97464574
_symmetry_Int_Tables_number   1
_chemical_formula_structural   YHo10(Lu3Bi4)3
_chemical_formula_sum   'Y1 Ho10 Lu9 Bi12'
_cell_volume   921.17713621
_cell_formula_units_Z   1
loop_
 _symmetry_equiv_pos_site_id
 _symmetry_equiv_pos_as_xyz
  1  'x, y, z'
loop_
 _atom_site_type_symbol
 _atom_site_label
 _atom_site_symmetry_multiplicity
 _atom_site_fract_x
 _atom_site_fract_y
 _atom_site_fract_z
 _atom_site_occupancy
  Y  Y0  1  0.146819  0.248754  0.716692  1
  Ho  Ho1  1  0.185399  0.749666  0.718658  1
  Ho  Ho2  1  0.685790  0.749487  0.781881  1
  Ho  Ho3  1  0.814471  0.249625  0.281635  1
  Ho  Ho4  1  0.313830  0.249627  0.218552  1
  Ho  Ho5  1  0.192531  0.938740  0.439773  1
  Ho  Ho6  1  0.309317  0.062157  0.941495  1
  Ho  Ho7  1  0.806886  0.438752  0.560114  1
  Ho  Ho8  1  0.354718  0.749774  0.216053  1
  Ho  Ho9  1  0.852175  0.748371  0.282660  1
  Ho  Ho10  1  0.645873  0.249303  0.783758  1
  Lu  Lu11  1  0.022211  0.749472  0.989429  1
  Lu  Lu12  1  0.523142  0.750197  0.510578  1
  Lu  Lu13  1  0.976872  0.248941  0.010649  1
  Lu  Lu14  1  0.476919  0.249744  0.489197  1
  Lu  Lu15  1  0.308252  0.430586  0.941212  1
  Lu  Lu16  1  0.808989  0.069650  0.559304  1
  Lu  Lu17  1  0.690715  0.931612  0.058378  1
  Lu  Lu18  1  0.191179  0.569637  0.440654  1
  Lu  Lu19  1  0.692970  0.565371  0.059265  1
  Bi  Bi20  1  0.434419  0.003043  0.672194  1
  Bi  Bi21  1  0.934194  0.495705  0.828144  1
  Bi  Bi22  1  0.565992  0.503294  0.327673  1
  Bi  Bi23  1  0.065740  0.995503  0.172089  1
  Bi  Bi24  1  0.567310  0.995929  0.328022  1
  Bi  Bi25  1  0.066389  0.503306  0.171389  1
  Bi  Bi26  1  0.433175  0.495929  0.671841  1
  Bi  Bi27  1  0.932760  0.003084  0.828429  1
  Bi  Bi28  1  0.403963  0.744260  0.957033  1
  Bi  Bi29  1  0.904455  0.755434  0.542196  1
  Bi  Bi30  1  0.597222  0.249629  0.043733  1
  Bi  Bi31  1  0.095325  0.255422  0.457318  1
