# generated using pymatgen
data_YHo7(Si3Rh4)2
_symmetry_space_group_name_H-M   'P 1'
_cell_length_a   10.68829264
_cell_length_b   10.68874461
_cell_length_c   7.69651396
_cell_angle_alpha   71.32848597
_cell_angle_beta   71.32229626
_cell_angle_gamma   29.74307994
_symmetry_Int_Tables_number   1
_chemical_formula_structural   YHo7(Si3Rh4)2
_chemical_formula_sum   'Y1 Ho7 Si6 Rh8'
_cell_volume   411.58896099
_cell_formula_units_Z   1
loop_
 _symmetry_equiv_pos_site_id
 _symmetry_equiv_pos_as_xyz
  1  'x, y, z'
loop_
 _atom_site_type_symbol
 _atom_site_label
 _atom_site_symmetry_multiplicity
 _atom_site_fract_x
 _atom_site_fract_y
 _atom_site_fract_z
 _atom_site_occupancy
  Y  Y0  1  0.790632  0.549164  0.599912  1
  Ho  Ho1  1  0.449915  0.210218  0.900020  1
  Ho  Ho2  1  0.210405  0.449872  0.399943  1
  Ho  Ho3  1  0.550164  0.789698  0.099944  1
  Ho  Ho4  1  0.791008  0.073750  0.168361  1
  Ho  Ho5  1  0.926222  0.208919  0.331638  1
  Ho  Ho6  1  0.209012  0.926091  0.831762  1
  Ho  Ho7  1  0.073811  0.790959  0.668386  1
  Si  Si8  1  0.953138  0.703291  0.055498  1
  Si  Si9  1  0.296858  0.046705  0.444279  1
  Si  Si10  1  0.046999  0.296532  0.944829  1
  Si  Si11  1  0.703413  0.952988  0.555481  1
  Si  Si12  1  0.634791  0.365154  0.750034  1
  Si  Si13  1  0.365161  0.634806  0.250024  1
  Rh  Rh14  1  0.576311  0.297955  0.520518  1
  Rh  Rh15  1  0.701804  0.423511  0.980159  1
  Rh  Rh16  1  0.423044  0.702232  0.479247  1
  Rh  Rh17  1  0.298006  0.576281  0.020605  1
  Rh  Rh18  1  0.628153  0.930786  0.307849  1
  Rh  Rh19  1  0.070592  0.371107  0.191239  1
  Rh  Rh20  1  0.370660  0.071164  0.691647  1
  Rh  Rh21  1  0.929901  0.628817  0.808625  1
