# generated using pymatgen
data_Th3Ga2Pt2RhAu
_symmetry_space_group_name_H-M   'P 1'
_cell_length_a   7.46598816
_cell_length_b   7.70371294
_cell_length_c   3.94596500
_cell_angle_alpha   90.00000000
_cell_angle_beta   90.00000000
_cell_angle_gamma   121.05900339
_symmetry_Int_Tables_number   1
_chemical_formula_structural   Th3Ga2Pt2RhAu
_chemical_formula_sum   'Th3 Ga2 Pt2 Rh1 Au1'
_cell_volume   194.41831342
_cell_formula_units_Z   1
loop_
 _symmetry_equiv_pos_site_id
 _symmetry_equiv_pos_as_xyz
  1  'x, y, z'
loop_
 _atom_site_type_symbol
 _atom_site_label
 _atom_site_symmetry_multiplicity
 _atom_site_fract_x
 _atom_site_fract_y
 _atom_site_fract_z
 _atom_site_occupancy
  Th  Th0  1  0.000000  0.404272  0.500000  1
  Th  Th1  1  0.608175  0.601817  0.500000  1
  Th  Th2  1  0.391825  0.993642  0.500000  1
  Ga  Ga3  1  0.249656  0.250014  0.000000  1
  Ga  Ga4  1  0.750344  0.000358  0.000000  1
  Pt  Pt5  1  0.347895  0.658136  0.000000  1
  Pt  Pt6  1  0.652105  0.310240  0.000000  1
  Rh  Rh7  1  0.000000  0.036618  0.500000  1
  Au  Au8  1  0.000000  0.744904  0.000000  1
