# generated using pymatgen
data_Dy8Ho10Sc2Si15Pt
_symmetry_space_group_name_H-M   'P 1'
_cell_length_a   7.28002462
_cell_length_b   7.70568186
_cell_length_c   14.48981400
_cell_angle_alpha   90.00000000
_cell_angle_beta   90.00000000
_cell_angle_gamma   90.11615018
_symmetry_Int_Tables_number   1
_chemical_formula_structural   Dy8Ho10Sc2Si15Pt
_chemical_formula_sum   'Dy8 Ho10 Sc2 Si15 Pt1'
_cell_volume   812.84144748
_cell_formula_units_Z   1
loop_
 _symmetry_equiv_pos_site_id
 _symmetry_equiv_pos_as_xyz
  1  'x, y, z'
loop_
 _atom_site_type_symbol
 _atom_site_label
 _atom_site_symmetry_multiplicity
 _atom_site_fract_x
 _atom_site_fract_y
 _atom_site_fract_z
 _atom_site_occupancy
  Dy  Dy0  1  0.020778  0.184300  0.098692  1
  Dy  Dy1  1  0.980502  0.818198  0.908755  1
  Dy  Dy2  1  0.479096  0.681653  0.907561  1
  Dy  Dy3  1  0.980502  0.818198  0.591245  1
  Dy  Dy4  1  0.520797  0.317476  0.098764  1
  Dy  Dy5  1  0.020778  0.184300  0.401308  1
  Dy  Dy6  1  0.520797  0.317476  0.401236  1
  Dy  Dy7  1  0.479096  0.681653  0.592439  1
  Ho  Ho8  1  0.148692  0.516015  0.750000  1
  Ho  Ho9  1  0.660143  0.988529  0.750000  1
  Ho  Ho10  1  0.315141  0.174810  0.622778  1
  Ho  Ho11  1  0.680703  0.824484  0.372181  1
  Ho  Ho12  1  0.179667  0.678959  0.372531  1
  Ho  Ho13  1  0.680703  0.824484  0.127819  1
  Ho  Ho14  1  0.823549  0.320695  0.622576  1
  Ho  Ho15  1  0.315141  0.174810  0.877222  1
  Ho  Ho16  1  0.823549  0.320695  0.877424  1
  Ho  Ho17  1  0.179667  0.678959  0.127469  1
  Sc  Sc18  1  0.845933  0.484671  0.250000  1
  Sc  Sc19  1  0.346840  0.017922  0.250000  1
  Si  Si20  1  0.984548  0.907402  0.250000  1
  Si  Si21  1  0.483766  0.595338  0.250000  1
  Si  Si22  1  0.522782  0.395927  0.750000  1
  Si  Si23  1  0.274898  0.866911  0.750000  1
  Si  Si24  1  0.722318  0.137136  0.250000  1
  Si  Si25  1  0.222855  0.364867  0.250000  1
  Si  Si26  1  0.762840  0.623591  0.750000  1
  Si  Si27  1  0.152424  0.472263  0.536145  1
  Si  Si28  1  0.848455  0.529977  0.457332  1
  Si  Si29  1  0.349600  0.971086  0.457336  1
  Si  Si30  1  0.848455  0.529977  0.042668  1
  Si  Si31  1  0.650744  0.029092  0.536827  1
  Si  Si32  1  0.152424  0.472263  0.963855  1
  Si  Si33  1  0.650744  0.029092  0.963173  1
  Si  Si34  1  0.349600  0.971086  0.042664  1
  Pt  Pt35  1  0.021471  0.095703  0.750000  1
