# generated using pymatgen
data_Yb5Lu3(OsC2)4
_symmetry_space_group_name_H-M   'P 1'
_cell_length_a   5.06958600
_cell_length_b   6.41340936
_cell_length_c   9.97365211
_cell_angle_alpha   90.29423523
_cell_angle_beta   90.00000000
_cell_angle_gamma   90.00000000
_symmetry_Int_Tables_number   1
_chemical_formula_structural   Yb5Lu3(OsC2)4
_chemical_formula_sum   'Yb5 Lu3 Os4 C8'
_cell_volume   324.27236970
_cell_formula_units_Z   1
loop_
 _symmetry_equiv_pos_site_id
 _symmetry_equiv_pos_as_xyz
  1  'x, y, z'
loop_
 _atom_site_type_symbol
 _atom_site_label
 _atom_site_symmetry_multiplicity
 _atom_site_fract_x
 _atom_site_fract_y
 _atom_site_fract_z
 _atom_site_occupancy
  Yb  Yb0  1  0.250000  0.190213  0.946797  1
  Yb  Yb1  1  0.250000  0.533481  0.221809  1
  Yb  Yb2  1  0.750000  0.464203  0.780042  1
  Yb  Yb3  1  0.750000  0.965097  0.721483  1
  Yb  Yb4  1  0.250000  0.034324  0.280408  1
  Lu  Lu5  1  0.250000  0.678611  0.554430  1
  Lu  Lu6  1  0.750000  0.322645  0.441022  1
  Lu  Lu7  1  0.750000  0.820737  0.060836  1
  Os  Os8  1  0.250000  0.724641  0.855941  1
  Os  Os9  1  0.750000  0.276124  0.141672  1
  Os  Os10  1  0.750000  0.778233  0.363589  1
  Os  Os11  1  0.250000  0.223275  0.638211  1
  C  C12  1  0.250000  0.461790  0.753737  1
  C  C13  1  0.750000  0.543779  0.241249  1
  C  C14  1  0.750000  0.042498  0.262182  1
  C  C15  1  0.250000  0.956320  0.733569  1
  C  C16  1  0.250000  0.804750  0.037563  1
  C  C17  1  0.750000  0.179027  0.965403  1
  C  C18  1  0.750000  0.677302  0.541644  1
  C  C19  1  0.250000  0.322951  0.458414  1
