# generated using pymatgen
data_Er6TcOs
_symmetry_space_group_name_H-M   'P 1'
_cell_length_a   6.24014400
_cell_length_b   7.38114900
_cell_length_c   8.98934300
_cell_angle_alpha   90.00000000
_cell_angle_beta   90.00000000
_cell_angle_gamma   90.00000000
_symmetry_Int_Tables_number   1
_chemical_formula_structural   Er6TcOs
_chemical_formula_sum   'Er12 Tc2 Os2'
_cell_volume   414.04403844
_cell_formula_units_Z   2
loop_
 _symmetry_equiv_pos_site_id
 _symmetry_equiv_pos_as_xyz
  1  'x, y, z'
loop_
 _atom_site_type_symbol
 _atom_site_label
 _atom_site_symmetry_multiplicity
 _atom_site_fract_x
 _atom_site_fract_y
 _atom_site_fract_z
 _atom_site_occupancy
  Er  Er0  1  0.336739  0.674597  0.062247  1
  Er  Er1  1  0.163261  0.174597  0.437753  1
  Er  Er2  1  0.664702  0.324965  0.562835  1
  Er  Er3  1  0.835298  0.824965  0.937165  1
  Er  Er4  1  0.664702  0.324965  0.937165  1
  Er  Er5  1  0.835298  0.824965  0.562835  1
  Er  Er6  1  0.336739  0.674597  0.437753  1
  Er  Er7  1  0.163261  0.174597  0.062247  1
  Er  Er8  1  0.875718  0.539270  0.250000  1
  Er  Er9  1  0.624282  0.039270  0.250000  1
  Er  Er10  1  0.129603  0.459746  0.750000  1
  Er  Er11  1  0.370397  0.959746  0.750000  1
  Tc  Tc12  1  0.039435  0.884073  0.250000  1
  Tc  Tc13  1  0.460565  0.384073  0.250000  1
  Os  Os14  1  0.959453  0.117788  0.750000  1
  Os  Os15  1  0.540547  0.617788  0.750000  1
