# generated using pymatgen
data_Tb20Si12H
_symmetry_space_group_name_H-M   'P 1'
_cell_length_a   14.77006200
_cell_length_b   6.38022941
_cell_length_c   8.47243201
_cell_angle_alpha   89.96407243
_cell_angle_beta   90.00000000
_cell_angle_gamma   90.00000000
_symmetry_Int_Tables_number   1
_chemical_formula_structural   Tb20Si12H
_chemical_formula_sum   'Tb20 Si12 H1'
_cell_volume   798.41119909
_cell_formula_units_Z   1
loop_
 _symmetry_equiv_pos_site_id
 _symmetry_equiv_pos_as_xyz
  1  'x, y, z'
loop_
 _atom_site_type_symbol
 _atom_site_label
 _atom_site_symmetry_multiplicity
 _atom_site_fract_x
 _atom_site_fract_y
 _atom_site_fract_z
 _atom_site_occupancy
  Tb  Tb0  1  0.666510  0.500000  0.500000  1
  Tb  Tb1  1  0.168015  0.500000  0.000000  1
  Tb  Tb2  1  0.831985  0.500000  0.000000  1
  Tb  Tb3  1  0.333490  0.500000  0.500000  1
  Tb  Tb4  1  0.834229  0.000000  0.000000  1
  Tb  Tb5  1  0.332321  0.000000  0.500000  1
  Tb  Tb6  1  0.667679  0.000000  0.500000  1
  Tb  Tb7  1  0.165771  0.000000  0.000000  1
  Tb  Tb8  1  0.500000  0.248257  0.755457  1
  Tb  Tb9  1  0.000000  0.251690  0.252764  1
  Tb  Tb10  1  0.621107  0.250263  0.123076  1
  Tb  Tb11  1  0.122517  0.247659  0.623861  1
  Tb  Tb12  1  0.877483  0.247659  0.623861  1
  Tb  Tb13  1  0.378893  0.250263  0.123076  1
  Tb  Tb14  1  0.000000  0.748310  0.747236  1
  Tb  Tb15  1  0.500000  0.751743  0.244543  1
  Tb  Tb16  1  0.877483  0.752341  0.376139  1
  Tb  Tb17  1  0.378893  0.749737  0.876924  1
  Tb  Tb18  1  0.621107  0.749737  0.876924  1
  Tb  Tb19  1  0.122517  0.752341  0.376139  1
  Si  Si20  1  0.000000  0.252011  0.892740  1
  Si  Si21  1  0.500000  0.248517  0.394658  1
  Si  Si22  1  0.803606  0.249172  0.303715  1
  Si  Si23  1  0.302252  0.248544  0.803036  1
  Si  Si24  1  0.697748  0.248544  0.803036  1
  Si  Si25  1  0.196394  0.249172  0.303715  1
  Si  Si26  1  0.500000  0.751483  0.605342  1
  Si  Si27  1  0.000000  0.747989  0.107260  1
  Si  Si28  1  0.697748  0.751456  0.196964  1
  Si  Si29  1  0.196394  0.750828  0.696285  1
  Si  Si30  1  0.803606  0.750828  0.696285  1
  Si  Si31  1  0.302252  0.751456  0.196964  1
  H  H32  1  0.000000  0.500000  0.500000  1
