# generated using pymatgen
data_Ce2Ho11Tm3(CdIr)4
_symmetry_space_group_name_H-M   'P 1'
_cell_length_a   9.61465288
_cell_length_b   9.62129648
_cell_length_c   9.63408022
_cell_angle_alpha   59.89688876
_cell_angle_beta   59.90178428
_cell_angle_gamma   59.94062602
_symmetry_Int_Tables_number   1
_chemical_formula_structural   Ce2Ho11Tm3(CdIr)4
_chemical_formula_sum   'Ce2 Ho11 Tm3 Cd4 Ir4'
_cell_volume   628.93438042
_cell_formula_units_Z   1
loop_
 _symmetry_equiv_pos_site_id
 _symmetry_equiv_pos_as_xyz
  1  'x, y, z'
loop_
 _atom_site_type_symbol
 _atom_site_label
 _atom_site_symmetry_multiplicity
 _atom_site_fract_x
 _atom_site_fract_y
 _atom_site_fract_z
 _atom_site_occupancy
  Ce  Ce0  1  0.595692  0.594508  0.598604  1
  Ce  Ce1  1  0.596565  0.596735  0.205715  1
  Ho  Ho2  1  0.439149  0.061967  0.059591  1
  Ho  Ho3  1  0.438888  0.061263  0.440610  1
  Ho  Ho4  1  0.062316  0.438851  0.060175  1
  Ho  Ho5  1  0.436743  0.437036  0.063603  1
  Ho  Ho6  1  0.061443  0.061581  0.438424  1
  Ho  Ho7  1  0.189306  0.813185  0.813430  1
  Ho  Ho8  1  0.811618  0.189201  0.187064  1
  Ho  Ho9  1  0.814096  0.188897  0.813051  1
  Ho  Ho10  1  0.188799  0.811166  0.187535  1
  Ho  Ho11  1  0.813520  0.812661  0.187713  1
  Ho  Ho12  1  0.189814  0.190515  0.808994  1
  Tm  Tm13  1  0.601896  0.199463  0.599893  1
  Tm  Tm14  1  0.198600  0.602039  0.599931  1
  Tm  Tm15  1  0.061016  0.439483  0.440255  1
  Cd  Cd16  1  0.830322  0.830960  0.828687  1
  Cd  Cd17  1  0.831034  0.831181  0.506780  1
  Cd  Cd18  1  0.831916  0.504235  0.830808  1
  Cd  Cd19  1  0.504368  0.831943  0.831321  1
  Ir  Ir20  1  0.391063  0.391953  0.394253  1
  Ir  Ir21  1  0.393138  0.393322  0.821311  1
  Ir  Ir22  1  0.395573  0.822258  0.391001  1
  Ir  Ir23  1  0.823128  0.395600  0.391250  1
