# generated using pymatgen
data_Ca4Ga2Ni3Ir
_symmetry_space_group_name_H-M   'P 1'
_cell_length_a   5.45982218
_cell_length_b   5.50054212
_cell_length_c   7.63532384
_cell_angle_alpha   79.04980640
_cell_angle_beta   79.35879518
_cell_angle_gamma   61.64900255
_symmetry_Int_Tables_number   1
_chemical_formula_structural   Ca4Ga2Ni3Ir
_chemical_formula_sum   'Ca4 Ga2 Ni3 Ir1'
_cell_volume   196.93843121
_cell_formula_units_Z   1
loop_
 _symmetry_equiv_pos_site_id
 _symmetry_equiv_pos_as_xyz
  1  'x, y, z'
loop_
 _atom_site_type_symbol
 _atom_site_label
 _atom_site_symmetry_multiplicity
 _atom_site_fract_x
 _atom_site_fract_y
 _atom_site_fract_z
 _atom_site_occupancy
  Ca  Ca0  1  0.781437  0.518566  0.352339  1
  Ca  Ca1  1  0.490735  0.211984  0.146896  1
  Ca  Ca2  1  0.217427  0.486642  0.648737  1
  Ca  Ca3  1  0.510887  0.784213  0.852339  1
  Ga  Ga4  1  0.113036  0.888615  0.251488  1
  Ga  Ga5  1  0.888352  0.115485  0.748743  1
  Ni  Ni6  1  0.268658  0.998857  0.492493  1
  Ni  Ni7  1  0.996762  0.269577  0.995470  1
  Ni  Ni8  1  0.727939  0.007673  0.506190  1
  Ir  Ir9  1  0.004766  0.718387  0.005305  1
