# generated using pymatgen
data_Zr6Ti16Os7
_symmetry_space_group_name_H-M   'P 1'
_cell_length_a   8.96684650
_cell_length_b   8.96684496
_cell_length_c   8.96684600
_cell_angle_alpha   59.99999618
_cell_angle_beta   60.00000183
_cell_angle_gamma   59.99999983
_symmetry_Int_Tables_number   1
_chemical_formula_structural   Zr6Ti16Os7
_chemical_formula_sum   'Zr6 Ti16 Os7'
_cell_volume   509.80501357
_cell_formula_units_Z   1
loop_
 _symmetry_equiv_pos_site_id
 _symmetry_equiv_pos_as_xyz
  1  'x, y, z'
loop_
 _atom_site_type_symbol
 _atom_site_label
 _atom_site_symmetry_multiplicity
 _atom_site_fract_x
 _atom_site_fract_y
 _atom_site_fract_z
 _atom_site_occupancy
  Zr  Zr0  1  0.692060  0.307940  0.307940  1
  Zr  Zr1  1  0.307940  0.692060  0.692060  1
  Zr  Zr2  1  0.307940  0.692060  0.307940  1
  Zr  Zr3  1  0.307940  0.307940  0.692060  1
  Zr  Zr4  1  0.692060  0.307940  0.692060  1
  Zr  Zr5  1  0.692060  0.692060  0.307940  1
  Ti  Ti6  1  0.668449  0.668449  0.668449  1
  Ti  Ti7  1  0.331552  0.005346  0.331552  1
  Ti  Ti8  1  0.005346  0.331552  0.331552  1
  Ti  Ti9  1  0.331552  0.331552  0.005346  1
  Ti  Ti10  1  0.331552  0.331552  0.331552  1
  Ti  Ti11  1  0.668449  0.668449  0.994654  1
  Ti  Ti12  1  0.668449  0.994654  0.668449  1
  Ti  Ti13  1  0.994654  0.668449  0.668449  1
  Ti  Ti14  1  0.117229  0.117229  0.117229  1
  Ti  Ti15  1  0.117229  0.117229  0.648313  1
  Ti  Ti16  1  0.648313  0.117229  0.117229  1
  Ti  Ti17  1  0.117229  0.648313  0.117229  1
  Ti  Ti18  1  0.882771  0.882771  0.882771  1
  Ti  Ti19  1  0.882771  0.882771  0.351685  1
  Ti  Ti20  1  0.882771  0.351685  0.882771  1
  Ti  Ti21  1  0.351685  0.882771  0.882771  1
  Os  Os22  1  0.000000  0.000000  0.000000  1
  Os  Os23  1  0.500000  0.000000  0.000000  1
  Os  Os24  1  0.000000  0.500000  0.500000  1
  Os  Os25  1  0.000000  0.500000  0.000000  1
  Os  Os26  1  0.000000  0.000000  0.500000  1
  Os  Os27  1  0.500000  0.000000  0.500000  1
  Os  Os28  1  0.500000  0.500000  0.000000  1
