# generated using pymatgen
data_Sr2Sc2VSi7Pt9
_symmetry_space_group_name_H-M   'P 1'
_cell_length_a   10.09447429
_cell_length_b   10.09877560
_cell_length_c   3.98986400
_cell_angle_alpha   90.00000000
_cell_angle_beta   90.00000000
_cell_angle_gamma   119.95839217
_symmetry_Int_Tables_number   1
_chemical_formula_structural   Sr2Sc2VSi7Pt9
_chemical_formula_sum   'Sr2 Sc2 V1 Si7 Pt9'
_cell_volume   352.38960238
_cell_formula_units_Z   1
loop_
 _symmetry_equiv_pos_site_id
 _symmetry_equiv_pos_as_xyz
  1  'x, y, z'
loop_
 _atom_site_type_symbol
 _atom_site_label
 _atom_site_symmetry_multiplicity
 _atom_site_fract_x
 _atom_site_fract_y
 _atom_site_fract_z
 _atom_site_occupancy
  Sr  Sr0  1  0.000774  0.998630  0.000000  1
  Sr  Sr1  1  0.330099  0.665027  0.500000  1
  Sc  Sc2  1  0.565054  0.111742  0.500000  1
  Sc  Sc3  1  0.549192  0.437741  0.500000  1
  V  V4  1  0.887234  0.453701  0.500000  1
  Si  Si5  1  0.251097  0.209155  0.500000  1
  Si  Si6  1  0.795628  0.046193  0.500000  1
  Si  Si7  1  0.953537  0.733858  0.500000  1
  Si  Si8  1  0.555614  0.644342  0.000000  1
  Si  Si9  1  0.355777  0.913897  0.000000  1
  Si  Si10  1  0.078351  0.444229  0.000000  1
  Si  Si11  1  0.678869  0.338889  0.000000  1
  Pt  Pt12  1  0.223828  0.940266  0.500000  1
  Pt  Pt13  1  0.056954  0.286523  0.500000  1
  Pt  Pt14  1  0.715991  0.773961  0.500000  1
  Pt  Pt15  1  0.305970  0.402326  0.000000  1
  Pt  Pt16  1  0.595538  0.905451  0.000000  1
  Pt  Pt17  1  0.092980  0.691726  0.000000  1
  Pt  Pt18  1  0.397124  0.177787  0.000000  1
  Pt  Pt19  1  0.826885  0.215010  0.000000  1
  Pt  Pt20  1  0.783504  0.609546  0.000000  1
