# generated using pymatgen
data_AlCu5Au2
_symmetry_space_group_name_H-M   'P 1'
_cell_length_a   5.38620800
_cell_length_b   5.39600885
_cell_length_c   4.35922600
_cell_angle_alpha   90.00000000
_cell_angle_beta   90.00000000
_cell_angle_gamma   119.93994724
_symmetry_Int_Tables_number   1
_chemical_formula_structural   AlCu5Au2
_chemical_formula_sum   'Al1 Cu5 Au2'
_cell_volume   109.78886055
_cell_formula_units_Z   1
loop_
 _symmetry_equiv_pos_site_id
 _symmetry_equiv_pos_as_xyz
  1  'x, y, z'
loop_
 _atom_site_type_symbol
 _atom_site_label
 _atom_site_symmetry_multiplicity
 _atom_site_fract_x
 _atom_site_fract_y
 _atom_site_fract_z
 _atom_site_occupancy
  Al  Al0  1  0.164199  0.328397  0.250001  1
  Cu  Cu1  1  0.681584  0.842647  0.250001  1
  Cu  Cu2  1  0.161063  0.842647  0.250001  1
  Cu  Cu3  1  0.839448  0.678898  0.750002  1
  Cu  Cu4  1  0.320781  0.155561  0.750002  1
  Cu  Cu5  1  0.834780  0.155561  0.750002  1
  Au  Au6  1  0.331392  0.662784  0.750002  1
  Au  Au7  1  0.666753  0.333505  0.250001  1
