# generated using pymatgen
data_Tm15Lu5Ir12
_symmetry_space_group_name_H-M   'P 1'
_cell_length_a   10.73245404
_cell_length_b   10.73394603
_cell_length_c   6.28829502
_cell_angle_alpha   90.00496399
_cell_angle_beta   89.99322602
_cell_angle_gamma   89.99349824
_symmetry_Int_Tables_number   1
_chemical_formula_structural   Tm15Lu5Ir12
_chemical_formula_sum   'Tm15 Lu5 Ir12'
_cell_volume   724.42152387
_cell_formula_units_Z   1
loop_
 _symmetry_equiv_pos_site_id
 _symmetry_equiv_pos_as_xyz
  1  'x, y, z'
loop_
 _atom_site_type_symbol
 _atom_site_label
 _atom_site_symmetry_multiplicity
 _atom_site_fract_x
 _atom_site_fract_y
 _atom_site_fract_z
 _atom_site_occupancy
  Tm  Tm0  1  0.290964  0.912568  0.877207  1
  Tm  Tm1  1  0.708970  0.087535  0.877160  1
  Tm  Tm2  1  0.708945  0.912457  0.377136  1
  Tm  Tm3  1  0.587529  0.791073  0.877187  1
  Tm  Tm4  1  0.587321  0.208925  0.377185  1
  Tm  Tm5  1  0.412352  0.791182  0.377170  1
  Tm  Tm6  1  0.412289  0.208918  0.877205  1
  Tm  Tm7  1  0.208984  0.412396  0.622781  1
  Tm  Tm8  1  0.208995  0.587564  0.122829  1
  Tm  Tm9  1  0.791017  0.412416  0.122836  1
  Tm  Tm10  1  0.791014  0.587564  0.622871  1
  Tm  Tm11  1  0.912441  0.708979  0.122807  1
  Tm  Tm12  1  0.912440  0.291013  0.622870  1
  Tm  Tm13  1  0.087592  0.709020  0.622799  1
  Tm  Tm14  1  0.087754  0.290865  0.122973  1
  Lu  Lu15  1  0.291426  0.087518  0.377607  1
  Lu  Lu16  1  0.000242  0.000103  0.499850  1
  Lu  Lu17  1  0.000034  0.000032  0.999944  1
  Lu  Lu18  1  0.499979  0.499980  0.999992  1
  Lu  Lu19  1  0.499931  0.499989  0.499911  1
  Ir  Ir20  1  0.846953  0.153018  0.249986  1
  Ir  Ir21  1  0.846967  0.846967  0.750015  1
  Ir  Ir22  1  0.153234  0.152907  0.749353  1
  Ir  Ir23  1  0.153139  0.847225  0.250146  1
  Ir  Ir24  1  0.653035  0.346950  0.750007  1
  Ir  Ir25  1  0.653052  0.653037  0.250012  1
  Ir  Ir26  1  0.346877  0.346607  0.250195  1
  Ir  Ir27  1  0.346952  0.653036  0.749992  1
  Ir  Ir28  1  0.499777  0.000110  0.121832  1
  Ir  Ir29  1  0.499774  0.000099  0.621366  1
  Ir  Ir30  1  0.000014  0.499980  0.878393  1
  Ir  Ir31  1  0.000008  0.499968  0.378381  1
