# generated using pymatgen
data_NdCo3P3RuRh
_symmetry_space_group_name_H-M   'P 1'
_cell_length_a   3.78818900
_cell_length_b   10.56814500
_cell_length_c   12.11623400
_cell_angle_alpha   90.00000000
_cell_angle_beta   90.00000000
_cell_angle_gamma   90.00000000
_symmetry_Int_Tables_number   1
_chemical_formula_structural   NdCo3P3RuRh
_chemical_formula_sum   'Nd4 Co12 P12 Ru4 Rh4'
_cell_volume   485.06289481
_cell_formula_units_Z   4
loop_
 _symmetry_equiv_pos_site_id
 _symmetry_equiv_pos_as_xyz
  1  'x, y, z'
loop_
 _atom_site_type_symbol
 _atom_site_label
 _atom_site_symmetry_multiplicity
 _atom_site_fract_x
 _atom_site_fract_y
 _atom_site_fract_z
 _atom_site_occupancy
  Nd  Nd0  1  0.250000  0.585734  0.708680  1
  Nd  Nd1  1  0.250000  0.914266  0.208680  1
  Nd  Nd2  1  0.750000  0.414266  0.291320  1
  Nd  Nd3  1  0.750000  0.085734  0.791320  1
  Co  Co4  1  0.250000  0.223134  0.177477  1
  Co  Co5  1  0.250000  0.276866  0.677477  1
  Co  Co6  1  0.750000  0.776866  0.822523  1
  Co  Co7  1  0.750000  0.723134  0.322523  1
  Co  Co8  1  0.250000  0.883632  0.698095  1
  Co  Co9  1  0.250000  0.616368  0.198095  1
  Co  Co10  1  0.750000  0.116368  0.301905  1
  Co  Co11  1  0.750000  0.383632  0.801905  1
  Co  Co12  1  0.250000  0.464049  0.933848  1
  Co  Co13  1  0.250000  0.035951  0.433848  1
  Co  Co14  1  0.750000  0.535951  0.066152  1
  Co  Co15  1  0.750000  0.964049  0.566152  1
  P  P16  1  0.250000  0.421696  0.109436  1
  P  P17  1  0.250000  0.078304  0.609436  1
  P  P18  1  0.750000  0.578304  0.890564  1
  P  P19  1  0.750000  0.921696  0.390564  1
  P  P20  1  0.250000  0.278377  0.863354  1
  P  P21  1  0.250000  0.221623  0.363354  1
  P  P22  1  0.750000  0.721623  0.136646  1
  P  P23  1  0.750000  0.778377  0.636646  1
  P  P24  1  0.250000  0.607798  0.382471  1
  P  P25  1  0.250000  0.892202  0.882471  1
  P  P26  1  0.750000  0.392202  0.617529  1
  P  P27  1  0.750000  0.107798  0.117529  1
  Ru  Ru28  1  0.250000  0.707547  0.985011  1
  Ru  Ru29  1  0.250000  0.792453  0.485011  1
  Ru  Ru30  1  0.750000  0.292453  0.014989  1
  Ru  Ru31  1  0.750000  0.207547  0.514989  1
  Rh  Rh32  1  0.250000  0.404152  0.486336  1
  Rh  Rh33  1  0.250000  0.095848  0.986336  1
  Rh  Rh34  1  0.750000  0.595848  0.513664  1
  Rh  Rh35  1  0.750000  0.904152  0.013664  1
