# generated using pymatgen
data_Sm5Ga2Ru3
_symmetry_space_group_name_H-M   'P 1'
_cell_length_a   8.46661578
_cell_length_b   8.46661585
_cell_length_c   8.46661600
_cell_angle_alpha   109.47121860
_cell_angle_beta   109.47121877
_cell_angle_gamma   109.47122233
_symmetry_Int_Tables_number   1
_chemical_formula_structural   Sm5Ga2Ru3
_chemical_formula_sum   'Sm10 Ga4 Ru6'
_cell_volume   467.20522471
_cell_formula_units_Z   2
loop_
 _symmetry_equiv_pos_site_id
 _symmetry_equiv_pos_as_xyz
  1  'x, y, z'
loop_
 _atom_site_type_symbol
 _atom_site_label
 _atom_site_symmetry_multiplicity
 _atom_site_fract_x
 _atom_site_fract_y
 _atom_site_fract_z
 _atom_site_occupancy
  Sm  Sm0  1  0.250000  0.683805  0.433805  1
  Sm  Sm1  1  0.750000  0.816195  0.066195  1
  Sm  Sm2  1  0.433805  0.250000  0.683805  1
  Sm  Sm3  1  0.683805  0.433805  0.250000  1
  Sm  Sm4  1  0.066195  0.750000  0.816195  1
  Sm  Sm5  1  0.816195  0.066195  0.750000  1
  Sm  Sm6  1  0.215818  0.215818  0.215818  1
  Sm  Sm7  1  0.500000  0.000000  0.284182  1
  Sm  Sm8  1  0.284182  0.500000  0.000000  1
  Sm  Sm9  1  0.000000  0.284182  0.500000  1
  Ga  Ga10  1  0.588155  0.588155  0.588155  1
  Ga  Ga11  1  0.500000  0.000000  0.911845  1
  Ga  Ga12  1  0.911845  0.500000  0.000000  1
  Ga  Ga13  1  0.000000  0.911845  0.500000  1
  Ru  Ru14  1  0.250000  0.122333  0.872333  1
  Ru  Ru15  1  0.750000  0.377667  0.627667  1
  Ru  Ru16  1  0.872332  0.250000  0.122333  1
  Ru  Ru17  1  0.122333  0.872332  0.250000  1
  Ru  Ru18  1  0.627667  0.750000  0.377667  1
  Ru  Ru19  1  0.377667  0.627667  0.750000  1
