# generated using pymatgen
data_Dy8Ti2MnSi16Tc9
_symmetry_space_group_name_H-M   'P 1'
_cell_length_a   6.74601735
_cell_length_b   6.74601698
_cell_length_c   12.94873929
_cell_angle_alpha   89.94595887
_cell_angle_beta   90.05404108
_cell_angle_gamma   89.25304736
_symmetry_Int_Tables_number   1
_chemical_formula_structural   Dy8Ti2MnSi16Tc9
_chemical_formula_sum   'Dy8 Ti2 Mn1 Si16 Tc9'
_cell_volume   589.23030180
_cell_formula_units_Z   1
loop_
 _symmetry_equiv_pos_site_id
 _symmetry_equiv_pos_as_xyz
  1  'x, y, z'
loop_
 _atom_site_type_symbol
 _atom_site_label
 _atom_site_symmetry_multiplicity
 _atom_site_fract_x
 _atom_site_fract_y
 _atom_site_fract_z
 _atom_site_occupancy
  Dy  Dy0  1  0.997435  0.662622  0.028039  1
  Dy  Dy1  1  0.002989  0.336309  0.527844  1
  Dy  Dy2  1  0.662622  0.997435  0.971961  1
  Dy  Dy3  1  0.180188  0.488362  0.784243  1
  Dy  Dy4  1  0.819260  0.511530  0.282741  1
  Dy  Dy5  1  0.488362  0.180188  0.215757  1
  Dy  Dy6  1  0.511530  0.819260  0.717259  1
  Dy  Dy7  1  0.336309  0.002989  0.472156  1
  Ti  Ti8  1  0.842927  0.157721  0.750683  1
  Ti  Ti9  1  0.157721  0.842927  0.249317  1
  Mn  Mn10  1  0.333490  0.333490  0.000000  1
  Si  Si11  1  0.014796  0.737253  0.444150  1
  Si  Si12  1  0.992172  0.262461  0.945925  1
  Si  Si13  1  0.737253  0.014796  0.555850  1
  Si  Si14  1  0.194931  0.470111  0.182185  1
  Si  Si15  1  0.805970  0.529566  0.682633  1
  Si  Si16  1  0.470111  0.194931  0.817815  1
  Si  Si17  1  0.529566  0.805970  0.317367  1
  Si  Si18  1  0.262461  0.992172  0.054075  1
  Si  Si19  1  0.788566  0.883419  0.182102  1
  Si  Si20  1  0.319019  0.601193  0.558288  1
  Si  Si21  1  0.673189  0.399280  0.056268  1
  Si  Si22  1  0.601193  0.319019  0.441712  1
  Si  Si23  1  0.399280  0.673189  0.943732  1
  Si  Si24  1  0.116930  0.212248  0.317340  1
  Si  Si25  1  0.212248  0.116930  0.682660  1
  Si  Si26  1  0.883419  0.788566  0.817898  1
  Tc  Tc27  1  0.306982  0.528405  0.364894  1
  Tc  Tc28  1  0.817207  0.020606  0.365129  1
  Tc  Tc29  1  0.980430  0.184515  0.134557  1
  Tc  Tc30  1  0.020606  0.817207  0.634871  1
  Tc  Tc31  1  0.528405  0.306982  0.635106  1
  Tc  Tc32  1  0.184515  0.980430  0.865443  1
  Tc  Tc33  1  0.666690  0.666690  0.500000  1
  Tc  Tc34  1  0.469236  0.691993  0.135091  1
  Tc  Tc35  1  0.691993  0.469236  0.864909  1
