# generated using pymatgen
data_GdFe3(GePt)4
_symmetry_space_group_name_H-M   'P 1'
_cell_length_a   11.25828700
_cell_length_b   16.07901063
_cell_length_c   18.84327821
_cell_angle_alpha   87.57973526
_cell_angle_beta   90.00000000
_cell_angle_gamma   90.00000000
_symmetry_Int_Tables_number   1
_chemical_formula_structural   GdFe3(GePt)4
_chemical_formula_sum   'Gd1 Fe3 Ge4 Pt4'
_cell_volume   3408.00729569
_cell_formula_units_Z   1
loop_
 _symmetry_equiv_pos_site_id
 _symmetry_equiv_pos_as_xyz
  1  'x, y, z'
loop_
 _atom_site_type_symbol
 _atom_site_label
 _atom_site_symmetry_multiplicity
 _atom_site_fract_x
 _atom_site_fract_y
 _atom_site_fract_z
 _atom_site_occupancy
  Gd  Gd0  1  0.250000  0.003135  0.694536  1
  Fe  Fe1  1  0.750000  0.500951  0.202381  1
  Fe  Fe2  1  0.750000  0.999111  0.297199  1
  Fe  Fe3  1  0.250000  0.499855  0.798102  1
  Ge  Ge4  1  0.750000  0.805826  0.915579  1
  Ge  Ge5  1  0.750000  0.320147  0.593418  1
  Ge  Ge6  1  0.250000  0.187326  0.100415  1
  Ge  Ge7  1  0.250000  0.680942  0.400252  1
  Pt  Pt8  1  0.750000  0.214284  0.916232  1
  Pt  Pt9  1  0.750000  0.699328  0.585879  1
  Pt  Pt10  1  0.250000  0.790257  0.094055  1
  Pt  Pt11  1  0.250000  0.298838  0.401952  1
