# generated using pymatgen
data_Tb3P6Ir8W
_symmetry_space_group_name_H-M   'P 1'
_cell_length_a   3.99727100
_cell_length_b   11.14411500
_cell_length_c   12.83849700
_cell_angle_alpha   90.00000000
_cell_angle_beta   90.00000000
_cell_angle_gamma   90.00000000
_symmetry_Int_Tables_number   1
_chemical_formula_structural   Tb3P6Ir8W
_chemical_formula_sum   'Tb6 P12 Ir16 W2'
_cell_volume   571.90429989
_cell_formula_units_Z   2
loop_
 _symmetry_equiv_pos_site_id
 _symmetry_equiv_pos_as_xyz
  1  'x, y, z'
loop_
 _atom_site_type_symbol
 _atom_site_label
 _atom_site_symmetry_multiplicity
 _atom_site_fract_x
 _atom_site_fract_y
 _atom_site_fract_z
 _atom_site_occupancy
  Tb  Tb0  1  0.000000  0.500000  0.522398  1
  Tb  Tb1  1  0.500000  0.000000  0.477602  1
  Tb  Tb2  1  0.500000  0.818006  0.203025  1
  Tb  Tb3  1  0.500000  0.181994  0.203025  1
  Tb  Tb4  1  0.000000  0.681994  0.796975  1
  Tb  Tb5  1  0.000000  0.318006  0.796975  1
  P  P6  1  0.500000  0.500000  0.873676  1
  P  P7  1  0.000000  0.000000  0.126324  1
  P  P8  1  0.500000  0.500000  0.347179  1
  P  P9  1  0.000000  0.000000  0.652821  1
  P  P10  1  0.500000  0.314114  0.617663  1
  P  P11  1  0.500000  0.685886  0.617663  1
  P  P12  1  0.000000  0.185886  0.382337  1
  P  P13  1  0.000000  0.814114  0.382337  1
  P  P14  1  0.500000  0.844968  0.886542  1
  P  P15  1  0.500000  0.155032  0.886542  1
  P  P16  1  0.000000  0.655032  0.113458  1
  P  P17  1  0.000000  0.344968  0.113458  1
  Ir  Ir18  1  0.500000  0.500000  0.696450  1
  Ir  Ir19  1  0.000000  0.000000  0.303550  1
  Ir  Ir20  1  0.000000  0.500000  0.995496  1
  Ir  Ir21  1  0.500000  0.000000  0.004504  1
  Ir  Ir22  1  0.500000  0.331987  0.981068  1
  Ir  Ir23  1  0.500000  0.668013  0.981068  1
  Ir  Ir24  1  0.000000  0.168013  0.018932  1
  Ir  Ir25  1  0.000000  0.831987  0.018932  1
  Ir  Ir26  1  0.500000  0.297008  0.431530  1
  Ir  Ir27  1  0.500000  0.702992  0.431530  1
  Ir  Ir28  1  0.000000  0.202992  0.568470  1
  Ir  Ir29  1  0.000000  0.797008  0.568470  1
  Ir  Ir30  1  0.500000  0.872681  0.711125  1
  Ir  Ir31  1  0.500000  0.127319  0.711125  1
  Ir  Ir32  1  0.000000  0.627319  0.288875  1
  Ir  Ir33  1  0.000000  0.372681  0.288875  1
  W  W34  1  0.500000  0.500000  0.159423  1
  W  W35  1  0.000000  0.000000  0.840577  1
