# generated using pymatgen
data_Ho2ThSn3IrRh2
_symmetry_space_group_name_H-M   'P 1'
_cell_length_a   7.58528110
_cell_length_b   7.63742348
_cell_length_c   3.92436700
_cell_angle_alpha   90.00000000
_cell_angle_beta   90.00000000
_cell_angle_gamma   120.37190923
_symmetry_Int_Tables_number   1
_chemical_formula_structural   Ho2ThSn3IrRh2
_chemical_formula_sum   'Ho2 Th1 Sn3 Ir1 Rh2'
_cell_volume   196.14579637
_cell_formula_units_Z   1
loop_
 _symmetry_equiv_pos_site_id
 _symmetry_equiv_pos_as_xyz
  1  'x, y, z'
loop_
 _atom_site_type_symbol
 _atom_site_label
 _atom_site_symmetry_multiplicity
 _atom_site_fract_x
 _atom_site_fract_y
 _atom_site_fract_z
 _atom_site_occupancy
  Ho  Ho0  1  0.594998  0.591705  0.000000  1
  Ho  Ho1  1  0.407165  0.001753  0.000000  1
  Th  Th2  1  0.999748  0.413174  0.000000  1
  Sn  Sn3  1  0.269170  0.258149  0.500000  1
  Sn  Sn4  1  0.001616  0.755253  0.500000  1
  Sn  Sn5  1  0.729138  0.986477  0.500000  1
  Ir  Ir6  1  0.678745  0.333360  0.500000  1
  Rh  Rh7  1  0.320034  0.653364  0.500000  1
  Rh  Rh8  1  0.999388  0.006764  0.000000  1
