# generated using pymatgen
data_Ho6Er7Tm3(In3Pd)2
_symmetry_space_group_name_H-M   'P 1'
_cell_length_a   10.44959300
_cell_length_b   10.44959189
_cell_length_c   6.91920800
_cell_angle_alpha   90.00000000
_cell_angle_beta   90.00000000
_cell_angle_gamma   120.00000036
_symmetry_Int_Tables_number   1
_chemical_formula_structural   Ho6Er7Tm3(In3Pd)2
_chemical_formula_sum   'Ho6 Er7 Tm3 In6 Pd2'
_cell_volume   654.31325919
_cell_formula_units_Z   1
loop_
 _symmetry_equiv_pos_site_id
 _symmetry_equiv_pos_as_xyz
  1  'x, y, z'
loop_
 _atom_site_type_symbol
 _atom_site_label
 _atom_site_symmetry_multiplicity
 _atom_site_fract_x
 _atom_site_fract_y
 _atom_site_fract_z
 _atom_site_occupancy
  Ho  Ho0  1  0.529400  0.058801  0.796601  1
  Ho  Ho1  1  0.941199  0.470600  0.796601  1
  Ho  Ho2  1  0.529400  0.470600  0.796601  1
  Ho  Ho3  1  0.470902  0.941803  0.297119  1
  Ho  Ho4  1  0.058197  0.529098  0.297119  1
  Ho  Ho5  1  0.470902  0.529098  0.297119  1
  Er  Er6  1  0.174890  0.349780  0.001861  1
  Er  Er7  1  0.650220  0.825110  0.001861  1
  Er  Er8  1  0.174890  0.825110  0.001861  1
  Er  Er9  1  0.666667  0.333333  0.168433  1
  Er  Er10  1  0.333333  0.666667  0.668039  1
  Er  Er11  1  0.000000  0.000000  0.774792  1
  Er  Er12  1  0.000000  0.000000  0.275843  1
  Tm  Tm13  1  0.825120  0.650241  0.502062  1
  Tm  Tm14  1  0.349759  0.174880  0.502062  1
  Tm  Tm15  1  0.825120  0.174880  0.502062  1
  In  In16  1  0.837035  0.674071  0.038006  1
  In  In17  1  0.325929  0.162965  0.038006  1
  In  In18  1  0.837035  0.162965  0.038006  1
  In  In19  1  0.162669  0.325337  0.537226  1
  In  In20  1  0.674663  0.837331  0.537226  1
  In  In21  1  0.162669  0.837331  0.537226  1
  Pd  Pd22  1  0.666667  0.333333  0.564705  1
  Pd  Pd23  1  0.333333  0.666667  0.065467  1
