# generated using pymatgen
data_Yb4Cu3Si12Pt17
_symmetry_space_group_name_H-M   'P 1'
_cell_length_a   4.06220600
_cell_length_b   19.55628712
_cell_length_c   7.27608253
_cell_angle_alpha   89.40192256
_cell_angle_beta   90.00000000
_cell_angle_gamma   90.00000000
_symmetry_Int_Tables_number   1
_chemical_formula_structural   Yb4Cu3Si12Pt17
_chemical_formula_sum   'Yb4 Cu3 Si12 Pt17'
_cell_volume   577.99263406
_cell_formula_units_Z   1
loop_
 _symmetry_equiv_pos_site_id
 _symmetry_equiv_pos_as_xyz
  1  'x, y, z'
loop_
 _atom_site_type_symbol
 _atom_site_label
 _atom_site_symmetry_multiplicity
 _atom_site_fract_x
 _atom_site_fract_y
 _atom_site_fract_z
 _atom_site_occupancy
  Yb  Yb0  1  0.750000  0.641762  0.117215  1
  Yb  Yb1  1  0.250000  0.356369  0.883828  1
  Yb  Yb2  1  0.250000  0.858765  0.621480  1
  Yb  Yb3  1  0.750000  0.143011  0.380267  1
  Cu  Cu4  1  0.250000  0.380845  0.338341  1
  Cu  Cu5  1  0.250000  0.881264  0.151837  1
  Cu  Cu6  1  0.750000  0.118248  0.846586  1
  Si  Si7  1  0.750000  0.744084  0.625102  1
  Si  Si8  1  0.250000  0.258432  0.383996  1
  Si  Si9  1  0.250000  0.759137  0.126455  1
  Si  Si10  1  0.750000  0.240677  0.884855  1
  Si  Si11  1  0.750000  0.926146  0.354325  1
  Si  Si12  1  0.250000  0.073478  0.645095  1
  Si  Si13  1  0.250000  0.575558  0.835280  1
  Si  Si14  1  0.750000  0.427079  0.144329  1
  Si  Si15  1  0.750000  0.915907  0.899318  1
  Si  Si16  1  0.250000  0.086186  0.101866  1
  Si  Si17  1  0.250000  0.584109  0.405896  1
  Si  Si18  1  0.750000  0.411271  0.598633  1
  Pt  Pt19  1  0.750000  0.805290  0.327197  1
  Pt  Pt20  1  0.250000  0.193526  0.679238  1
  Pt  Pt21  1  0.250000  0.700160  0.832179  1
  Pt  Pt22  1  0.750000  0.305703  0.176949  1
  Pt  Pt23  1  0.750000  0.996113  0.628722  1
  Pt  Pt24  1  0.250000  0.002855  0.370486  1
  Pt  Pt25  1  0.250000  0.508493  0.120665  1
  Pt  Pt26  1  0.750000  0.492425  0.865553  1
  Pt  Pt27  1  0.750000  0.514690  0.377828  1
  Pt  Pt28  1  0.250000  0.476610  0.613297  1
  Pt  Pt29  1  0.250000  0.983308  0.883960  1
  Pt  Pt30  1  0.750000  0.018067  0.117679  1
  Pt  Pt31  1  0.750000  0.797771  0.928410  1
  Pt  Pt32  1  0.250000  0.204938  0.080779  1
  Pt  Pt33  1  0.250000  0.703788  0.426024  1
  Pt  Pt34  1  0.750000  0.293264  0.578881  1
  Pt  Pt35  1  0.750000  0.620674  0.647450  1
