# generated using pymatgen
data_NaY(CO3)2
_symmetry_space_group_name_H-M   'P 1'
_cell_length_a   6.41338027
_cell_length_b   6.41338094
_cell_length_c   6.41338051
_cell_angle_alpha   46.55359551
_cell_angle_beta   46.55359614
_cell_angle_gamma   46.55360120
_symmetry_Int_Tables_number   1
_chemical_formula_structural   NaY(CO3)2
_chemical_formula_sum   'Na1 Y1 C2 O6'
_cell_volume   126.97865441
_cell_formula_units_Z   1
loop_
 _symmetry_equiv_pos_site_id
 _symmetry_equiv_pos_as_xyz
  1  'x, y, z'
loop_
 _atom_site_type_symbol
 _atom_site_label
 _atom_site_symmetry_multiplicity
 _atom_site_fract_x
 _atom_site_fract_y
 _atom_site_fract_z
 _atom_site_occupancy
  Na  Na0  1  0.500000  0.500000  0.500000  1
  Y  Y1  1  0.000000  0.000000  0.000000  1
  C  C2  1  0.254738  0.254738  0.254738  1
  C  C3  1  0.745262  0.745262  0.745262  1
  O  O4  1  0.480180  0.763439  0.991795  1
  O  O5  1  0.008204  0.519821  0.236562  1
  O  O6  1  0.236562  0.008204  0.519820  1
  O  O7  1  0.763438  0.991796  0.480180  1
  O  O8  1  0.991796  0.480179  0.763438  1
  O  O9  1  0.519820  0.236561  0.008205  1
