# generated using pymatgen
data_Tm5V3(Ni4As3)4
_symmetry_space_group_name_H-M   'P 1'
_cell_length_a   12.54209223
_cell_length_b   12.54209259
_cell_length_c   3.82223600
_cell_angle_alpha   90.00000000
_cell_angle_beta   90.00000000
_cell_angle_gamma   119.84805380
_symmetry_Int_Tables_number   1
_chemical_formula_structural   Tm5V3(Ni4As3)4
_chemical_formula_sum   'Tm5 V3 Ni16 As12'
_cell_volume   521.49607244
_cell_formula_units_Z   1
loop_
 _symmetry_equiv_pos_site_id
 _symmetry_equiv_pos_as_xyz
  1  'x, y, z'
loop_
 _atom_site_type_symbol
 _atom_site_label
 _atom_site_symmetry_multiplicity
 _atom_site_fract_x
 _atom_site_fract_y
 _atom_site_fract_z
 _atom_site_occupancy
  Tm  Tm0  1  0.666609  0.333433  0.000000  1
  Tm  Tm1  1  0.333434  0.666609  0.000000  1
  Tm  Tm2  1  0.186703  0.999935  0.500000  1
  Tm  Tm3  1  0.999935  0.186703  0.500000  1
  Tm  Tm4  1  0.813421  0.813421  0.500000  1
  V  V5  1  0.561009  0.000188  0.000000  1
  V  V6  1  0.439077  0.439076  0.000000  1
  V  V7  1  0.000188  0.561009  0.000000  1
  Ni  Ni8  1  0.999612  0.999612  0.000000  1
  Ni  Ni9  1  0.804993  0.182019  0.000000  1
  Ni  Ni10  1  0.376448  0.194687  0.000000  1
  Ni  Ni11  1  0.194687  0.376448  0.000000  1
  Ni  Ni12  1  0.817883  0.622665  0.000000  1
  Ni  Ni13  1  0.182019  0.804993  0.000000  1
  Ni  Ni14  1  0.622665  0.817882  0.000000  1
  Ni  Ni15  1  0.718624  0.000688  0.500000  1
  Ni  Ni16  1  0.481344  0.124095  0.500000  1
  Ni  Ni17  1  0.281645  0.281645  0.500000  1
  Ni  Ni18  1  0.875536  0.356823  0.500000  1
  Ni  Ni19  1  0.124095  0.481344  0.500000  1
  Ni  Ni20  1  0.643351  0.519017  0.500000  1
  Ni  Ni21  1  0.519017  0.643351  0.500000  1
  Ni  Ni22  1  0.000688  0.718623  0.500000  1
  Ni  Ni23  1  0.356823  0.875536  0.500000  1
  As  As24  1  0.364744  0.999928  0.000000  1
  As  As25  1  0.821990  0.999911  0.000000  1
  As  As26  1  0.177463  0.177463  0.000000  1
  As  As27  1  0.999928  0.364744  0.000000  1
  As  As28  1  0.635282  0.635282  0.000000  1
  As  As29  1  0.999911  0.821990  0.000000  1
  As  As30  1  0.682833  0.165337  0.500000  1
  As  As31  1  0.482304  0.317131  0.500000  1
  As  As32  1  0.317131  0.482304  0.500000  1
  As  As33  1  0.835333  0.518051  0.500000  1
  As  As34  1  0.165337  0.682833  0.500000  1
  As  As35  1  0.518051  0.835333  0.500000  1
