# generated using pymatgen
data_Ho4ReB12Ru
_symmetry_space_group_name_H-M   'P 1'
_cell_length_a   3.66045200
_cell_length_b   9.13524222
_cell_length_c   11.52046505
_cell_angle_alpha   89.79746740
_cell_angle_beta   90.00000000
_cell_angle_gamma   90.00000000
_symmetry_Int_Tables_number   1
_chemical_formula_structural   Ho4ReB12Ru
_chemical_formula_sum   'Ho8 Re2 B24 Ru2'
_cell_volume   385.23175640
_cell_formula_units_Z   2
loop_
 _symmetry_equiv_pos_site_id
 _symmetry_equiv_pos_as_xyz
  1  'x, y, z'
loop_
 _atom_site_type_symbol
 _atom_site_label
 _atom_site_symmetry_multiplicity
 _atom_site_fract_x
 _atom_site_fract_y
 _atom_site_fract_z
 _atom_site_occupancy
  Ho  Ho0  1  0.000000  0.324649  0.415446  1
  Ho  Ho1  1  0.000000  0.675351  0.584554  1
  Ho  Ho2  1  0.000000  0.820896  0.087678  1
  Ho  Ho3  1  0.000000  0.179104  0.912322  1
  Ho  Ho4  1  0.000000  0.943000  0.370835  1
  Ho  Ho5  1  0.000000  0.057000  0.629165  1
  Ho  Ho6  1  0.000000  0.442739  0.129306  1
  Ho  Ho7  1  0.000000  0.557261  0.870694  1
  Re  Re8  1  0.000000  0.638375  0.320299  1
  Re  Re9  1  0.000000  0.361625  0.679701  1
  B  B10  1  0.500000  0.553040  0.433161  1
  B  B11  1  0.500000  0.446960  0.566839  1
  B  B12  1  0.500000  0.053814  0.066898  1
  B  B13  1  0.500000  0.946186  0.933102  1
  B  B14  1  0.500000  0.748912  0.419196  1
  B  B15  1  0.500000  0.251088  0.580804  1
  B  B16  1  0.500000  0.248459  0.080840  1
  B  B17  1  0.500000  0.751541  0.919160  1
  B  B18  1  0.500000  0.791834  0.265207  1
  B  B19  1  0.500000  0.208166  0.734793  1
  B  B20  1  0.500000  0.290624  0.234098  1
  B  B21  1  0.500000  0.709376  0.765902  1
  B  B22  1  0.500000  0.631367  0.185033  1
  B  B23  1  0.500000  0.368633  0.814967  1
  B  B24  1  0.500000  0.131178  0.314052  1
  B  B25  1  0.500000  0.868822  0.685948  1
  B  B26  1  0.500000  0.983198  0.211897  1
  B  B27  1  0.500000  0.016802  0.788103  1
  B  B28  1  0.500000  0.482329  0.287467  1
  B  B29  1  0.500000  0.517671  0.712533  1
  B  B30  1  0.500000  0.603870  0.028622  1
  B  B31  1  0.500000  0.396130  0.971378  1
  B  B32  1  0.500000  0.103592  0.471163  1
  B  B33  1  0.500000  0.896408  0.528837  1
  Ru  Ru34  1  0.000000  0.137765  0.178418  1
  Ru  Ru35  1  0.000000  0.862235  0.821582  1
