# generated using pymatgen
data_Ba5LiAu5
_symmetry_space_group_name_H-M   'P 1'
_cell_length_a   17.23387100
_cell_length_b   17.23387210
_cell_length_c   4.73258800
_cell_angle_alpha   90.00000000
_cell_angle_beta   90.00000000
_cell_angle_gamma   164.78834059
_symmetry_Int_Tables_number   1
_chemical_formula_structural   Ba5LiAu5
_chemical_formula_sum   'Ba5 Li1 Au5'
_cell_volume   368.81138131
_cell_formula_units_Z   1
loop_
 _symmetry_equiv_pos_site_id
 _symmetry_equiv_pos_as_xyz
  1  'x, y, z'
loop_
 _atom_site_type_symbol
 _atom_site_label
 _atom_site_symmetry_multiplicity
 _atom_site_fract_x
 _atom_site_fract_y
 _atom_site_fract_z
 _atom_site_occupancy
  Ba  Ba0  1  0.002998  0.997002  0.000000  1
  Ba  Ba1  1  0.613612  0.386386  0.000000  1
  Ba  Ba2  1  0.383526  0.616472  0.000000  1
  Ba  Ba3  1  0.797431  0.202567  0.500001  1
  Ba  Ba4  1  0.197491  0.802507  0.500001  1
  Li  Li5  1  0.918847  0.081152  0.500001  1
  Au  Au6  1  0.717544  0.282454  0.000000  1
  Au  Au7  1  0.280117  0.719881  0.000000  1
  Au  Au8  1  0.539857  0.460141  0.500001  1
  Au  Au9  1  0.454826  0.545172  0.500001  1
  Au  Au10  1  0.093741  0.906258  0.500001  1
