# generated using pymatgen
data_La8GePd23Pt
_symmetry_space_group_name_H-M   'P 1'
_cell_length_a   8.55402400
_cell_length_b   8.55972300
_cell_length_c   8.55972300
_cell_angle_alpha   90.00000000
_cell_angle_beta   90.00000000
_cell_angle_gamma   90.00000000
_symmetry_Int_Tables_number   1
_chemical_formula_structural   La8GePd23Pt
_chemical_formula_sum   'La8 Ge1 Pd23 Pt1'
_cell_volume   626.74356839
_cell_formula_units_Z   1
loop_
 _symmetry_equiv_pos_site_id
 _symmetry_equiv_pos_as_xyz
  1  'x, y, z'
loop_
 _atom_site_type_symbol
 _atom_site_label
 _atom_site_symmetry_multiplicity
 _atom_site_fract_x
 _atom_site_fract_y
 _atom_site_fract_z
 _atom_site_occupancy
  La  La0  1  0.252868  0.252987  0.252987  1
  La  La1  1  0.746544  0.746255  0.746255  1
  La  La2  1  0.746544  0.746255  0.253745  1
  La  La3  1  0.746544  0.253745  0.746255  1
  La  La4  1  0.252868  0.252987  0.747013  1
  La  La5  1  0.252868  0.747013  0.252987  1
  La  La6  1  0.252868  0.747013  0.747013  1
  La  La7  1  0.746544  0.253745  0.253745  1
  Ge  Ge8  1  0.004442  0.000000  0.000000  1
  Pd  Pd9  1  0.258769  0.500000  0.000000  1
  Pd  Pd10  1  0.739619  0.500000  0.000000  1
  Pd  Pd11  1  0.999808  0.259559  0.500000  1
  Pd  Pd12  1  0.500225  0.259202  0.000000  1
  Pd  Pd13  1  0.999808  0.740441  0.500000  1
  Pd  Pd14  1  0.500225  0.740798  0.000000  1
  Pd  Pd15  1  0.500225  0.000000  0.259202  1
  Pd  Pd16  1  0.258769  0.000000  0.500000  1
  Pd  Pd17  1  0.500225  0.000000  0.740798  1
  Pd  Pd18  1  0.739619  0.000000  0.500000  1
  Pd  Pd19  1  0.999808  0.500000  0.259559  1
  Pd  Pd20  1  0.999808  0.500000  0.740441  1
  Pd  Pd21  1  0.252722  0.500000  0.500000  1
  Pd  Pd22  1  0.747482  0.500000  0.500000  1
  Pd  Pd23  1  0.499818  0.252707  0.500000  1
  Pd  Pd24  1  0.499818  0.747293  0.500000  1
  Pd  Pd25  1  0.499818  0.500000  0.252707  1
  Pd  Pd26  1  0.499818  0.500000  0.747293  1
  Pd  Pd27  1  0.713685  0.000000  0.000000  1
  Pd  Pd28  1  0.998846  0.290906  0.000000  1
  Pd  Pd29  1  0.998846  0.709094  0.000000  1
  Pd  Pd30  1  0.998846  0.000000  0.290906  1
  Pd  Pd31  1  0.998846  0.000000  0.709094  1
  Pt  Pt32  1  0.292463  0.000000  0.000000  1
