# generated using pymatgen
data_Bi4Te4Pd3Pt
_symmetry_space_group_name_H-M   'P 1'
_cell_length_a   6.76839662
_cell_length_b   6.76839662
_cell_length_c   6.76839662
_cell_angle_alpha   89.72954086
_cell_angle_beta   89.72954086
_cell_angle_gamma   89.72954086
_symmetry_Int_Tables_number   1
_chemical_formula_structural   Bi4Te4Pd3Pt
_chemical_formula_sum   'Bi4 Te4 Pd3 Pt1'
_cell_volume   310.05799090
_cell_formula_units_Z   1
loop_
 _symmetry_equiv_pos_site_id
 _symmetry_equiv_pos_as_xyz
  1  'x, y, z'
loop_
 _atom_site_type_symbol
 _atom_site_label
 _atom_site_symmetry_multiplicity
 _atom_site_fract_x
 _atom_site_fract_y
 _atom_site_fract_z
 _atom_site_occupancy
  Bi  Bi0  1  0.371043  0.371043  0.371043  1
  Bi  Bi1  1  0.131045  0.631058  0.868415  1
  Bi  Bi2  1  0.868415  0.131045  0.631058  1
  Bi  Bi3  1  0.631058  0.868415  0.131045  1
  Te  Te4  1  0.626226  0.626226  0.626226  1
  Te  Te5  1  0.874552  0.372010  0.126576  1
  Te  Te6  1  0.126576  0.874552  0.372010  1
  Te  Te7  1  0.372010  0.126576  0.874552  1
  Pd  Pd8  1  0.494809  0.995407  0.505349  1
  Pd  Pd9  1  0.505349  0.494809  0.995407  1
  Pd  Pd10  1  0.995407  0.505349  0.494809  1
  Pt  Pt11  1  0.003510  0.003510  0.003510  1
