# generated using pymatgen
data_Y3Er3Pb5
_symmetry_space_group_name_H-M   'P 1'
_cell_length_a   11.71645217
_cell_length_b   11.71458702
_cell_length_c   11.71541333
_cell_angle_alpha   146.83956090
_cell_angle_beta   132.71455913
_cell_angle_gamma   58.96096849
_symmetry_Int_Tables_number   1
_chemical_formula_structural   Y3Er3Pb5
_chemical_formula_sum   'Y6 Er6 Pb10'
_cell_volume   640.75151031
_cell_formula_units_Z   2
loop_
 _symmetry_equiv_pos_site_id
 _symmetry_equiv_pos_as_xyz
  1  'x, y, z'
loop_
 _atom_site_type_symbol
 _atom_site_label
 _atom_site_symmetry_multiplicity
 _atom_site_fract_x
 _atom_site_fract_y
 _atom_site_fract_z
 _atom_site_occupancy
  Y  Y0  1  0.696251  0.946493  0.249823  1
  Y  Y1  1  0.250269  0.637458  0.612711  1
  Y  Y2  1  0.681193  0.941265  0.740063  1
  Y  Y3  1  0.024901  0.137452  0.887559  1
  Y  Y4  1  0.975274  0.862486  0.112523  1
  Y  Y5  1  0.798442  0.558478  0.239682  1
  Er  Er6  1  0.201631  0.441250  0.760336  1
  Er  Er7  1  0.303525  0.053728  0.749847  1
  Er  Er8  1  0.318604  0.058690  0.260218  1
  Er  Er9  1  0.303563  0.553748  0.249824  1
  Er  Er10  1  0.750595  0.363055  0.387837  1
  Er  Er11  1  0.696222  0.446331  0.749724  1
  Pb  Pb12  1  0.480872  0.573024  0.905859  1
  Pb  Pb13  1  0.598278  0.793367  0.803093  1
  Pb  Pb14  1  0.666243  0.075323  0.592862  1
  Pb  Pb15  1  0.000835  0.749601  0.750700  1
  Pb  Pb16  1  0.990190  0.295816  0.696180  1
  Pb  Pb17  1  0.518026  0.425011  0.092760  1
  Pb  Pb18  1  0.010820  0.705307  0.304145  1
  Pb  Pb19  1  0.400791  0.206198  0.195945  1
  Pb  Pb20  1  0.332709  0.925838  0.407087  1
  Pb  Pb21  1  0.000767  0.250082  0.251221  1
