# generated using pymatgen
data_SbTe2OsF18
_symmetry_space_group_name_H-M   'P 1'
_cell_length_a   5.64512507
_cell_length_b   7.76243507
_cell_length_c   9.78216749
_cell_angle_alpha   104.26021248
_cell_angle_beta   107.67313526
_cell_angle_gamma   88.09616059
_symmetry_Int_Tables_number   1
_chemical_formula_structural   SbTe2OsF18
_chemical_formula_sum   'Sb1 Te2 Os1 F18'
_cell_volume   395.43719610
_cell_formula_units_Z   1
loop_
 _symmetry_equiv_pos_site_id
 _symmetry_equiv_pos_as_xyz
  1  'x, y, z'
loop_
 _atom_site_type_symbol
 _atom_site_label
 _atom_site_symmetry_multiplicity
 _atom_site_fract_x
 _atom_site_fract_y
 _atom_site_fract_z
 _atom_site_occupancy
  Sb  Sb0  1  0.430270  0.739654  0.298368  1
  Te  Te1  1  0.853989  0.339270  0.162727  1
  Te  Te2  1  0.146565  0.659893  0.836026  1
  Os  Os3  1  0.572373  0.266590  0.706550  1
  F  F4  1  0.114050  0.599264  0.185555  1
  F  F5  1  0.419757  0.498328  0.701928  1
  F  F6  1  0.362227  0.741860  0.476005  1
  F  F7  1  0.754014  0.846270  0.387158  1
  F  F8  1  0.930854  0.642243  0.644921  1
  F  F9  1  0.067700  0.354864  0.354208  1
  F  F10  1  0.473822  0.702565  0.101541  1
  F  F11  1  0.575023  0.504263  0.296097  1
  F  F12  1  0.081545  0.208835  0.075631  1
  F  F13  1  0.299705  0.869557  0.833321  1
  F  F14  1  0.915902  0.789470  0.921484  1
  F  F15  1  0.266578  0.950829  0.273136  1
  F  F16  1  0.526307  0.295501  0.902160  1
  F  F17  1  0.698163  0.130562  0.164366  1
  F  F18  1  0.894675  0.400216  0.816039  1
  F  F19  1  0.728828  0.052608  0.722648  1
  F  F20  1  0.630542  0.255132  0.525808  1
  F  F21  1  0.257112  0.152227  0.614325  1
