# generated using pymatgen
data_DyY2Sn3Rh2Au
_symmetry_space_group_name_H-M   'P 1'
_cell_length_a   7.70234561
_cell_length_b   7.71804216
_cell_length_c   3.82938100
_cell_angle_alpha   90.00000000
_cell_angle_beta   90.00000000
_cell_angle_gamma   120.00683305
_symmetry_Int_Tables_number   1
_chemical_formula_structural   DyY2Sn3Rh2Au
_chemical_formula_sum   'Dy1 Y2 Sn3 Rh2 Au1'
_cell_volume   197.13305447
_cell_formula_units_Z   1
loop_
 _symmetry_equiv_pos_site_id
 _symmetry_equiv_pos_as_xyz
  1  'x, y, z'
loop_
 _atom_site_type_symbol
 _atom_site_label
 _atom_site_symmetry_multiplicity
 _atom_site_fract_x
 _atom_site_fract_y
 _atom_site_fract_z
 _atom_site_occupancy
  Dy  Dy0  1  0.014744  0.605067  0.500000  1
  Y  Y1  1  0.395239  0.409160  0.500000  1
  Y  Y2  1  0.590706  0.985626  0.500000  1
  Sn  Sn3  1  0.740411  0.743694  0.000000  1
  Sn  Sn4  1  0.256031  0.996136  0.000000  1
  Sn  Sn5  1  0.003685  0.259716  0.000000  1
  Rh  Rh6  1  0.331747  0.666663  0.000000  1
  Rh  Rh7  1  0.000011  0.999748  0.500000  1
  Au  Au8  1  0.667426  0.334191  0.000000  1
