# generated using pymatgen
data_Ga8MoRu9
_symmetry_space_group_name_H-M   'P 1'
_cell_length_a   7.44129332
_cell_length_b   7.44129379
_cell_length_c   5.29386528
_cell_angle_alpha   90.02009269
_cell_angle_beta   90.02009180
_cell_angle_gamma   120.07294208
_symmetry_Int_Tables_number   1
_chemical_formula_structural   Ga8MoRu9
_chemical_formula_sum   'Ga8 Mo1 Ru9'
_cell_volume   253.67671377
_cell_formula_units_Z   1
loop_
 _symmetry_equiv_pos_site_id
 _symmetry_equiv_pos_as_xyz
  1  'x, y, z'
loop_
 _atom_site_type_symbol
 _atom_site_label
 _atom_site_symmetry_multiplicity
 _atom_site_fract_x
 _atom_site_fract_y
 _atom_site_fract_z
 _atom_site_occupancy
  Ga  Ga0  1  0.666476  0.996079  0.222940  1
  Ga  Ga1  1  0.337453  0.337452  0.222822  1
  Ga  Ga2  1  0.996079  0.666477  0.222940  1
  Ga  Ga3  1  0.666631  0.337207  0.561125  1
  Ga  Ga4  1  0.337208  0.666632  0.561125  1
  Ga  Ga5  1  0.996171  0.996171  0.562060  1
  Ga  Ga6  1  0.333197  0.000027  0.891813  1
  Ga  Ga7  1  0.000027  0.333196  0.891813  1
  Mo  Mo8  1  0.666893  0.666893  0.892570  1
  Ru  Ru9  1  0.666557  0.330036  0.059981  1
  Ru  Ru10  1  0.330037  0.666558  0.059981  1
  Ru  Ru11  1  0.003287  0.003287  0.060740  1
  Ru  Ru12  1  0.333164  0.999969  0.391764  1
  Ru  Ru13  1  0.999969  0.333163  0.391764  1
  Ru  Ru14  1  0.666840  0.666840  0.392366  1
  Ru  Ru15  1  0.666549  0.003250  0.724057  1
  Ru  Ru16  1  0.330214  0.330214  0.723922  1
  Ru  Ru17  1  0.003250  0.666549  0.724057  1
