# generated using pymatgen
data_Pr6Y10Cd3HgIr4
_symmetry_space_group_name_H-M   'P 1'
_cell_length_a   9.80007638
_cell_length_b   9.80007589
_cell_length_c   9.80007644
_cell_angle_alpha   59.93392129
_cell_angle_beta   59.93392372
_cell_angle_gamma   59.93392126
_symmetry_Int_Tables_number   1
_chemical_formula_structural   Pr6Y10Cd3HgIr4
_chemical_formula_sum   'Pr6 Y10 Cd3 Hg1 Ir4'
_cell_volume   664.54128677
_cell_formula_units_Z   1
loop_
 _symmetry_equiv_pos_site_id
 _symmetry_equiv_pos_as_xyz
  1  'x, y, z'
loop_
 _atom_site_type_symbol
 _atom_site_label
 _atom_site_symmetry_multiplicity
 _atom_site_fract_x
 _atom_site_fract_y
 _atom_site_fract_z
 _atom_site_occupancy
  Pr  Pr0  1  0.939792  0.558969  0.558969  1
  Pr  Pr1  1  0.558036  0.941494  0.941494  1
  Pr  Pr2  1  0.558969  0.939792  0.558969  1
  Pr  Pr3  1  0.941494  0.558036  0.941494  1
  Pr  Pr4  1  0.558969  0.558969  0.939792  1
  Pr  Pr5  1  0.941494  0.941494  0.558036  1
  Y  Y6  1  0.347230  0.347230  0.347230  1
  Y  Y7  1  0.348792  0.348792  0.955675  1
  Y  Y8  1  0.348792  0.955675  0.348792  1
  Y  Y9  1  0.955675  0.348792  0.348792  1
  Y  Y10  1  0.810782  0.188210  0.188210  1
  Y  Y11  1  0.186312  0.811622  0.811622  1
  Y  Y12  1  0.188210  0.810782  0.188210  1
  Y  Y13  1  0.811622  0.186312  0.811622  1
  Y  Y14  1  0.188210  0.188210  0.810782  1
  Y  Y15  1  0.811622  0.811622  0.186312  1
  Cd  Cd16  1  0.579317  0.579317  0.261678  1
  Cd  Cd17  1  0.579317  0.261678  0.579317  1
  Cd  Cd18  1  0.261678  0.579317  0.579317  1
  Hg  Hg19  1  0.581513  0.581513  0.581513  1
  Ir  Ir20  1  0.141290  0.141290  0.141290  1
  Ir  Ir21  1  0.141860  0.141860  0.577166  1
  Ir  Ir22  1  0.141860  0.577166  0.141860  1
  Ir  Ir23  1  0.577166  0.141860  0.141860  1
