# generated using pymatgen
data_Pr3Nd7(BiPb)4
_symmetry_space_group_name_H-M   'P 1'
_cell_length_a   8.45051000
_cell_length_b   8.50433046
_cell_length_c   16.20100200
_cell_angle_alpha   90.01892493
_cell_angle_beta   90.00000000
_cell_angle_gamma   90.00000000
_symmetry_Int_Tables_number   1
_chemical_formula_structural   Pr3Nd7(BiPb)4
_chemical_formula_sum   'Pr6 Nd14 Bi8 Pb8'
_cell_volume   1164.30000613
_cell_formula_units_Z   2
loop_
 _symmetry_equiv_pos_site_id
 _symmetry_equiv_pos_as_xyz
  1  'x, y, z'
loop_
 _atom_site_type_symbol
 _atom_site_label
 _atom_site_symmetry_multiplicity
 _atom_site_fract_x
 _atom_site_fract_y
 _atom_site_fract_z
 _atom_site_occupancy
  Pr  Pr0  1  0.450968  0.674201  0.393988  1
  Pr  Pr1  1  0.950968  0.825799  0.106012  1
  Pr  Pr2  1  0.451394  0.674056  0.106073  1
  Pr  Pr3  1  0.951394  0.825944  0.393927  1
  Pr  Pr4  1  0.548559  0.325783  0.606132  1
  Pr  Pr5  1  0.048559  0.174217  0.893868  1
  Nd  Nd6  1  0.387573  0.838102  0.880412  1
  Nd  Nd7  1  0.887573  0.661898  0.619588  1
  Nd  Nd8  1  0.612003  0.162225  0.380572  1
  Nd  Nd9  1  0.112003  0.337775  0.119428  1
  Nd  Nd10  1  0.611819  0.162030  0.119361  1
  Nd  Nd11  1  0.111819  0.337970  0.380639  1
  Nd  Nd12  1  0.388075  0.837839  0.619785  1
  Nd  Nd13  1  0.888075  0.662161  0.880215  1
  Nd  Nd14  1  0.549687  0.326655  0.892801  1
  Nd  Nd15  1  0.049687  0.173345  0.607199  1
  Nd  Nd16  1  0.217420  0.496942  0.750022  1
  Nd  Nd17  1  0.717420  0.003058  0.749978  1
  Nd  Nd18  1  0.782369  0.503051  0.249755  1
  Nd  Nd19  1  0.282369  0.996949  0.250245  1
  Bi  Bi20  1  0.270504  0.022244  0.045742  1
  Bi  Bi21  1  0.770504  0.477756  0.454258  1
  Bi  Bi22  1  0.730460  0.978428  0.545975  1
  Bi  Bi23  1  0.230460  0.521572  0.954025  1
  Bi  Bi24  1  0.728500  0.978076  0.954016  1
  Bi  Bi25  1  0.228500  0.521924  0.545984  1
  Bi  Bi26  1  0.270419  0.023414  0.455123  1
  Bi  Bi27  1  0.770419  0.476586  0.044877  1
  Pb  Pb28  1  0.585329  0.627145  0.750196  1
  Pb  Pb29  1  0.085329  0.872855  0.749804  1
  Pb  Pb30  1  0.414583  0.372415  0.249982  1
  Pb  Pb31  1  0.914583  0.127585  0.250018  1
  Pb  Pb32  1  0.354688  0.142520  0.750298  1
  Pb  Pb33  1  0.854688  0.357480  0.749702  1
  Pb  Pb34  1  0.645651  0.858056  0.250038  1
  Pb  Pb35  1  0.145651  0.641944  0.249962  1
