# generated using pymatgen
data_Ce8Si16Mo5W7
_symmetry_space_group_name_H-M   'P 1'
_cell_length_a   6.91560835
_cell_length_b   6.97970700
_cell_length_c   13.01009324
_cell_angle_alpha   89.99250109
_cell_angle_beta   90.01187021
_cell_angle_gamma   89.91975544
_symmetry_Int_Tables_number   1
_chemical_formula_structural   Ce8Si16Mo5W7
_chemical_formula_sum   'Ce8 Si16 Mo5 W7'
_cell_volume   627.98251442
_cell_formula_units_Z   1
loop_
 _symmetry_equiv_pos_site_id
 _symmetry_equiv_pos_as_xyz
  1  'x, y, z'
loop_
 _atom_site_type_symbol
 _atom_site_label
 _atom_site_symmetry_multiplicity
 _atom_site_fract_x
 _atom_site_fract_y
 _atom_site_fract_z
 _atom_site_occupancy
  Ce  Ce0  1  0.493567  0.661459  0.591764  1
  Ce  Ce1  1  0.994155  0.838694  0.908289  1
  Ce  Ce2  1  0.506245  0.338796  0.092613  1
  Ce  Ce3  1  0.006501  0.160992  0.407405  1
  Ce  Ce4  1  0.505202  0.338012  0.407222  1
  Ce  Ce5  1  0.005956  0.161467  0.092570  1
  Ce  Ce6  1  0.494537  0.661131  0.908048  1
  Ce  Ce7  1  0.994457  0.839270  0.592034  1
  Si  Si8  1  0.656343  0.954130  0.451469  1
  Si  Si9  1  0.155969  0.546645  0.048181  1
  Si  Si10  1  0.343889  0.046622  0.952724  1
  Si  Si11  1  0.843575  0.453648  0.547111  1
  Si  Si12  1  0.344892  0.046758  0.547240  1
  Si  Si13  1  0.844230  0.453791  0.953361  1
  Si  Si14  1  0.656740  0.954649  0.046869  1
  Si  Si15  1  0.155455  0.545936  0.452209  1
  Si  Si16  1  0.462097  0.363815  0.748953  1
  Si  Si17  1  0.962244  0.136087  0.751525  1
  Si  Si18  1  0.537115  0.636650  0.249914  1
  Si  Si19  1  0.037916  0.862654  0.250621  1
  Si  Si20  1  0.691376  0.869673  0.749749  1
  Si  Si21  1  0.191105  0.630143  0.750325  1
  Si  Si22  1  0.308569  0.129482  0.249515  1
  Si  Si23  1  0.808597  0.369323  0.250217  1
  Mo  Mo24  1  0.670357  0.162177  0.625812  1
  Mo  Mo25  1  0.169792  0.338369  0.874389  1
  Mo  Mo26  1  0.332212  0.838201  0.126441  1
  Mo  Mo27  1  0.829375  0.661448  0.373662  1
  Mo  Mo28  1  0.331991  0.838042  0.372805  1
  W  W29  1  0.830758  0.662752  0.127169  1
  W  W30  1  0.667491  0.163194  0.872917  1
  W  W31  1  0.166785  0.336853  0.627579  1
  W  W32  1  0.831716  0.498933  0.750218  1
  W  W33  1  0.332633  0.001010  0.750028  1
  W  W34  1  0.167299  0.499254  0.249833  1
  W  W35  1  0.668857  0.999938  0.249224  1
