# generated using pymatgen
data_Tm12Fe2RuAu2
_symmetry_space_group_name_H-M   'P 1'
_cell_length_a   8.11595814
_cell_length_b   8.11577517
_cell_length_c   8.11596000
_cell_angle_alpha   108.84663986
_cell_angle_beta   108.77428183
_cell_angle_gamma   110.80192628
_symmetry_Int_Tables_number   1
_chemical_formula_structural   Tm12Fe2RuAu2
_chemical_formula_sum   'Tm12 Fe2 Ru1 Au2'
_cell_volume   411.34529976
_cell_formula_units_Z   1
loop_
 _symmetry_equiv_pos_site_id
 _symmetry_equiv_pos_as_xyz
  1  'x, y, z'
loop_
 _atom_site_type_symbol
 _atom_site_label
 _atom_site_symmetry_multiplicity
 _atom_site_fract_x
 _atom_site_fract_y
 _atom_site_fract_z
 _atom_site_occupancy
  Tm  Tm0  1  0.190049  0.436144  0.246096  1
  Tm  Tm1  1  0.809951  0.563856  0.753904  1
  Tm  Tm2  1  0.190026  0.943926  0.753899  1
  Tm  Tm3  1  0.943960  0.190001  0.753970  1
  Tm  Tm4  1  0.809974  0.056074  0.246101  1
  Tm  Tm5  1  0.056040  0.809999  0.246030  1
  Tm  Tm6  1  0.436030  0.190001  0.246042  1
  Tm  Tm7  1  0.563970  0.809999  0.753958  1
  Tm  Tm8  1  0.309804  0.309897  0.619713  1
  Tm  Tm9  1  0.690196  0.690103  0.380287  1
  Tm  Tm10  1  0.690185  0.309897  0.000094  1
  Tm  Tm11  1  0.309815  0.690103  0.999906  1
  Fe  Fe12  1  0.379665  0.379666  0.000001  1
  Fe  Fe13  1  0.620335  0.620334  0.999999  1
  Ru  Ru14  1  0.000000  0.000000  0.000000  1
  Au  Au15  1  0.000000  0.500000  0.500000  1
  Au  Au16  1  0.500000  0.000000  0.500000  1
