# generated using pymatgen
data_Tm4Fe6P12(IrRu)7
_symmetry_space_group_name_H-M   'P 1'
_cell_length_a   3.83594500
_cell_length_b   10.56409144
_cell_length_c   12.25159697
_cell_angle_alpha   90.23110233
_cell_angle_beta   90.00000000
_cell_angle_gamma   90.00000000
_symmetry_Int_Tables_number   1
_chemical_formula_structural   Tm4Fe6P12(IrRu)7
_chemical_formula_sum   'Tm4 Fe6 P12 Ir7 Ru7'
_cell_volume   496.47077899
_cell_formula_units_Z   1
loop_
 _symmetry_equiv_pos_site_id
 _symmetry_equiv_pos_as_xyz
  1  'x, y, z'
loop_
 _atom_site_type_symbol
 _atom_site_label
 _atom_site_symmetry_multiplicity
 _atom_site_fract_x
 _atom_site_fract_y
 _atom_site_fract_z
 _atom_site_occupancy
  Tm  Tm0  1  0.250000  0.579323  0.710425  1
  Tm  Tm1  1  0.250000  0.921283  0.209166  1
  Tm  Tm2  1  0.750000  0.415988  0.292729  1
  Tm  Tm3  1  0.750000  0.082890  0.792569  1
  Fe  Fe4  1  0.750000  0.121180  0.301731  1
  Fe  Fe5  1  0.750000  0.380786  0.801903  1
  Fe  Fe6  1  0.250000  0.460629  0.935565  1
  Fe  Fe7  1  0.250000  0.039494  0.434717  1
  Fe  Fe8  1  0.750000  0.539297  0.063165  1
  Fe  Fe9  1  0.750000  0.960459  0.561881  1
  P  P10  1  0.250000  0.426970  0.106925  1
  P  P11  1  0.250000  0.072172  0.606928  1
  P  P12  1  0.750000  0.564951  0.886178  1
  P  P13  1  0.750000  0.939255  0.385918  1
  P  P14  1  0.250000  0.273830  0.866324  1
  P  P15  1  0.250000  0.226047  0.365788  1
  P  P16  1  0.750000  0.734249  0.127190  1
  P  P17  1  0.750000  0.766258  0.630989  1
  P  P18  1  0.250000  0.598077  0.394689  1
  P  P19  1  0.250000  0.896440  0.891914  1
  P  P20  1  0.750000  0.402174  0.617986  1
  P  P21  1  0.750000  0.098698  0.117296  1
  Ir  Ir22  1  0.250000  0.401693  0.481133  1
  Ir  Ir23  1  0.250000  0.096496  0.978757  1
  Ir  Ir24  1  0.250000  0.228618  0.177641  1
  Ir  Ir25  1  0.250000  0.270468  0.678807  1
  Ir  Ir26  1  0.750000  0.737741  0.320978  1
  Ir  Ir27  1  0.250000  0.885941  0.701099  1
  Ir  Ir28  1  0.250000  0.611582  0.204371  1
  Ru  Ru29  1  0.250000  0.706604  0.988737  1
  Ru  Ru30  1  0.250000  0.792806  0.484279  1
  Ru  Ru31  1  0.750000  0.292169  0.013268  1
  Ru  Ru32  1  0.750000  0.207515  0.514110  1
  Ru  Ru33  1  0.750000  0.592610  0.514837  1
  Ru  Ru34  1  0.750000  0.908600  0.016218  1
  Ru  Ru35  1  0.750000  0.766707  0.823792  1
