# generated using pymatgen
data_CaAc16Nd3Sn16
_symmetry_space_group_name_H-M   'P 1'
_cell_length_a   8.71606517
_cell_length_b   8.83336417
_cell_length_c   16.88578700
_cell_angle_alpha   90.00000000
_cell_angle_beta   90.00000000
_cell_angle_gamma   89.97715863
_symmetry_Int_Tables_number   1
_chemical_formula_structural   CaAc16Nd3Sn16
_chemical_formula_sum   'Ca1 Ac16 Nd3 Sn16'
_cell_volume   1300.07341256
_cell_formula_units_Z   1
loop_
 _symmetry_equiv_pos_site_id
 _symmetry_equiv_pos_as_xyz
  1  'x, y, z'
loop_
 _atom_site_type_symbol
 _atom_site_label
 _atom_site_symmetry_multiplicity
 _atom_site_fract_x
 _atom_site_fract_y
 _atom_site_fract_z
 _atom_site_occupancy
  Ca  Ca0  1  0.204040  0.500223  0.250000  1
  Ac  Ac1  1  0.020660  0.182991  0.401198  1
  Ac  Ac2  1  0.368918  0.840117  0.118664  1
  Ac  Ac3  1  0.131766  0.341279  0.619160  1
  Ac  Ac4  1  0.479254  0.681067  0.901027  1
  Ac  Ac5  1  0.871877  0.658165  0.118902  1
  Ac  Ac6  1  0.131766  0.341279  0.880840  1
  Ac  Ac7  1  0.479254  0.681067  0.598973  1
  Ac  Ac8  1  0.630620  0.158341  0.619045  1
  Ac  Ac9  1  0.871877  0.658165  0.381098  1
  Ac  Ac10  1  0.020660  0.182991  0.098802  1
  Ac  Ac11  1  0.979535  0.818815  0.901048  1
  Ac  Ac12  1  0.630620  0.158341  0.880955  1
  Ac  Ac13  1  0.518613  0.318678  0.098689  1
  Ac  Ac14  1  0.368918  0.840117  0.381336  1
  Ac  Ac15  1  0.979535  0.818815  0.598952  1
  Ac  Ac16  1  0.518613  0.318678  0.401311  1
  Nd  Nd17  1  0.702495  0.001728  0.250000  1
  Nd  Nd18  1  0.296485  0.999564  0.750000  1
  Nd  Nd19  1  0.795962  0.500772  0.750000  1
  Sn  Sn20  1  0.788555  0.467225  0.546396  1
  Sn  Sn21  1  0.711910  0.967275  0.453002  1
  Sn  Sn22  1  0.677268  0.852665  0.750000  1
  Sn  Sn23  1  0.211124  0.533331  0.455677  1
  Sn  Sn24  1  0.288674  0.032617  0.953594  1
  Sn  Sn25  1  0.816366  0.354296  0.250000  1
  Sn  Sn26  1  0.788555  0.467225  0.953604  1
  Sn  Sn27  1  0.569925  0.611752  0.250000  1
  Sn  Sn28  1  0.211124  0.533331  0.044323  1
  Sn  Sn29  1  0.434364  0.385576  0.750000  1
  Sn  Sn30  1  0.177056  0.646105  0.750000  1
  Sn  Sn31  1  0.933450  0.114241  0.750000  1
  Sn  Sn32  1  0.288674  0.032617  0.546406  1
  Sn  Sn33  1  0.711910  0.967275  0.046998  1
  Sn  Sn34  1  0.322840  0.140968  0.250000  1
  Sn  Sn35  1  0.066740  0.892307  0.250000  1
