# generated using pymatgen
data_LaSmTm4(RuO7)2
_symmetry_space_group_name_H-M   'P 1'
_cell_length_a   6.38741602
_cell_length_b   6.38741702
_cell_length_c   7.45387358
_cell_angle_alpha   90.02578750
_cell_angle_beta   90.02578910
_cell_angle_gamma   109.69445863
_symmetry_Int_Tables_number   1
_chemical_formula_structural   LaSmTm4(RuO7)2
_chemical_formula_sum   'La1 Sm1 Tm4 Ru2 O14'
_cell_volume   286.32161738
_cell_formula_units_Z   1
loop_
 _symmetry_equiv_pos_site_id
 _symmetry_equiv_pos_as_xyz
  1  'x, y, z'
loop_
 _atom_site_type_symbol
 _atom_site_label
 _atom_site_symmetry_multiplicity
 _atom_site_fract_x
 _atom_site_fract_y
 _atom_site_fract_z
 _atom_site_occupancy
  La  La0  1  0.000000  0.000000  0.500000  1
  Sm  Sm1  1  0.000000  0.000000  0.000000  1
  Tm  Tm2  1  0.483834  0.934688  0.751767  1
  Tm  Tm3  1  0.516166  0.065312  0.248233  1
  Tm  Tm4  1  0.934688  0.483834  0.751767  1
  Tm  Tm5  1  0.065312  0.516166  0.248233  1
  Ru  Ru6  1  0.500000  0.500000  0.500000  1
  Ru  Ru7  1  0.500000  0.500000  0.000000  1
  O  O8  1  0.592352  0.592352  0.749893  1
  O  O9  1  0.407648  0.407648  0.250107  1
  O  O10  1  0.836443  0.120456  0.755777  1
  O  O11  1  0.163557  0.879544  0.244223  1
  O  O12  1  0.120456  0.836443  0.755777  1
  O  O13  1  0.879544  0.163557  0.244223  1
  O  O14  1  0.438856  0.179351  0.963387  1
  O  O15  1  0.556365  0.820186  0.462913  1
  O  O16  1  0.179351  0.438856  0.963387  1
  O  O17  1  0.820186  0.556365  0.462913  1
  O  O18  1  0.443635  0.179814  0.537087  1
  O  O19  1  0.561144  0.820649  0.036613  1
  O  O20  1  0.820649  0.561144  0.036613  1
  O  O21  1  0.179814  0.443635  0.537087  1
