# generated using pymatgen
data_DyEr3TcB12Rh
_symmetry_space_group_name_H-M   'P 1'
_cell_length_a   3.66239800
_cell_length_b   9.11272634
_cell_length_c   11.50492802
_cell_angle_alpha   90.36121959
_cell_angle_beta   90.00000000
_cell_angle_gamma   90.00000000
_symmetry_Int_Tables_number   1
_chemical_formula_structural   DyEr3TcB12Rh
_chemical_formula_sum   'Dy2 Er6 Tc2 B24 Rh2'
_cell_volume   383.96279257
_cell_formula_units_Z   2
loop_
 _symmetry_equiv_pos_site_id
 _symmetry_equiv_pos_as_xyz
  1  'x, y, z'
loop_
 _atom_site_type_symbol
 _atom_site_label
 _atom_site_symmetry_multiplicity
 _atom_site_fract_x
 _atom_site_fract_y
 _atom_site_fract_z
 _atom_site_occupancy
  Dy  Dy0  1  0.500000  0.318930  0.411096  1
  Dy  Dy1  1  0.500000  0.681070  0.588904  1
  Er  Er2  1  0.500000  0.173417  0.917291  1
  Er  Er3  1  0.500000  0.826583  0.082709  1
  Er  Er4  1  0.500000  0.441736  0.126440  1
  Er  Er5  1  0.500000  0.558264  0.873560  1
  Er  Er6  1  0.500000  0.053958  0.628792  1
  Er  Er7  1  0.500000  0.946042  0.371208  1
  Tc  Tc8  1  0.500000  0.138736  0.179671  1
  Tc  Tc9  1  0.500000  0.861264  0.820329  1
  B  B10  1  0.000000  0.106612  0.471320  1
  B  B11  1  0.000000  0.893388  0.528680  1
  B  B12  1  0.000000  0.393456  0.970377  1
  B  B13  1  0.000000  0.606544  0.029623  1
  B  B14  1  0.000000  0.131980  0.314718  1
  B  B15  1  0.000000  0.868020  0.685282  1
  B  B16  1  0.000000  0.367373  0.817016  1
  B  B17  1  0.000000  0.632627  0.182984  1
  B  B18  1  0.000000  0.052958  0.067086  1
  B  B19  1  0.000000  0.947042  0.932914  1
  B  B20  1  0.000000  0.445296  0.566276  1
  B  B21  1  0.000000  0.554704  0.433724  1
  B  B22  1  0.000000  0.483583  0.287233  1
  B  B23  1  0.000000  0.516417  0.712767  1
  B  B24  1  0.000000  0.017071  0.787255  1
  B  B25  1  0.000000  0.982929  0.212745  1
  B  B26  1  0.000000  0.248296  0.080757  1
  B  B27  1  0.000000  0.751704  0.919243  1
  B  B28  1  0.000000  0.250326  0.579154  1
  B  B29  1  0.000000  0.749674  0.420846  1
  B  B30  1  0.000000  0.292811  0.234360  1
  B  B31  1  0.000000  0.707189  0.765640  1
  B  B32  1  0.000000  0.207964  0.735299  1
  B  B33  1  0.000000  0.792036  0.264701  1
  Rh  Rh34  1  0.500000  0.361477  0.679470  1
  Rh  Rh35  1  0.500000  0.638523  0.320530  1
