# generated using pymatgen
data_DyHo3(TiAl3)2
_symmetry_space_group_name_H-M   'P 1'
_cell_length_a   9.50430615
_cell_length_b   9.50430693
_cell_length_c   9.50430705
_cell_angle_alpha   34.82323675
_cell_angle_beta   34.82323060
_cell_angle_gamma   34.82323529
_symmetry_Int_Tables_number   1
_chemical_formula_structural   DyHo3(TiAl3)2
_chemical_formula_sum   'Dy1 Ho3 Ti2 Al6'
_cell_volume   249.90034065
_cell_formula_units_Z   1
loop_
 _symmetry_equiv_pos_site_id
 _symmetry_equiv_pos_as_xyz
  1  'x, y, z'
loop_
 _atom_site_type_symbol
 _atom_site_label
 _atom_site_symmetry_multiplicity
 _atom_site_fract_x
 _atom_site_fract_y
 _atom_site_fract_z
 _atom_site_occupancy
  Dy  Dy0  1  0.686687  0.686687  0.686687  1
  Ho  Ho1  1  0.186697  0.186697  0.186697  1
  Ho  Ho2  1  0.813276  0.813276  0.813276  1
  Ho  Ho3  1  0.313291  0.313291  0.313291  1
  Ti  Ti4  1  0.000002  0.000002  0.000002  1
  Ti  Ti5  1  0.500016  0.500016  0.500016  1
  Al  Al6  1  0.749877  0.249999  0.249999  1
  Al  Al7  1  0.250091  0.750031  0.750031  1
  Al  Al8  1  0.249999  0.749877  0.249999  1
  Al  Al9  1  0.750031  0.250091  0.750031  1
  Al  Al10  1  0.249999  0.249999  0.749877  1
  Al  Al11  1  0.750031  0.750031  0.250091  1
