# generated using pymatgen
data_Na8Ge(AsPd4)3
_symmetry_space_group_name_H-M   'P 1'
_cell_length_a   7.51159358
_cell_length_b   7.51159284
_cell_length_c   7.51159300
_cell_angle_alpha   90.57524104
_cell_angle_beta   89.42475901
_cell_angle_gamma   89.42476637
_symmetry_Int_Tables_number   1
_chemical_formula_structural   Na8Ge(AsPd4)3
_chemical_formula_sum   'Na8 Ge1 As3 Pd12'
_cell_volume   423.76985376
_cell_formula_units_Z   1
loop_
 _symmetry_equiv_pos_site_id
 _symmetry_equiv_pos_as_xyz
  1  'x, y, z'
loop_
 _atom_site_type_symbol
 _atom_site_label
 _atom_site_symmetry_multiplicity
 _atom_site_fract_x
 _atom_site_fract_y
 _atom_site_fract_z
 _atom_site_occupancy
  Na  Na0  1  0.277471  0.278129  0.277510  1
  Na  Na1  1  0.027510  0.471871  0.527471  1
  Na  Na2  1  0.528129  0.027471  0.472490  1
  Na  Na3  1  0.472078  0.527922  0.027922  1
  Na  Na4  1  0.222490  0.722529  0.778129  1
  Na  Na5  1  0.972529  0.972490  0.971871  1
  Na  Na6  1  0.777922  0.222078  0.722078  1
  Na  Na7  1  0.721871  0.777510  0.222529  1
  Ge  Ge8  1  0.125000  0.875000  0.375000  1
  As  As9  1  0.875184  0.375000  0.125184  1
  As  As10  1  0.374816  0.124816  0.875000  1
  As  As11  1  0.625000  0.625184  0.624816  1
  Pd  Pd12  1  0.158429  0.090484  0.624978  1
  Pd  Pd13  1  0.409755  0.375000  0.659755  1
  Pd  Pd14  1  0.091571  0.625022  0.159516  1
  Pd  Pd15  1  0.909516  0.124978  0.341571  1
  Pd  Pd16  1  0.340484  0.908429  0.125022  1
  Pd  Pd17  1  0.658286  0.408286  0.375000  1
  Pd  Pd18  1  0.591714  0.875000  0.841714  1
  Pd  Pd19  1  0.625000  0.159755  0.090245  1
  Pd  Pd20  1  0.374978  0.659516  0.408429  1
  Pd  Pd21  1  0.875022  0.841571  0.590484  1
  Pd  Pd22  1  0.125000  0.341714  0.908286  1
  Pd  Pd23  1  0.840245  0.590245  0.875000  1
