# generated using pymatgen
data_Ce13Si5Tc5Ru
_symmetry_space_group_name_H-M   'P 1'
_cell_length_a   7.72658629
_cell_length_b   7.72658545
_cell_length_c   9.93395845
_cell_angle_alpha   90.10159399
_cell_angle_beta   90.10159766
_cell_angle_gamma   119.91314634
_symmetry_Int_Tables_number   1
_chemical_formula_structural   Ce13Si5Tc5Ru
_chemical_formula_sum   'Ce13 Si5 Tc5 Ru1'
_cell_volume   514.04950477
_cell_formula_units_Z   1
loop_
 _symmetry_equiv_pos_site_id
 _symmetry_equiv_pos_as_xyz
  1  'x, y, z'
loop_
 _atom_site_type_symbol
 _atom_site_label
 _atom_site_symmetry_multiplicity
 _atom_site_fract_x
 _atom_site_fract_y
 _atom_site_fract_z
 _atom_site_occupancy
  Ce  Ce0  1  0.000460  0.588950  0.496998  1
  Ce  Ce1  1  0.588950  0.000460  0.496998  1
  Ce  Ce2  1  0.410701  0.410701  0.496082  1
  Ce  Ce3  1  0.999104  0.418291  0.001522  1
  Ce  Ce4  1  0.418291  0.999104  0.001522  1
  Ce  Ce5  1  0.582991  0.582991  0.003278  1
  Ce  Ce6  1  0.999691  0.735586  0.182644  1
  Ce  Ce7  1  0.735586  0.999691  0.182644  1
  Ce  Ce8  1  0.262726  0.262726  0.179147  1
  Ce  Ce9  1  0.000045  0.267720  0.665278  1
  Ce  Ce10  1  0.267720  0.000045  0.665278  1
  Ce  Ce11  1  0.733572  0.733572  0.665246  1
  Ce  Ce12  1  0.997987  0.997987  0.940233  1
  Si  Si13  1  0.665907  0.333673  0.273291  1
  Si  Si14  1  0.333673  0.665907  0.273291  1
  Si  Si15  1  0.334120  0.666788  0.772792  1
  Si  Si16  1  0.666788  0.334120  0.772792  1
  Si  Si17  1  0.000708  0.000708  0.423517  1
  Tc  Tc18  1  0.000078  0.343114  0.338923  1
  Tc  Tc19  1  0.343114  0.000078  0.338923  1
  Tc  Tc20  1  0.655904  0.655904  0.339598  1
  Tc  Tc21  1  0.999874  0.657068  0.840846  1
  Tc  Tc22  1  0.657068  0.999874  0.840846  1
  Ru  Ru23  1  0.344947  0.344947  0.837566  1
