# generated using pymatgen
data_YHo2Ga(SiIr3)2
_symmetry_space_group_name_H-M   'P 1'
_cell_length_a   5.56358900
_cell_length_b   5.56359026
_cell_length_c   15.45813000
_cell_angle_alpha   90.00000000
_cell_angle_beta   90.00000000
_cell_angle_gamma   120.00001034
_symmetry_Int_Tables_number   1
_chemical_formula_structural   YHo2Ga(SiIr3)2
_chemical_formula_sum   'Y2 Ho4 Ga2 Si4 Ir12'
_cell_volume   414.37898258
_cell_formula_units_Z   2
loop_
 _symmetry_equiv_pos_site_id
 _symmetry_equiv_pos_as_xyz
  1  'x, y, z'
loop_
 _atom_site_type_symbol
 _atom_site_label
 _atom_site_symmetry_multiplicity
 _atom_site_fract_x
 _atom_site_fract_y
 _atom_site_fract_z
 _atom_site_occupancy
  Y  Y0  1  0.333333  0.666667  0.750000  1
  Y  Y1  1  0.666667  0.333333  0.250000  1
  Ho  Ho2  1  0.333333  0.666667  0.539615  1
  Ho  Ho3  1  0.666667  0.333333  0.460385  1
  Ho  Ho4  1  0.666667  0.333333  0.039615  1
  Ho  Ho5  1  0.333333  0.666667  0.960385  1
  Ga  Ga6  1  0.000000  0.000000  0.000000  1
  Ga  Ga7  1  0.000000  0.000000  0.500000  1
  Si  Si8  1  0.000000  0.000000  0.250000  1
  Si  Si9  1  0.000000  0.000000  0.750000  1
  Si  Si10  1  0.333333  0.666667  0.250000  1
  Si  Si11  1  0.666667  0.333333  0.750000  1
  Ir  Ir12  1  0.168209  0.336419  0.132722  1
  Ir  Ir13  1  0.831791  0.663581  0.867278  1
  Ir  Ir14  1  0.663581  0.831791  0.132722  1
  Ir  Ir15  1  0.831791  0.663581  0.632722  1
  Ir  Ir16  1  0.336419  0.168209  0.867278  1
  Ir  Ir17  1  0.168209  0.336419  0.367278  1
  Ir  Ir18  1  0.168209  0.831791  0.132722  1
  Ir  Ir19  1  0.336419  0.168209  0.632722  1
  Ir  Ir20  1  0.831791  0.168209  0.867278  1
  Ir  Ir21  1  0.663581  0.831791  0.367278  1
  Ir  Ir22  1  0.831791  0.168209  0.632722  1
  Ir  Ir23  1  0.168209  0.831791  0.367278  1
