# generated using pymatgen
data_Nd3In2Pt3Pb
_symmetry_space_group_name_H-M   'P 1'
_cell_length_a   7.80500318
_cell_length_b   7.85578169
_cell_length_c   4.04363400
_cell_angle_alpha   90.00000000
_cell_angle_beta   90.00000000
_cell_angle_gamma   120.21544158
_symmetry_Int_Tables_number   1
_chemical_formula_structural   Nd3In2Pt3Pb
_chemical_formula_sum   'Nd3 In2 Pt3 Pb1'
_cell_volume   214.24862249
_cell_formula_units_Z   1
loop_
 _symmetry_equiv_pos_site_id
 _symmetry_equiv_pos_as_xyz
  1  'x, y, z'
loop_
 _atom_site_type_symbol
 _atom_site_label
 _atom_site_symmetry_multiplicity
 _atom_site_fract_x
 _atom_site_fract_y
 _atom_site_fract_z
 _atom_site_occupancy
  Nd  Nd0  1  0.000000  0.594775  0.500000  1
  Nd  Nd1  1  0.588139  0.996446  0.500000  1
  Nd  Nd2  1  0.411861  0.408307  0.500000  1
  In  In3  1  0.256155  0.999908  0.000000  1
  In  In4  1  0.743845  0.743753  0.000000  1
  Pt  Pt5  1  0.000000  0.987493  0.500000  1
  Pt  Pt6  1  0.658943  0.336248  0.000000  1
  Pt  Pt7  1  0.341057  0.677306  0.000000  1
  Pb  Pb8  1  0.000000  0.255764  0.000000  1
