# generated using pymatgen
data_Na2MgRhF7
_symmetry_space_group_name_H-M   'P 1'
_cell_length_a   7.42231211
_cell_length_b   7.42231240
_cell_length_c   7.42231177
_cell_angle_alpha   120.87484134
_cell_angle_beta   118.91640768
_cell_angle_gamma   90.18922619
_symmetry_Int_Tables_number   1
_chemical_formula_structural   Na2MgRhF7
_chemical_formula_sum   'Na4 Mg2 Rh2 F14'
_cell_volume   289.48542673
_cell_formula_units_Z   2
loop_
 _symmetry_equiv_pos_site_id
 _symmetry_equiv_pos_as_xyz
  1  'x, y, z'
loop_
 _atom_site_type_symbol
 _atom_site_label
 _atom_site_symmetry_multiplicity
 _atom_site_fract_x
 _atom_site_fract_y
 _atom_site_fract_z
 _atom_site_occupancy
  Na  Na0  1  0.500000  0.500000  0.000000  1
  Na  Na1  1  0.000000  0.000000  0.000000  1
  Na  Na2  1  0.000000  0.500000  0.000000  1
  Na  Na3  1  0.000000  0.000000  0.500000  1
  Mg  Mg4  1  0.500000  0.500000  0.500000  1
  Mg  Mg5  1  0.500000  0.000000  0.000000  1
  Rh  Rh6  1  0.000000  0.500000  0.500000  1
  Rh  Rh7  1  0.500000  0.000000  0.500000  1
  F  F8  1  0.864662  0.597256  0.267406  1
  F  F9  1  0.170151  0.902744  0.267406  1
  F  F10  1  0.177821  0.825683  0.769233  1
  F  F11  1  0.443551  0.674317  0.352137  1
  F  F12  1  0.443551  0.091414  0.769233  1
  F  F13  1  0.177821  0.408586  0.352137  1
  F  F14  1  0.822179  0.591414  0.647863  1
  F  F15  1  0.556449  0.908586  0.230767  1
  F  F16  1  0.556449  0.325683  0.647863  1
  F  F17  1  0.822179  0.174317  0.230767  1
  F  F18  1  0.415720  0.250000  0.165720  1
  F  F19  1  0.135338  0.402744  0.732594  1
  F  F20  1  0.829849  0.097256  0.732594  1
  F  F21  1  0.584280  0.750000  0.834280  1
