# generated using pymatgen
data_La3SiS2N3
_symmetry_space_group_name_H-M   'P 1'
_cell_length_a   10.46337588
_cell_length_b   11.53043042
_cell_length_c   11.53042900
_cell_angle_alpha   111.26938920
_cell_angle_beta   107.60697529
_cell_angle_gamma   107.60697007
_symmetry_Int_Tables_number   1
_chemical_formula_structural   La3SiS2N3
_chemical_formula_sum   'La18 Si6 S12 N18'
_cell_volume   1094.50934661
_cell_formula_units_Z   6
loop_
 _symmetry_equiv_pos_site_id
 _symmetry_equiv_pos_as_xyz
  1  'x, y, z'
loop_
 _atom_site_type_symbol
 _atom_site_label
 _atom_site_symmetry_multiplicity
 _atom_site_fract_x
 _atom_site_fract_y
 _atom_site_fract_z
 _atom_site_occupancy
  La  La0  1  0.679561  0.382540  0.072685  1
  La  La1  1  0.871484  0.832999  0.121468  1
  La  La2  1  0.038482  0.288459  0.167003  1
  La  La3  1  0.169778  0.720477  0.213423  1
  La  La4  1  0.449291  0.492925  0.279513  1
  La  La5  1  0.249971  0.121446  0.288461  1
  La  La6  1  0.606902  0.927281  0.309825  1
  La  La7  1  0.702922  0.309820  0.382552  1
  La  La8  1  0.043626  0.213433  0.492944  1
  La  La9  1  0.956367  0.786561  0.507047  1
  La  La10  1  0.297062  0.690163  0.617457  1
  La  La11  1  0.393109  0.072700  0.690146  1
  La  La12  1  0.750007  0.878551  0.711527  1
  La  La13  1  0.550706  0.507074  0.720489  1
  La  La14  1  0.830228  0.279534  0.786583  1
  La  La15  1  0.961520  0.711551  0.833009  1
  La  La16  1  0.128525  0.166998  0.878535  1
  La  La17  1  0.320407  0.617456  0.927289  1
  Si  Si18  1  0.288021  0.897876  0.079852  1
  Si  Si19  1  0.390138  0.181969  0.102124  1
  Si  Si20  1  0.791832  0.079854  0.181984  1
  Si  Si21  1  0.208171  0.920149  0.818015  1
  Si  Si22  1  0.609866  0.818033  0.897881  1
  Si  Si23  1  0.711985  0.102128  0.920152  1
  S  S24  1  0.165554  0.458876  0.043729  1
  S  S25  1  0.659666  0.672067  0.216287  1
  S  S26  1  0.987607  0.544226  0.327925  1
  S  S27  1  0.121815  0.956264  0.415150  1
  S  S28  1  0.293336  0.415155  0.458877  1
  S  S29  1  0.443396  0.783703  0.455769  1
  S  S30  1  0.556601  0.216307  0.544247  1
  S  S31  1  0.706659  0.584844  0.541126  1
  S  S32  1  0.878184  0.043732  0.584845  1
  S  S33  1  0.012386  0.455775  0.672065  1
  S  S34  1  0.340348  0.327929  0.783715  1
  S  S35  1  0.834460  0.541130  0.956280  1
  N  N36  1  0.665861  0.899856  0.078665  1
  N  N37  1  0.766007  0.178801  0.100146  1
  N  N38  1  0.121478  0.868905  0.103003  1
  N  N39  1  0.252561  0.234084  0.131088  1
  N  N40  1  0.353895  0.798536  0.140781  1
  N  N41  1  0.412798  0.078663  0.178817  1
  N  N42  1  0.555352  0.342239  0.201464  1
  N  N43  1  0.981523  0.103002  0.234108  1
  N  N44  1  0.786884  0.140786  0.342249  1
  N  N45  1  0.213117  0.859213  0.657750  1
  N  N46  1  0.018479  0.896998  0.765894  1
  N  N47  1  0.444650  0.657763  0.798540  1
  N  N48  1  0.587208  0.921341  0.821190  1
  N  N49  1  0.646106  0.201463  0.859215  1
  N  N50  1  0.747442  0.765916  0.868918  1
  N  N51  1  0.878524  0.131100  0.896997  1
  N  N52  1  0.233996  0.821198  0.899854  1
  N  N53  1  0.334143  0.100144  0.921342  1
