# generated using pymatgen
data_Pr3Cd3Hg2Ru
_symmetry_space_group_name_H-M   'P 1'
_cell_length_a   8.24027400
_cell_length_b   8.24027296
_cell_length_c   3.94180900
_cell_angle_alpha   90.00000000
_cell_angle_beta   90.00000000
_cell_angle_gamma   119.99999613
_symmetry_Int_Tables_number   1
_chemical_formula_structural   Pr3Cd3Hg2Ru
_chemical_formula_sum   'Pr3 Cd3 Hg2 Ru1'
_cell_volume   231.79788897
_cell_formula_units_Z   1
loop_
 _symmetry_equiv_pos_site_id
 _symmetry_equiv_pos_as_xyz
  1  'x, y, z'
loop_
 _atom_site_type_symbol
 _atom_site_label
 _atom_site_symmetry_multiplicity
 _atom_site_fract_x
 _atom_site_fract_y
 _atom_site_fract_z
 _atom_site_occupancy
  Pr  Pr0  1  0.390446  0.964314  0.500000  1
  Pr  Pr1  1  0.035686  0.426133  0.500000  1
  Pr  Pr2  1  0.573867  0.609554  0.500000  1
  Cd  Cd3  1  0.727378  0.997700  0.000000  1
  Cd  Cd4  1  0.002300  0.729678  0.000000  1
  Cd  Cd5  1  0.270322  0.272622  0.000000  1
  Hg  Hg6  1  0.666667  0.333333  0.000000  1
  Hg  Hg7  1  0.000000  0.000000  0.500000  1
  Ru  Ru8  1  0.333333  0.666667  0.000000  1
