# generated using pymatgen
data_TbDyNi12As6P
_symmetry_space_group_name_H-M   'P 1'
_cell_length_a   9.31589900
_cell_length_b   9.31589995
_cell_length_c   3.82360400
_cell_angle_alpha   90.00000000
_cell_angle_beta   90.00000000
_cell_angle_gamma   120.00000018
_symmetry_Int_Tables_number   1
_chemical_formula_structural   TbDyNi12As6P
_chemical_formula_sum   'Tb1 Dy1 Ni12 As6 P1'
_cell_volume   287.37774009
_cell_formula_units_Z   1
loop_
 _symmetry_equiv_pos_site_id
 _symmetry_equiv_pos_as_xyz
  1  'x, y, z'
loop_
 _atom_site_type_symbol
 _atom_site_label
 _atom_site_symmetry_multiplicity
 _atom_site_fract_x
 _atom_site_fract_y
 _atom_site_fract_z
 _atom_site_occupancy
  Tb  Tb0  1  0.666667  0.333333  0.000000  1
  Dy  Dy1  1  0.000000  0.000000  0.500000  1
  Ni  Ni2  1  0.708479  0.089737  0.500000  1
  Ni  Ni3  1  0.910263  0.618741  0.500000  1
  Ni  Ni4  1  0.381259  0.291521  0.500000  1
  Ni  Ni5  1  0.770881  0.722602  0.000000  1
  Ni  Ni6  1  0.277398  0.048278  0.000000  1
  Ni  Ni7  1  0.951722  0.229119  0.000000  1
  Ni  Ni8  1  0.526058  0.754940  0.500000  1
  Ni  Ni9  1  0.245060  0.771116  0.500000  1
  Ni  Ni10  1  0.228884  0.473942  0.500000  1
  Ni  Ni11  1  0.475580  0.933392  0.000000  1
  Ni  Ni12  1  0.066608  0.542188  0.000000  1
  Ni  Ni13  1  0.457812  0.524420  0.000000  1
  As  As14  1  0.440589  0.070974  0.500000  1
  As  As15  1  0.929026  0.369615  0.500000  1
  As  As16  1  0.630385  0.559411  0.500000  1
  As  As17  1  0.735501  0.952759  0.000000  1
  As  As18  1  0.047241  0.782743  0.000000  1
  As  As19  1  0.217257  0.264499  0.000000  1
  P  P20  1  0.333333  0.666667  0.000000  1
