# generated using pymatgen
data_TbHoFeB6
_symmetry_space_group_name_H-M   'P 1'
_cell_length_a   3.56259000
_cell_length_b   9.10090600
_cell_length_c   11.46845600
_cell_angle_alpha   90.00000000
_cell_angle_beta   90.00000000
_cell_angle_gamma   90.00000000
_symmetry_Int_Tables_number   1
_chemical_formula_structural   TbHoFeB6
_chemical_formula_sum   'Tb4 Ho4 Fe4 B24'
_cell_volume   371.83941743
_cell_formula_units_Z   4
loop_
 _symmetry_equiv_pos_site_id
 _symmetry_equiv_pos_as_xyz
  1  'x, y, z'
loop_
 _atom_site_type_symbol
 _atom_site_label
 _atom_site_symmetry_multiplicity
 _atom_site_fract_x
 _atom_site_fract_y
 _atom_site_fract_z
 _atom_site_occupancy
  Tb  Tb0  1  0.000000  0.824345  0.085472  1
  Tb  Tb1  1  0.000000  0.175655  0.914528  1
  Tb  Tb2  1  0.000000  0.324345  0.414528  1
  Tb  Tb3  1  0.000000  0.675655  0.585472  1
  Ho  Ho4  1  0.000000  0.443053  0.129754  1
  Ho  Ho5  1  0.000000  0.556947  0.870246  1
  Ho  Ho6  1  0.000000  0.943053  0.370246  1
  Ho  Ho7  1  0.000000  0.056947  0.629754  1
  Fe  Fe8  1  0.000000  0.138728  0.179564  1
  Fe  Fe9  1  0.000000  0.861272  0.820436  1
  Fe  Fe10  1  0.000000  0.638728  0.320436  1
  Fe  Fe11  1  0.000000  0.361272  0.679564  1
  B  B12  1  0.500000  0.054788  0.068452  1
  B  B13  1  0.500000  0.945212  0.931548  1
  B  B14  1  0.500000  0.554788  0.431548  1
  B  B15  1  0.500000  0.445212  0.568452  1
  B  B16  1  0.500000  0.246824  0.082010  1
  B  B17  1  0.500000  0.753176  0.917990  1
  B  B18  1  0.500000  0.746824  0.417990  1
  B  B19  1  0.500000  0.253176  0.582010  1
  B  B20  1  0.500000  0.288963  0.233607  1
  B  B21  1  0.500000  0.711037  0.766393  1
  B  B22  1  0.500000  0.788963  0.266393  1
  B  B23  1  0.500000  0.211037  0.733607  1
  B  B24  1  0.500000  0.131991  0.314297  1
  B  B25  1  0.500000  0.868009  0.685703  1
  B  B26  1  0.500000  0.631991  0.185703  1
  B  B27  1  0.500000  0.368009  0.814297  1
  B  B28  1  0.500000  0.486714  0.288179  1
  B  B29  1  0.500000  0.513286  0.711821  1
  B  B30  1  0.500000  0.986714  0.211821  1
  B  B31  1  0.500000  0.013286  0.788179  1
  B  B32  1  0.500000  0.108027  0.470458  1
  B  B33  1  0.500000  0.891973  0.529542  1
  B  B34  1  0.500000  0.608027  0.029542  1
  B  B35  1  0.500000  0.391973  0.970458  1
