# generated using pymatgen
data_TaTi3(ZnCo2)4
_symmetry_space_group_name_H-M   'P 1'
_cell_length_a   5.86498700
_cell_length_b   4.10654500
_cell_length_c   8.21125700
_cell_angle_alpha   90.00005582
_cell_angle_beta   89.99742100
_cell_angle_gamma   90.00000000
_symmetry_Int_Tables_number   1
_chemical_formula_structural   TaTi3(ZnCo2)4
_chemical_formula_sum   'Ta1 Ti3 Zn4 Co8'
_cell_volume   197.76675379
_cell_formula_units_Z   1
loop_
 _symmetry_equiv_pos_site_id
 _symmetry_equiv_pos_as_xyz
  1  'x, y, z'
loop_
 _atom_site_type_symbol
 _atom_site_label
 _atom_site_symmetry_multiplicity
 _atom_site_fract_x
 _atom_site_fract_y
 _atom_site_fract_z
 _atom_site_occupancy
  Ta  Ta0  1  0.750136  0.249999  0.125109  1
  Ti  Ti1  1  0.250004  0.749999  0.377480  1
  Ti  Ti2  1  0.749858  0.249999  0.624820  1
  Ti  Ti3  1  0.250018  0.749999  0.872567  1
  Zn  Zn4  1  0.249932  0.249999  0.125032  1
  Zn  Zn5  1  0.750048  0.749999  0.376688  1
  Zn  Zn6  1  0.249952  0.249999  0.624911  1
  Zn  Zn7  1  0.750042  0.749997  0.873377  1
  Co  Co8  1  0.003767  0.749999  0.125054  1
  Co  Co9  1  0.496302  0.749999  0.125064  1
  Co  Co10  1  0.001965  0.249998  0.376169  1
  Co  Co11  1  0.498040  0.250000  0.376128  1
  Co  Co12  1  0.499587  0.749999  0.624996  1
  Co  Co13  1  0.000342  0.749999  0.625001  1
  Co  Co14  1  0.498051  0.249999  0.873822  1
  Co  Co15  1  0.001955  0.249999  0.873783  1
