# generated using pymatgen
data_TaSeF9
_symmetry_space_group_name_H-M   'P 1'
_cell_length_a   8.91278715
_cell_length_b   8.91278641
_cell_length_c   8.91278700
_cell_angle_alpha   93.27253811
_cell_angle_beta   93.27253784
_cell_angle_gamma   93.27253760
_symmetry_Int_Tables_number   1
_chemical_formula_structural   TaSeF9
_chemical_formula_sum   'Ta4 Se4 F36'
_cell_volume   704.41017980
_cell_formula_units_Z   4
loop_
 _symmetry_equiv_pos_site_id
 _symmetry_equiv_pos_as_xyz
  1  'x, y, z'
loop_
 _atom_site_type_symbol
 _atom_site_label
 _atom_site_symmetry_multiplicity
 _atom_site_fract_x
 _atom_site_fract_y
 _atom_site_fract_z
 _atom_site_occupancy
  Ta  Ta0  1  0.999393  0.780822  0.334567  1
  Ta  Ta1  1  0.334567  0.999393  0.780822  1
  Ta  Ta2  1  0.780822  0.334567  0.999393  1
  Ta  Ta3  1  0.399358  0.399358  0.399358  1
  Se  Se4  1  0.454821  0.935394  0.248404  1
  Se  Se5  1  0.248404  0.454821  0.935394  1
  Se  Se6  1  0.935394  0.248404  0.454821  1
  Se  Se7  1  0.873635  0.873635  0.873635  1
  F  F8  1  0.903237  0.432562  0.510778  1
  F  F9  1  0.432562  0.510778  0.903237  1
  F  F10  1  0.510778  0.903237  0.432562  1
  F  F11  1  0.825981  0.123345  0.946756  1
  F  F12  1  0.123345  0.946756  0.825981  1
  F  F13  1  0.946756  0.825981  0.123345  1
  F  F14  1  0.848247  0.291356  0.207062  1
  F  F15  1  0.291356  0.207062  0.848247  1
  F  F16  1  0.452874  0.354383  0.597904  1
  F  F17  1  0.597904  0.452874  0.354383  1
  F  F18  1  0.354383  0.597904  0.452874  1
  F  F19  1  0.426200  0.187508  0.330843  1
  F  F20  1  0.330843  0.426200  0.187508  1
  F  F21  1  0.187508  0.330843  0.426200  1
  F  F22  1  0.795240  0.738909  0.365501  1
  F  F23  1  0.365501  0.795240  0.738909  1
  F  F24  1  0.738909  0.365501  0.795240  1
  F  F25  1  0.036819  0.582775  0.268618  1
  F  F26  1  0.268618  0.036819  0.582775  1
  F  F27  1  0.582775  0.268618  0.036819  1
  F  F28  1  0.479199  0.751710  0.183719  1
  F  F29  1  0.183719  0.479199  0.751710  1
  F  F30  1  0.751710  0.183719  0.479199  1
  F  F31  1  0.635195  0.996803  0.205827  1
  F  F32  1  0.205827  0.635195  0.996803  1
  F  F33  1  0.996803  0.205827  0.635195  1
  F  F34  1  0.061674  0.755102  0.535820  1
  F  F35  1  0.535820  0.061674  0.755102  1
  F  F36  1  0.755102  0.535820  0.061674  1
  F  F37  1  0.972108  0.997130  0.382372  1
  F  F38  1  0.382372  0.972108  0.997130  1
  F  F39  1  0.997130  0.382372  0.972108  1
  F  F40  1  0.914684  0.690750  0.820715  1
  F  F41  1  0.820715  0.914684  0.690750  1
  F  F42  1  0.690750  0.820715  0.914684  1
  F  F43  1  0.207062  0.848247  0.291356  1
