# generated using pymatgen
data_KNdPt4
_symmetry_space_group_name_H-M   'P 1'
_cell_length_a   5.52025829
_cell_length_b   5.52025811
_cell_length_c   5.52025900
_cell_angle_alpha   60.00000068
_cell_angle_beta   60.00000175
_cell_angle_gamma   60.00000356
_symmetry_Int_Tables_number   1
_chemical_formula_structural   KNdPt4
_chemical_formula_sum   'K1 Nd1 Pt4'
_cell_volume   118.94967499
_cell_formula_units_Z   1
loop_
 _symmetry_equiv_pos_site_id
 _symmetry_equiv_pos_as_xyz
  1  'x, y, z'
loop_
 _atom_site_type_symbol
 _atom_site_label
 _atom_site_symmetry_multiplicity
 _atom_site_fract_x
 _atom_site_fract_y
 _atom_site_fract_z
 _atom_site_occupancy
  K  K0  1  0.250000  0.250000  0.250000  1
  Nd  Nd1  1  0.000000  0.000000  0.000000  1
  Pt  Pt2  1  0.624878  0.624878  0.125367  1
  Pt  Pt3  1  0.624878  0.125367  0.624878  1
  Pt  Pt4  1  0.125367  0.624878  0.624878  1
  Pt  Pt5  1  0.624878  0.624878  0.624878  1
