# generated using pymatgen
data_Li2AcAu2
_symmetry_space_group_name_H-M   'P 1'
_cell_length_a   4.17525975
_cell_length_b   4.17525916
_cell_length_c   7.15872737
_cell_angle_alpha   106.95498303
_cell_angle_beta   106.95497583
_cell_angle_gamma   90.00000259
_symmetry_Int_Tables_number   1
_chemical_formula_structural   Li2AcAu2
_chemical_formula_sum   'Li2 Ac1 Au2'
_cell_volume   113.68931524
_cell_formula_units_Z   1
loop_
 _symmetry_equiv_pos_site_id
 _symmetry_equiv_pos_as_xyz
  1  'x, y, z'
loop_
 _atom_site_type_symbol
 _atom_site_label
 _atom_site_symmetry_multiplicity
 _atom_site_fract_x
 _atom_site_fract_y
 _atom_site_fract_z
 _atom_site_occupancy
  Li  Li0  1  0.750000  0.250003  0.500002  1
  Li  Li1  1  0.250003  0.750000  0.500002  1
  Ac  Ac2  1  0.000000  0.000000  0.000000  1
  Au  Au3  1  0.614496  0.614496  0.228993  1
  Au  Au4  1  0.385504  0.385504  0.771009  1
