# generated using pymatgen
data_Nd4DyY5Si8
_symmetry_space_group_name_H-M   'P 1'
_cell_length_a   7.76457501
_cell_length_b   7.76464701
_cell_length_c   14.52437100
_cell_angle_alpha   90.00021715
_cell_angle_beta   90.00194841
_cell_angle_gamma   90.00549004
_symmetry_Int_Tables_number   1
_chemical_formula_structural   Nd4DyY5Si8
_chemical_formula_sum   'Nd8 Dy2 Y10 Si16'
_cell_volume   875.66247315
_cell_formula_units_Z   2
loop_
 _symmetry_equiv_pos_site_id
 _symmetry_equiv_pos_as_xyz
  1  'x, y, z'
loop_
 _atom_site_type_symbol
 _atom_site_label
 _atom_site_symmetry_multiplicity
 _atom_site_fract_x
 _atom_site_fract_y
 _atom_site_fract_z
 _atom_site_occupancy
  Nd  Nd0  1  0.633980  0.990039  0.454550  1
  Nd  Nd1  1  0.365762  0.010225  0.954531  1
  Nd  Nd2  1  0.990062  0.633983  0.545473  1
  Nd  Nd3  1  0.489843  0.865846  0.204513  1
  Nd  Nd4  1  0.510103  0.134275  0.704396  1
  Nd  Nd5  1  0.865870  0.489822  0.795493  1
  Nd  Nd6  1  0.134334  0.510123  0.295570  1
  Nd  Nd7  1  0.010253  0.365767  0.045475  1
  Dy  Dy8  1  0.487671  0.365320  0.124959  1
  Dy  Dy9  1  0.314139  0.314098  0.500007  1
  Y  Y10  1  0.987795  0.134829  0.624904  1
  Y  Y11  1  0.865293  0.012445  0.874980  1
  Y  Y12  1  0.134802  0.987807  0.375101  1
  Y  Y13  1  0.512313  0.634465  0.624916  1
  Y  Y14  1  0.365243  0.487571  0.874986  1
  Y  Y15  1  0.634483  0.512335  0.375064  1
  Y  Y16  1  0.012540  0.865304  0.125010  1
  Y  Y17  1  0.185954  0.813972  0.749982  1
  Y  Y18  1  0.813819  0.186044  0.249948  1
  Y  Y19  1  0.685861  0.685836  0.000058  1
  Si  Si20  1  0.287561  0.930718  0.561313  1
  Si  Si21  1  0.712311  0.069608  0.061387  1
  Si  Si22  1  0.930744  0.287583  0.438711  1
  Si  Si23  1  0.430554  0.212490  0.311306  1
  Si  Si24  1  0.569384  0.787620  0.811345  1
  Si  Si25  1  0.212424  0.430527  0.688631  1
  Si  Si26  1  0.787337  0.569261  0.188601  1
  Si  Si27  1  0.069412  0.712449  0.938630  1
  Si  Si28  1  0.801454  0.839495  0.693970  1
  Si  Si29  1  0.198910  0.160568  0.193900  1
  Si  Si30  1  0.839481  0.801356  0.306028  1
  Si  Si31  1  0.339407  0.698434  0.444028  1
  Si  Si32  1  0.660457  0.301522  0.944095  1
  Si  Si33  1  0.698442  0.339424  0.556020  1
  Si  Si34  1  0.301532  0.660189  0.056067  1
  Si  Si35  1  0.160471  0.198652  0.806055  1
