# generated using pymatgen
data_Nd2Ga7Ni2Ag
_symmetry_space_group_name_H-M   'P 1'
_cell_length_a   4.21852203
_cell_length_b   6.49566462
_cell_length_c   8.18207194
_cell_angle_alpha   90.79011560
_cell_angle_beta   104.93900879
_cell_angle_gamma   89.99999478
_symmetry_Int_Tables_number   1
_chemical_formula_structural   Nd2Ga7Ni2Ag
_chemical_formula_sum   'Nd2 Ga7 Ni2 Ag1'
_cell_volume   216.60594001
_cell_formula_units_Z   1
loop_
 _symmetry_equiv_pos_site_id
 _symmetry_equiv_pos_as_xyz
  1  'x, y, z'
loop_
 _atom_site_type_symbol
 _atom_site_label
 _atom_site_symmetry_multiplicity
 _atom_site_fract_x
 _atom_site_fract_y
 _atom_site_fract_z
 _atom_site_occupancy
  Nd  Nd0  1  0.879647  0.761194  0.759293  1
  Nd  Nd1  1  0.120353  0.238806  0.240707  1
  Ga  Ga2  1  0.500000  0.000000  0.000000  1
  Ga  Ga3  1  0.071915  0.740388  0.143831  1
  Ga  Ga4  1  0.928085  0.259612  0.856169  1
  Ga  Ga5  1  0.686666  0.546873  0.373333  1
  Ga  Ga6  1  0.313334  0.453127  0.626667  1
  Ga  Ga7  1  0.688033  0.944572  0.376068  1
  Ga  Ga8  1  0.311967  0.055428  0.623932  1
  Ni  Ni9  1  0.221338  0.750392  0.442676  1
  Ni  Ni10  1  0.778662  0.249608  0.557324  1
  Ag  Ag11  1  0.500000  0.500000  0.000000  1
