# generated using pymatgen
data_Dy17Mg3(Ir5Au)2
_symmetry_space_group_name_H-M   'P 1'
_cell_length_a   10.87858580
_cell_length_b   10.84723022
_cell_length_c   6.29544197
_cell_angle_alpha   90.05441585
_cell_angle_beta   89.73399864
_cell_angle_gamma   90.00039490
_symmetry_Int_Tables_number   1
_chemical_formula_structural   Dy17Mg3(Ir5Au)2
_chemical_formula_sum   'Dy17 Mg3 Ir10 Au2'
_cell_volume   742.86970528
_cell_formula_units_Z   1
loop_
 _symmetry_equiv_pos_site_id
 _symmetry_equiv_pos_as_xyz
  1  'x, y, z'
loop_
 _atom_site_type_symbol
 _atom_site_label
 _atom_site_symmetry_multiplicity
 _atom_site_fract_x
 _atom_site_fract_y
 _atom_site_fract_z
 _atom_site_occupancy
  Dy  Dy0  1  0.283850  0.086797  0.383275  1
  Dy  Dy1  1  0.284185  0.915697  0.881071  1
  Dy  Dy2  1  0.702824  0.089964  0.867575  1
  Dy  Dy3  1  0.703317  0.908529  0.369669  1
  Dy  Dy4  1  0.576178  0.782705  0.879649  1
  Dy  Dy5  1  0.580027  0.209136  0.379656  1
  Dy  Dy6  1  0.406239  0.792714  0.380672  1
  Dy  Dy7  1  0.410684  0.214840  0.879053  1
  Dy  Dy8  1  0.208271  0.408654  0.618790  1
  Dy  Dy9  1  0.215993  0.587113  0.119807  1
  Dy  Dy10  1  0.783649  0.421781  0.119968  1
  Dy  Dy11  1  0.791842  0.582644  0.618824  1
  Dy  Dy12  1  0.920925  0.710211  0.133415  1
  Dy  Dy13  1  0.917586  0.289753  0.631661  1
  Dy  Dy14  1  0.094556  0.709812  0.616809  1
  Dy  Dy15  1  0.093586  0.290478  0.118505  1
  Dy  Dy16  1  0.499369  0.501065  0.500146  1
  Mg  Mg17  1  0.006167  0.999472  0.500415  1
  Mg  Mg18  1  0.006858  0.000301  0.000419  1
  Mg  Mg19  1  0.499393  0.498601  0.000130  1
  Ir  Ir20  1  0.152644  0.154098  0.752676  1
  Ir  Ir21  1  0.152675  0.845496  0.248838  1
  Ir  Ir22  1  0.657214  0.345603  0.745128  1
  Ir  Ir23  1  0.656551  0.656161  0.252211  1
  Ir  Ir24  1  0.347392  0.344106  0.254249  1
  Ir  Ir25  1  0.345085  0.654308  0.747749  1
  Ir  Ir26  1  0.500953  0.999640  0.118867  1
  Ir  Ir27  1  0.500632  0.999684  0.622903  1
  Ir  Ir28  1  0.999730  0.500826  0.880852  1
  Ir  Ir29  1  0.999781  0.498936  0.376867  1
  Au  Au30  1  0.851435  0.148149  0.247919  1
  Au  Au31  1  0.850410  0.852723  0.752234  1
