# generated using pymatgen
data_Sc12Si12NiOs3
_symmetry_space_group_name_H-M   'P 1'
_cell_length_a   4.01966300
_cell_length_b   10.22923587
_cell_length_c   11.66034192
_cell_angle_alpha   89.74828017
_cell_angle_beta   90.00000000
_cell_angle_gamma   90.00000000
_symmetry_Int_Tables_number   1
_chemical_formula_structural   Sc12Si12NiOs3
_chemical_formula_sum   'Sc12 Si12 Ni1 Os3'
_cell_volume   479.44625574
_cell_formula_units_Z   1
loop_
 _symmetry_equiv_pos_site_id
 _symmetry_equiv_pos_as_xyz
  1  'x, y, z'
loop_
 _atom_site_type_symbol
 _atom_site_label
 _atom_site_symmetry_multiplicity
 _atom_site_fract_x
 _atom_site_fract_y
 _atom_site_fract_z
 _atom_site_occupancy
  Sc  Sc0  1  0.250000  0.878893  0.019042  1
  Sc  Sc1  1  0.250000  0.622219  0.519002  1
  Sc  Sc2  1  0.750000  0.124491  0.979699  1
  Sc  Sc3  1  0.750000  0.377878  0.477858  1
  Sc  Sc4  1  0.250000  0.920382  0.605123  1
  Sc  Sc5  1  0.250000  0.578851  0.103832  1
  Sc  Sc6  1  0.750000  0.079960  0.397487  1
  Sc  Sc7  1  0.750000  0.421703  0.899007  1
  Sc  Sc8  1  0.250000  0.654870  0.799609  1
  Sc  Sc9  1  0.250000  0.840270  0.298126  1
  Sc  Sc10  1  0.750000  0.339754  0.201989  1
  Sc  Sc11  1  0.750000  0.162211  0.700890  1
  Si  Si12  1  0.250000  0.016063  0.821158  1
  Si  Si13  1  0.250000  0.484966  0.322299  1
  Si  Si14  1  0.750000  0.985801  0.177824  1
  Si  Si15  1  0.750000  0.509133  0.676903  1
  Si  Si16  1  0.250000  0.255533  0.840424  1
  Si  Si17  1  0.250000  0.248404  0.342502  1
  Si  Si18  1  0.750000  0.748312  0.157647  1
  Si  Si19  1  0.750000  0.748229  0.658936  1
  Si  Si20  1  0.250000  0.194369  0.546470  1
  Si  Si21  1  0.250000  0.306819  0.045595  1
  Si  Si22  1  0.750000  0.805601  0.454599  1
  Si  Si23  1  0.750000  0.696526  0.954358  1
  Ni  Ni24  1  0.250000  0.388771  0.676709  1
  Os  Os25  1  0.250000  0.110249  0.176178  1
  Os  Os26  1  0.750000  0.609054  0.324408  1
  Os  Os27  1  0.750000  0.890685  0.822324  1
