# generated using pymatgen
data_Yb8Si16Tc11Mo
_symmetry_space_group_name_H-M   'P 1'
_cell_length_a   6.74274740
_cell_length_b   6.80940547
_cell_length_c   12.61438812
_cell_angle_alpha   90.00443360
_cell_angle_beta   89.82220394
_cell_angle_gamma   90.01350270
_symmetry_Int_Tables_number   1
_chemical_formula_structural   Yb8Si16Tc11Mo
_chemical_formula_sum   'Yb8 Si16 Tc11 Mo1'
_cell_volume   579.17548393
_cell_formula_units_Z   1
loop_
 _symmetry_equiv_pos_site_id
 _symmetry_equiv_pos_as_xyz
  1  'x, y, z'
loop_
 _atom_site_type_symbol
 _atom_site_label
 _atom_site_symmetry_multiplicity
 _atom_site_fract_x
 _atom_site_fract_y
 _atom_site_fract_z
 _atom_site_occupancy
  Yb  Yb0  1  0.490982  0.660769  0.589468  1
  Yb  Yb1  1  0.990752  0.839360  0.910705  1
  Yb  Yb2  1  0.509662  0.340588  0.089133  1
  Yb  Yb3  1  0.009056  0.158727  0.409454  1
  Yb  Yb4  1  0.507298  0.341512  0.410266  1
  Yb  Yb5  1  0.009167  0.158000  0.089841  1
  Yb  Yb6  1  0.493137  0.658816  0.911162  1
  Yb  Yb7  1  0.991206  0.841420  0.590543  1
  Si  Si8  1  0.651846  0.954197  0.448227  1
  Si  Si9  1  0.152877  0.546062  0.051312  1
  Si  Si10  1  0.346556  0.045352  0.949039  1
  Si  Si11  1  0.845042  0.454812  0.549571  1
  Si  Si12  1  0.346959  0.044472  0.549722  1
  Si  Si13  1  0.850482  0.452159  0.948483  1
  Si  Si14  1  0.651828  0.953227  0.051002  1
  Si  Si15  1  0.150597  0.547341  0.448011  1
  Si  Si16  1  0.471265  0.358033  0.750230  1
  Si  Si17  1  0.967485  0.144034  0.753886  1
  Si  Si18  1  0.529832  0.643704  0.249324  1
  Si  Si19  1  0.030424  0.854136  0.249822  1
  Si  Si20  1  0.686098  0.863172  0.749949  1
  Si  Si21  1  0.189550  0.639203  0.750434  1
  Si  Si22  1  0.314200  0.137575  0.249594  1
  Si  Si23  1  0.813677  0.362266  0.249811  1
  Tc  Tc24  1  0.672963  0.157708  0.626055  1
  Tc  Tc25  1  0.178705  0.345381  0.876512  1
  Tc  Tc26  1  0.326084  0.845240  0.126356  1
  Tc  Tc27  1  0.822498  0.655728  0.372403  1
  Tc  Tc28  1  0.327432  0.845229  0.372150  1
  Tc  Tc29  1  0.825271  0.654457  0.126140  1
  Tc  Tc30  1  0.671918  0.155254  0.874041  1
  Tc  Tc31  1  0.830208  0.502919  0.750574  1
  Tc  Tc32  1  0.330140  0.997513  0.750504  1
  Tc  Tc33  1  0.171507  0.497380  0.249417  1
  Tc  Tc34  1  0.671937  0.002650  0.249439  1
  Mo  Mo35  1  0.171360  0.341603  0.627419  1
