# generated using pymatgen
data_YbTmPa2(B4Os)4
_symmetry_space_group_name_H-M   'P 1'
_cell_length_a   3.57445500
_cell_length_b   5.97108716
_cell_length_c   11.57738987
_cell_angle_alpha   90.16064367
_cell_angle_beta   90.00000000
_cell_angle_gamma   90.00000000
_symmetry_Int_Tables_number   1
_chemical_formula_structural   YbTmPa2(B4Os)4
_chemical_formula_sum   'Yb1 Tm1 Pa2 B16 Os4'
_cell_volume   247.09968737
_cell_formula_units_Z   1
loop_
 _symmetry_equiv_pos_site_id
 _symmetry_equiv_pos_as_xyz
  1  'x, y, z'
loop_
 _atom_site_type_symbol
 _atom_site_label
 _atom_site_symmetry_multiplicity
 _atom_site_fract_x
 _atom_site_fract_y
 _atom_site_fract_z
 _atom_site_occupancy
  Yb  Yb0  1  0.000000  0.371061  0.147290  1
  Tm  Tm1  1  0.000000  0.627991  0.853243  1
  Pa  Pa2  1  0.000000  0.129021  0.651472  1
  Pa  Pa3  1  0.000000  0.871044  0.347489  1
  B  B4  1  0.500000  0.474773  0.692846  1
  B  B5  1  0.500000  0.524972  0.307826  1
  B  B6  1  0.500000  0.970218  0.810442  1
  B  B7  1  0.500000  0.027205  0.189426  1
  B  B8  1  0.500000  0.291321  0.814866  1
  B  B9  1  0.500000  0.710838  0.184946  1
  B  B10  1  0.500000  0.788597  0.689086  1
  B  B11  1  0.500000  0.211873  0.311924  1
  B  B12  1  0.500000  0.363617  0.969281  1
  B  B13  1  0.500000  0.636169  0.030651  1
  B  B14  1  0.500000  0.865364  0.531518  1
  B  B15  1  0.500000  0.133899  0.467393  1
  B  B16  1  0.500000  0.386944  0.546547  1
  B  B17  1  0.500000  0.612280  0.453082  1
  B  B18  1  0.500000  0.885746  0.954972  1
  B  B19  1  0.500000  0.114684  0.045541  1
  Os  Os20  1  0.000000  0.139457  0.904280  1
  Os  Os21  1  0.000000  0.861260  0.093656  1
  Os  Os22  1  0.000000  0.643454  0.596017  1
  Os  Os23  1  0.000000  0.358213  0.406207  1
