# generated using pymatgen
data_Ca6HoErSb6
_symmetry_space_group_name_H-M   'P 1'
_cell_length_a   8.11326534
_cell_length_b   8.11336946
_cell_length_c   8.18267000
_cell_angle_alpha   109.46672133
_cell_angle_beta   109.46112135
_cell_angle_gamma   109.02126833
_symmetry_Int_Tables_number   1
_chemical_formula_structural   Ca6HoErSb6
_chemical_formula_sum   'Ca6 Ho1 Er1 Sb6'
_cell_volume   416.99296436
_cell_formula_units_Z   1
loop_
 _symmetry_equiv_pos_site_id
 _symmetry_equiv_pos_as_xyz
  1  'x, y, z'
loop_
 _atom_site_type_symbol
 _atom_site_label
 _atom_site_symmetry_multiplicity
 _atom_site_fract_x
 _atom_site_fract_y
 _atom_site_fract_z
 _atom_site_occupancy
  Ca  Ca0  1  0.999742  0.141337  0.497461  1
  Ca  Ca1  1  0.356511  0.354261  0.357076  1
  Ca  Ca2  1  0.641300  0.499739  0.997405  1
  Ca  Ca3  1  0.854208  0.856530  0.857133  1
  Ca  Ca4  1  0.502115  0.002695  0.645677  1
  Ca  Ca5  1  0.502609  0.002005  0.145649  1
  Ho  Ho6  1  0.999715  0.642572  0.499547  1
  Er  Er7  1  0.142524  0.499743  0.999572  1
  Sb  Sb8  1  0.243676  0.122874  0.870981  1
  Sb  Sb9  1  0.125236  0.864914  0.249614  1
  Sb  Sb10  1  0.761945  0.382592  0.629731  1
  Sb  Sb11  1  0.882727  0.261883  0.129361  1
  Sb  Sb12  1  0.622553  0.743641  0.370833  1
  Sb  Sb13  1  0.365142  0.625215  0.749960  1
