# generated using pymatgen
data_Ho2CdGa7Ni2
_symmetry_space_group_name_H-M   'P 1'
_cell_length_a   8.01458559
_cell_length_b   8.01458612
_cell_length_c   6.52860518
_cell_angle_alpha   89.16917153
_cell_angle_beta   90.83082603
_cell_angle_gamma   149.81569675
_symmetry_Int_Tables_number   1
_chemical_formula_structural   Ho2CdGa7Ni2
_chemical_formula_sum   'Ho2 Cd1 Ga7 Ni2'
_cell_volume   210.82121376
_cell_formula_units_Z   1
loop_
 _symmetry_equiv_pos_site_id
 _symmetry_equiv_pos_as_xyz
  1  'x, y, z'
loop_
 _atom_site_type_symbol
 _atom_site_label
 _atom_site_symmetry_multiplicity
 _atom_site_fract_x
 _atom_site_fract_y
 _atom_site_fract_z
 _atom_site_occupancy
  Ho  Ho0  1  0.876775  0.123225  0.261024  1
  Ho  Ho1  1  0.123225  0.876775  0.738976  1
  Cd  Cd2  1  0.500000  0.500000  0.000000  1
  Ga  Ga3  1  0.314609  0.685391  0.554161  1
  Ga  Ga4  1  0.070364  0.929636  0.257788  1
  Ga  Ga5  1  0.685391  0.314609  0.445839  1
  Ga  Ga6  1  0.500000  0.500000  0.500000  1
  Ga  Ga7  1  0.687263  0.312737  0.044802  1
  Ga  Ga8  1  0.312737  0.687263  0.955198  1
  Ga  Ga9  1  0.929636  0.070364  0.742212  1
  Ni  Ni10  1  0.778094  0.221906  0.746537  1
  Ni  Ni11  1  0.221906  0.778094  0.253463  1
