# generated using pymatgen
data_NbIrF10
_symmetry_space_group_name_H-M   'P 1'
_cell_length_a   5.80958224
_cell_length_b   7.52401098
_cell_length_c   9.94541238
_cell_angle_alpha   87.96495143
_cell_angle_beta   106.14982274
_cell_angle_gamma   99.34091574
_symmetry_Int_Tables_number   1
_chemical_formula_structural   NbIrF10
_chemical_formula_sum   'Nb2 Ir2 F20'
_cell_volume   412.01386364
_cell_formula_units_Z   2
loop_
 _symmetry_equiv_pos_site_id
 _symmetry_equiv_pos_as_xyz
  1  'x, y, z'
loop_
 _atom_site_type_symbol
 _atom_site_label
 _atom_site_symmetry_multiplicity
 _atom_site_fract_x
 _atom_site_fract_y
 _atom_site_fract_z
 _atom_site_occupancy
  Nb  Nb0  1  0.338483  0.381827  0.221899  1
  Nb  Nb1  1  0.661517  0.618173  0.778101  1
  Ir  Ir2  1  0.963773  0.758310  0.314008  1
  Ir  Ir3  1  0.036227  0.241690  0.685992  1
  F  F4  1  0.027173  0.250189  0.167082  1
  F  F5  1  0.972827  0.749811  0.832918  1
  F  F6  1  0.491319  0.218701  0.156607  1
  F  F7  1  0.508681  0.781299  0.843393  1
  F  F8  1  0.112520  0.220522  0.880730  1
  F  F9  1  0.887480  0.779478  0.119270  1
  F  F10  1  0.962134  0.283267  0.493745  1
  F  F11  1  0.037866  0.716733  0.506255  1
  F  F12  1  0.772387  0.051572  0.662786  1
  F  F13  1  0.227613  0.948428  0.337214  1
  F  F14  1  0.243983  0.078320  0.673956  1
  F  F15  1  0.756017  0.921680  0.326044  1
  F  F16  1  0.314961  0.447454  0.710585  1
  F  F17  1  0.685039  0.552546  0.289415  1
  F  F18  1  0.814163  0.417669  0.697668  1
  F  F19  1  0.185837  0.582331  0.302332  1
  F  F20  1  0.692914  0.453834  0.928244  1
  F  F21  1  0.307086  0.546166  0.071756  1
  F  F22  1  0.573359  0.673487  0.586188  1
  F  F23  1  0.426641  0.326513  0.413812  1
