# generated using pymatgen
data_Ac3RuBr3
_symmetry_space_group_name_H-M   'P 1'
_cell_length_a   10.99625651
_cell_length_b   10.99625621
_cell_length_c   10.99625600
_cell_angle_alpha   109.47122210
_cell_angle_beta   109.47122154
_cell_angle_gamma   109.47121507
_symmetry_Int_Tables_number   1
_chemical_formula_structural   Ac3RuBr3
_chemical_formula_sum   'Ac12 Ru4 Br12'
_cell_volume   1023.55852642
_cell_formula_units_Z   4
loop_
 _symmetry_equiv_pos_site_id
 _symmetry_equiv_pos_as_xyz
  1  'x, y, z'
loop_
 _atom_site_type_symbol
 _atom_site_label
 _atom_site_symmetry_multiplicity
 _atom_site_fract_x
 _atom_site_fract_y
 _atom_site_fract_z
 _atom_site_occupancy
  Ac  Ac0  1  0.266085  0.750000  0.233915  1
  Ac  Ac1  1  0.483915  0.750000  0.016085  1
  Ac  Ac2  1  0.233915  0.467828  0.483915  1
  Ac  Ac3  1  0.016085  0.032172  0.266085  1
  Ac  Ac4  1  0.233915  0.266085  0.750000  1
  Ac  Ac5  1  0.016085  0.483915  0.750000  1
  Ac  Ac6  1  0.483915  0.233915  0.467828  1
  Ac  Ac7  1  0.266085  0.016085  0.032172  1
  Ac  Ac8  1  0.750000  0.233915  0.266085  1
  Ac  Ac9  1  0.750000  0.016085  0.483915  1
  Ac  Ac10  1  0.467828  0.483915  0.233915  1
  Ac  Ac11  1  0.032172  0.266085  0.016085  1
  Ru  Ru12  1  0.500000  0.000000  0.250000  1
  Ru  Ru13  1  0.250000  0.500000  0.000000  1
  Ru  Ru14  1  0.000000  0.250000  0.500000  1
  Ru  Ru15  1  0.250000  0.250000  0.250000  1
  Br  Br16  1  0.250000  0.993246  0.506754  1
  Br  Br17  1  0.513509  0.506754  0.756754  1
  Br  Br18  1  0.250000  0.756754  0.743246  1
  Br  Br19  1  0.986491  0.743246  0.993246  1
  Br  Br20  1  0.993246  0.506754  0.250000  1
  Br  Br21  1  0.743246  0.993246  0.986491  1
  Br  Br22  1  0.756754  0.743246  0.250000  1
  Br  Br23  1  0.506754  0.756754  0.513509  1
  Br  Br24  1  0.506754  0.250000  0.993246  1
  Br  Br25  1  0.756754  0.513509  0.506754  1
  Br  Br26  1  0.743246  0.250000  0.756754  1
  Br  Br27  1  0.993246  0.986491  0.743246  1
