# generated using pymatgen
data_DyEr9(Zn2Bi)2
_symmetry_space_group_name_H-M   'P 1'
_cell_length_a   8.56934406
_cell_length_b   8.56934432
_cell_length_c   8.57318804
_cell_angle_alpha   123.56127121
_cell_angle_beta   123.56127363
_cell_angle_gamma   83.91242873
_symmetry_Int_Tables_number   1
_chemical_formula_structural   DyEr9(Zn2Bi)2
_chemical_formula_sum   'Dy1 Er9 Zn4 Bi2'
_cell_volume   418.71034320
_cell_formula_units_Z   1
loop_
 _symmetry_equiv_pos_site_id
 _symmetry_equiv_pos_as_xyz
  1  'x, y, z'
loop_
 _atom_site_type_symbol
 _atom_site_label
 _atom_site_symmetry_multiplicity
 _atom_site_fract_x
 _atom_site_fract_y
 _atom_site_fract_z
 _atom_site_occupancy
  Dy  Dy0  1  0.509937  0.009937  0.804653  1
  Er  Er1  1  0.500034  0.500318  0.000159  1
  Er  Er2  1  0.000318  0.000034  0.000159  1
  Er  Er3  1  0.205562  0.705562  0.195382  1
  Er  Er4  1  0.009950  0.205788  0.499960  1
  Er  Er5  1  0.705788  0.509950  0.499960  1
  Er  Er6  1  0.489844  0.989844  0.195907  1
  Er  Er7  1  0.794241  0.294241  0.804263  1
  Er  Er8  1  0.989813  0.794078  0.499935  1
  Er  Er9  1  0.294078  0.489813  0.499935  1
  Zn  Zn10  1  0.139239  0.639239  0.778461  1
  Zn  Zn11  1  0.861049  0.361049  0.221925  1
  Zn  Zn12  1  0.639483  0.860691  0.499684  1
  Zn  Zn13  1  0.360691  0.139483  0.499684  1
  Bi  Bi14  1  0.249867  0.250106  0.999966  1
  Bi  Bi15  1  0.750106  0.749867  0.999966  1
