# generated using pymatgen
data_Tb2Yb2Tc3B16W
_symmetry_space_group_name_H-M   'P 1'
_cell_length_a   6.00295714
_cell_length_b   11.60900182
_cell_length_c   3.58505200
_cell_angle_alpha   90.00000000
_cell_angle_beta   90.00000000
_cell_angle_gamma   89.96595410
_symmetry_Int_Tables_number   1
_chemical_formula_structural   Tb2Yb2Tc3B16W
_chemical_formula_sum   'Tb2 Yb2 Tc3 B16 W1'
_cell_volume   249.83628000
_cell_formula_units_Z   1
loop_
 _symmetry_equiv_pos_site_id
 _symmetry_equiv_pos_as_xyz
  1  'x, y, z'
loop_
 _atom_site_type_symbol
 _atom_site_label
 _atom_site_symmetry_multiplicity
 _atom_site_fract_x
 _atom_site_fract_y
 _atom_site_fract_z
 _atom_site_occupancy
  Tb  Tb0  1  0.128210  0.152295  0.000000  1
  Tb  Tb1  1  0.872337  0.849304  0.000000  1
  Yb  Yb2  1  0.625540  0.349854  0.000000  1
  Yb  Yb3  1  0.371880  0.649199  0.000000  1
  Tc  Tc4  1  0.631702  0.084900  0.000000  1
  Tc  Tc5  1  0.368412  0.916286  0.000000  1
  Tc  Tc6  1  0.129044  0.415424  0.000000  1
  B  B7  1  0.783380  0.185831  0.500000  1
  B  B8  1  0.217253  0.815369  0.500000  1
  B  B9  1  0.286221  0.315448  0.500000  1
  B  B10  1  0.710210  0.686510  0.500000  1
  B  B11  1  0.863503  0.032001  0.500000  1
  B  B12  1  0.136832  0.968908  0.500000  1
  B  B13  1  0.365436  0.466407  0.500000  1
  B  B14  1  0.631602  0.530974  0.500000  1
  B  B15  1  0.887239  0.450801  0.500000  1
  B  B16  1  0.117796  0.545573  0.500000  1
  B  B17  1  0.387988  0.047741  0.500000  1
  B  B18  1  0.612574  0.953012  0.500000  1
  B  B19  1  0.977207  0.307129  0.500000  1
  B  B20  1  0.026967  0.693267  0.500000  1
  B  B21  1  0.477367  0.192586  0.500000  1
  B  B22  1  0.522114  0.808134  0.500000  1
  W  W23  1  0.869187  0.583047  0.000000  1
