# generated using pymatgen
data_La2Zn2Co5NiB2
_symmetry_space_group_name_H-M   'P 1'
_cell_length_a   5.22620952
_cell_length_b   5.22621012
_cell_length_c   6.80715000
_cell_angle_alpha   90.00000000
_cell_angle_beta   90.00000000
_cell_angle_gamma   119.59574498
_symmetry_Int_Tables_number   1
_chemical_formula_structural   La2Zn2Co5NiB2
_chemical_formula_sum   'La2 Zn2 Co5 Ni1 B2'
_cell_volume   161.66811628
_cell_formula_units_Z   1
loop_
 _symmetry_equiv_pos_site_id
 _symmetry_equiv_pos_as_xyz
  1  'x, y, z'
loop_
 _atom_site_type_symbol
 _atom_site_label
 _atom_site_symmetry_multiplicity
 _atom_site_fract_x
 _atom_site_fract_y
 _atom_site_fract_z
 _atom_site_occupancy
  La  La0  1  0.000000  0.000000  0.996193  1
  La  La1  1  0.000000  0.000000  0.489539  1
  Zn  Zn2  1  0.667911  0.332089  0.501124  1
  Zn  Zn3  1  0.332089  0.667911  0.501124  1
  Co  Co4  1  0.500000  0.000000  0.801560  1
  Co  Co5  1  0.000000  0.500000  0.801560  1
  Co  Co6  1  0.500000  0.500000  0.199837  1
  Co  Co7  1  0.500000  0.000000  0.201891  1
  Co  Co8  1  0.000000  0.500000  0.201891  1
  Ni  Ni9  1  0.500000  0.500000  0.798743  1
  B  B10  1  0.669575  0.330425  0.003269  1
  B  B11  1  0.330425  0.669575  0.003269  1
