# generated using pymatgen
data_Cs2Be(Ge2O5)2
_symmetry_space_group_name_H-M   'P 1'
_cell_length_a   10.61639800
_cell_length_b   7.57405963
_cell_length_c   16.36673000
_cell_angle_alpha   66.32289414
_cell_angle_beta   90.00000000
_cell_angle_gamma   90.00000000
_symmetry_Int_Tables_number   1
_chemical_formula_structural   Cs2Be(Ge2O5)2
_chemical_formula_sum   'Cs8 Be4 Ge16 O40'
_cell_volume   1205.25637552
_cell_formula_units_Z   4
loop_
 _symmetry_equiv_pos_site_id
 _symmetry_equiv_pos_as_xyz
  1  'x, y, z'
loop_
 _atom_site_type_symbol
 _atom_site_label
 _atom_site_symmetry_multiplicity
 _atom_site_fract_x
 _atom_site_fract_y
 _atom_site_fract_z
 _atom_site_occupancy
  Cs  Cs0  1  0.075369  0.118283  0.115930  1
  Cs  Cs1  1  0.575369  0.881717  0.384070  1
  Cs  Cs2  1  0.127111  0.136445  0.410810  1
  Cs  Cs3  1  0.424631  0.118283  0.615930  1
  Cs  Cs4  1  0.872889  0.863555  0.589190  1
  Cs  Cs5  1  0.372889  0.136445  0.910810  1
  Cs  Cs6  1  0.924631  0.881717  0.884070  1
  Cs  Cs7  1  0.627111  0.863555  0.089190  1
  Be  Be8  1  0.638907  0.153247  0.798635  1
  Be  Be9  1  0.361093  0.846753  0.201365  1
  Be  Be10  1  0.138907  0.846753  0.701365  1
  Be  Be11  1  0.861093  0.153247  0.298635  1
  Ge  Ge12  1  0.779438  0.343473  0.627378  1
  Ge  Ge13  1  0.762438  0.343632  0.924628  1
  Ge  Ge14  1  0.220562  0.656527  0.372622  1
  Ge  Ge15  1  0.950294  0.547431  0.174067  1
  Ge  Ge16  1  0.279438  0.656527  0.872622  1
  Ge  Ge17  1  0.572321  0.715209  0.830583  1
  Ge  Ge18  1  0.427679  0.284791  0.169417  1
  Ge  Ge19  1  0.927679  0.715209  0.330583  1
  Ge  Ge20  1  0.072321  0.284791  0.669417  1
  Ge  Ge21  1  0.262438  0.656368  0.575372  1
  Ge  Ge22  1  0.720562  0.343473  0.127378  1
  Ge  Ge23  1  0.737562  0.343632  0.424628  1
  Ge  Ge24  1  0.049706  0.452569  0.825933  1
  Ge  Ge25  1  0.450294  0.452569  0.325933  1
  Ge  Ge26  1  0.237562  0.656368  0.075372  1
  Ge  Ge27  1  0.549706  0.547431  0.674067  1
  O  O28  1  0.930506  0.346604  0.908471  1
  O  O29  1  0.420630  0.273521  0.282033  1
  O  O30  1  0.430777  0.060644  0.166261  1
  O  O31  1  0.069223  0.060644  0.666261  1
  O  O32  1  0.757391  0.167550  0.733009  1
  O  O33  1  0.712603  0.589558  0.884578  1
  O  O34  1  0.430506  0.653396  0.591529  1
  O  O35  1  0.569494  0.346604  0.408471  1
  O  O36  1  0.579370  0.726479  0.717967  1
  O  O37  1  0.439400  0.570468  0.887884  1
  O  O38  1  0.920630  0.726479  0.217967  1
  O  O39  1  0.315586  0.817133  0.108120  1
  O  O40  1  0.258454  0.749381  0.454978  1
  O  O41  1  0.741546  0.250619  0.545022  1
  O  O42  1  0.241546  0.749381  0.954978  1
  O  O43  1  0.684414  0.182867  0.891880  1
  O  O44  1  0.069494  0.653396  0.091529  1
  O  O45  1  0.815406  0.557861  0.103821  1
  O  O46  1  0.815586  0.182867  0.391880  1
  O  O47  1  0.524881  0.312088  0.747120  1
  O  O48  1  0.242609  0.832450  0.266991  1
  O  O49  1  0.475119  0.687912  0.252880  1
  O  O50  1  0.758454  0.250619  0.045022  1
  O  O51  1  0.684594  0.557861  0.603821  1
  O  O52  1  0.315406  0.442139  0.396179  1
  O  O53  1  0.930777  0.939356  0.333739  1
  O  O54  1  0.787397  0.589558  0.384578  1
  O  O55  1  0.939400  0.429532  0.612116  1
  O  O56  1  0.287397  0.410442  0.115422  1
  O  O57  1  0.742609  0.167550  0.233009  1
  O  O58  1  0.560600  0.429532  0.112116  1
  O  O59  1  0.079370  0.273521  0.782033  1
  O  O60  1  0.257391  0.832450  0.766991  1
  O  O61  1  0.975119  0.312088  0.247120  1
  O  O62  1  0.212603  0.410442  0.615422  1
  O  O63  1  0.184414  0.817133  0.608120  1
  O  O64  1  0.060600  0.570468  0.387884  1
  O  O65  1  0.024881  0.687912  0.752880  1
  O  O66  1  0.184594  0.442139  0.896179  1
  O  O67  1  0.569223  0.939356  0.833739  1
