# generated using pymatgen
data_Nd4ZnSi2Pd27
_symmetry_space_group_name_H-M   'P 1'
_cell_length_a   8.98666199
_cell_length_b   8.98666199
_cell_length_c   7.14803256
_cell_angle_alpha   90.29550904
_cell_angle_beta   90.29550904
_cell_angle_gamma   88.95973911
_symmetry_Int_Tables_number   1
_chemical_formula_structural   Nd4ZnSi2Pd27
_chemical_formula_sum   'Nd4 Zn1 Si2 Pd27'
_cell_volume   577.16555561
_cell_formula_units_Z   1
loop_
 _symmetry_equiv_pos_site_id
 _symmetry_equiv_pos_as_xyz
  1  'x, y, z'
loop_
 _atom_site_type_symbol
 _atom_site_label
 _atom_site_symmetry_multiplicity
 _atom_site_fract_x
 _atom_site_fract_y
 _atom_site_fract_z
 _atom_site_occupancy
  Nd  Nd0  1  0.507086  0.007086  0.933686  1
  Nd  Nd1  1  0.992914  0.492914  0.066314  1
  Nd  Nd2  1  0.001754  0.998246  0.500000  1
  Nd  Nd3  1  0.498246  0.501754  0.500000  1
  Zn  Zn4  1  0.250000  0.750000  0.000000  1
  Si  Si5  1  0.501331  0.001331  0.446859  1
  Si  Si6  1  0.998669  0.498669  0.553141  1
  Pd  Pd7  1  0.336806  0.836806  0.608114  1
  Pd  Pd8  1  0.333431  0.165922  0.618069  1
  Pd  Pd9  1  0.665922  0.833431  0.618069  1
  Pd  Pd10  1  0.665561  0.165561  0.612866  1
  Pd  Pd11  1  0.163194  0.663194  0.391886  1
  Pd  Pd12  1  0.166569  0.334078  0.381931  1
  Pd  Pd13  1  0.834078  0.666569  0.381931  1
  Pd  Pd14  1  0.834439  0.334439  0.387134  1
  Pd  Pd15  1  0.500415  0.771484  0.254399  1
  Pd  Pd16  1  0.497096  0.231082  0.256808  1
  Pd  Pd17  1  0.271484  0.000415  0.254399  1
  Pd  Pd18  1  0.731082  0.997096  0.256808  1
  Pd  Pd19  1  0.999585  0.728516  0.745601  1
  Pd  Pd20  1  0.002904  0.268918  0.743192  1
  Pd  Pd21  1  0.228516  0.499585  0.745601  1
  Pd  Pd22  1  0.768918  0.502904  0.743192  1
  Pd  Pd23  1  0.498499  0.352704  0.855137  1
  Pd  Pd24  1  0.492873  0.659609  0.862410  1
  Pd  Pd25  1  0.852704  0.998499  0.855137  1
  Pd  Pd26  1  0.159609  0.992873  0.862410  1
  Pd  Pd27  1  0.001501  0.147296  0.144863  1
  Pd  Pd28  1  0.007127  0.840391  0.137590  1
  Pd  Pd29  1  0.647296  0.501501  0.144863  1
  Pd  Pd30  1  0.340391  0.507127  0.137590  1
  Pd  Pd31  1  0.250000  0.250000  0.000000  1
  Pd  Pd32  1  0.750000  0.750000  0.000000  1
  Pd  Pd33  1  0.750000  0.250000  0.000000  1
