# generated using pymatgen
data_Hf4CdPbC2
_symmetry_space_group_name_H-M   'P 1'
_cell_length_a   3.33586800
_cell_length_b   3.33586713
_cell_length_c   14.97509500
_cell_angle_alpha   90.00000000
_cell_angle_beta   90.00000000
_cell_angle_gamma   119.99998883
_symmetry_Int_Tables_number   1
_chemical_formula_structural   Hf4CdPbC2
_chemical_formula_sum   'Hf4 Cd1 Pb1 C2'
_cell_volume   144.31712469
_cell_formula_units_Z   1
loop_
 _symmetry_equiv_pos_site_id
 _symmetry_equiv_pos_as_xyz
  1  'x, y, z'
loop_
 _atom_site_type_symbol
 _atom_site_label
 _atom_site_symmetry_multiplicity
 _atom_site_fract_x
 _atom_site_fract_y
 _atom_site_fract_z
 _atom_site_occupancy
  Hf  Hf0  1  0.333333  0.666667  0.418974  1
  Hf  Hf1  1  0.666667  0.333333  0.581523  1
  Hf  Hf2  1  0.666667  0.333333  0.918477  1
  Hf  Hf3  1  0.333333  0.666667  0.081026  1
  Cd  Cd4  1  0.333333  0.666667  0.750000  1
  Pb  Pb5  1  0.666667  0.333333  0.250000  1
  C  C6  1  0.000000  0.000000  0.499423  1
  C  C7  1  0.000000  0.000000  0.000577  1
