# generated using pymatgen
data_TmZr(Ga2Pd)2
_symmetry_space_group_name_H-M   'P 1'
_cell_length_a   5.46489174
_cell_length_b   5.46489194
_cell_length_c   6.46541500
_cell_angle_alpha   90.00000000
_cell_angle_beta   90.00000000
_cell_angle_gamma   133.06140108
_symmetry_Int_Tables_number   1
_chemical_formula_structural   TmZr(Ga2Pd)2
_chemical_formula_sum   'Tm1 Zr1 Ga4 Pd2'
_cell_volume   141.07580639
_cell_formula_units_Z   1
loop_
 _symmetry_equiv_pos_site_id
 _symmetry_equiv_pos_as_xyz
  1  'x, y, z'
loop_
 _atom_site_type_symbol
 _atom_site_label
 _atom_site_symmetry_multiplicity
 _atom_site_fract_x
 _atom_site_fract_y
 _atom_site_fract_z
 _atom_site_occupancy
  Tm  Tm0  1  0.083586  0.916414  0.250000  1
  Zr  Zr1  1  0.914057  0.085943  0.750000  1
  Ga  Ga2  1  0.627034  0.372966  0.947356  1
  Ga  Ga3  1  0.375780  0.624220  0.043099  1
  Ga  Ga4  1  0.375780  0.624220  0.456901  1
  Ga  Ga5  1  0.627034  0.372966  0.552644  1
  Pd  Pd6  1  0.200080  0.799920  0.750000  1
  Pd  Pd7  1  0.796651  0.203349  0.250000  1
