# generated using pymatgen
data_TlIn(CO3)2
_symmetry_space_group_name_H-M   'P 1'
_cell_length_a   13.91638502
_cell_length_b   13.91638485
_cell_length_c   13.91638600
_cell_angle_alpha   20.58354977
_cell_angle_beta   20.58355163
_cell_angle_gamma   20.58354434
_symmetry_Int_Tables_number   1
_chemical_formula_structural   TlIn(CO3)2
_chemical_formula_sum   'Tl2 In2 C4 O12'
_cell_volume   291.59840884
_cell_formula_units_Z   2
loop_
 _symmetry_equiv_pos_site_id
 _symmetry_equiv_pos_as_xyz
  1  'x, y, z'
loop_
 _atom_site_type_symbol
 _atom_site_label
 _atom_site_symmetry_multiplicity
 _atom_site_fract_x
 _atom_site_fract_y
 _atom_site_fract_z
 _atom_site_occupancy
  Tl  Tl0  1  0.250000  0.250000  0.250000  1
  Tl  Tl1  1  0.750000  0.750000  0.750000  1
  In  In2  1  0.500000  0.500000  0.500000  1
  In  In3  1  0.000000  0.000000  0.000000  1
  C  C4  1  0.363789  0.363789  0.363789  1
  C  C5  1  0.863789  0.863789  0.863789  1
  C  C6  1  0.636211  0.636211  0.636211  1
  C  C7  1  0.136211  0.136211  0.136211  1
  O  O8  1  0.335122  0.639102  0.119647  1
  O  O9  1  0.119647  0.335122  0.639102  1
  O  O10  1  0.639102  0.119647  0.335122  1
  O  O11  1  0.619647  0.139102  0.835122  1
  O  O12  1  0.835122  0.619647  0.139102  1
  O  O13  1  0.139102  0.835122  0.619647  1
  O  O14  1  0.664878  0.360898  0.880353  1
  O  O15  1  0.880353  0.664878  0.360898  1
  O  O16  1  0.360898  0.880353  0.664878  1
  O  O17  1  0.380353  0.860898  0.164878  1
  O  O18  1  0.164878  0.380353  0.860898  1
  O  O19  1  0.860898  0.164878  0.380353  1
