# generated using pymatgen
data_HoTi3(BiO4)3
_symmetry_space_group_name_H-M   'P 1'
_cell_length_a   5.38375500
_cell_length_b   5.46573003
_cell_length_c   17.05293402
_cell_angle_alpha   80.94365789
_cell_angle_beta   90.00000000
_cell_angle_gamma   90.00000000
_symmetry_Int_Tables_number   1
_chemical_formula_structural   HoTi3(BiO4)3
_chemical_formula_sum   'Ho2 Ti6 Bi6 O24'
_cell_volume   495.54676786
_cell_formula_units_Z   2
loop_
 _symmetry_equiv_pos_site_id
 _symmetry_equiv_pos_as_xyz
  1  'x, y, z'
loop_
 _atom_site_type_symbol
 _atom_site_label
 _atom_site_symmetry_multiplicity
 _atom_site_fract_x
 _atom_site_fract_y
 _atom_site_fract_z
 _atom_site_occupancy
  Ho  Ho0  1  0.265325  0.079657  0.869095  1
  Ho  Ho1  1  0.734675  0.579657  0.869095  1
  Ti  Ti2  1  0.762579  0.057317  0.987488  1
  Ti  Ti3  1  0.237421  0.557317  0.987488  1
  Ti  Ti4  1  0.760258  0.179805  0.749016  1
  Ti  Ti5  1  0.239742  0.679805  0.749016  1
  Ti  Ti6  1  0.755400  0.924254  0.258115  1
  Ti  Ti7  1  0.244600  0.424254  0.258115  1
  Bi  Bi8  1  0.272881  0.190261  0.586567  1
  Bi  Bi9  1  0.727119  0.690261  0.586567  1
  Bi  Bi10  1  0.258988  0.938141  0.131936  1
  Bi  Bi11  1  0.741012  0.438141  0.131936  1
  Bi  Bi12  1  0.233073  0.781976  0.431357  1
  Bi  Bi13  1  0.766927  0.281976  0.431357  1
  O  O14  1  0.452218  0.313820  0.959407  1
  O  O15  1  0.547782  0.813820  0.959407  1
  O  O16  1  0.506193  0.007181  0.504063  1
  O  O17  1  0.493807  0.507181  0.504063  1
  O  O18  1  0.852954  0.172621  0.877286  1
  O  O19  1  0.147046  0.672621  0.877286  1
  O  O20  1  0.678128  0.245399  0.644155  1
  O  O21  1  0.321872  0.745399  0.644155  1
  O  O22  1  0.456775  0.401842  0.788157  1
  O  O23  1  0.543225  0.901842  0.788157  1
  O  O24  1  0.939922  0.508137  0.748076  1
  O  O25  1  0.060078  0.008137  0.748076  1
  O  O26  1  0.938277  0.388482  0.004926  1
  O  O27  1  0.061723  0.888482  0.004926  1
  O  O28  1  0.994052  0.507327  0.505461  1
  O  O29  1  0.005948  0.007327  0.505461  1
  O  O30  1  0.676129  0.045777  0.101222  1
  O  O31  1  0.323871  0.545777  0.101222  1
  O  O32  1  0.799620  0.872608  0.360621  1
  O  O33  1  0.200380  0.372608  0.360621  1
  O  O34  1  0.018143  0.185895  0.219144  1
  O  O35  1  0.981857  0.685895  0.219144  1
  O  O36  1  0.533371  0.227899  0.239708  1
  O  O37  1  0.466629  0.727899  0.239708  1
