# generated using pymatgen
data_TmTa4(NbSn3)2
_symmetry_space_group_name_H-M   'P 1'
_cell_length_a   5.78900600
_cell_length_b   5.79005933
_cell_length_c   9.58313600
_cell_angle_alpha   90.00000000
_cell_angle_beta   90.00000000
_cell_angle_gamma   120.00602484
_symmetry_Int_Tables_number   1
_chemical_formula_structural   TmTa4(NbSn3)2
_chemical_formula_sum   'Tm1 Ta4 Nb2 Sn6'
_cell_volume   278.16272201
_cell_formula_units_Z   1
loop_
 _symmetry_equiv_pos_site_id
 _symmetry_equiv_pos_as_xyz
  1  'x, y, z'
loop_
 _atom_site_type_symbol
 _atom_site_label
 _atom_site_symmetry_multiplicity
 _atom_site_fract_x
 _atom_site_fract_y
 _atom_site_fract_z
 _atom_site_occupancy
  Tm  Tm0  1  0.000000  0.000000  0.999929  1
  Ta  Ta1  1  0.000000  0.500000  0.750858  1
  Ta  Ta2  1  0.500000  0.500000  0.750812  1
  Ta  Ta3  1  0.500000  0.000000  0.750812  1
  Ta  Ta4  1  0.000000  0.500000  0.249243  1
  Nb  Nb5  1  0.500000  0.500000  0.249524  1
  Nb  Nb6  1  0.500000  0.000000  0.249524  1
  Sn  Sn7  1  0.667003  0.333502  0.499938  1
  Sn  Sn8  1  0.332997  0.666498  0.499938  1
  Sn  Sn9  1  0.666705  0.333352  0.000085  1
  Sn  Sn10  1  0.333295  0.666648  0.000085  1
  Sn  Sn11  1  0.000000  0.000000  0.668659  1
  Sn  Sn12  1  0.000000  0.000000  0.330589  1
