# generated using pymatgen
data_Ba2Yb7(BN2)6
_symmetry_space_group_name_H-M   'P 1'
_cell_length_a   7.37250984
_cell_length_b   7.37250960
_cell_length_c   7.37250918
_cell_angle_alpha   82.92976465
_cell_angle_beta   82.92976690
_cell_angle_gamma   82.92977034
_symmetry_Int_Tables_number   1
_chemical_formula_structural   Ba2Yb7(BN2)6
_chemical_formula_sum   'Ba2 Yb7 B6 N12'
_cell_volume   392.27627386
_cell_formula_units_Z   1
loop_
 _symmetry_equiv_pos_site_id
 _symmetry_equiv_pos_as_xyz
  1  'x, y, z'
loop_
 _atom_site_type_symbol
 _atom_site_label
 _atom_site_symmetry_multiplicity
 _atom_site_fract_x
 _atom_site_fract_y
 _atom_site_fract_z
 _atom_site_occupancy
  Ba  Ba0  1  0.746296  0.746296  0.746296  1
  Ba  Ba1  1  0.253704  0.253704  0.253704  1
  Yb  Yb2  1  0.734138  0.734138  0.258903  1
  Yb  Yb3  1  0.265862  0.265862  0.741097  1
  Yb  Yb4  1  0.734138  0.258903  0.734138  1
  Yb  Yb5  1  0.265862  0.741097  0.265862  1
  Yb  Yb6  1  0.741097  0.265862  0.265862  1
  Yb  Yb7  1  0.258903  0.734138  0.734138  1
  Yb  Yb8  1  0.000000  0.000000  0.000000  1
  B  B9  1  0.000000  0.000000  0.500000  1
  B  B10  1  0.500000  0.500000  0.000000  1
  B  B11  1  0.500000  0.000000  0.500000  1
  B  B12  1  0.000000  0.500000  0.000000  1
  B  B13  1  0.500000  0.000000  0.000000  1
  B  B14  1  0.000000  0.500000  0.500000  1
  N  N15  1  0.536852  0.536852  0.164124  1
  N  N16  1  0.021412  0.021412  0.674279  1
  N  N17  1  0.463148  0.835876  0.463148  1
  N  N18  1  0.978588  0.325721  0.978588  1
  N  N19  1  0.325721  0.978588  0.978588  1
  N  N20  1  0.835876  0.463148  0.463148  1
  N  N21  1  0.463148  0.463148  0.835876  1
  N  N22  1  0.978588  0.978588  0.325721  1
  N  N23  1  0.536852  0.164124  0.536852  1
  N  N24  1  0.021412  0.674279  0.021412  1
  N  N25  1  0.674279  0.021412  0.021412  1
  N  N26  1  0.164124  0.536852  0.536852  1
