# generated using pymatgen
data_Pr3Er(Tm4Bi3)4
_symmetry_space_group_name_H-M   'P 1'
_cell_length_a   8.27001947
_cell_length_b   9.47271500
_cell_length_c   12.04270600
_cell_angle_alpha   90.00000000
_cell_angle_beta   90.01921864
_cell_angle_gamma   90.00000000
_symmetry_Int_Tables_number   1
_chemical_formula_structural   Pr3Er(Tm4Bi3)4
_chemical_formula_sum   'Pr3 Er1 Tm16 Bi12'
_cell_volume   943.41996448
_cell_formula_units_Z   1
loop_
 _symmetry_equiv_pos_site_id
 _symmetry_equiv_pos_as_xyz
  1  'x, y, z'
loop_
 _atom_site_type_symbol
 _atom_site_label
 _atom_site_symmetry_multiplicity
 _atom_site_fract_x
 _atom_site_fract_y
 _atom_site_fract_z
 _atom_site_occupancy
  Pr  Pr0  1  0.316931  0.250000  0.219532  1
  Pr  Pr1  1  0.816473  0.250000  0.280407  1
  Pr  Pr2  1  0.683472  0.750000  0.780683  1
  Er  Er3  1  0.185647  0.750000  0.717281  1
  Tm  Tm4  1  0.351834  0.750000  0.218344  1
  Tm  Tm5  1  0.852580  0.750000  0.282183  1
  Tm  Tm6  1  0.646605  0.250000  0.780350  1
  Tm  Tm7  1  0.147886  0.250000  0.718826  1
  Tm  Tm8  1  0.690533  0.566376  0.060839  1
  Tm  Tm9  1  0.191817  0.934197  0.439607  1
  Tm  Tm10  1  0.309127  0.065941  0.938514  1
  Tm  Tm11  1  0.807906  0.434262  0.561035  1
  Tm  Tm12  1  0.309127  0.434059  0.938514  1
  Tm  Tm13  1  0.807906  0.065738  0.561035  1
  Tm  Tm14  1  0.690533  0.933624  0.060839  1
  Tm  Tm15  1  0.191817  0.565803  0.439607  1
  Tm  Tm16  1  0.476790  0.250000  0.489704  1
  Tm  Tm17  1  0.978100  0.250000  0.010615  1
  Tm  Tm18  1  0.522465  0.750000  0.512473  1
  Tm  Tm19  1  0.022441  0.750000  0.988338  1
  Bi  Bi20  1  0.399899  0.750000  0.962065  1
  Bi  Bi21  1  0.906919  0.750000  0.539266  1
  Bi  Bi22  1  0.598040  0.250000  0.035552  1
  Bi  Bi23  1  0.097035  0.250000  0.464378  1
  Bi  Bi24  1  0.565583  0.989880  0.328875  1
  Bi  Bi25  1  0.065240  0.509946  0.171723  1
  Bi  Bi26  1  0.430163  0.493170  0.672521  1
  Bi  Bi27  1  0.938073  0.007283  0.826886  1
  Bi  Bi28  1  0.430163  0.006830  0.672521  1
  Bi  Bi29  1  0.938073  0.492717  0.826886  1
  Bi  Bi30  1  0.565583  0.510120  0.328875  1
  Bi  Bi31  1  0.065240  0.990054  0.171723  1
