# generated using pymatgen
data_La4TaIrO12
_symmetry_space_group_name_H-M   'P 1'
_cell_length_a   5.53337300
_cell_length_b   9.54593644
_cell_length_c   10.41931394
_cell_angle_alpha   88.85134489
_cell_angle_beta   90.00000000
_cell_angle_gamma   90.00000000
_symmetry_Int_Tables_number   1
_chemical_formula_structural   La4TaIrO12
_chemical_formula_sum   'La8 Ta2 Ir2 O24'
_cell_volume   550.25035112
_cell_formula_units_Z   2
loop_
 _symmetry_equiv_pos_site_id
 _symmetry_equiv_pos_as_xyz
  1  'x, y, z'
loop_
 _atom_site_type_symbol
 _atom_site_label
 _atom_site_symmetry_multiplicity
 _atom_site_fract_x
 _atom_site_fract_y
 _atom_site_fract_z
 _atom_site_occupancy
  La  La0  1  0.521548  0.102723  0.955633  1
  La  La1  1  0.021548  0.397277  0.044367  1
  La  La2  1  0.473224  0.602365  0.538283  1
  La  La3  1  0.973224  0.897635  0.461717  1
  La  La4  1  0.528064  0.229191  0.369754  1
  La  La5  1  0.028064  0.270809  0.630246  1
  La  La6  1  0.467750  0.709960  0.141422  1
  La  La7  1  0.967750  0.790040  0.858578  1
  Ta  Ta8  1  0.461008  0.995221  0.644134  1
  Ta  Ta9  1  0.961008  0.504779  0.355866  1
  Ir  Ir10  1  0.539723  0.497520  0.859764  1
  Ir  Ir11  1  0.039723  0.002480  0.140236  1
  O  O12  1  0.300549  0.128818  0.175936  1
  O  O13  1  0.800549  0.371182  0.824064  1
  O  O14  1  0.684231  0.635525  0.324530  1
  O  O15  1  0.184231  0.864475  0.675470  1
  O  O16  1  0.725143  0.110974  0.555640  1
  O  O17  1  0.225143  0.389026  0.444360  1
  O  O18  1  0.278617  0.610885  0.930140  1
  O  O19  1  0.778617  0.889115  0.069860  1
  O  O20  1  0.673161  0.636856  0.747590  1
  O  O21  1  0.173161  0.863144  0.252410  1
  O  O22  1  0.318222  0.139433  0.759905  1
  O  O23  1  0.818222  0.360567  0.240095  1
  O  O24  1  0.672205  0.953848  0.792567  1
  O  O25  1  0.172205  0.546152  0.207433  1
  O  O26  1  0.335263  0.442251  0.726977  1
  O  O27  1  0.835263  0.057749  0.273023  1
  O  O28  1  0.250490  0.088946  0.506298  1
  O  O29  1  0.750490  0.411054  0.493702  1
  O  O30  1  0.744702  0.587376  0.991935  1
  O  O31  1  0.244702  0.912624  0.008065  1
  O  O32  1  0.086735  0.656900  0.466308  1
  O  O33  1  0.586735  0.843100  0.533692  1
  O  O34  1  0.939363  0.144951  0.016660  1
  O  O35  1  0.439363  0.355049  0.983340  1
