# generated using pymatgen
data_YbEr7(B6Ru)4
_symmetry_space_group_name_H-M   'P 1'
_cell_length_a   3.63445300
_cell_length_b   9.09673746
_cell_length_c   11.47606710
_cell_angle_alpha   89.91569742
_cell_angle_beta   90.00000000
_cell_angle_gamma   90.00000000
_symmetry_Int_Tables_number   1
_chemical_formula_structural   YbEr7(B6Ru)4
_chemical_formula_sum   'Yb1 Er7 B24 Ru4'
_cell_volume   379.41747268
_cell_formula_units_Z   1
loop_
 _symmetry_equiv_pos_site_id
 _symmetry_equiv_pos_as_xyz
  1  'x, y, z'
loop_
 _atom_site_type_symbol
 _atom_site_label
 _atom_site_symmetry_multiplicity
 _atom_site_fract_x
 _atom_site_fract_y
 _atom_site_fract_z
 _atom_site_occupancy
  Yb  Yb0  1  0.000000  0.323175  0.413837  1
  Er  Er1  1  0.000000  0.676299  0.584891  1
  Er  Er2  1  0.000000  0.822139  0.086222  1
  Er  Er3  1  0.000000  0.178340  0.914625  1
  Er  Er4  1  0.000000  0.943711  0.371176  1
  Er  Er5  1  0.000000  0.058143  0.628029  1
  Er  Er6  1  0.000000  0.442754  0.129494  1
  Er  Er7  1  0.000000  0.556406  0.872180  1
  B  B8  1  0.500000  0.553954  0.432883  1
  B  B9  1  0.500000  0.446188  0.567320  1
  B  B10  1  0.500000  0.053059  0.066218  1
  B  B11  1  0.500000  0.946131  0.932829  1
  B  B12  1  0.500000  0.748454  0.419455  1
  B  B13  1  0.500000  0.252113  0.581015  1
  B  B14  1  0.500000  0.247722  0.080270  1
  B  B15  1  0.500000  0.751655  0.919769  1
  B  B16  1  0.500000  0.791413  0.265700  1
  B  B17  1  0.500000  0.209621  0.734587  1
  B  B18  1  0.500000  0.289744  0.233763  1
  B  B19  1  0.500000  0.709278  0.765899  1
  B  B20  1  0.500000  0.631516  0.185488  1
  B  B21  1  0.500000  0.368976  0.815552  1
  B  B22  1  0.500000  0.130634  0.314172  1
  B  B23  1  0.500000  0.868952  0.684800  1
  B  B24  1  0.500000  0.982455  0.211721  1
  B  B25  1  0.500000  0.017410  0.787342  1
  B  B26  1  0.500000  0.483298  0.287764  1
  B  B27  1  0.500000  0.517296  0.712660  1
  B  B28  1  0.500000  0.607067  0.029834  1
  B  B29  1  0.500000  0.393088  0.970844  1
  B  B30  1  0.500000  0.103577  0.471230  1
  B  B31  1  0.500000  0.894996  0.528985  1
  Ru  Ru32  1  0.000000  0.639377  0.320598  1
  Ru  Ru33  1  0.000000  0.362278  0.680447  1
  Ru  Ru34  1  0.000000  0.136284  0.177456  1
  Ru  Ru35  1  0.000000  0.862495  0.820946  1
