# generated using pymatgen
data_RbMnGaF6
_symmetry_space_group_name_H-M   'P 1'
_cell_length_a   7.50150536
_cell_length_b   7.50150390
_cell_length_c   7.50150505
_cell_angle_alpha   119.55978839
_cell_angle_beta   120.27986979
_cell_angle_gamma   90.14004377
_symmetry_Int_Tables_number   1
_chemical_formula_structural   RbMnGaF6
_chemical_formula_sum   'Rb2 Mn2 Ga2 F12'
_cell_volume   298.83629896
_cell_formula_units_Z   2
loop_
 _symmetry_equiv_pos_site_id
 _symmetry_equiv_pos_as_xyz
  1  'x, y, z'
loop_
 _atom_site_type_symbol
 _atom_site_label
 _atom_site_symmetry_multiplicity
 _atom_site_fract_x
 _atom_site_fract_y
 _atom_site_fract_z
 _atom_site_occupancy
  Rb  Rb0  1  0.616683  0.866683  0.750000  1
  Rb  Rb1  1  0.383317  0.133317  0.250000  1
  Mn  Mn2  1  0.500000  0.500000  0.000000  1
  Mn  Mn3  1  0.000000  0.500000  0.500000  1
  Ga  Ga4  1  0.000000  0.500000  0.000000  1
  Ga  Ga5  1  0.000000  0.000000  0.500000  1
  F  F6  1  0.048787  0.798787  0.250000  1
  F  F7  1  0.659241  0.409241  0.250000  1
  F  F8  1  0.059037  0.840503  0.645659  1
  F  F9  1  0.694844  0.413378  0.854341  1
  F  F10  1  0.694844  0.840503  0.281466  1
  F  F11  1  0.059037  0.413378  0.218534  1
  F  F12  1  0.951213  0.201213  0.750000  1
  F  F13  1  0.340759  0.590759  0.750000  1
  F  F14  1  0.940963  0.159497  0.354341  1
  F  F15  1  0.305156  0.586622  0.145659  1
  F  F16  1  0.305156  0.159497  0.718534  1
  F  F17  1  0.940963  0.586622  0.781466  1
