# generated using pymatgen
data_Cs6TbErBr12
_symmetry_space_group_name_H-M   'P 1'
_cell_length_a   9.97300536
_cell_length_b   9.98071136
_cell_length_c   8.28933100
_cell_angle_alpha   90.00000000
_cell_angle_beta   90.00000000
_cell_angle_gamma   89.94013634
_symmetry_Int_Tables_number   1
_chemical_formula_structural   Cs6TbErBr12
_chemical_formula_sum   'Cs6 Tb1 Er1 Br12'
_cell_volume   825.10039177
_cell_formula_units_Z   1
loop_
 _symmetry_equiv_pos_site_id
 _symmetry_equiv_pos_as_xyz
  1  'x, y, z'
loop_
 _atom_site_type_symbol
 _atom_site_label
 _atom_site_symmetry_multiplicity
 _atom_site_fract_x
 _atom_site_fract_y
 _atom_site_fract_z
 _atom_site_occupancy
  Cs  Cs0  1  0.000000  0.000000  0.500000  1
  Cs  Cs1  1  0.000000  0.000000  0.000000  1
  Cs  Cs2  1  0.234927  0.584162  0.500000  1
  Cs  Cs3  1  0.765073  0.415838  0.500000  1
  Cs  Cs4  1  0.415708  0.235024  0.000000  1
  Cs  Cs5  1  0.584292  0.764976  0.000000  1
  Tb  Tb6  1  0.500000  0.000000  0.500000  1
  Er  Er7  1  0.000000  0.500000  0.000000  1
  Br  Br8  1  0.693001  0.058515  0.741935  1
  Br  Br9  1  0.306999  0.941485  0.741935  1
  Br  Br10  1  0.942223  0.690394  0.238722  1
  Br  Br11  1  0.057777  0.309606  0.238722  1
  Br  Br12  1  0.306999  0.941485  0.258065  1
  Br  Br13  1  0.693001  0.058515  0.258065  1
  Br  Br14  1  0.057777  0.309606  0.761278  1
  Br  Br15  1  0.942223  0.690394  0.761278  1
  Br  Br16  1  0.571940  0.727438  0.500000  1
  Br  Br17  1  0.428060  0.272562  0.500000  1
  Br  Br18  1  0.268791  0.571016  0.000000  1
  Br  Br19  1  0.731209  0.428984  0.000000  1
