# generated using pymatgen
data_Tl4Sn3Se8
_symmetry_space_group_name_H-M   'P 1'
_cell_length_a   14.72600000
_cell_length_b   14.72600004
_cell_length_c   8.30406400
_cell_angle_alpha   90.00000000
_cell_angle_beta   90.00000000
_cell_angle_gamma   32.91282795
_symmetry_Int_Tables_number   1
_chemical_formula_structural   Tl4Sn3Se8
_chemical_formula_sum   'Tl8 Sn6 Se16'
_cell_volume   978.47532589
_cell_formula_units_Z   2
loop_
 _symmetry_equiv_pos_site_id
 _symmetry_equiv_pos_as_xyz
  1  'x, y, z'
loop_
 _atom_site_type_symbol
 _atom_site_label
 _atom_site_symmetry_multiplicity
 _atom_site_fract_x
 _atom_site_fract_y
 _atom_site_fract_z
 _atom_site_occupancy
  Tl  Tl0  1  0.142724  0.142724  0.249999  1
  Tl  Tl1  1  0.357276  0.357276  0.249999  1
  Tl  Tl2  1  0.857276  0.857276  0.749999  1
  Tl  Tl3  1  0.642724  0.642724  0.749999  1
  Tl  Tl4  1  0.483824  0.483824  0.249999  1
  Tl  Tl5  1  0.016176  0.016176  0.249999  1
  Tl  Tl6  1  0.516176  0.516176  0.749999  1
  Tl  Tl7  1  0.983824  0.983824  0.749999  1
  Sn  Sn8  1  0.623528  0.623528  0.249999  1
  Sn  Sn9  1  0.876472  0.876472  0.249999  1
  Sn  Sn10  1  0.376472  0.376472  0.749999  1
  Sn  Sn11  1  0.123528  0.123528  0.749999  1
  Sn  Sn12  1  0.750000  0.750000  0.249999  1
  Sn  Sn13  1  0.250000  0.250000  0.749999  1
  Se  Se14  1  0.756716  0.396048  0.066510  1
  Se  Se15  1  0.743283  0.103953  0.066510  1
  Se  Se16  1  0.103953  0.743283  0.433491  1
  Se  Se17  1  0.396048  0.756716  0.433491  1
  Se  Se18  1  0.243284  0.603952  0.933490  1
  Se  Se19  1  0.256717  0.896047  0.933490  1
  Se  Se20  1  0.896047  0.256717  0.566510  1
  Se  Se21  1  0.603952  0.243284  0.566510  1
  Se  Se22  1  0.525033  0.852460  0.086020  1
  Se  Se23  1  0.974967  0.647540  0.086020  1
  Se  Se24  1  0.647540  0.974967  0.413980  1
  Se  Se25  1  0.852460  0.525033  0.413980  1
  Se  Se26  1  0.474967  0.147540  0.913980  1
  Se  Se27  1  0.025033  0.352459  0.913980  1
  Se  Se28  1  0.352459  0.025033  0.586020  1
  Se  Se29  1  0.147540  0.474967  0.586020  1
