# generated using pymatgen
data_TbTm(Fe4B)2
_symmetry_space_group_name_H-M   'P 1'
_cell_length_a   5.04981600
_cell_length_b   5.05042958
_cell_length_c   7.04009000
_cell_angle_alpha   90.00000000
_cell_angle_beta   90.00000000
_cell_angle_gamma   119.99596813
_symmetry_Int_Tables_number   1
_chemical_formula_structural   TbTm(Fe4B)2
_chemical_formula_sum   'Tb1 Tm1 Fe8 B2'
_cell_volume   155.49998788
_cell_formula_units_Z   1
loop_
 _symmetry_equiv_pos_site_id
 _symmetry_equiv_pos_as_xyz
  1  'x, y, z'
loop_
 _atom_site_type_symbol
 _atom_site_label
 _atom_site_symmetry_multiplicity
 _atom_site_fract_x
 _atom_site_fract_y
 _atom_site_fract_z
 _atom_site_occupancy
  Tb  Tb0  1  0.999981  0.000000  0.000000  1
  Tm  Tm1  1  0.999985  0.000000  0.500000  1
  Fe  Fe2  1  0.333294  0.666630  0.000000  1
  Fe  Fe3  1  0.666664  0.333370  0.000000  1
  Fe  Fe4  1  0.499984  0.000000  0.287204  1
  Fe  Fe5  1  0.499985  0.500001  0.287211  1
  Fe  Fe6  1  0.999984  0.499999  0.287211  1
  Fe  Fe7  1  0.499984  0.000000  0.712796  1
  Fe  Fe8  1  0.499985  0.500001  0.712789  1
  Fe  Fe9  1  0.999984  0.499999  0.712789  1
  B  B10  1  0.333331  0.666690  0.500000  1
  B  B11  1  0.666640  0.333310  0.500000  1
