# generated using pymatgen
data_Tb4YTmNiI10
_symmetry_space_group_name_H-M   'P 1'
_cell_length_a   7.69167388
_cell_length_b   9.68440773
_cell_length_c   9.69663967
_cell_angle_alpha   107.08297295
_cell_angle_beta   96.74217957
_cell_angle_gamma   104.51787604
_symmetry_Int_Tables_number   1
_chemical_formula_structural   Tb4YTmNiI10
_chemical_formula_sum   'Tb4 Y1 Tm1 Ni1 I10'
_cell_volume   653.98375385
_cell_formula_units_Z   1
loop_
 _symmetry_equiv_pos_site_id
 _symmetry_equiv_pos_as_xyz
  1  'x, y, z'
loop_
 _atom_site_type_symbol
 _atom_site_label
 _atom_site_symmetry_multiplicity
 _atom_site_fract_x
 _atom_site_fract_y
 _atom_site_fract_z
 _atom_site_occupancy
  Tb  Tb0  1  0.885469  0.958695  0.236270  1
  Tb  Tb1  1  0.111942  0.039972  0.762594  1
  Tb  Tb2  1  0.031336  0.719521  0.915565  1
  Tb  Tb3  1  0.967121  0.279758  0.083282  1
  Y  Y4  1  0.341244  0.120561  0.161527  1
  Tm  Tm5  1  0.665158  0.881307  0.841124  1
  Ni  Ni6  1  0.999337  0.999195  0.999628  1
  I  I7  1  0.647054  0.552780  0.727685  1
  I  I8  1  0.350226  0.450405  0.271881  1
  I  I9  1  0.738511  0.911457  0.539392  1
  I  I10  1  0.257791  0.087294  0.461945  1
  I  I11  1  0.085120  0.372441  0.817899  1
  I  I12  1  0.913571  0.627115  0.181246  1
  I  I13  1  0.454642  0.813890  0.090932  1
  I  I14  1  0.545753  0.183232  0.905632  1
  I  I15  1  0.233743  0.745963  0.657383  1
  I  I16  1  0.771983  0.256412  0.346017  1
