# generated using pymatgen
data_Tb13Th3Cd4Ir3Rh
_symmetry_space_group_name_H-M   'P 1'
_cell_length_a   9.74468036
_cell_length_b   9.74937400
_cell_length_c   9.74937338
_cell_angle_alpha   60.15432677
_cell_angle_beta   60.09617492
_cell_angle_gamma   60.09618607
_symmetry_Int_Tables_number   1
_chemical_formula_structural   Tb13Th3Cd4Ir3Rh
_chemical_formula_sum   'Tb13 Th3 Cd4 Ir3 Rh1'
_cell_volume   656.66113226
_cell_formula_units_Z   1
loop_
 _symmetry_equiv_pos_site_id
 _symmetry_equiv_pos_as_xyz
  1  'x, y, z'
loop_
 _atom_site_type_symbol
 _atom_site_label
 _atom_site_symmetry_multiplicity
 _atom_site_fract_x
 _atom_site_fract_y
 _atom_site_fract_z
 _atom_site_occupancy
  Tb  Tb0  1  0.196706  0.601997  0.601997  1
  Tb  Tb1  1  0.060704  0.439797  0.439797  1
  Tb  Tb2  1  0.437412  0.062816  0.062816  1
  Tb  Tb3  1  0.438079  0.061768  0.438197  1
  Tb  Tb4  1  0.061839  0.438280  0.060934  1
  Tb  Tb5  1  0.438079  0.438197  0.061768  1
  Tb  Tb6  1  0.061839  0.060934  0.438280  1
  Tb  Tb7  1  0.189153  0.813743  0.813743  1
  Tb  Tb8  1  0.814654  0.185990  0.185990  1
  Tb  Tb9  1  0.814920  0.187160  0.814499  1
  Tb  Tb10  1  0.187655  0.813464  0.186547  1
  Tb  Tb11  1  0.814920  0.814499  0.187160  1
  Tb  Tb12  1  0.187655  0.186547  0.813464  1
  Th  Th13  1  0.596579  0.598576  0.598576  1
  Th  Th14  1  0.598190  0.600436  0.201638  1
  Th  Th15  1  0.598190  0.201638  0.600436  1
  Cd  Cd16  1  0.832572  0.830569  0.830569  1
  Cd  Cd17  1  0.832565  0.830809  0.503778  1
  Cd  Cd18  1  0.832565  0.503778  0.830809  1
  Cd  Cd19  1  0.502374  0.831838  0.831838  1
  Ir  Ir20  1  0.394167  0.391470  0.820382  1
  Ir  Ir21  1  0.394167  0.820382  0.391470  1
  Ir  Ir22  1  0.818648  0.393085  0.393085  1
  Rh  Rh23  1  0.396369  0.392229  0.392229  1
