# generated using pymatgen
data_Sr4H12RhAu
_symmetry_space_group_name_H-M   'P 1'
_cell_length_a   7.46101961
_cell_length_b   7.46101952
_cell_length_c   5.80106400
_cell_angle_alpha   90.02319932
_cell_angle_beta   90.02319932
_cell_angle_gamma   134.38129568
_symmetry_Int_Tables_number   1
_chemical_formula_structural   Sr4H12RhAu
_chemical_formula_sum   'Sr4 H12 Rh1 Au1'
_cell_volume   230.79595701
_cell_formula_units_Z   1
loop_
 _symmetry_equiv_pos_site_id
 _symmetry_equiv_pos_as_xyz
  1  'x, y, z'
loop_
 _atom_site_type_symbol
 _atom_site_label
 _atom_site_symmetry_multiplicity
 _atom_site_fract_x
 _atom_site_fract_y
 _atom_site_fract_z
 _atom_site_occupancy
  Sr  Sr0  1  0.352556  0.647444  0.000000  1
  Sr  Sr1  1  0.851238  0.148762  0.500000  1
  Sr  Sr2  1  0.647444  0.352556  0.000000  1
  Sr  Sr3  1  0.148762  0.851238  0.500000  1
  H  H4  1  0.999498  0.499903  0.247107  1
  H  H5  1  0.500097  0.000502  0.752893  1
  H  H6  1  0.000502  0.500097  0.752893  1
  H  H7  1  0.499903  0.999498  0.247107  1
  H  H8  1  0.122229  0.877771  0.000000  1
  H  H9  1  0.622206  0.377794  0.500000  1
  H  H10  1  0.877771  0.122229  0.000000  1
  H  H11  1  0.377794  0.622206  0.500000  1
  H  H12  1  0.711318  0.711318  0.296712  1
  H  H13  1  0.288682  0.288682  0.703288  1
  H  H14  1  0.704313  0.704313  0.710641  1
  H  H15  1  0.295687  0.295687  0.289359  1
  Rh  Rh16  1  0.500000  0.500000  0.500000  1
  Au  Au17  1  0.000000  0.000000  0.000000  1
