# generated using pymatgen
data_NaYb(SiAu)2
_symmetry_space_group_name_H-M   'P 1'
_cell_length_a   5.65059869
_cell_length_b   5.65059902
_cell_length_c   5.65059966
_cell_angle_alpha   134.16094927
_cell_angle_beta   100.88153325
_cell_angle_gamma   96.57736294
_symmetry_Int_Tables_number   1
_chemical_formula_structural   NaYb(SiAu)2
_chemical_formula_sum   'Na1 Yb1 Si2 Au2'
_cell_volume   119.09803183
_cell_formula_units_Z   1
loop_
 _symmetry_equiv_pos_site_id
 _symmetry_equiv_pos_as_xyz
  1  'x, y, z'
loop_
 _atom_site_type_symbol
 _atom_site_label
 _atom_site_symmetry_multiplicity
 _atom_site_fract_x
 _atom_site_fract_y
 _atom_site_fract_z
 _atom_site_occupancy
  Na  Na0  1  0.285301  0.285301  0.000000  1
  Yb  Yb1  1  0.875910  0.375910  0.500000  1
  Si  Si2  1  0.485611  0.659409  0.826202  1
  Si  Si3  1  0.833207  0.659409  0.173798  1
  Au  Au4  1  0.270413  0.990885  0.279529  1
  Au  Au5  1  0.711356  0.990885  0.720471  1
