# generated using pymatgen
data_Ho7Er5(InSi2)2
_symmetry_space_group_name_H-M   'P 1'
_cell_length_a   8.46849394
_cell_length_b   8.46820698
_cell_length_c   8.46849343
_cell_angle_alpha   112.29994160
_cell_angle_beta   110.95245161
_cell_angle_gamma   105.24656539
_symmetry_Int_Tables_number   1
_chemical_formula_structural   Ho7Er5(InSi2)2
_chemical_formula_sum   'Ho7 Er5 In2 Si4'
_cell_volume   465.53470030
_cell_formula_units_Z   1
loop_
 _symmetry_equiv_pos_site_id
 _symmetry_equiv_pos_as_xyz
  1  'x, y, z'
loop_
 _atom_site_type_symbol
 _atom_site_label
 _atom_site_symmetry_multiplicity
 _atom_site_fract_x
 _atom_site_fract_y
 _atom_site_fract_z
 _atom_site_occupancy
  Ho  Ho0  1  0.186260  0.278492  0.465150  1
  Ho  Ho1  1  0.813376  0.721313  0.534546  1
  Ho  Ho2  1  0.186767  0.721313  0.907936  1
  Ho  Ho3  1  0.813342  0.278492  0.092234  1
  Ho  Ho4  1  0.319544  0.615465  0.295921  1
  Ho  Ho5  1  0.680467  0.384511  0.704043  1
  Ho  Ho6  1  0.319507  0.023573  0.704066  1
  Er  Er7  1  0.680479  0.976978  0.296499  1
  Er  Er8  1  0.442736  0.237659  0.204829  1
  Er  Er9  1  0.557522  0.762418  0.795461  1
  Er  Er10  1  0.032830  0.237659  0.794922  1
  Er  Er11  1  0.966957  0.762418  0.204898  1
  In  In12  1  0.500156  0.500350  0.000193  1
  In  In13  1  0.000116  0.000006  0.999890  1
  Si  Si14  1  0.115873  0.615861  0.499988  1
  Si  Si15  1  0.883755  0.383608  0.499853  1
  Si  Si16  1  0.368992  0.999942  0.368623  1
  Si  Si17  1  0.631319  0.999942  0.630949  1
