# generated using pymatgen
data_UCu2Rh3S8
_symmetry_space_group_name_H-M   'P 1'
_cell_length_a   6.94176892
_cell_length_b   6.94176856
_cell_length_c   6.94176942
_cell_angle_alpha   63.03481469
_cell_angle_beta   63.03481540
_cell_angle_gamma   63.03481137
_symmetry_Int_Tables_number   1
_chemical_formula_structural   UCu2Rh3S8
_chemical_formula_sum   'U1 Cu2 Rh3 S8'
_cell_volume   252.46714924
_cell_formula_units_Z   1
loop_
 _symmetry_equiv_pos_site_id
 _symmetry_equiv_pos_as_xyz
  1  'x, y, z'
loop_
 _atom_site_type_symbol
 _atom_site_label
 _atom_site_symmetry_multiplicity
 _atom_site_fract_x
 _atom_site_fract_y
 _atom_site_fract_z
 _atom_site_occupancy
  U  U0  1  0.125000  0.125000  0.125000  1
  Cu  Cu1  1  0.748980  0.748980  0.748980  1
  Cu  Cu2  1  0.501020  0.501020  0.501020  1
  Rh  Rh3  1  0.125000  0.125000  0.625000  1
  Rh  Rh4  1  0.125000  0.625000  0.125000  1
  Rh  Rh5  1  0.625000  0.125000  0.125000  1
  S  S6  1  0.867589  0.362427  0.867589  1
  S  S7  1  0.382411  0.382411  0.887573  1
  S  S8  1  0.363335  0.363335  0.363335  1
  S  S9  1  0.887573  0.382411  0.382411  1
  S  S10  1  0.886665  0.886665  0.886665  1
  S  S11  1  0.362427  0.867589  0.867589  1
  S  S12  1  0.382411  0.887573  0.382411  1
  S  S13  1  0.867589  0.867589  0.362427  1
