# generated using pymatgen
data_Ca12Sc7Ti12CrO48
_symmetry_space_group_name_H-M   'P 1'
_cell_length_a   11.06387101
_cell_length_b   11.05873280
_cell_length_c   11.06387115
_cell_angle_alpha   109.46181171
_cell_angle_beta   109.48062577
_cell_angle_gamma   109.46180812
_symmetry_Int_Tables_number   1
_chemical_formula_structural   Ca12Sc7Ti12CrO48
_chemical_formula_sum   'Ca12 Sc7 Ti12 Cr1 O48'
_cell_volume   1042.19295889
_cell_formula_units_Z   1
loop_
 _symmetry_equiv_pos_site_id
 _symmetry_equiv_pos_as_xyz
  1  'x, y, z'
loop_
 _atom_site_type_symbol
 _atom_site_label
 _atom_site_symmetry_multiplicity
 _atom_site_fract_x
 _atom_site_fract_y
 _atom_site_fract_z
 _atom_site_occupancy
  Ca  Ca0  1  0.250259  0.375667  0.125129  1
  Ca  Ca1  1  0.749741  0.624333  0.874871  1
  Ca  Ca2  1  0.751891  0.127542  0.375260  1
  Ca  Ca3  1  0.124740  0.252282  0.376631  1
  Ca  Ca4  1  0.374871  0.750538  0.125130  1
  Ca  Ca5  1  0.248109  0.872458  0.624740  1
  Ca  Ca6  1  0.875260  0.747718  0.623369  1
  Ca  Ca7  1  0.625129  0.249462  0.874870  1
  Ca  Ca8  1  0.374870  0.125408  0.249741  1
  Ca  Ca9  1  0.625130  0.874592  0.750259  1
  Ca  Ca10  1  0.123369  0.375651  0.748109  1
  Ca  Ca11  1  0.876631  0.624349  0.251891  1
  Sc  Sc12  1  0.000000  0.000000  0.000000  1
  Sc  Sc13  1  0.500000  0.000000  0.500000  1
  Sc  Sc14  1  0.500000  0.000000  0.000000  1
  Sc  Sc15  1  0.500000  0.500000  0.000000  1
  Sc  Sc16  1  0.500000  0.500000  0.500000  1
  Sc  Sc17  1  0.000000  0.000000  0.500000  1
  Sc  Sc18  1  0.000000  0.500000  0.000000  1
  Ti  Ti19  1  0.247411  0.622878  0.375874  1
  Ti  Ti20  1  0.752589  0.377122  0.624126  1
  Ti  Ti21  1  0.750026  0.875056  0.124923  1
  Ti  Ti22  1  0.375077  0.250132  0.625103  1
  Ti  Ti23  1  0.624923  0.749868  0.374897  1
  Ti  Ti24  1  0.249974  0.124944  0.875077  1
  Ti  Ti25  1  0.124126  0.747004  0.871537  1
  Ti  Ti26  1  0.875874  0.252996  0.128463  1
  Ti  Ti27  1  0.628463  0.375467  0.252589  1
  Ti  Ti28  1  0.371537  0.624533  0.747411  1
  Ti  Ti29  1  0.874897  0.125029  0.749974  1
  Ti  Ti30  1  0.125103  0.874971  0.250026  1
  Cr  Cr31  1  0.000000  0.500000  0.500000  1
  O  O32  1  0.482556  0.380307  0.295046  1
  O  O33  1  0.517444  0.619693  0.704954  1
  O  O34  1  0.585443  0.185527  0.206457  1
  O  O35  1  0.914098  0.121555  0.600321  1
  O  O36  1  0.293543  0.479070  0.378986  1
  O  O37  1  0.314208  0.914907  0.293209  1
  O  O38  1  0.414557  0.814473  0.793543  1
  O  O39  1  0.085902  0.878445  0.399679  1
  O  O40  1  0.706457  0.520930  0.621014  1
  O  O41  1  0.685792  0.085093  0.706791  1
  O  O42  1  0.020567  0.313803  0.899273  1
  O  O43  1  0.204954  0.585261  0.187511  1
  O  O44  1  0.120652  0.020007  0.206378  1
  O  O45  1  0.979433  0.686197  0.100727  1
  O  O46  1  0.795046  0.414739  0.812489  1
  O  O47  1  0.879348  0.979993  0.793622  1
  O  O48  1  0.600727  0.914529  0.121294  1
  O  O49  1  0.180653  0.481830  0.598277  1
  O  O50  1  0.399273  0.085471  0.878706  1
  O  O51  1  0.819347  0.518170  0.401723  1
  O  O52  1  0.899679  0.021234  0.313777  1
  O  O53  1  0.377611  0.584338  0.896804  1
  O  O54  1  0.100321  0.978766  0.686223  1
  O  O55  1  0.622389  0.415662  0.103196  1
  O  O56  1  0.378706  0.293235  0.479433  1
  O  O57  1  0.585726  0.899356  0.379348  1
  O  O58  1  0.621294  0.706765  0.520567  1
  O  O59  1  0.414274  0.100644  0.620652  1
  O  O60  1  0.121014  0.600084  0.914557  1
  O  O61  1  0.019193  0.206726  0.122389  1
  O  O62  1  0.878986  0.399916  0.085443  1
  O  O63  1  0.980807  0.793274  0.877611  1
  O  O64  1  0.312489  0.897750  0.017444  1
  O  O65  1  0.917625  0.301177  0.319347  1
  O  O66  1  0.687511  0.102250  0.982556  1
  O  O67  1  0.082375  0.698823  0.680653  1
  O  O68  1  0.186223  0.207457  0.585902  1
  O  O69  1  0.479001  0.600699  0.185792  1
  O  O70  1  0.813777  0.792543  0.414098  1
  O  O71  1  0.520999  0.399301  0.814208  1
  O  O72  1  0.293622  0.313629  0.914274  1
  O  O73  1  0.706378  0.686371  0.085726  1
  O  O74  1  0.206791  0.121698  0.020999  1
  O  O75  1  0.793209  0.878302  0.979001  1
  O  O76  1  0.901723  0.383552  0.582375  1
  O  O77  1  0.098277  0.616448  0.417625  1
  O  O78  1  0.603196  0.187533  0.480807  1
  O  O79  1  0.396804  0.812467  0.519193  1
