# generated using pymatgen
data_Eu2GaNiIr
_symmetry_space_group_name_H-M   'P 1'
_cell_length_a   4.18421581
_cell_length_b   5.56301178
_cell_length_c   5.71795726
_cell_angle_alpha   119.10756833
_cell_angle_beta   111.46198523
_cell_angle_gamma   90.00000672
_symmetry_Int_Tables_number   1
_chemical_formula_structural   Eu2GaNiIr
_chemical_formula_sum   'Eu2 Ga1 Ni1 Ir1'
_cell_volume   105.59928230
_cell_formula_units_Z   1
loop_
 _symmetry_equiv_pos_site_id
 _symmetry_equiv_pos_as_xyz
  1  'x, y, z'
loop_
 _atom_site_type_symbol
 _atom_site_label
 _atom_site_symmetry_multiplicity
 _atom_site_fract_x
 _atom_site_fract_y
 _atom_site_fract_z
 _atom_site_occupancy
  Eu  Eu0  1  0.799303  0.296709  0.598606  1
  Eu  Eu1  1  0.200697  0.698103  0.401394  1
  Ga  Ga2  1  0.000000  0.997582  0.000000  1
  Ni  Ni3  1  0.500000  0.736793  0.000000  1
  Ir  Ir4  1  0.500000  0.270814  0.000000  1
