# generated using pymatgen
data_ErLu5(Sc2Pb3)2
_symmetry_space_group_name_H-M   'P 1'
_cell_length_a   8.78542600
_cell_length_b   8.80812119
_cell_length_c   6.31581900
_cell_angle_alpha   90.00000000
_cell_angle_beta   90.00000000
_cell_angle_gamma   119.91480261
_symmetry_Int_Tables_number   1
_chemical_formula_structural   ErLu5(Sc2Pb3)2
_chemical_formula_sum   'Er1 Lu5 Sc4 Pb6'
_cell_volume   423.62210874
_cell_formula_units_Z   1
loop_
 _symmetry_equiv_pos_site_id
 _symmetry_equiv_pos_as_xyz
  1  'x, y, z'
loop_
 _atom_site_type_symbol
 _atom_site_label
 _atom_site_symmetry_multiplicity
 _atom_site_fract_x
 _atom_site_fract_y
 _atom_site_fract_z
 _atom_site_occupancy
  Er  Er0  1  0.235950  0.000000  0.250000  1
  Lu  Lu1  1  0.236168  0.236625  0.750000  1
  Lu  Lu2  1  0.999543  0.763375  0.750000  1
  Lu  Lu3  1  0.999971  0.236256  0.250000  1
  Lu  Lu4  1  0.763716  0.763744  0.250000  1
  Lu  Lu5  1  0.765019  0.000000  0.750000  1
  Sc  Sc6  1  0.333518  0.667135  0.999910  1
  Sc  Sc7  1  0.666384  0.332865  0.500090  1
  Sc  Sc8  1  0.666384  0.332865  0.999910  1
  Sc  Sc9  1  0.333518  0.667135  0.500090  1
  Pb  Pb10  1  0.601835  0.000000  0.250000  1
  Pb  Pb11  1  0.601021  0.601157  0.750000  1
  Pb  Pb12  1  0.999864  0.398843  0.750000  1
  Pb  Pb13  1  0.999237  0.599987  0.250000  1
  Pb  Pb14  1  0.399249  0.400013  0.250000  1
  Pb  Pb15  1  0.398624  0.000000  0.750000  1
