# generated using pymatgen
data_BaCrIO6
_symmetry_space_group_name_H-M   'P 1'
_cell_length_a   5.26142633
_cell_length_b   5.26197422
_cell_length_c   23.38005604
_cell_angle_alpha   90.01169945
_cell_angle_beta   89.98997996
_cell_angle_gamma   120.00234776
_symmetry_Int_Tables_number   1
_chemical_formula_structural   BaCrIO6
_chemical_formula_sum   'Ba4 Cr4 I4 O24'
_cell_volume   560.55483665
_cell_formula_units_Z   4
loop_
 _symmetry_equiv_pos_site_id
 _symmetry_equiv_pos_as_xyz
  1  'x, y, z'
loop_
 _atom_site_type_symbol
 _atom_site_label
 _atom_site_symmetry_multiplicity
 _atom_site_fract_x
 _atom_site_fract_y
 _atom_site_fract_z
 _atom_site_occupancy
  Ba  Ba0  1  0.666642  0.333354  0.124974  1
  Ba  Ba1  1  0.666890  0.333593  0.375030  1
  Ba  Ba2  1  0.666373  0.332940  0.624987  1
  Ba  Ba3  1  0.666610  0.333346  0.875025  1
  Cr  Cr4  1  0.333660  0.666524  0.500003  1
  Cr  Cr5  1  0.333017  0.666689  0.749939  1
  Cr  Cr6  1  0.333152  0.666481  0.000037  1
  Cr  Cr7  1  0.333361  0.666807  0.249998  1
  I  I8  1  0.999907  0.999896  0.999995  1
  I  I9  1  0.000131  0.000138  0.249997  1
  I  I10  1  0.000178  0.000003  0.499998  1
  I  I11  1  0.999734  0.999992  0.750022  1
  O  O12  1  0.039462  0.317273  0.203309  1
  O  O13  1  0.041139  0.317444  0.453196  1
  O  O14  1  0.039198  0.317182  0.703308  1
  O  O15  1  0.039373  0.317203  0.953327  1
  O  O16  1  0.277692  0.960318  0.203293  1
  O  O17  1  0.278742  0.960800  0.453447  1
  O  O18  1  0.277252  0.960093  0.703272  1
  O  O19  1  0.277590  0.960205  0.953317  1
  O  O20  1  0.277986  0.317534  0.046659  1
  O  O21  1  0.278168  0.317663  0.296633  1
  O  O22  1  0.276620  0.317261  0.546882  1
  O  O23  1  0.277837  0.317592  0.796623  1
  O  O24  1  0.682621  0.721914  0.203372  1
  O  O25  1  0.682989  0.723447  0.453136  1
  O  O26  1  0.682306  0.721941  0.703342  1
  O  O27  1  0.682483  0.721877  0.953386  1
  O  O28  1  0.682648  0.960638  0.046683  1
  O  O29  1  0.682771  0.960792  0.296669  1
  O  O30  1  0.682608  0.959278  0.546759  1
  O  O31  1  0.682433  0.960569  0.796667  1
  O  O32  1  0.039699  0.722510  0.046726  1
  O  O33  1  0.039856  0.722610  0.296716  1
  O  O34  1  0.039225  0.721520  0.546559  1
  O  O35  1  0.039643  0.722578  0.796714  1
