# generated using pymatgen
data_Tb6Y3Lu(SiB4)4
_symmetry_space_group_name_H-M   'P 1'
_cell_length_a   7.23718503
_cell_length_b   7.23730803
_cell_length_c   8.09996000
_cell_angle_alpha   90.00000000
_cell_angle_beta   90.00000000
_cell_angle_gamma   90.01087767
_symmetry_Int_Tables_number   1
_chemical_formula_structural   Tb6Y3Lu(SiB4)4
_chemical_formula_sum   'Tb6 Y3 Lu1 Si4 B16'
_cell_volume   424.25756994
_cell_formula_units_Z   1
loop_
 _symmetry_equiv_pos_site_id
 _symmetry_equiv_pos_as_xyz
  1  'x, y, z'
loop_
 _atom_site_type_symbol
 _atom_site_label
 _atom_site_symmetry_multiplicity
 _atom_site_fract_x
 _atom_site_fract_y
 _atom_site_fract_z
 _atom_site_occupancy
  Tb  Tb0  1  0.680576  0.179923  0.225036  1
  Tb  Tb1  1  0.319414  0.820094  0.774956  1
  Tb  Tb2  1  0.319414  0.820094  0.225044  1
  Tb  Tb3  1  0.819982  0.680694  0.224940  1
  Tb  Tb4  1  0.819982  0.680694  0.775060  1
  Tb  Tb5  1  0.680576  0.179923  0.774964  1
  Y  Y6  1  0.179938  0.319378  0.775638  1
  Y  Y7  1  0.179938  0.319378  0.224362  1
  Y  Y8  1  0.499896  0.499978  0.500000  1
  Lu  Lu9  1  0.000028  0.000135  0.500000  1
  Si  Si10  1  0.113418  0.617155  0.500000  1
  Si  Si11  1  0.886924  0.382532  0.500000  1
  Si  Si12  1  0.382451  0.113470  0.500000  1
  Si  Si13  1  0.617267  0.886801  0.500000  1
  B  B14  1  0.172458  0.039128  0.000000  1
  B  B15  1  0.827686  0.960969  0.000000  1
  B  B16  1  0.960864  0.172378  0.000000  1
  B  B17  1  0.327625  0.539176  0.000000  1
  B  B18  1  0.039106  0.827694  0.000000  1
  B  B19  1  0.672294  0.460844  0.000000  1
  B  B20  1  0.539070  0.672301  0.000000  1
  B  B21  1  0.460836  0.327548  0.000000  1
  B  B22  1  0.089976  0.589772  0.000000  1
  B  B23  1  0.910128  0.410128  0.000000  1
  B  B24  1  0.410208  0.089907  0.000000  1
  B  B25  1  0.589910  0.909982  0.000000  1
  B  B26  1  0.000093  0.000068  0.162399  1
  B  B27  1  0.000093  0.000068  0.837601  1
  B  B28  1  0.499925  0.499896  0.838419  1
  B  B29  1  0.499925  0.499896  0.161581  1
