# generated using pymatgen
data_Ba2CeHo3Se8
_symmetry_space_group_name_H-M   'P 1'
_cell_length_a   4.25865900
_cell_length_b   12.97212300
_cell_length_c   15.32067400
_cell_angle_alpha   90.00000000
_cell_angle_beta   90.00000000
_cell_angle_gamma   90.00000000
_symmetry_Int_Tables_number   1
_chemical_formula_structural   Ba2CeHo3Se8
_chemical_formula_sum   'Ba4 Ce2 Ho6 Se16'
_cell_volume   846.37299128
_cell_formula_units_Z   2
loop_
 _symmetry_equiv_pos_site_id
 _symmetry_equiv_pos_as_xyz
  1  'x, y, z'
loop_
 _atom_site_type_symbol
 _atom_site_label
 _atom_site_symmetry_multiplicity
 _atom_site_fract_x
 _atom_site_fract_y
 _atom_site_fract_z
 _atom_site_occupancy
  Ba  Ba0  1  0.750000  0.740463  0.159974  1
  Ba  Ba1  1  0.750000  0.240463  0.340026  1
  Ba  Ba2  1  0.250000  0.259659  0.834888  1
  Ba  Ba3  1  0.250000  0.759659  0.665112  1
  Ce  Ce4  1  0.750000  0.067846  0.107245  1
  Ce  Ce5  1  0.750000  0.567846  0.392755  1
  Ho  Ho6  1  0.250000  0.936036  0.886662  1
  Ho  Ho7  1  0.250000  0.436036  0.613338  1
  Ho  Ho8  1  0.750000  0.078155  0.599620  1
  Ho  Ho9  1  0.750000  0.578155  0.900380  1
  Ho  Ho10  1  0.250000  0.920962  0.400504  1
  Ho  Ho11  1  0.250000  0.420962  0.099496  1
  Se  Se12  1  0.750000  0.293024  0.662892  1
  Se  Se13  1  0.750000  0.793024  0.837108  1
  Se  Se14  1  0.250000  0.712414  0.330404  1
  Se  Se15  1  0.250000  0.212414  0.169596  1
  Se  Se16  1  0.750000  0.374552  0.975807  1
  Se  Se17  1  0.750000  0.874552  0.524193  1
  Se  Se18  1  0.250000  0.622568  0.023578  1
  Se  Se19  1  0.250000  0.122568  0.476422  1
  Se  Se20  1  0.750000  0.474451  0.214896  1
  Se  Se21  1  0.750000  0.974451  0.285104  1
  Se  Se22  1  0.250000  0.524121  0.785906  1
  Se  Se23  1  0.250000  0.024121  0.714094  1
  Se  Se24  1  0.750000  0.082803  0.915693  1
  Se  Se25  1  0.750000  0.582803  0.584307  1
  Se  Se26  1  0.250000  0.912946  0.070435  1
  Se  Se27  1  0.250000  0.412946  0.429565  1
