# generated using pymatgen
data_HoPa2Ni3Sb4
_symmetry_space_group_name_H-M   'P 1'
_cell_length_a   8.12360005
_cell_length_b   8.12359981
_cell_length_c   8.12359979
_cell_angle_alpha   109.56188653
_cell_angle_beta   109.29003238
_cell_angle_gamma   109.56188574
_symmetry_Int_Tables_number   1
_chemical_formula_structural   HoPa2Ni3Sb4
_chemical_formula_sum   'Ho2 Pa4 Ni6 Sb8'
_cell_volume   412.68670308
_cell_formula_units_Z   2
loop_
 _symmetry_equiv_pos_site_id
 _symmetry_equiv_pos_as_xyz
  1  'x, y, z'
loop_
 _atom_site_type_symbol
 _atom_site_label
 _atom_site_symmetry_multiplicity
 _atom_site_fract_x
 _atom_site_fract_y
 _atom_site_fract_z
 _atom_site_occupancy
  Ho  Ho0  1  0.875000  0.250000  0.125000  1
  Ho  Ho1  1  0.625000  0.750000  0.375000  1
  Pa  Pa2  1  0.250000  0.126244  0.876244  1
  Pa  Pa3  1  0.750000  0.373756  0.623756  1
  Pa  Pa4  1  0.123756  0.873756  0.250000  1
  Pa  Pa5  1  0.376244  0.626244  0.750000  1
  Ni  Ni6  1  0.375000  0.250000  0.625000  1
  Ni  Ni7  1  0.125000  0.750000  0.875000  1
  Ni  Ni8  1  0.250000  0.628174  0.378174  1
  Ni  Ni9  1  0.750000  0.871826  0.121826  1
  Ni  Ni10  1  0.621826  0.371826  0.250000  1
  Ni  Ni11  1  0.878174  0.128174  0.750000  1
  Sb  Sb12  1  0.665082  0.500752  0.003128  1
  Sb  Sb13  1  0.502375  0.999248  0.664328  1
  Sb  Sb14  1  0.997625  0.661953  0.496872  1
  Sb  Sb15  1  0.834918  0.838047  0.835672  1
  Sb  Sb16  1  0.503128  0.000752  0.165082  1
  Sb  Sb17  1  0.164328  0.499248  0.002375  1
  Sb  Sb18  1  0.996872  0.161953  0.497625  1
  Sb  Sb19  1  0.335672  0.338047  0.334918  1
