# generated using pymatgen
data_Lu4AgPd
_symmetry_space_group_name_H-M   'P 1'
_cell_length_a   9.38701995
_cell_length_b   9.38701956
_cell_length_c   9.38701953
_cell_angle_alpha   60.05347787
_cell_angle_beta   60.05347829
_cell_angle_gamma   60.05347955
_symmetry_Int_Tables_number   1
_chemical_formula_structural   Lu4AgPd
_chemical_formula_sum   'Lu16 Ag4 Pd4'
_cell_volume   585.59083329
_cell_formula_units_Z   4
loop_
 _symmetry_equiv_pos_site_id
 _symmetry_equiv_pos_as_xyz
  1  'x, y, z'
loop_
 _atom_site_type_symbol
 _atom_site_label
 _atom_site_symmetry_multiplicity
 _atom_site_fract_x
 _atom_site_fract_y
 _atom_site_fract_z
 _atom_site_occupancy
  Lu  Lu0  1  0.609465  0.609465  0.609465  1
  Lu  Lu1  1  0.609615  0.609615  0.171225  1
  Lu  Lu2  1  0.609615  0.171225  0.609615  1
  Lu  Lu3  1  0.171225  0.609615  0.609615  1
  Lu  Lu4  1  0.062708  0.437275  0.437275  1
  Lu  Lu5  1  0.437388  0.062590  0.062590  1
  Lu  Lu6  1  0.437275  0.062708  0.437275  1
  Lu  Lu7  1  0.062590  0.437388  0.062590  1
  Lu  Lu8  1  0.437275  0.437275  0.062708  1
  Lu  Lu9  1  0.062590  0.062590  0.437388  1
  Lu  Lu10  1  0.184153  0.815889  0.815889  1
  Lu  Lu11  1  0.815923  0.184088  0.184088  1
  Lu  Lu12  1  0.815889  0.184153  0.815889  1
  Lu  Lu13  1  0.184088  0.815923  0.184088  1
  Lu  Lu14  1  0.815889  0.815889  0.184153  1
  Lu  Lu15  1  0.184088  0.184088  0.815923  1
  Ag  Ag16  1  0.834039  0.834039  0.834039  1
  Ag  Ag17  1  0.833925  0.833925  0.499037  1
  Ag  Ag18  1  0.833925  0.499037  0.833925  1
  Ag  Ag19  1  0.499037  0.833925  0.833925  1
  Pd  Pd20  1  0.397346  0.397346  0.397346  1
  Pd  Pd21  1  0.396578  0.396578  0.808798  1
  Pd  Pd22  1  0.396578  0.808798  0.396578  1
  Pd  Pd23  1  0.808798  0.396578  0.396578  1
