# generated using pymatgen
data_Ho2NiIrPb
_symmetry_space_group_name_H-M   'P 1'
_cell_length_a   7.47155322
_cell_length_b   7.47155351
_cell_length_c   3.82620800
_cell_angle_alpha   90.00000000
_cell_angle_beta   90.00000000
_cell_angle_gamma   149.15915252
_symmetry_Int_Tables_number   1
_chemical_formula_structural   Ho2NiIrPb
_chemical_formula_sum   'Ho2 Ni1 Ir1 Pb1'
_cell_volume   109.50039077
_cell_formula_units_Z   1
loop_
 _symmetry_equiv_pos_site_id
 _symmetry_equiv_pos_as_xyz
  1  'x, y, z'
loop_
 _atom_site_type_symbol
 _atom_site_label
 _atom_site_symmetry_multiplicity
 _atom_site_fract_x
 _atom_site_fract_y
 _atom_site_fract_z
 _atom_site_occupancy
  Ho  Ho0  1  0.361343  0.638657  0.500000  1
  Ho  Ho1  1  0.642024  0.357976  0.500000  1
  Ni  Ni2  1  0.194297  0.805703  0.000000  1
  Ir  Ir3  1  0.799446  0.200554  0.000000  1
  Pb  Pb4  1  0.002889  0.997111  0.000000  1
