# generated using pymatgen
data_YbTm7(Ge4Mo3)4
_symmetry_space_group_name_H-M   'P 1'
_cell_length_a   6.89112180
_cell_length_b   7.03354343
_cell_length_c   13.09730569
_cell_angle_alpha   89.93190765
_cell_angle_beta   89.97815493
_cell_angle_gamma   89.98527126
_symmetry_Int_Tables_number   1
_chemical_formula_structural   YbTm7(Ge4Mo3)4
_chemical_formula_sum   'Yb1 Tm7 Ge16 Mo12'
_cell_volume   634.81285198
_cell_formula_units_Z   1
loop_
 _symmetry_equiv_pos_site_id
 _symmetry_equiv_pos_as_xyz
  1  'x, y, z'
loop_
 _atom_site_type_symbol
 _atom_site_label
 _atom_site_symmetry_multiplicity
 _atom_site_fract_x
 _atom_site_fract_y
 _atom_site_fract_z
 _atom_site_occupancy
  Yb  Yb0  1  0.990012  0.830005  0.589961  1
  Tm  Tm1  1  0.489238  0.671023  0.592242  1
  Tm  Tm2  1  0.989374  0.828790  0.907741  1
  Tm  Tm3  1  0.511851  0.328634  0.091633  1
  Tm  Tm4  1  0.011296  0.170550  0.409340  1
  Tm  Tm5  1  0.511463  0.329029  0.408924  1
  Tm  Tm6  1  0.011729  0.170797  0.091870  1
  Tm  Tm7  1  0.488683  0.671607  0.907321  1
  Ge  Ge8  1  0.671062  0.953858  0.453214  1
  Ge  Ge9  1  0.172232  0.546068  0.047117  1
  Ge  Ge10  1  0.327995  0.045909  0.952633  1
  Ge  Ge11  1  0.828991  0.456473  0.548362  1
  Ge  Ge12  1  0.328157  0.044310  0.548009  1
  Ge  Ge13  1  0.827802  0.454542  0.952878  1
  Ge  Ge14  1  0.672564  0.953896  0.047194  1
  Ge  Ge15  1  0.170740  0.546261  0.452496  1
  Ge  Ge16  1  0.468790  0.370401  0.750483  1
  Ge  Ge17  1  0.969952  0.128969  0.748863  1
  Ge  Ge18  1  0.529713  0.629808  0.249782  1
  Ge  Ge19  1  0.030078  0.869098  0.250738  1
  Ge  Ge20  1  0.690979  0.853760  0.748587  1
  Ge  Ge21  1  0.186464  0.648294  0.748284  1
  Ge  Ge22  1  0.311540  0.147130  0.250299  1
  Ge  Ge23  1  0.811777  0.352023  0.250389  1
  Mo  Mo24  1  0.667081  0.158099  0.627329  1
  Mo  Mo25  1  0.169043  0.344855  0.873515  1
  Mo  Mo26  1  0.330497  0.845390  0.126962  1
  Mo  Mo27  1  0.828578  0.653975  0.372217  1
  Mo  Mo28  1  0.331379  0.844984  0.372962  1
  Mo  Mo29  1  0.830196  0.654389  0.126790  1
  Mo  Mo30  1  0.670244  0.155270  0.873194  1
  Mo  Mo31  1  0.169594  0.343833  0.627243  1
  Mo  Mo32  1  0.832849  0.492713  0.750970  1
  Mo  Mo33  1  0.334614  0.006062  0.750890  1
  Mo  Mo34  1  0.166848  0.505029  0.249838  1
  Mo  Mo35  1  0.666598  0.994168  0.249727  1
