# generated using pymatgen
data_TiNb7O12
_symmetry_space_group_name_H-M   'P 1'
_cell_length_a   6.76581061
_cell_length_b   6.76581082
_cell_length_c   6.76581079
_cell_angle_alpha   73.44427720
_cell_angle_beta   73.44427250
_cell_angle_gamma   73.44426855
_symmetry_Int_Tables_number   1
_chemical_formula_structural   TiNb7O12
_chemical_formula_sum   'Ti1 Nb7 O12'
_cell_volume   277.48063189
_cell_formula_units_Z   1
loop_
 _symmetry_equiv_pos_site_id
 _symmetry_equiv_pos_as_xyz
  1  'x, y, z'
loop_
 _atom_site_type_symbol
 _atom_site_label
 _atom_site_symmetry_multiplicity
 _atom_site_fract_x
 _atom_site_fract_y
 _atom_site_fract_z
 _atom_site_occupancy
  Ti  Ti0  1  0.724394  0.724394  0.724394  1
  Nb  Nb1  1  0.275412  0.275412  0.275412  1
  Nb  Nb2  1  0.938382  0.115222  0.710823  1
  Nb  Nb3  1  0.710823  0.938382  0.115222  1
  Nb  Nb4  1  0.115222  0.710823  0.938382  1
  Nb  Nb5  1  0.051142  0.885680  0.292305  1
  Nb  Nb6  1  0.292305  0.051142  0.885680  1
  Nb  Nb7  1  0.885680  0.292305  0.051142  1
  O  O8  1  0.173910  0.576522  0.256335  1
  O  O9  1  0.256335  0.173910  0.576522  1
  O  O10  1  0.576522  0.256335  0.173910  1
  O  O11  1  0.826468  0.429179  0.744232  1
  O  O12  1  0.744232  0.826468  0.429179  1
  O  O13  1  0.429179  0.744232  0.826468  1
  O  O14  1  0.646036  0.029881  0.804082  1
  O  O15  1  0.804082  0.646036  0.029881  1
  O  O16  1  0.968092  0.200281  0.351620  1
  O  O17  1  0.200281  0.351620  0.968092  1
  O  O18  1  0.351620  0.968092  0.200281  1
  O  O19  1  0.029881  0.804082  0.646036  1
