# generated using pymatgen
data_Hf9(PaNi4)5
_symmetry_space_group_name_H-M   'P 1'
_cell_length_a   7.77208293
_cell_length_b   7.77208265
_cell_length_c   9.23046314
_cell_angle_alpha   90.05578920
_cell_angle_beta   90.05579035
_cell_angle_gamma   106.72139553
_symmetry_Int_Tables_number   1
_chemical_formula_structural   Hf9(PaNi4)5
_chemical_formula_sum   'Hf9 Pa5 Ni20'
_cell_volume   533.99119305
_cell_formula_units_Z   1
loop_
 _symmetry_equiv_pos_site_id
 _symmetry_equiv_pos_as_xyz
  1  'x, y, z'
loop_
 _atom_site_type_symbol
 _atom_site_label
 _atom_site_symmetry_multiplicity
 _atom_site_fract_x
 _atom_site_fract_y
 _atom_site_fract_z
 _atom_site_occupancy
  Hf  Hf0  1  0.187285  0.812715  0.500000  1
  Hf  Hf1  1  0.007515  0.507785  0.253866  1
  Hf  Hf2  1  0.998635  0.499356  0.746673  1
  Hf  Hf3  1  0.492215  0.992485  0.746134  1
  Hf  Hf4  1  0.500644  0.001365  0.253327  1
  Hf  Hf5  1  0.308414  0.307945  0.192890  1
  Hf  Hf6  1  0.692055  0.691586  0.807110  1
  Hf  Hf7  1  0.189021  0.184456  0.687665  1
  Hf  Hf8  1  0.815544  0.810979  0.312335  1
  Pa  Pa9  1  0.687563  0.312437  0.000000  1
  Pa  Pa10  1  0.311905  0.688095  0.000000  1
  Pa  Pa11  1  0.812843  0.187157  0.500000  1
  Pa  Pa12  1  0.999186  0.000814  0.000000  1
  Pa  Pa13  1  0.498146  0.501854  0.500000  1
  Ni  Ni14  1  0.863289  0.152681  0.206609  1
  Ni  Ni15  1  0.136253  0.847680  0.793192  1
  Ni  Ni16  1  0.636476  0.348085  0.705689  1
  Ni  Ni17  1  0.651915  0.363524  0.294311  1
  Ni  Ni18  1  0.363654  0.652711  0.293759  1
  Ni  Ni19  1  0.347289  0.636346  0.706241  1
  Ni  Ni20  1  0.847319  0.136711  0.793391  1
  Ni  Ni21  1  0.152320  0.863747  0.206808  1
  Ni  Ni22  1  0.938747  0.649307  0.005393  1
  Ni  Ni23  1  0.060507  0.351936  0.994662  1
  Ni  Ni24  1  0.560822  0.851803  0.504724  1
  Ni  Ni25  1  0.148197  0.439178  0.495276  1
  Ni  Ni26  1  0.439489  0.147786  0.495100  1
  Ni  Ni27  1  0.852214  0.560511  0.504900  1
  Ni  Ni28  1  0.350693  0.061253  0.994607  1
  Ni  Ni29  1  0.648064  0.939493  0.005338  1
  Ni  Ni30  1  0.106318  0.104553  0.397157  1
  Ni  Ni31  1  0.895447  0.893682  0.602843  1
  Ni  Ni32  1  0.394851  0.394833  0.895673  1
  Ni  Ni33  1  0.605167  0.605149  0.104327  1
