# generated using pymatgen
data_Eu3(CN2)2
_symmetry_space_group_name_H-M   'P 1'
_cell_length_a   6.43523410
_cell_length_b   6.43457969
_cell_length_c   6.43457991
_cell_angle_alpha   147.57470998
_cell_angle_beta   123.38698908
_cell_angle_gamma   66.77154035
_symmetry_Int_Tables_number   1
_chemical_formula_structural   Eu3(CN2)2
_chemical_formula_sum   'Eu3 C2 N4'
_cell_volume   117.81864355
_cell_formula_units_Z   1
loop_
 _symmetry_equiv_pos_site_id
 _symmetry_equiv_pos_as_xyz
  1  'x, y, z'
loop_
 _atom_site_type_symbol
 _atom_site_label
 _atom_site_symmetry_multiplicity
 _atom_site_fract_x
 _atom_site_fract_y
 _atom_site_fract_z
 _atom_site_occupancy
  Eu  Eu0  1  0.000000  0.000000  0.000000  1
  Eu  Eu1  1  0.710986  0.210981  0.500004  1
  Eu  Eu2  1  0.289014  0.789017  0.499996  1
  C  C3  1  0.626756  0.499973  0.126782  1
  C  C4  1  0.373245  0.500026  0.873218  1
  N  N5  1  0.624506  0.387597  0.236908  1
  N  N6  1  0.849305  0.612387  0.236918  1
  N  N7  1  0.150696  0.387612  0.763082  1
  N  N8  1  0.375494  0.612401  0.763092  1
