# generated using pymatgen
data_La16Er3PuIr12
_symmetry_space_group_name_H-M   'P 1'
_cell_length_a   11.35394100
_cell_length_b   11.35394100
_cell_length_c   6.53940000
_cell_angle_alpha   90.00000000
_cell_angle_beta   90.00000000
_cell_angle_gamma   90.00000000
_symmetry_Int_Tables_number   1
_chemical_formula_structural   La16Er3PuIr12
_chemical_formula_sum   'La16 Er3 Pu1 Ir12'
_cell_volume   843.00697737
_cell_formula_units_Z   1
loop_
 _symmetry_equiv_pos_site_id
 _symmetry_equiv_pos_as_xyz
  1  'x, y, z'
loop_
 _atom_site_type_symbol
 _atom_site_label
 _atom_site_symmetry_multiplicity
 _atom_site_fract_x
 _atom_site_fract_y
 _atom_site_fract_z
 _atom_site_occupancy
  La  La0  1  0.286791  0.086739  0.385512  1
  La  La1  1  0.286769  0.911159  0.886514  1
  La  La2  1  0.713231  0.088841  0.886514  1
  La  La3  1  0.713209  0.913261  0.385512  1
  La  La4  1  0.589639  0.788014  0.886661  1
  La  La5  1  0.586448  0.212395  0.387743  1
  La  La6  1  0.413552  0.787605  0.387743  1
  La  La7  1  0.410361  0.211986  0.886661  1
  La  La8  1  0.212395  0.413552  0.612257  1
  La  La9  1  0.211986  0.589639  0.113339  1
  La  La10  1  0.788014  0.410361  0.113339  1
  La  La11  1  0.787605  0.586448  0.612257  1
  La  La12  1  0.911159  0.713231  0.113486  1
  La  La13  1  0.913261  0.286791  0.614488  1
  La  La14  1  0.086739  0.713209  0.614488  1
  La  La15  1  0.088841  0.286769  0.113486  1
  Er  Er16  1  0.000000  0.000000  0.000000  1
  Er  Er17  1  0.500000  0.500000  0.000000  1
  Er  Er18  1  0.500000  0.500000  0.500000  1
  Pu  Pu19  1  0.000000  0.000000  0.500000  1
  Ir  Ir20  1  0.853972  0.143769  0.257320  1
  Ir  Ir21  1  0.856231  0.853972  0.742680  1
  Ir  Ir22  1  0.143769  0.146028  0.742680  1
  Ir  Ir23  1  0.146028  0.856231  0.257320  1
  Ir  Ir24  1  0.646670  0.352044  0.750924  1
  Ir  Ir25  1  0.647956  0.646670  0.249076  1
  Ir  Ir26  1  0.352044  0.353330  0.249076  1
  Ir  Ir27  1  0.353330  0.647956  0.750924  1
  Ir  Ir28  1  0.500000  0.000000  0.117984  1
  Ir  Ir29  1  0.500000  0.000000  0.619728  1
  Ir  Ir30  1  0.000000  0.500000  0.882016  1
  Ir  Ir31  1  0.000000  0.500000  0.380272  1
