# generated using pymatgen
data_Sm6LuCoBr12
_symmetry_space_group_name_H-M   'P 1'
_cell_length_a   9.39807433
_cell_length_b   9.39807516
_cell_length_c   9.39807578
_cell_angle_alpha   107.05001492
_cell_angle_beta   107.05001667
_cell_angle_gamma   107.05002456
_symmetry_Int_Tables_number   1
_chemical_formula_structural   Sm6LuCoBr12
_chemical_formula_sum   'Sm6 Lu1 Co1 Br12'
_cell_volume   690.34803687
_cell_formula_units_Z   1
loop_
 _symmetry_equiv_pos_site_id
 _symmetry_equiv_pos_as_xyz
  1  'x, y, z'
loop_
 _atom_site_type_symbol
 _atom_site_label
 _atom_site_symmetry_multiplicity
 _atom_site_fract_x
 _atom_site_fract_y
 _atom_site_fract_z
 _atom_site_occupancy
  Sm  Sm0  1  0.304725  0.098924  0.022380  1
  Sm  Sm1  1  0.098924  0.022380  0.304725  1
  Sm  Sm2  1  0.022380  0.304725  0.098924  1
  Sm  Sm3  1  0.695275  0.901076  0.977620  1
  Sm  Sm4  1  0.901076  0.977620  0.695275  1
  Sm  Sm5  1  0.977620  0.695275  0.901076  1
  Lu  Lu6  1  0.500000  0.500000  0.500000  1
  Co  Co7  1  0.000000  0.000000  0.000000  1
  Br  Br8  1  0.222046  0.070480  0.680606  1
  Br  Br9  1  0.070480  0.680606  0.222046  1
  Br  Br10  1  0.680606  0.222046  0.070480  1
  Br  Br11  1  0.777954  0.929520  0.319394  1
  Br  Br12  1  0.929520  0.319394  0.777954  1
  Br  Br13  1  0.319394  0.777954  0.929520  1
  Br  Br14  1  0.390750  0.464852  0.179210  1
  Br  Br15  1  0.464852  0.179210  0.390750  1
  Br  Br16  1  0.179210  0.390750  0.464852  1
  Br  Br17  1  0.609250  0.535148  0.820790  1
  Br  Br18  1  0.535148  0.820790  0.609250  1
  Br  Br19  1  0.820790  0.609250  0.535148  1
