# generated using pymatgen
data_Yb3Th(Ru2O7)2
_symmetry_space_group_name_H-M   'P 1'
_cell_length_a   7.25190375
_cell_length_b   7.25190360
_cell_length_c   7.25190309
_cell_angle_alpha   60.22016569
_cell_angle_beta   60.22016598
_cell_angle_gamma   60.22016557
_symmetry_Int_Tables_number   1
_chemical_formula_structural   Yb3Th(Ru2O7)2
_chemical_formula_sum   'Yb3 Th1 Ru4 O14'
_cell_volume   271.01948294
_cell_formula_units_Z   1
loop_
 _symmetry_equiv_pos_site_id
 _symmetry_equiv_pos_as_xyz
  1  'x, y, z'
loop_
 _atom_site_type_symbol
 _atom_site_label
 _atom_site_symmetry_multiplicity
 _atom_site_fract_x
 _atom_site_fract_y
 _atom_site_fract_z
 _atom_site_occupancy
  Yb  Yb0  1  0.625000  0.125000  0.125000  1
  Yb  Yb1  1  0.125000  0.125000  0.625000  1
  Yb  Yb2  1  0.125000  0.625000  0.125000  1
  Th  Th3  1  0.125000  0.125000  0.125000  1
  Ru  Ru4  1  0.625000  0.625000  0.625000  1
  Ru  Ru5  1  0.125000  0.625000  0.625000  1
  Ru  Ru6  1  0.625000  0.625000  0.125000  1
  Ru  Ru7  1  0.625000  0.125000  0.625000  1
  O  O8  1  0.002064  0.002064  0.002064  1
  O  O9  1  0.247936  0.247936  0.247936  1
  O  O10  1  0.295514  0.295514  0.703325  1
  O  O11  1  0.551668  0.551668  0.949699  1
  O  O12  1  0.698332  0.300301  0.698332  1
  O  O13  1  0.703325  0.295514  0.295514  1
  O  O14  1  0.300301  0.698332  0.698332  1
  O  O15  1  0.295514  0.703325  0.295514  1
  O  O16  1  0.698332  0.698332  0.300301  1
  O  O17  1  0.949699  0.551668  0.551668  1
  O  O18  1  0.546675  0.954486  0.954486  1
  O  O19  1  0.954486  0.954486  0.546675  1
  O  O20  1  0.954486  0.546675  0.954486  1
  O  O21  1  0.551668  0.949699  0.551668  1
