# generated using pymatgen
data_Y4TmPt2Rh
_symmetry_space_group_name_H-M   'P 1'
_cell_length_a   10.88531400
_cell_length_b   10.88531400
_cell_length_c   6.38263100
_cell_angle_alpha   90.00000000
_cell_angle_beta   90.00000000
_cell_angle_gamma   90.00000000
_symmetry_Int_Tables_number   1
_chemical_formula_structural   Y4TmPt2Rh
_chemical_formula_sum   'Y16 Tm4 Pt8 Rh4'
_cell_volume   756.27833576
_cell_formula_units_Z   4
loop_
 _symmetry_equiv_pos_site_id
 _symmetry_equiv_pos_as_xyz
  1  'x, y, z'
loop_
 _atom_site_type_symbol
 _atom_site_label
 _atom_site_symmetry_multiplicity
 _atom_site_fract_x
 _atom_site_fract_y
 _atom_site_fract_z
 _atom_site_occupancy
  Y  Y0  1  0.291955  0.087668  0.376875  1
  Y  Y1  1  0.291955  0.912332  0.876875  1
  Y  Y2  1  0.708045  0.087668  0.876875  1
  Y  Y3  1  0.708045  0.912332  0.376875  1
  Y  Y4  1  0.587668  0.791955  0.876875  1
  Y  Y5  1  0.587668  0.208045  0.376875  1
  Y  Y6  1  0.412332  0.791955  0.376875  1
  Y  Y7  1  0.412332  0.208045  0.876875  1
  Y  Y8  1  0.208045  0.412332  0.623125  1
  Y  Y9  1  0.208045  0.587668  0.123125  1
  Y  Y10  1  0.791955  0.412332  0.123125  1
  Y  Y11  1  0.791955  0.587668  0.623125  1
  Y  Y12  1  0.912332  0.708045  0.123125  1
  Y  Y13  1  0.912332  0.291955  0.623125  1
  Y  Y14  1  0.087668  0.708045  0.623125  1
  Y  Y15  1  0.087668  0.291955  0.123125  1
  Tm  Tm16  1  0.000000  0.000000  0.500000  1
  Tm  Tm17  1  0.000000  0.000000  0.000000  1
  Tm  Tm18  1  0.500000  0.500000  0.000000  1
  Tm  Tm19  1  0.500000  0.500000  0.500000  1
  Pt  Pt20  1  0.847961  0.152039  0.250000  1
  Pt  Pt21  1  0.847961  0.847961  0.750000  1
  Pt  Pt22  1  0.152039  0.152039  0.750000  1
  Pt  Pt23  1  0.152039  0.847961  0.250000  1
  Pt  Pt24  1  0.652039  0.347961  0.750000  1
  Pt  Pt25  1  0.652039  0.652039  0.250000  1
  Pt  Pt26  1  0.347961  0.347961  0.250000  1
  Pt  Pt27  1  0.347961  0.652039  0.750000  1
  Rh  Rh28  1  0.500000  0.000000  0.124254  1
  Rh  Rh29  1  0.500000  0.000000  0.624254  1
  Rh  Rh30  1  0.000000  0.500000  0.875746  1
  Rh  Rh31  1  0.000000  0.500000  0.375746  1
