# generated using pymatgen
data_La8Tb12CuRh15
_symmetry_space_group_name_H-M   'P 1'
_cell_length_a   7.51166800
_cell_length_b   7.60435460
_cell_length_c   14.69735600
_cell_angle_alpha   90.00000000
_cell_angle_beta   90.00000000
_cell_angle_gamma   90.21711759
_symmetry_Int_Tables_number   1
_chemical_formula_structural   La8Tb12CuRh15
_chemical_formula_sum   'La8 Tb12 Cu1 Rh15'
_cell_volume   839.52733363
_cell_formula_units_Z   1
loop_
 _symmetry_equiv_pos_site_id
 _symmetry_equiv_pos_as_xyz
  1  'x, y, z'
loop_
 _atom_site_type_symbol
 _atom_site_label
 _atom_site_symmetry_multiplicity
 _atom_site_fract_x
 _atom_site_fract_y
 _atom_site_fract_z
 _atom_site_occupancy
  La  La0  1  0.512885  0.686921  0.591041  1
  La  La1  1  0.014799  0.817924  0.907187  1
  La  La2  1  0.487262  0.319685  0.092704  1
  La  La3  1  0.987161  0.180323  0.404404  1
  La  La4  1  0.487262  0.319685  0.407296  1
  La  La5  1  0.987161  0.180323  0.095596  1
  La  La6  1  0.512885  0.686921  0.908959  1
  La  La7  1  0.014799  0.817924  0.592813  1
  Tb  Tb8  1  0.669683  0.160069  0.622494  1
  Tb  Tb9  1  0.156848  0.336812  0.878832  1
  Tb  Tb10  1  0.334907  0.836446  0.123310  1
  Tb  Tb11  1  0.836187  0.663681  0.376144  1
  Tb  Tb12  1  0.334907  0.836446  0.376690  1
  Tb  Tb13  1  0.836187  0.663681  0.123856  1
  Tb  Tb14  1  0.669683  0.160069  0.877506  1
  Tb  Tb15  1  0.156848  0.336812  0.621168  1
  Tb  Tb16  1  0.831984  0.507690  0.750000  1
  Tb  Tb17  1  0.321690  0.993768  0.750000  1
  Tb  Tb18  1  0.173841  0.496345  0.250000  1
  Tb  Tb19  1  0.673925  0.001858  0.250000  1
  Cu  Cu20  1  0.458170  0.383337  0.750000  1
  Rh  Rh21  1  0.679839  0.965607  0.456338  1
  Rh  Rh22  1  0.174810  0.532859  0.045177  1
  Rh  Rh23  1  0.321934  0.036190  0.954436  1
  Rh  Rh24  1  0.818801  0.468881  0.546110  1
  Rh  Rh25  1  0.321934  0.036190  0.545564  1
  Rh  Rh26  1  0.818801  0.468881  0.953890  1
  Rh  Rh27  1  0.679839  0.965607  0.043662  1
  Rh  Rh28  1  0.174810  0.532859  0.454823  1
  Rh  Rh29  1  0.960607  0.119125  0.750000  1
  Rh  Rh30  1  0.536170  0.619952  0.250000  1
  Rh  Rh31  1  0.040084  0.882172  0.250000  1
  Rh  Rh32  1  0.689244  0.857891  0.750000  1
  Rh  Rh33  1  0.218455  0.625545  0.750000  1
  Rh  Rh34  1  0.307257  0.141053  0.250000  1
  Rh  Rh35  1  0.798337  0.360469  0.250000  1
