# generated using pymatgen
data_Ba12HoEr3Al8O30
_symmetry_space_group_name_H-M   'P 1'
_cell_length_a   5.94606270
_cell_length_b   7.91220178
_cell_length_c   18.49777329
_cell_angle_alpha   88.35584710
_cell_angle_beta   90.01733004
_cell_angle_gamma   90.00377787
_symmetry_Int_Tables_number   1
_chemical_formula_structural   Ba12HoEr3Al8O30
_chemical_formula_sum   'Ba12 Ho1 Er3 Al8 O30'
_cell_volume   869.89620336
_cell_formula_units_Z   1
loop_
 _symmetry_equiv_pos_site_id
 _symmetry_equiv_pos_as_xyz
  1  'x, y, z'
loop_
 _atom_site_type_symbol
 _atom_site_label
 _atom_site_symmetry_multiplicity
 _atom_site_fract_x
 _atom_site_fract_y
 _atom_site_fract_z
 _atom_site_occupancy
  Ba  Ba0  1  0.756384  0.501003  0.081657  1
  Ba  Ba1  1  0.243757  0.498939  0.918168  1
  Ba  Ba2  1  0.755901  0.498680  0.418043  1
  Ba  Ba3  1  0.243464  0.501002  0.582267  1
  Ba  Ba4  1  0.748084  0.970655  0.089280  1
  Ba  Ba5  1  0.251993  0.029401  0.910573  1
  Ba  Ba6  1  0.747673  0.030025  0.410296  1
  Ba  Ba7  1  0.251580  0.970408  0.590165  1
  Ba  Ba8  1  0.727629  0.000188  0.750403  1
  Ba  Ba9  1  0.272576  0.000065  0.249448  1
  Ba  Ba10  1  0.675440  0.499976  0.750259  1
  Ba  Ba11  1  0.324742  0.499801  0.249637  1
  Ho  Ho12  1  0.252196  0.752585  0.410627  1
  Er  Er13  1  0.747657  0.752228  0.910829  1
  Er  Er14  1  0.252482  0.247881  0.089043  1
  Er  Er15  1  0.747452  0.247475  0.589589  1
  Al  Al16  1  0.747671  0.752209  0.556058  1
  Al  Al17  1  0.251445  0.247581  0.444744  1
  Al  Al18  1  0.748154  0.247841  0.944569  1
  Al  Al19  1  0.252047  0.752145  0.055328  1
  Al  Al20  1  0.769073  0.778906  0.267947  1
  Al  Al21  1  0.231551  0.221073  0.731599  1
  Al  Al22  1  0.768809  0.221249  0.231082  1
  Al  Al23  1  0.231438  0.778873  0.768860  1
  O  O24  1  0.208965  0.000006  0.750231  1
  O  O25  1  0.791512  0.000075  0.249479  1
  O  O26  1  0.500806  0.763921  0.000426  1
  O  O27  1  0.499316  0.236081  0.999404  1
  O  O28  1  0.500767  0.235673  0.499591  1
  O  O29  1  0.498477  0.764294  0.501255  1
  O  O30  1  0.760501  0.944416  0.606077  1
  O  O31  1  0.238786  0.056199  0.394297  1
  O  O32  1  0.760472  0.055376  0.894918  1
  O  O33  1  0.239592  0.944649  0.104962  1
  O  O34  1  0.013779  0.762730  0.994583  1
  O  O35  1  0.986482  0.237260  0.005228  1
  O  O36  1  0.013588  0.236755  0.505671  1
  O  O37  1  0.985471  0.763012  0.495110  1
  O  O38  1  0.315943  0.689764  0.688159  1
  O  O39  1  0.684635  0.310083  0.311900  1
  O  O40  1  0.316500  0.309999  0.812301  1
  O  O41  1  0.682336  0.690767  0.187140  1
  O  O42  1  0.454983  0.755298  0.833820  1
  O  O43  1  0.545137  0.244864  0.166109  1
  O  O44  1  0.454831  0.244660  0.666537  1
  O  O45  1  0.547017  0.755274  0.333554  1
  O  O46  1  0.973626  0.730264  0.813352  1
  O  O47  1  0.026477  0.269969  0.186481  1
  O  O48  1  0.973712  0.269723  0.687047  1
  O  O49  1  0.027978  0.729579  0.311739  1
  O  O50  1  0.752211  0.538029  0.591902  1
  O  O51  1  0.246886  0.461166  0.408443  1
  O  O52  1  0.752498  0.461788  0.908712  1
  O  O53  1  0.247520  0.538132  0.091097  1
