# generated using pymatgen
data_PrNdBi2O7
_symmetry_space_group_name_H-M   'P 1'
_cell_length_a   6.73238148
_cell_length_b   6.84202861
_cell_length_c   7.93976500
_cell_angle_alpha   106.46189741
_cell_angle_beta   89.69009797
_cell_angle_gamma   97.59298709
_symmetry_Int_Tables_number   1
_chemical_formula_structural   PrNdBi2O7
_chemical_formula_sum   'Pr2 Nd2 Bi4 O14'
_cell_volume   347.46582675
_cell_formula_units_Z   2
loop_
 _symmetry_equiv_pos_site_id
 _symmetry_equiv_pos_as_xyz
  1  'x, y, z'
loop_
 _atom_site_type_symbol
 _atom_site_label
 _atom_site_symmetry_multiplicity
 _atom_site_fract_x
 _atom_site_fract_y
 _atom_site_fract_z
 _atom_site_occupancy
  Pr  Pr0  1  0.256411  0.534728  0.883095  1
  Pr  Pr1  1  0.743589  0.465272  0.116905  1
  Nd  Nd2  1  0.457054  0.003831  0.251364  1
  Nd  Nd3  1  0.542946  0.996169  0.748636  1
  Bi  Bi4  1  0.000000  0.000000  0.500000  1
  Bi  Bi5  1  0.000000  0.000000  0.000000  1
  Bi  Bi6  1  0.723644  0.459301  0.610287  1
  Bi  Bi7  1  0.276356  0.540699  0.389713  1
  O  O8  1  0.439847  0.644498  0.171136  1
  O  O9  1  0.560153  0.355502  0.828864  1
  O  O10  1  0.298400  0.926081  0.950141  1
  O  O11  1  0.701600  0.073919  0.049859  1
  O  O12  1  0.295574  0.913096  0.509099  1
  O  O13  1  0.704426  0.086904  0.490901  1
  O  O14  1  0.542115  0.364246  0.349436  1
  O  O15  1  0.457885  0.635754  0.650564  1
  O  O16  1  0.931298  0.679794  0.964900  1
  O  O17  1  0.068702  0.320206  0.035100  1
  O  O18  1  0.090747  0.315519  0.623076  1
  O  O19  1  0.909253  0.684481  0.376924  1
  O  O20  1  0.887728  0.925930  0.732370  1
  O  O21  1  0.112272  0.074070  0.267630  1
