# generated using pymatgen
data_Tm8Sc12Ga11Si5
_symmetry_space_group_name_H-M   'P 1'
_cell_length_a   7.15321395
_cell_length_b   7.46257947
_cell_length_c   14.25668026
_cell_angle_alpha   90.00226403
_cell_angle_beta   89.86465270
_cell_angle_gamma   90.09345595
_symmetry_Int_Tables_number   1
_chemical_formula_structural   Tm8Sc12Ga11Si5
_chemical_formula_sum   'Tm8 Sc12 Ga11 Si5'
_cell_volume   761.03880780
_cell_formula_units_Z   1
loop_
 _symmetry_equiv_pos_site_id
 _symmetry_equiv_pos_as_xyz
  1  'x, y, z'
loop_
 _atom_site_type_symbol
 _atom_site_label
 _atom_site_symmetry_multiplicity
 _atom_site_fract_x
 _atom_site_fract_y
 _atom_site_fract_z
 _atom_site_occupancy
  Tm  Tm0  1  0.013119  0.177266  0.095348  1
  Tm  Tm1  1  0.989111  0.819305  0.905118  1
  Tm  Tm2  1  0.487846  0.680504  0.904934  1
  Tm  Tm3  1  0.988811  0.820819  0.596049  1
  Tm  Tm4  1  0.511200  0.319729  0.095840  1
  Tm  Tm5  1  0.010692  0.178870  0.403560  1
  Tm  Tm6  1  0.510890  0.320682  0.403273  1
  Tm  Tm7  1  0.488948  0.679287  0.596197  1
  Sc  Sc8  1  0.163445  0.508581  0.749790  1
  Sc  Sc9  1  0.837394  0.491693  0.249757  1
  Sc  Sc10  1  0.336661  0.008647  0.248731  1
  Sc  Sc11  1  0.662452  0.991559  0.749805  1
  Sc  Sc12  1  0.328461  0.171550  0.622824  1
  Sc  Sc13  1  0.670993  0.828458  0.376825  1
  Sc  Sc14  1  0.170963  0.671975  0.376913  1
  Sc  Sc15  1  0.669200  0.827310  0.122772  1
  Sc  Sc16  1  0.828453  0.328010  0.622925  1
  Sc  Sc17  1  0.327774  0.171787  0.878601  1
  Sc  Sc18  1  0.828167  0.329491  0.877883  1
  Sc  Sc19  1  0.174695  0.673717  0.121512  1
  Ga  Ga20  1  0.031635  0.114360  0.751531  1
  Ga  Ga21  1  0.967533  0.884271  0.249033  1
  Ga  Ga22  1  0.467344  0.614060  0.249331  1
  Ga  Ga23  1  0.531941  0.385466  0.750634  1
  Ga  Ga24  1  0.161363  0.464434  0.541298  1
  Ga  Ga25  1  0.838363  0.535443  0.458355  1
  Ga  Ga26  1  0.338211  0.964786  0.458228  1
  Ga  Ga27  1  0.838932  0.535639  0.042467  1
  Ga  Ga28  1  0.661486  0.035130  0.541170  1
  Ga  Ga29  1  0.161058  0.464904  0.958921  1
  Ga  Ga30  1  0.660926  0.035319  0.959218  1
  Si  Si31  1  0.284304  0.873234  0.751009  1
  Si  Si32  1  0.715995  0.126815  0.248878  1
  Si  Si33  1  0.215441  0.372780  0.249124  1
  Si  Si34  1  0.783989  0.626946  0.750740  1
  Si  Si35  1  0.342202  0.967172  0.041403  1
