# generated using pymatgen
data_AlV8Re2Si3Tc2
_symmetry_space_group_name_H-M   'P 1'
_cell_length_a   4.78996307
_cell_length_b   4.72295460
_cell_length_c   9.44813736
_cell_angle_alpha   89.96242343
_cell_angle_beta   89.94239991
_cell_angle_gamma   90.05116382
_symmetry_Int_Tables_number   1
_chemical_formula_structural   AlV8Re2Si3Tc2
_chemical_formula_sum   'Al1 V8 Re2 Si3 Tc2'
_cell_volume   213.74287590
_cell_formula_units_Z   1
loop_
 _symmetry_equiv_pos_site_id
 _symmetry_equiv_pos_as_xyz
  1  'x, y, z'
loop_
 _atom_site_type_symbol
 _atom_site_label
 _atom_site_symmetry_multiplicity
 _atom_site_fract_x
 _atom_site_fract_y
 _atom_site_fract_z
 _atom_site_occupancy
  Al  Al0  1  0.495914  0.501660  0.999812  1
  V  V1  1  0.999932  0.498591  0.625499  1
  V  V2  1  0.500802  0.247241  0.253433  1
  V  V3  1  0.998362  0.499095  0.870256  1
  V  V4  1  0.999296  0.500965  0.379027  1
  V  V5  1  0.499875  0.750018  0.746685  1
  V  V6  1  0.500474  0.755104  0.253019  1
  V  V7  1  0.250597  0.999966  0.999956  1
  V  V8  1  0.249975  0.999811  0.500073  1
  Re  Re9  1  0.748964  0.999839  0.000608  1
  Re  Re10  1  0.751743  0.999667  0.498861  1
  Si  Si11  1  0.493367  0.502673  0.497154  1
  Si  Si12  1  0.003899  0.994244  0.750047  1
  Si  Si13  1  0.006694  0.000299  0.252052  1
  Tc  Tc14  1  0.000967  0.500991  0.126394  1
  Tc  Tc15  1  0.499138  0.249835  0.747126  1
