# generated using pymatgen
data_Lu12ZnCo3NiSn
_symmetry_space_group_name_H-M   'P 1'
_cell_length_a   8.12802966
_cell_length_b   8.12802995
_cell_length_c   8.12802970
_cell_angle_alpha   111.94420059
_cell_angle_beta   109.54730901
_cell_angle_gamma   106.96045267
_symmetry_Int_Tables_number   1
_chemical_formula_structural   Lu12ZnCo3NiSn
_chemical_formula_sum   'Lu12 Zn1 Co3 Ni1 Sn1'
_cell_volume   412.58383368
_cell_formula_units_Z   1
loop_
 _symmetry_equiv_pos_site_id
 _symmetry_equiv_pos_as_xyz
  1  'x, y, z'
loop_
 _atom_site_type_symbol
 _atom_site_label
 _atom_site_symmetry_multiplicity
 _atom_site_fract_x
 _atom_site_fract_y
 _atom_site_fract_z
 _atom_site_occupancy
  Lu  Lu0  1  0.431133  0.230850  0.200283  1
  Lu  Lu1  1  0.570276  0.770555  0.799721  1
  Lu  Lu2  1  0.029166  0.229445  0.799721  1
  Lu  Lu3  1  0.969433  0.769150  0.200283  1
  Lu  Lu4  1  0.179857  0.285655  0.465510  1
  Lu  Lu5  1  0.817465  0.717779  0.535246  1
  Lu  Lu6  1  0.179857  0.714345  0.894202  1
  Lu  Lu7  1  0.817465  0.282221  0.099686  1
  Lu  Lu8  1  0.323384  0.631952  0.312288  1
  Lu  Lu9  1  0.680336  0.368048  0.691432  1
  Lu  Lu10  1  0.323384  0.011096  0.691432  1
  Lu  Lu11  1  0.680336  0.988904  0.312288  1
  Zn  Zn12  1  0.999441  0.000000  0.999441  1
  Co  Co13  1  0.650754  0.000000  0.650754  1
  Co  Co14  1  0.114777  0.615958  0.498819  1
  Co  Co15  1  0.882861  0.384042  0.498819  1
  Ni  Ni16  1  0.350643  0.000000  0.350643  1
  Sn  Sn17  1  0.499430  0.500000  0.999430  1
