# generated using pymatgen
data_Pr5NdRhI10
_symmetry_space_group_name_H-M   'P 1'
_cell_length_a   8.04875207
_cell_length_b   10.08069493
_cell_length_c   10.06534155
_cell_angle_alpha   107.25517686
_cell_angle_beta   97.02782412
_cell_angle_gamma   105.04617032
_symmetry_Int_Tables_number   1
_chemical_formula_structural   Pr5NdRhI10
_chemical_formula_sum   'Pr5 Nd1 Rh1 I10'
_cell_volume   735.37120419
_cell_formula_units_Z   1
loop_
 _symmetry_equiv_pos_site_id
 _symmetry_equiv_pos_as_xyz
  1  'x, y, z'
loop_
 _atom_site_type_symbol
 _atom_site_label
 _atom_site_symmetry_multiplicity
 _atom_site_fract_x
 _atom_site_fract_y
 _atom_site_fract_z
 _atom_site_occupancy
  Pr  Pr0  1  0.468278  0.791929  0.588193  1
  Pr  Pr1  1  0.145685  0.370162  0.327965  1
  Pr  Pr2  1  0.854260  0.629054  0.671846  1
  Pr  Pr3  1  0.616099  0.543552  0.261879  1
  Pr  Pr4  1  0.383297  0.456372  0.737887  1
  Nd  Nd5  1  0.531886  0.210079  0.412363  1
  Rh  Rh6  1  0.499557  0.499561  0.499845  1
  I  I7  1  0.149504  0.045392  0.227629  1
  I  I8  1  0.854017  0.954748  0.773375  1
  I  I9  1  0.241341  0.412851  0.038513  1
  I  I10  1  0.758040  0.586619  0.961262  1
  I  I11  1  0.713063  0.240907  0.151796  1
  I  I12  1  0.285597  0.758318  0.849563  1
  I  I13  1  0.045796  0.682601  0.409189  1
  I  I14  1  0.952640  0.316294  0.589906  1
  I  I15  1  0.414182  0.128768  0.678258  1
  I  I16  1  0.586756  0.872793  0.320532  1
