# generated using pymatgen
data_La2CuAu3
_symmetry_space_group_name_H-M   'P 1'
_cell_length_a   6.04666355
_cell_length_b   6.04666305
_cell_length_c   7.40735834
_cell_angle_alpha   51.16489039
_cell_angle_beta   51.16489197
_cell_angle_gamma   45.22852779
_symmetry_Int_Tables_number   1
_chemical_formula_structural   La2CuAu3
_chemical_formula_sum   'La2 Cu1 Au3'
_cell_volume   141.09551358
_cell_formula_units_Z   1
loop_
 _symmetry_equiv_pos_site_id
 _symmetry_equiv_pos_as_xyz
  1  'x, y, z'
loop_
 _atom_site_type_symbol
 _atom_site_label
 _atom_site_symmetry_multiplicity
 _atom_site_fract_x
 _atom_site_fract_y
 _atom_site_fract_z
 _atom_site_occupancy
  La  La0  1  0.471555  0.471555  0.784992  1
  La  La1  1  0.531881  0.531881  0.219370  1
  Cu  Cu2  1  0.831844  0.831844  0.620048  1
  Au  Au3  1  0.142553  0.142553  0.383693  1
  Au  Au4  1  0.183093  0.183093  0.788612  1
  Au  Au5  1  0.839074  0.839074  0.203285  1
