# generated using pymatgen
data_YHo2Cd3IrAu2
_symmetry_space_group_name_H-M   'P 1'
_cell_length_a   7.85909692
_cell_length_b   7.86542494
_cell_length_c   3.78096100
_cell_angle_alpha   90.00000000
_cell_angle_beta   90.00000000
_cell_angle_gamma   119.87471513
_symmetry_Int_Tables_number   1
_chemical_formula_structural   YHo2Cd3IrAu2
_chemical_formula_sum   'Y1 Ho2 Cd3 Ir1 Au2'
_cell_volume   202.66304238
_cell_formula_units_Z   1
loop_
 _symmetry_equiv_pos_site_id
 _symmetry_equiv_pos_as_xyz
  1  'x, y, z'
loop_
 _atom_site_type_symbol
 _atom_site_label
 _atom_site_symmetry_multiplicity
 _atom_site_fract_x
 _atom_site_fract_y
 _atom_site_fract_z
 _atom_site_occupancy
  Y  Y0  1  0.582284  0.972324  0.000000  1
  Ho  Ho1  1  0.028896  0.610372  0.000000  1
  Ho  Ho2  1  0.389818  0.418534  0.000000  1
  Cd  Cd3  1  0.270068  0.003818  0.500000  1
  Cd  Cd4  1  0.996412  0.266635  0.500000  1
  Cd  Cd5  1  0.733667  0.729654  0.500000  1
  Ir  Ir6  1  0.331381  0.664333  0.500000  1
  Au  Au7  1  0.666866  0.334297  0.500000  1
  Au  Au8  1  0.000608  0.000034  0.000000  1
