# generated using pymatgen
data_Yb3Lu(Ge4Mo3)2
_symmetry_space_group_name_H-M   'P 1'
_cell_length_a   6.83349900
_cell_length_b   7.03248047
_cell_length_c   13.19906263
_cell_angle_alpha   89.82287859
_cell_angle_beta   90.00000000
_cell_angle_gamma   90.00000000
_symmetry_Int_Tables_number   1
_chemical_formula_structural   Yb3Lu(Ge4Mo3)2
_chemical_formula_sum   'Yb6 Lu2 Ge16 Mo12'
_cell_volume   634.29703988
_cell_formula_units_Z   2
loop_
 _symmetry_equiv_pos_site_id
 _symmetry_equiv_pos_as_xyz
  1  'x, y, z'
loop_
 _atom_site_type_symbol
 _atom_site_label
 _atom_site_symmetry_multiplicity
 _atom_site_fract_x
 _atom_site_fract_y
 _atom_site_fract_z
 _atom_site_occupancy
  Yb  Yb0  1  0.493076  0.329318  0.089446  1
  Yb  Yb1  1  0.993076  0.170682  0.410554  1
  Yb  Yb2  1  0.506383  0.672408  0.591023  1
  Yb  Yb3  1  0.006383  0.827592  0.908977  1
  Yb  Yb4  1  0.506226  0.671887  0.909845  1
  Yb  Yb5  1  0.006226  0.828113  0.590155  1
  Lu  Lu6  1  0.492223  0.326469  0.408540  1
  Lu  Lu7  1  0.992223  0.173531  0.091460  1
  Ge  Ge8  1  0.670386  0.043687  0.545313  1
  Ge  Ge9  1  0.170386  0.456313  0.954687  1
  Ge  Ge10  1  0.328875  0.955614  0.045897  1
  Ge  Ge11  1  0.828875  0.544386  0.454103  1
  Ge  Ge12  1  0.329822  0.954688  0.454440  1
  Ge  Ge13  1  0.829822  0.545312  0.045560  1
  Ge  Ge14  1  0.670789  0.043078  0.954279  1
  Ge  Ge15  1  0.170789  0.456922  0.545721  1
  Ge  Ge16  1  0.530762  0.379425  0.750785  1
  Ge  Ge17  1  0.030762  0.120575  0.749215  1
  Ge  Ge18  1  0.470021  0.625170  0.248936  1
  Ge  Ge19  1  0.970021  0.874830  0.251064  1
  Ge  Ge20  1  0.806685  0.645897  0.749986  1
  Ge  Ge21  1  0.306685  0.854103  0.750014  1
  Ge  Ge22  1  0.192086  0.352670  0.250154  1
  Ge  Ge23  1  0.692086  0.147330  0.249846  1
  Mo  Mo24  1  0.834685  0.337576  0.628733  1
  Mo  Mo25  1  0.334685  0.162424  0.871267  1
  Mo  Mo26  1  0.164901  0.660362  0.128209  1
  Mo  Mo27  1  0.664901  0.839638  0.371791  1
  Mo  Mo28  1  0.168035  0.658149  0.371641  1
  Mo  Mo29  1  0.668035  0.841851  0.128359  1
  Mo  Mo30  1  0.837517  0.336225  0.872436  1
  Mo  Mo31  1  0.337517  0.163775  0.627564  1
  Mo  Mo32  1  0.659538  0.014457  0.749998  1
  Mo  Mo33  1  0.159538  0.485543  0.750002  1
  Mo  Mo34  1  0.337991  0.989679  0.250281  1
  Mo  Mo35  1  0.837991  0.510321  0.249719  1
