# generated using pymatgen
data_Tb4Er5TmRu4
_symmetry_space_group_name_H-M   'P 1'
_cell_length_a   6.34448861
_cell_length_b   7.24048284
_cell_length_c   8.45613256
_cell_angle_alpha   96.69378751
_cell_angle_beta   112.03304598
_cell_angle_gamma   90.00000378
_symmetry_Int_Tables_number   1
_chemical_formula_structural   Tb4Er5TmRu4
_chemical_formula_sum   'Tb4 Er5 Tm1 Ru4'
_cell_volume   357.22306427
_cell_formula_units_Z   1
loop_
 _symmetry_equiv_pos_site_id
 _symmetry_equiv_pos_as_xyz
  1  'x, y, z'
loop_
 _atom_site_type_symbol
 _atom_site_label
 _atom_site_symmetry_multiplicity
 _atom_site_fract_x
 _atom_site_fract_y
 _atom_site_fract_z
 _atom_site_occupancy
  Tb  Tb0  1  0.789319  0.083313  0.812095  1
  Tb  Tb1  1  0.977225  0.416687  0.187905  1
  Tb  Tb2  1  0.210570  0.916265  0.187904  1
  Tb  Tb3  1  0.022666  0.583735  0.812096  1
  Er  Er4  1  0.205721  0.184909  0.565444  1
  Er  Er5  1  0.640277  0.315091  0.434556  1
  Er  Er6  1  0.794445  0.814974  0.434345  1
  Er  Er7  1  0.360100  0.685026  0.565655  1
  Er  Er8  1  0.419926  0.250000  0.000000  1
  Tm  Tm9  1  0.578670  0.750000  0.000000  1
  Ru  Ru10  1  0.601184  0.424838  0.779327  1
  Ru  Ru11  1  0.821857  0.075162  0.220673  1
  Ru  Ru12  1  0.399418  0.575704  0.220800  1
  Ru  Ru13  1  0.178620  0.924296  0.779200  1
