# generated using pymatgen
data_Pr8Tm2Si5Hg
_symmetry_space_group_name_H-M   'P 1'
_cell_length_a   7.63965404
_cell_length_b   7.63965327
_cell_length_c   9.24634695
_cell_angle_alpha   114.40081046
_cell_angle_beta   114.40081555
_cell_angle_gamma   90.00000611
_symmetry_Int_Tables_number   1
_chemical_formula_structural   Pr8Tm2Si5Hg
_chemical_formula_sum   'Pr8 Tm2 Si5 Hg1'
_cell_volume   437.97652271
_cell_formula_units_Z   1
loop_
 _symmetry_equiv_pos_site_id
 _symmetry_equiv_pos_as_xyz
  1  'x, y, z'
loop_
 _atom_site_type_symbol
 _atom_site_label
 _atom_site_symmetry_multiplicity
 _atom_site_fract_x
 _atom_site_fract_y
 _atom_site_fract_z
 _atom_site_occupancy
  Pr  Pr0  1  0.972110  0.827611  0.281925  1
  Pr  Pr1  1  0.309814  0.454313  0.281925  1
  Pr  Pr2  1  0.827611  0.309814  0.281925  1
  Pr  Pr3  1  0.454313  0.972110  0.281925  1
  Pr  Pr4  1  0.045687  0.190186  0.718075  1
  Pr  Pr5  1  0.672389  0.527890  0.718075  1
  Pr  Pr6  1  0.190186  0.672389  0.718075  1
  Pr  Pr7  1  0.527890  0.045687  0.718075  1
  Tm  Tm8  1  0.510555  0.510555  0.021110  1
  Tm  Tm9  1  0.989445  0.989445  0.978890  1
  Si  Si10  1  0.250000  0.250000  0.500000  1
  Si  Si11  1  0.618584  0.881416  0.000000  1
  Si  Si12  1  0.381416  0.118584  0.000000  1
  Si  Si13  1  0.881416  0.381416  0.000000  1
  Si  Si14  1  0.118584  0.618584  0.000000  1
  Hg  Hg15  1  0.750000  0.750000  0.500000  1
