# generated using pymatgen
data_Ho10Er2ZnInCo4
_symmetry_space_group_name_H-M   'P 1'
_cell_length_a   8.26692961
_cell_length_b   8.26584796
_cell_length_c   8.26693040
_cell_angle_alpha   111.54040116
_cell_angle_beta   110.25414282
_cell_angle_gamma   106.66308647
_symmetry_Int_Tables_number   1
_chemical_formula_structural   Ho10Er2ZnInCo4
_chemical_formula_sum   'Ho10 Er2 Zn1 In1 Co4'
_cell_volume   433.99950384
_cell_formula_units_Z   1
loop_
 _symmetry_equiv_pos_site_id
 _symmetry_equiv_pos_as_xyz
  1  'x, y, z'
loop_
 _atom_site_type_symbol
 _atom_site_label
 _atom_site_symmetry_multiplicity
 _atom_site_fract_x
 _atom_site_fract_y
 _atom_site_fract_z
 _atom_site_occupancy
  Ho  Ho0  1  0.315194  0.011580  0.696387  1
  Ho  Ho1  1  0.684806  0.988420  0.303613  1
  Ho  Ho2  1  0.185112  0.286236  0.471114  1
  Ho  Ho3  1  0.814888  0.713764  0.528886  1
  Ho  Ho4  1  0.184879  0.713764  0.898877  1
  Ho  Ho5  1  0.815121  0.286236  0.101123  1
  Ho  Ho6  1  0.429143  0.225346  0.204004  1
  Ho  Ho7  1  0.570857  0.774654  0.795996  1
  Ho  Ho8  1  0.021344  0.225346  0.796203  1
  Ho  Ho9  1  0.978656  0.774654  0.203797  1
  Er  Er10  1  0.315208  0.618945  0.303738  1
  Er  Er11  1  0.684792  0.381055  0.696262  1
  Zn  Zn12  1  0.000000  0.000000  0.000000  1
  In  In13  1  0.500000  0.500000  0.000000  1
  Co  Co14  1  0.112890  0.612838  0.499948  1
  Co  Co15  1  0.887110  0.387162  0.500052  1
  Co  Co16  1  0.375906  0.000000  0.375906  1
  Co  Co17  1  0.624094  0.000000  0.624094  1
