# generated using pymatgen
data_CaYb6DyBi6
_symmetry_space_group_name_H-M   'P 1'
_cell_length_a   8.36418872
_cell_length_b   8.28022145
_cell_length_c   8.34078903
_cell_angle_alpha   70.72072195
_cell_angle_beta   70.34545169
_cell_angle_gamma   109.36852025
_symmetry_Int_Tables_number   1
_chemical_formula_structural   CaYb6DyBi6
_chemical_formula_sum   'Ca1 Yb6 Dy1 Bi6'
_cell_volume   445.28944087
_cell_formula_units_Z   1
loop_
 _symmetry_equiv_pos_site_id
 _symmetry_equiv_pos_as_xyz
  1  'x, y, z'
loop_
 _atom_site_type_symbol
 _atom_site_label
 _atom_site_symmetry_multiplicity
 _atom_site_fract_x
 _atom_site_fract_y
 _atom_site_fract_z
 _atom_site_occupancy
  Ca  Ca0  1  0.849435  0.001036  0.999319  1
  Yb  Yb1  1  0.001124  0.353863  0.497801  1
  Yb  Yb2  1  0.498354  0.498413  0.150362  1
  Yb  Yb3  1  0.649410  0.150697  0.352413  1
  Yb  Yb4  1  0.358176  0.001637  0.994384  1
  Yb  Yb5  1  0.494487  0.495906  0.648718  1
  Yb  Yb6  1  0.148636  0.644757  0.857120  1
  Dy  Dy7  1  0.000062  0.852875  0.499634  1
  Bi  Bi8  1  0.629574  0.872297  0.744969  1
  Bi  Bi9  1  0.875013  0.628504  0.254872  1
  Bi  Bi10  1  0.245064  0.118405  0.625503  1
  Bi  Bi11  1  0.755687  0.384555  0.868936  1
  Bi  Bi12  1  0.369921  0.753569  0.376091  1
  Bi  Bi13  1  0.125059  0.243487  0.129877  1
