# generated using pymatgen
data_Rb16ThSnSb8
_symmetry_space_group_name_H-M   'P 1'
_cell_length_a   12.20744037
_cell_length_b   12.20744037
_cell_length_c   12.20744000
_cell_angle_alpha   59.99999559
_cell_angle_beta   59.99999557
_cell_angle_gamma   59.99999863
_symmetry_Int_Tables_number   1
_chemical_formula_structural   Rb16ThSnSb8
_chemical_formula_sum   'Rb16 Th1 Sn1 Sb8'
_cell_volume   1286.34893121
_cell_formula_units_Z   1
loop_
 _symmetry_equiv_pos_site_id
 _symmetry_equiv_pos_as_xyz
  1  'x, y, z'
loop_
 _atom_site_type_symbol
 _atom_site_label
 _atom_site_symmetry_multiplicity
 _atom_site_fract_x
 _atom_site_fract_y
 _atom_site_fract_z
 _atom_site_occupancy
  Rb  Rb0  1  0.621439  0.135684  0.621439  1
  Rb  Rb1  1  0.621439  0.621439  0.135684  1
  Rb  Rb2  1  0.135684  0.621439  0.621439  1
  Rb  Rb3  1  0.621439  0.621439  0.621439  1
  Rb  Rb4  1  0.023291  0.023291  0.476709  1
  Rb  Rb5  1  0.775844  0.224156  0.224156  1
  Rb  Rb6  1  0.224156  0.775844  0.775844  1
  Rb  Rb7  1  0.775844  0.775844  0.224156  1
  Rb  Rb8  1  0.775844  0.224156  0.775844  1
  Rb  Rb9  1  0.224156  0.775844  0.224156  1
  Rb  Rb10  1  0.476709  0.023291  0.476709  1
  Rb  Rb11  1  0.476709  0.023291  0.023291  1
  Rb  Rb12  1  0.023291  0.476709  0.476709  1
  Rb  Rb13  1  0.023291  0.476709  0.023291  1
  Rb  Rb14  1  0.224156  0.224156  0.775844  1
  Rb  Rb15  1  0.476709  0.476709  0.023291  1
  Th  Th16  1  0.750000  0.750000  0.750000  1
  Sn  Sn17  1  0.500000  0.500000  0.500000  1
  Sb  Sb18  1  0.400283  0.799152  0.400283  1
  Sb  Sb19  1  0.853747  0.853747  0.438758  1
  Sb  Sb20  1  0.438758  0.853747  0.853747  1
  Sb  Sb21  1  0.853747  0.853747  0.853747  1
  Sb  Sb22  1  0.799152  0.400283  0.400283  1
  Sb  Sb23  1  0.400283  0.400283  0.400283  1
  Sb  Sb24  1  0.400283  0.400283  0.799152  1
  Sb  Sb25  1  0.853747  0.438758  0.853747  1
