# generated using pymatgen
data_Li3Ca2Mg
_symmetry_space_group_name_H-M   'P 1'
_cell_length_a   6.19272200
_cell_length_b   6.19272151
_cell_length_c   9.89900700
_cell_angle_alpha   90.00000000
_cell_angle_beta   90.00000000
_cell_angle_gamma   120.00000264
_symmetry_Int_Tables_number   1
_chemical_formula_structural   Li3Ca2Mg
_chemical_formula_sum   'Li6 Ca4 Mg2'
_cell_volume   328.76485526
_cell_formula_units_Z   2
loop_
 _symmetry_equiv_pos_site_id
 _symmetry_equiv_pos_as_xyz
  1  'x, y, z'
loop_
 _atom_site_type_symbol
 _atom_site_label
 _atom_site_symmetry_multiplicity
 _atom_site_fract_x
 _atom_site_fract_y
 _atom_site_fract_z
 _atom_site_occupancy
  Li  Li0  1  0.833264  0.166736  0.250000  1
  Li  Li1  1  0.833264  0.666528  0.250000  1
  Li  Li2  1  0.333472  0.166736  0.250000  1
  Li  Li3  1  0.166736  0.833264  0.750000  1
  Li  Li4  1  0.166736  0.333472  0.750000  1
  Li  Li5  1  0.666528  0.833264  0.750000  1
  Ca  Ca6  1  0.333333  0.666667  0.441015  1
  Ca  Ca7  1  0.666667  0.333333  0.558985  1
  Ca  Ca8  1  0.666667  0.333333  0.941015  1
  Ca  Ca9  1  0.333333  0.666667  0.058985  1
  Mg  Mg10  1  0.000000  0.000000  0.500000  1
  Mg  Mg11  1  0.000000  0.000000  0.000000  1
