# generated using pymatgen
data_Hf2Mn(ZnRh2)3
_symmetry_space_group_name_H-M   'P 1'
_cell_length_a   4.39763700
_cell_length_b   6.25350300
_cell_length_c   13.14622900
_cell_angle_alpha   90.00000000
_cell_angle_beta   90.00033508
_cell_angle_gamma   90.00000000
_symmetry_Int_Tables_number   1
_chemical_formula_structural   Hf2Mn(ZnRh2)3
_chemical_formula_sum   'Hf4 Mn2 Zn6 Rh12'
_cell_volume   361.52966077
_cell_formula_units_Z   2
loop_
 _symmetry_equiv_pos_site_id
 _symmetry_equiv_pos_as_xyz
  1  'x, y, z'
loop_
 _atom_site_type_symbol
 _atom_site_label
 _atom_site_symmetry_multiplicity
 _atom_site_fract_x
 _atom_site_fract_y
 _atom_site_fract_z
 _atom_site_occupancy
  Hf  Hf0  1  0.999979  0.000000  0.993860  1
  Hf  Hf1  1  0.499979  0.499999  0.164744  1
  Hf  Hf2  1  0.999976  0.000000  0.335238  1
  Hf  Hf3  1  0.499983  0.499999  0.506121  1
  Mn  Mn4  1  0.000046  0.000000  0.670936  1
  Mn  Mn5  1  0.500057  0.499999  0.829073  1
  Zn  Zn6  1  0.999982  0.499999  0.994471  1
  Zn  Zn7  1  0.499969  0.000000  0.162916  1
  Zn  Zn8  1  0.999968  0.499999  0.337063  1
  Zn  Zn9  1  0.499984  0.000000  0.505539  1
  Zn  Zn10  1  0.000024  0.499999  0.669354  1
  Zn  Zn11  1  0.500029  0.000000  0.830654  1
  Rh  Rh12  1  0.499987  0.255369  0.995516  1
  Rh  Rh13  1  0.499987  0.744632  0.995516  1
  Rh  Rh14  1  0.999976  0.250220  0.165772  1
  Rh  Rh15  1  0.999976  0.749778  0.165772  1
  Rh  Rh16  1  0.499974  0.249775  0.334216  1
  Rh  Rh17  1  0.499974  0.750225  0.334216  1
  Rh  Rh18  1  0.999988  0.244607  0.504484  1
  Rh  Rh19  1  0.999988  0.755391  0.504484  1
  Rh  Rh20  1  0.500039  0.244782  0.669189  1
  Rh  Rh21  1  0.500039  0.755218  0.669189  1
  Rh  Rh22  1  0.000046  0.255248  0.830839  1
  Rh  Rh23  1  0.000046  0.744750  0.830839  1
