# generated using pymatgen
data_Tm3Zr2SnSb2
_symmetry_space_group_name_H-M   'P 1'
_cell_length_a   8.74788300
_cell_length_b   8.75593340
_cell_length_c   5.99652600
_cell_angle_alpha   90.00000000
_cell_angle_beta   90.00000000
_cell_angle_gamma   119.96959418
_symmetry_Int_Tables_number   1
_chemical_formula_structural   Tm3Zr2SnSb2
_chemical_formula_sum   'Tm6 Zr4 Sn2 Sb4'
_cell_volume   397.89524569
_cell_formula_units_Z   2
loop_
 _symmetry_equiv_pos_site_id
 _symmetry_equiv_pos_as_xyz
  1  'x, y, z'
loop_
 _atom_site_type_symbol
 _atom_site_label
 _atom_site_symmetry_multiplicity
 _atom_site_fract_x
 _atom_site_fract_y
 _atom_site_fract_z
 _atom_site_occupancy
  Tm  Tm0  1  0.244249  0.000000  0.250000  1
  Tm  Tm1  1  0.755751  0.000000  0.750000  1
  Tm  Tm2  1  0.997520  0.245102  0.250000  1
  Tm  Tm3  1  0.752418  0.754898  0.250000  1
  Tm  Tm4  1  0.247582  0.245102  0.750000  1
  Tm  Tm5  1  0.002480  0.754898  0.750000  1
  Zr  Zr6  1  0.332637  0.665276  0.000000  1
  Zr  Zr7  1  0.667363  0.334724  0.500000  1
  Zr  Zr8  1  0.667363  0.334724  0.000000  1
  Zr  Zr9  1  0.332637  0.665276  0.500000  1
  Sn  Sn10  1  0.601235  0.000000  0.250000  1
  Sn  Sn11  1  0.398765  0.000000  0.750000  1
  Sb  Sb12  1  0.999640  0.605919  0.250000  1
  Sb  Sb13  1  0.393721  0.394081  0.250000  1
  Sb  Sb14  1  0.606279  0.605919  0.750000  1
  Sb  Sb15  1  0.000360  0.394081  0.750000  1
