# generated using pymatgen
data_Pr2Er2ScSi4
_symmetry_space_group_name_H-M   'P 1'
_cell_length_a   7.35714000
_cell_length_b   7.72130600
_cell_length_c   14.64263300
_cell_angle_alpha   90.00000000
_cell_angle_beta   90.00000000
_cell_angle_gamma   90.00000000
_symmetry_Int_Tables_number   1
_chemical_formula_structural   Pr2Er2ScSi4
_chemical_formula_sum   'Pr8 Er8 Sc4 Si16'
_cell_volume   831.80008797
_cell_formula_units_Z   4
loop_
 _symmetry_equiv_pos_site_id
 _symmetry_equiv_pos_as_xyz
  1  'x, y, z'
loop_
 _atom_site_type_symbol
 _atom_site_label
 _atom_site_symmetry_multiplicity
 _atom_site_fract_x
 _atom_site_fract_y
 _atom_site_fract_z
 _atom_site_occupancy
  Pr  Pr0  1  0.016124  0.177730  0.401453  1
  Pr  Pr1  1  0.516124  0.322270  0.401453  1
  Pr  Pr2  1  0.483876  0.677730  0.901453  1
  Pr  Pr3  1  0.483876  0.677730  0.598547  1
  Pr  Pr4  1  0.983876  0.822270  0.598547  1
  Pr  Pr5  1  0.983876  0.822270  0.901453  1
  Pr  Pr6  1  0.516124  0.322270  0.098547  1
  Pr  Pr7  1  0.016124  0.177730  0.098547  1
  Er  Er8  1  0.325217  0.177553  0.624885  1
  Er  Er9  1  0.674783  0.822447  0.375115  1
  Er  Er10  1  0.174783  0.677553  0.375115  1
  Er  Er11  1  0.825217  0.322447  0.875115  1
  Er  Er12  1  0.825217  0.322447  0.624885  1
  Er  Er13  1  0.325217  0.177553  0.875115  1
  Er  Er14  1  0.174783  0.677553  0.124885  1
  Er  Er15  1  0.674783  0.822447  0.124885  1
  Sc  Sc16  1  0.657301  0.991718  0.750000  1
  Sc  Sc17  1  0.842699  0.491718  0.250000  1
  Sc  Sc18  1  0.342699  0.008282  0.250000  1
  Sc  Sc19  1  0.157301  0.508282  0.750000  1
  Si  Si20  1  0.282971  0.876086  0.750000  1
  Si  Si21  1  0.473487  0.610484  0.250000  1
  Si  Si22  1  0.026513  0.110484  0.750000  1
  Si  Si23  1  0.526513  0.389516  0.750000  1
  Si  Si24  1  0.148798  0.466926  0.539356  1
  Si  Si25  1  0.973487  0.889516  0.250000  1
  Si  Si26  1  0.717029  0.123914  0.250000  1
  Si  Si27  1  0.851202  0.533074  0.039356  1
  Si  Si28  1  0.351202  0.966926  0.039356  1
  Si  Si29  1  0.148798  0.466926  0.960644  1
  Si  Si30  1  0.648798  0.033074  0.539356  1
  Si  Si31  1  0.351202  0.966926  0.460644  1
  Si  Si32  1  0.851202  0.533074  0.460644  1
  Si  Si33  1  0.782971  0.623914  0.750000  1
  Si  Si34  1  0.217029  0.376086  0.250000  1
  Si  Si35  1  0.648798  0.033074  0.960644  1
