# generated using pymatgen
data_Tb16Al4Ru3Rh
_symmetry_space_group_name_H-M   'P 1'
_cell_length_a   9.55211010
_cell_length_b   9.59957062
_cell_length_c   9.57957841
_cell_angle_alpha   59.93056046
_cell_angle_beta   59.74142432
_cell_angle_gamma   59.83492743
_symmetry_Int_Tables_number   1
_chemical_formula_structural   Tb16Al4Ru3Rh
_chemical_formula_sum   'Tb16 Al4 Ru3 Rh1'
_cell_volume   618.80961088
_cell_formula_units_Z   1
loop_
 _symmetry_equiv_pos_site_id
 _symmetry_equiv_pos_as_xyz
  1  'x, y, z'
loop_
 _atom_site_type_symbol
 _atom_site_label
 _atom_site_symmetry_multiplicity
 _atom_site_fract_x
 _atom_site_fract_y
 _atom_site_fract_z
 _atom_site_occupancy
  Tb  Tb0  1  0.807280  0.803928  0.194766  1
  Tb  Tb1  1  0.806401  0.194095  0.805411  1
  Tb  Tb2  1  0.193323  0.196025  0.806194  1
  Tb  Tb3  1  0.649706  0.053452  0.648101  1
  Tb  Tb4  1  0.061690  0.059347  0.439389  1
  Tb  Tb5  1  0.440443  0.436495  0.061950  1
  Tb  Tb6  1  0.649712  0.648739  0.648093  1
  Tb  Tb7  1  0.807282  0.194027  0.194767  1
  Tb  Tb8  1  0.193321  0.804460  0.806192  1
  Tb  Tb9  1  0.050766  0.649845  0.649543  1
  Tb  Tb10  1  0.440443  0.061115  0.061952  1
  Tb  Tb11  1  0.440072  0.062139  0.435655  1
  Tb  Tb12  1  0.060138  0.440467  0.058931  1
  Tb  Tb13  1  0.649429  0.648580  0.053409  1
  Tb  Tb14  1  0.193189  0.804994  0.196825  1
  Tb  Tb15  1  0.061691  0.439577  0.439385  1
  Al  Al16  1  0.423671  0.423297  0.423819  1
  Al  Al17  1  0.423623  0.423288  0.729804  1
  Al  Al18  1  0.423660  0.729225  0.423794  1
  Al  Al19  1  0.730435  0.423110  0.423347  1
  Ru  Ru20  1  0.857613  0.418895  0.860383  1
  Ru  Ru21  1  0.857607  0.863110  0.860388  1
  Ru  Ru22  1  0.856789  0.861769  0.419671  1
  Rh  Rh23  1  0.421715  0.860022  0.858232  1
