# generated using pymatgen
data_DyHo5TaO12
_symmetry_space_group_name_H-M   'P 1'
_cell_length_a   6.46294929
_cell_length_b   6.46188902
_cell_length_c   6.46367814
_cell_angle_alpha   98.81012949
_cell_angle_beta   98.74051673
_cell_angle_gamma   98.79683731
_symmetry_Int_Tables_number   1
_chemical_formula_structural   DyHo5TaO12
_chemical_formula_sum   'Dy1 Ho5 Ta1 O12'
_cell_volume   259.33282642
_cell_formula_units_Z   1
loop_
 _symmetry_equiv_pos_site_id
 _symmetry_equiv_pos_as_xyz
  1  'x, y, z'
loop_
 _atom_site_type_symbol
 _atom_site_label
 _atom_site_symmetry_multiplicity
 _atom_site_fract_x
 _atom_site_fract_y
 _atom_site_fract_z
 _atom_site_occupancy
  Dy  Dy0  1  0.139407  0.303569  0.611124  1
  Ho  Ho1  1  0.389207  0.860273  0.696153  1
  Ho  Ho2  1  0.696248  0.389172  0.860932  1
  Ho  Ho3  1  0.303941  0.611285  0.139439  1
  Ho  Ho4  1  0.610932  0.139135  0.303177  1
  Ho  Ho5  1  0.860664  0.696385  0.388750  1
  Ta  Ta6  1  0.999783  0.999708  0.999834  1
  O  O7  1  0.073732  0.304091  0.959097  1
  O  O8  1  0.042062  0.926025  0.696129  1
  O  O9  1  0.414513  0.565047  0.822535  1
  O  O10  1  0.177941  0.587656  0.435327  1
  O  O11  1  0.695983  0.042053  0.926108  1
  O  O12  1  0.436900  0.177456  0.586416  1
  O  O13  1  0.564386  0.821881  0.413460  1
  O  O14  1  0.303939  0.958113  0.073869  1
  O  O15  1  0.820876  0.414080  0.564100  1
  O  O16  1  0.586307  0.435537  0.178246  1
  O  O17  1  0.956904  0.072747  0.303548  1
  O  O18  1  0.926276  0.695786  0.041755  1
