# generated using pymatgen
data_Hf6InSn5Ru12
_symmetry_space_group_name_H-M   'P 1'
_cell_length_a   4.56843700
_cell_length_b   6.44409300
_cell_length_c   13.68544700
_cell_angle_alpha   90.00000000
_cell_angle_beta   90.00042671
_cell_angle_gamma   90.00000000
_symmetry_Int_Tables_number   1
_chemical_formula_structural   Hf6InSn5Ru12
_chemical_formula_sum   'Hf6 In1 Sn5 Ru12'
_cell_volume   402.89179856
_cell_formula_units_Z   1
loop_
 _symmetry_equiv_pos_site_id
 _symmetry_equiv_pos_as_xyz
  1  'x, y, z'
loop_
 _atom_site_type_symbol
 _atom_site_label
 _atom_site_symmetry_multiplicity
 _atom_site_fract_x
 _atom_site_fract_y
 _atom_site_fract_z
 _atom_site_occupancy
  Hf  Hf0  1  0.000000  0.000000  0.000000  1
  Hf  Hf1  1  0.499962  0.500000  0.165116  1
  Hf  Hf2  1  0.000023  0.000000  0.332782  1
  Hf  Hf3  1  0.500001  0.500000  0.500000  1
  Hf  Hf4  1  0.999977  0.000000  0.667218  1
  Hf  Hf5  1  0.500036  0.500000  0.834884  1
  In  In6  1  0.000000  0.500000  0.000000  1
  Sn  Sn7  1  0.499936  0.000000  0.166182  1
  Sn  Sn8  1  0.000096  0.500000  0.333057  1
  Sn  Sn9  1  0.500001  0.000000  0.500000  1
  Sn  Sn10  1  0.999904  0.500000  0.666942  1
  Sn  Sn11  1  0.500065  0.000000  0.833818  1
  Ru  Ru12  1  0.500001  0.247983  0.000000  1
  Ru  Ru13  1  0.500001  0.752017  0.000000  1
  Ru  Ru14  1  0.999933  0.248887  0.168160  1
  Ru  Ru15  1  0.999933  0.751112  0.168160  1
  Ru  Ru16  1  0.500067  0.249812  0.333928  1
  Ru  Ru17  1  0.500067  0.750187  0.333928  1
  Ru  Ru18  1  0.000000  0.250275  0.500000  1
  Ru  Ru19  1  0.000000  0.749726  0.500000  1
  Ru  Ru20  1  0.499934  0.249812  0.666072  1
  Ru  Ru21  1  0.499934  0.750187  0.666072  1
  Ru  Ru22  1  0.000067  0.248887  0.831840  1
  Ru  Ru23  1  0.000067  0.751112  0.831840  1
