# generated using pymatgen
data_ThU3Si5GeOs7
_symmetry_space_group_name_H-M   'P 1'
_cell_length_a   7.19960446
_cell_length_b   7.19138675
_cell_length_c   7.14884212
_cell_angle_alpha   109.08342983
_cell_angle_beta   109.46244483
_cell_angle_gamma   109.70086555
_symmetry_Int_Tables_number   1
_chemical_formula_structural   ThU3Si5GeOs7
_chemical_formula_sum   'Th1 U3 Si5 Ge1 Os7'
_cell_volume   285.50710833
_cell_formula_units_Z   1
loop_
 _symmetry_equiv_pos_site_id
 _symmetry_equiv_pos_as_xyz
  1  'x, y, z'
loop_
 _atom_site_type_symbol
 _atom_site_label
 _atom_site_symmetry_multiplicity
 _atom_site_fract_x
 _atom_site_fract_y
 _atom_site_fract_z
 _atom_site_occupancy
  Th  Th0  1  0.000000  0.000143  0.496374  1
  U  U1  1  0.000000  0.496022  0.000769  1
  U  U2  1  0.504623  0.000549  0.000406  1
  U  U3  1  0.495377  0.495926  0.495784  1
  Si  Si4  1  0.683054  0.682124  0.994291  1
  Si  Si5  1  0.316946  0.999070  0.311237  1
  Si  Si6  1  0.000000  0.319878  0.315648  1
  Si  Si7  1  0.316785  0.316035  0.003516  1
  Si  Si8  1  0.683215  0.999250  0.686731  1
  Ge  Ge9  1  0.000000  0.690850  0.695755  1
  Os  Os10  1  0.743018  0.250864  0.497239  1
  Os  Os11  1  0.743425  0.488097  0.241548  1
  Os  Os12  1  0.509867  0.253792  0.753878  1
  Os  Os13  1  0.256982  0.507847  0.754221  1
  Os  Os14  1  0.256575  0.744672  0.498124  1
  Os  Os15  1  0.490133  0.743925  0.244011  1
  Os  Os16  1  0.000000  0.010956  0.010466  1
