# generated using pymatgen
data_La2SmIn2Pt3Au
_symmetry_space_group_name_H-M   'P 1'
_cell_length_a   7.73959532
_cell_length_b   7.73959577
_cell_length_c   3.98871100
_cell_angle_alpha   90.00000000
_cell_angle_beta   90.00000000
_cell_angle_gamma   118.25729409
_symmetry_Int_Tables_number   1
_chemical_formula_structural   La2SmIn2Pt3Au
_chemical_formula_sum   'La2 Sm1 In2 Pt3 Au1'
_cell_volume   210.45605946
_cell_formula_units_Z   1
loop_
 _symmetry_equiv_pos_site_id
 _symmetry_equiv_pos_as_xyz
  1  'x, y, z'
loop_
 _atom_site_type_symbol
 _atom_site_label
 _atom_site_symmetry_multiplicity
 _atom_site_fract_x
 _atom_site_fract_y
 _atom_site_fract_z
 _atom_site_occupancy
  La  La0  1  0.986621  0.599130  0.500000  1
  La  La1  1  0.599130  0.986621  0.500000  1
  Sm  Sm2  1  0.418766  0.418766  0.500000  1
  In  In3  1  0.257204  0.006121  0.000000  1
  In  In4  1  0.006121  0.257204  0.000000  1
  Pt  Pt5  1  0.658358  0.314307  0.000000  1
  Pt  Pt6  1  0.314307  0.658358  0.000000  1
  Pt  Pt7  1  0.020196  0.020196  0.500000  1
  Au  Au8  1  0.739297  0.739297  0.000000  1
