# generated using pymatgen
data_Tb3Th(HgPd2)2
_symmetry_space_group_name_H-M   'P 1'
_cell_length_a   3.76144400
_cell_length_b   7.79655752
_cell_length_c   7.79655609
_cell_angle_alpha   90.55975752
_cell_angle_beta   90.00000000
_cell_angle_gamma   90.00000000
_symmetry_Int_Tables_number   1
_chemical_formula_structural   Tb3Th(HgPd2)2
_chemical_formula_sum   'Tb3 Th1 Hg2 Pd4'
_cell_volume   228.63334452
_cell_formula_units_Z   1
loop_
 _symmetry_equiv_pos_site_id
 _symmetry_equiv_pos_as_xyz
  1  'x, y, z'
loop_
 _atom_site_type_symbol
 _atom_site_label
 _atom_site_symmetry_multiplicity
 _atom_site_fract_x
 _atom_site_fract_y
 _atom_site_fract_z
 _atom_site_occupancy
  Tb  Tb0  1  0.500000  0.824461  0.324461  1
  Tb  Tb1  1  0.500000  0.329374  0.174074  1
  Tb  Tb2  1  0.500000  0.674074  0.829374  1
  Th  Th3  1  0.500000  0.172295  0.672295  1
  Hg  Hg4  1  0.000000  0.996976  0.005888  1
  Hg  Hg5  1  0.000000  0.505888  0.496976  1
  Pd  Pd6  1  0.000000  0.625032  0.125032  1
  Pd  Pd7  1  0.000000  0.369008  0.869008  1
  Pd  Pd8  1  0.000000  0.874295  0.628596  1
  Pd  Pd9  1  0.000000  0.128596  0.374295  1
