# generated using pymatgen
data_Hf6Ti4Ga5Sb
_symmetry_space_group_name_H-M   'P 1'
_cell_length_a   7.94987300
_cell_length_b   7.94213746
_cell_length_c   5.46458300
_cell_angle_alpha   90.00000000
_cell_angle_beta   90.00000000
_cell_angle_gamma   120.03222865
_symmetry_Int_Tables_number   1
_chemical_formula_structural   Hf6Ti4Ga5Sb
_chemical_formula_sum   'Hf6 Ti4 Ga5 Sb1'
_cell_volume   298.70611720
_cell_formula_units_Z   1
loop_
 _symmetry_equiv_pos_site_id
 _symmetry_equiv_pos_as_xyz
  1  'x, y, z'
loop_
 _atom_site_type_symbol
 _atom_site_label
 _atom_site_symmetry_multiplicity
 _atom_site_fract_x
 _atom_site_fract_y
 _atom_site_fract_z
 _atom_site_occupancy
  Hf  Hf0  1  0.233095  0.000000  0.250000  1
  Hf  Hf1  1  0.760585  0.000000  0.750000  1
  Hf  Hf2  1  0.011050  0.251608  0.250000  1
  Hf  Hf3  1  0.998113  0.754452  0.750000  1
  Hf  Hf4  1  0.759442  0.748392  0.250000  1
  Hf  Hf5  1  0.243661  0.245548  0.750000  1
  Ti  Ti6  1  0.327969  0.658536  0.996530  1
  Ti  Ti7  1  0.669434  0.341464  0.996530  1
  Ti  Ti8  1  0.669434  0.341464  0.503470  1
  Ti  Ti9  1  0.327969  0.658536  0.503470  1
  Ga  Ga10  1  0.396513  0.000000  0.750000  1
  Ga  Ga11  1  0.002306  0.600708  0.250000  1
  Ga  Ga12  1  0.998246  0.397763  0.750000  1
  Ga  Ga13  1  0.401598  0.399292  0.250000  1
  Ga  Ga14  1  0.600483  0.602237  0.750000  1
  Sb  Sb15  1  0.600104  0.000000  0.250000  1
