# generated using pymatgen
data_TbTm(Co3Si2)2
_symmetry_space_group_name_H-M   'P 1'
_cell_length_a   6.22635103
_cell_length_b   6.22634996
_cell_length_c   6.22635112
_cell_angle_alpha   130.61142292
_cell_angle_beta   112.96713554
_cell_angle_gamma   87.64284512
_symmetry_Int_Tables_number   1
_chemical_formula_structural   TbTm(Co3Si2)2
_chemical_formula_sum   'Tb1 Tm1 Co6 Si4'
_cell_volume   160.70135359
_cell_formula_units_Z   1
loop_
 _symmetry_equiv_pos_site_id
 _symmetry_equiv_pos_as_xyz
  1  'x, y, z'
loop_
 _atom_site_type_symbol
 _atom_site_label
 _atom_site_symmetry_multiplicity
 _atom_site_fract_x
 _atom_site_fract_y
 _atom_site_fract_z
 _atom_site_occupancy
  Tb  Tb0  1  0.750000  0.470019  0.720019  1
  Tm  Tm1  1  0.250000  0.532235  0.282235  1
  Co  Co2  1  0.000179  0.999433  0.499613  1
  Co  Co3  1  0.499821  0.999433  0.999255  1
  Co  Co4  1  0.722893  0.998675  0.722923  1
  Co  Co5  1  0.224248  0.500029  0.722923  1
  Co  Co6  1  0.275752  0.998675  0.275781  1
  Co  Co7  1  0.777107  0.500029  0.275781  1
  Si  Si8  1  0.081698  0.875993  0.794296  1
  Si  Si9  1  0.919969  0.126408  0.206439  1
  Si  Si10  1  0.580031  0.786471  0.206439  1
  Si  Si11  1  0.418302  0.212597  0.794296  1
