# generated using pymatgen
data_Dy20Cd3Co2Au3
_symmetry_space_group_name_H-M   'P 1'
_cell_length_a   9.57179400
_cell_length_b   9.57181780
_cell_length_c   9.55664800
_cell_angle_alpha   90.00000000
_cell_angle_beta   90.00000000
_cell_angle_gamma   120.00030975
_symmetry_Int_Tables_number   1
_chemical_formula_structural   Dy20Cd3Co2Au3
_chemical_formula_sum   'Dy20 Cd3 Co2 Au3'
_cell_volume   758.26783278
_cell_formula_units_Z   1
loop_
 _symmetry_equiv_pos_site_id
 _symmetry_equiv_pos_as_xyz
  1  'x, y, z'
loop_
 _atom_site_type_symbol
 _atom_site_label
 _atom_site_symmetry_multiplicity
 _atom_site_fract_x
 _atom_site_fract_y
 _atom_site_fract_z
 _atom_site_occupancy
  Dy  Dy0  1  0.000023  0.999987  0.459281  1
  Dy  Dy1  1  0.000023  0.999987  0.040719  1
  Dy  Dy2  1  0.541013  0.458926  0.250000  1
  Dy  Dy3  1  0.541067  0.082087  0.250000  1
  Dy  Dy4  1  0.917903  0.458991  0.250000  1
  Dy  Dy5  1  0.457235  0.542737  0.750000  1
  Dy  Dy6  1  0.457285  0.914529  0.750000  1
  Dy  Dy7  1  0.085464  0.542737  0.750000  1
  Dy  Dy8  1  0.211454  0.788578  0.436164  1
  Dy  Dy9  1  0.211405  0.422860  0.436148  1
  Dy  Dy10  1  0.577144  0.788555  0.436148  1
  Dy  Dy11  1  0.789622  0.210378  0.562196  1
  Dy  Dy12  1  0.789609  0.579244  0.562205  1
  Dy  Dy13  1  0.420759  0.210385  0.562204  1
  Dy  Dy14  1  0.789622  0.210378  0.937804  1
  Dy  Dy15  1  0.789609  0.579244  0.937795  1
  Dy  Dy16  1  0.420759  0.210385  0.937796  1
  Dy  Dy17  1  0.211454  0.788578  0.063836  1
  Dy  Dy18  1  0.211405  0.422860  0.063852  1
  Dy  Dy19  1  0.577144  0.788555  0.063852  1
  Cd  Cd20  1  0.109653  0.890360  0.750000  1
  Cd  Cd21  1  0.109641  0.219277  0.750000  1
  Cd  Cd22  1  0.780727  0.890348  0.750000  1
  Co  Co23  1  0.333326  0.666679  0.250000  1
  Co  Co24  1  0.666673  0.333332  0.750000  1
  Au  Au25  1  0.869566  0.130467  0.250000  1
  Au  Au26  1  0.869496  0.739085  0.250000  1
  Au  Au27  1  0.260920  0.130472  0.250000  1
