# generated using pymatgen
data_Hf3Sc(OsRu)2
_symmetry_space_group_name_H-M   'P 1'
_cell_length_a   6.45462501
_cell_length_b   4.59236800
_cell_length_c   9.18045700
_cell_angle_alpha   90.00030574
_cell_angle_beta   89.99970292
_cell_angle_gamma   89.99486452
_symmetry_Int_Tables_number   1
_chemical_formula_structural   Hf3Sc(OsRu)2
_chemical_formula_sum   'Hf6 Sc2 Os4 Ru4'
_cell_volume   272.12722796
_cell_formula_units_Z   2
loop_
 _symmetry_equiv_pos_site_id
 _symmetry_equiv_pos_as_xyz
  1  'x, y, z'
loop_
 _atom_site_type_symbol
 _atom_site_label
 _atom_site_symmetry_multiplicity
 _atom_site_fract_x
 _atom_site_fract_y
 _atom_site_fract_z
 _atom_site_occupancy
  Hf  Hf0  1  0.500110  0.249996  0.371475  1
  Hf  Hf1  1  0.000009  0.250002  0.371477  1
  Hf  Hf2  1  0.999999  0.749996  0.625005  1
  Hf  Hf3  1  0.499893  0.750007  0.625013  1
  Hf  Hf4  1  0.999917  0.250008  0.878517  1
  Hf  Hf5  1  0.500016  0.249992  0.878528  1
  Sc  Sc6  1  0.500105  0.750032  0.124991  1
  Sc  Sc7  1  0.999955  0.750010  0.125010  1
  Os  Os8  1  0.750034  0.249998  0.125004  1
  Os  Os9  1  0.250034  0.749996  0.378494  1
  Os  Os10  1  0.749966  0.249989  0.625007  1
  Os  Os11  1  0.249965  0.749998  0.871502  1
  Ru  Ru12  1  0.250033  0.250003  0.124962  1
  Ru  Ru13  1  0.750039  0.749994  0.377825  1
  Ru  Ru14  1  0.249961  0.249995  0.624966  1
  Ru  Ru15  1  0.749965  0.749993  0.872224  1
