# generated using pymatgen
data_Dy5Ga2BiTe
_symmetry_space_group_name_H-M   'P 1'
_cell_length_a   8.71712000
_cell_length_b   8.71712161
_cell_length_c   8.04858900
_cell_angle_alpha   90.00000000
_cell_angle_beta   90.00000000
_cell_angle_gamma   125.10496733
_symmetry_Int_Tables_number   1
_chemical_formula_structural   Dy5Ga2BiTe
_chemical_formula_sum   'Dy10 Ga4 Bi2 Te2'
_cell_volume   500.34803703
_cell_formula_units_Z   2
loop_
 _symmetry_equiv_pos_site_id
 _symmetry_equiv_pos_as_xyz
  1  'x, y, z'
loop_
 _atom_site_type_symbol
 _atom_site_label
 _atom_site_symmetry_multiplicity
 _atom_site_fract_x
 _atom_site_fract_y
 _atom_site_fract_z
 _atom_site_occupancy
  Dy  Dy0  1  0.001789  0.998211  0.000000  1
  Dy  Dy1  1  0.501789  0.498211  0.500000  1
  Dy  Dy2  1  0.786262  0.540099  0.164320  1
  Dy  Dy3  1  0.459901  0.213738  0.835680  1
  Dy  Dy4  1  0.959901  0.713738  0.664320  1
  Dy  Dy5  1  0.286262  0.040099  0.335680  1
  Dy  Dy6  1  0.208483  0.458097  0.834658  1
  Dy  Dy7  1  0.541903  0.791517  0.165342  1
  Dy  Dy8  1  0.041903  0.291517  0.334658  1
  Dy  Dy9  1  0.708483  0.958097  0.665342  1
  Ga  Ga10  1  0.864212  0.866955  0.366735  1
  Ga  Ga11  1  0.133045  0.135788  0.633265  1
  Ga  Ga12  1  0.633045  0.635788  0.866735  1
  Ga  Ga13  1  0.364212  0.366955  0.133265  1
  Bi  Bi14  1  0.207944  0.792056  0.000000  1
  Bi  Bi15  1  0.707944  0.292056  0.500000  1
  Te  Te16  1  0.796461  0.203539  0.000000  1
  Te  Te17  1  0.296461  0.703539  0.500000  1
