# generated using pymatgen
data_Dy6Al3Os13O
_symmetry_space_group_name_H-M   'P 1'
_cell_length_a   8.06649955
_cell_length_b   8.04657142
_cell_length_c   8.06650000
_cell_angle_alpha   108.45052154
_cell_angle_beta   108.89164631
_cell_angle_gamma   111.18679812
_symmetry_Int_Tables_number   1
_chemical_formula_structural   Dy6Al3Os13O
_chemical_formula_sum   'Dy6 Al3 Os13 O1'
_cell_volume   402.27611020
_cell_formula_units_Z   1
loop_
 _symmetry_equiv_pos_site_id
 _symmetry_equiv_pos_as_xyz
  1  'x, y, z'
loop_
 _atom_site_type_symbol
 _atom_site_label
 _atom_site_symmetry_multiplicity
 _atom_site_fract_x
 _atom_site_fract_y
 _atom_site_fract_z
 _atom_site_occupancy
  Dy  Dy0  1  0.265980  0.000008  0.265310  1
  Dy  Dy1  1  0.998625  0.260911  0.262286  1
  Dy  Dy2  1  0.998075  0.735680  0.737606  1
  Dy  Dy3  1  0.268183  0.273457  0.005273  1
  Dy  Dy4  1  0.737051  0.734573  0.997523  1
  Dy  Dy5  1  0.734698  0.000008  0.734028  1
  Al  Al6  1  0.337932  0.986913  0.648981  1
  Al  Al7  1  0.676168  0.343828  0.340988  1
  Al  Al8  1  0.002839  0.343828  0.667660  1
  Os  Os9  1  0.006078  0.005738  0.500981  1
  Os  Os10  1  0.504757  0.005738  0.999660  1
  Os  Os11  1  0.005113  0.501533  0.012540  1
  Os  Os12  1  0.488993  0.501533  0.496420  1
  Os  Os13  1  0.658074  0.659536  0.304254  1
  Os  Os14  1  0.355282  0.659536  0.001463  1
  Os  Os15  1  0.350219  0.699337  0.349116  1
  Os  Os16  1  0.660117  0.317353  0.657237  1
  Os  Os17  1  0.345139  0.341546  0.691091  1
  Os  Os18  1  0.305619  0.644732  0.651699  1
  Os  Os19  1  0.650456  0.341546  0.996406  1
  Os  Os20  1  0.993033  0.644732  0.339112  1
  Os  Os21  1  0.657550  0.999022  0.341472  1
  O  O22  1  0.000019  0.998910  0.998891  1
