# generated using pymatgen
data_LiTb15ErCd3Co4
_symmetry_space_group_name_H-M   'P 1'
_cell_length_a   9.50876894
_cell_length_b   9.50876848
_cell_length_c   9.55402632
_cell_angle_alpha   60.05317966
_cell_angle_beta   60.05317985
_cell_angle_gamma   59.93850249
_symmetry_Int_Tables_number   1
_chemical_formula_structural   LiTb15ErCd3Co4
_chemical_formula_sum   'Li1 Tb15 Er1 Cd3 Co4'
_cell_volume   611.03494935
_cell_formula_units_Z   1
loop_
 _symmetry_equiv_pos_site_id
 _symmetry_equiv_pos_as_xyz
  1  'x, y, z'
loop_
 _atom_site_type_symbol
 _atom_site_label
 _atom_site_symmetry_multiplicity
 _atom_site_fract_x
 _atom_site_fract_y
 _atom_site_fract_z
 _atom_site_occupancy
  Li  Li0  1  0.822097  0.822097  0.532876  1
  Tb  Tb1  1  0.593816  0.593816  0.596406  1
  Tb  Tb2  1  0.188454  0.812633  0.812905  1
  Tb  Tb3  1  0.063117  0.063117  0.434683  1
  Tb  Tb4  1  0.438344  0.062586  0.059864  1
  Tb  Tb5  1  0.812633  0.188454  0.812905  1
  Tb  Tb6  1  0.435964  0.063419  0.435683  1
  Tb  Tb7  1  0.595302  0.214494  0.597043  1
  Tb  Tb8  1  0.811244  0.811244  0.188395  1
  Tb  Tb9  1  0.214494  0.595302  0.597043  1
  Tb  Tb10  1  0.810606  0.190521  0.188135  1
  Tb  Tb11  1  0.063419  0.435964  0.435683  1
  Tb  Tb12  1  0.190521  0.810606  0.188135  1
  Tb  Tb13  1  0.597031  0.597031  0.208206  1
  Tb  Tb14  1  0.187652  0.187652  0.812930  1
  Tb  Tb15  1  0.062586  0.438344  0.059864  1
  Er  Er16  1  0.439099  0.439099  0.059100  1
  Cd  Cd17  1  0.831174  0.831174  0.827096  1
  Cd  Cd18  1  0.508495  0.830620  0.828191  1
  Cd  Cd19  1  0.830620  0.508495  0.828191  1
  Co  Co20  1  0.391618  0.391618  0.388763  1
  Co  Co21  1  0.828052  0.391878  0.390084  1
  Co  Co22  1  0.391878  0.828052  0.390084  1
  Co  Co23  1  0.391784  0.391784  0.827736  1
