# generated using pymatgen
data_Li4Tb3NpSi8
_symmetry_space_group_name_H-M   'P 1'
_cell_length_a   3.81648300
_cell_length_b   7.66758584
_cell_length_c   10.26104400
_cell_angle_alpha   90.08698702
_cell_angle_beta   90.00000000
_cell_angle_gamma   90.00000000
_symmetry_Int_Tables_number   1
_chemical_formula_structural   Li4Tb3NpSi8
_chemical_formula_sum   'Li4 Tb3 Np1 Si8'
_cell_volume   300.27074956
_cell_formula_units_Z   1
loop_
 _symmetry_equiv_pos_site_id
 _symmetry_equiv_pos_as_xyz
  1  'x, y, z'
loop_
 _atom_site_type_symbol
 _atom_site_label
 _atom_site_symmetry_multiplicity
 _atom_site_fract_x
 _atom_site_fract_y
 _atom_site_fract_z
 _atom_site_occupancy
  Li  Li0  1  0.250000  0.989324  0.392669  1
  Li  Li1  1  0.250000  0.489853  0.105764  1
  Li  Li2  1  0.750000  0.010577  0.608135  1
  Li  Li3  1  0.750000  0.509797  0.893344  1
  Tb  Tb4  1  0.250000  0.136887  0.864038  1
  Tb  Tb5  1  0.250000  0.635658  0.635237  1
  Tb  Tb6  1  0.750000  0.865532  0.135555  1
  Np  Np7  1  0.750000  0.362051  0.362659  1
  Si  Si8  1  0.250000  0.239074  0.565043  1
  Si  Si9  1  0.250000  0.734688  0.932227  1
  Si  Si10  1  0.750000  0.766068  0.430802  1
  Si  Si11  1  0.750000  0.264564  0.069074  1
  Si  Si12  1  0.250000  0.652669  0.320449  1
  Si  Si13  1  0.250000  0.162563  0.184602  1
  Si  Si14  1  0.750000  0.339381  0.681756  1
  Si  Si15  1  0.750000  0.841315  0.818646  1
