# generated using pymatgen
data_Hf10AlSn5Sb2
_symmetry_space_group_name_H-M   'P 1'
_cell_length_a   5.86749957
_cell_length_b   8.72842762
_cell_length_c   8.72037216
_cell_angle_alpha   120.03056395
_cell_angle_beta   89.98040120
_cell_angle_gamma   90.03915946
_symmetry_Int_Tables_number   1
_chemical_formula_structural   Hf10AlSn5Sb2
_chemical_formula_sum   'Hf10 Al1 Sn5 Sb2'
_cell_volume   386.65247462
_cell_formula_units_Z   1
loop_
 _symmetry_equiv_pos_site_id
 _symmetry_equiv_pos_as_xyz
  1  'x, y, z'
loop_
 _atom_site_type_symbol
 _atom_site_label
 _atom_site_symmetry_multiplicity
 _atom_site_fract_x
 _atom_site_fract_y
 _atom_site_fract_z
 _atom_site_occupancy
  Hf  Hf0  1  0.499314  0.333728  0.667023  1
  Hf  Hf1  1  0.499314  0.666705  0.332977  1
  Hf  Hf2  1  0.000472  0.666622  0.332673  1
  Hf  Hf3  1  0.000472  0.333949  0.667327  1
  Hf  Hf4  1  0.737443  0.277230  0.000000  1
  Hf  Hf5  1  0.737062  0.723590  0.724121  1
  Hf  Hf6  1  0.737062  0.999469  0.275879  1
  Hf  Hf7  1  0.262630  0.721819  0.000000  1
  Hf  Hf8  1  0.263404  0.277708  0.277683  1
  Hf  Hf9  1  0.263404  0.000025  0.722317  1
  Al  Al10  1  0.498745  0.000609  0.000000  1
  Sn  Sn11  1  0.754640  0.388400  0.388289  1
  Sn  Sn12  1  0.754640  0.000111  0.611711  1
  Sn  Sn13  1  0.245961  0.386480  0.000000  1
  Sn  Sn14  1  0.245409  0.612607  0.612108  1
  Sn  Sn15  1  0.245409  0.000499  0.387892  1
  Sb  Sb16  1  0.753352  0.610084  0.000000  1
  Sb  Sb17  1  0.001267  0.000367  0.000000  1
