# generated using pymatgen
data_LiNd3Cd3Au2
_symmetry_space_group_name_H-M   'P 1'
_cell_length_a   8.06082300
_cell_length_b   8.06082319
_cell_length_c   3.92749800
_cell_angle_alpha   90.00000000
_cell_angle_beta   90.00000000
_cell_angle_gamma   119.99999512
_symmetry_Int_Tables_number   1
_chemical_formula_structural   LiNd3Cd3Au2
_chemical_formula_sum   'Li1 Nd3 Cd3 Au2'
_cell_volume   221.00668264
_cell_formula_units_Z   1
loop_
 _symmetry_equiv_pos_site_id
 _symmetry_equiv_pos_as_xyz
  1  'x, y, z'
loop_
 _atom_site_type_symbol
 _atom_site_label
 _atom_site_symmetry_multiplicity
 _atom_site_fract_x
 _atom_site_fract_y
 _atom_site_fract_z
 _atom_site_occupancy
  Li  Li0  1  0.000000  0.000000  0.000000  1
  Nd  Nd1  1  0.580408  0.000000  0.000000  1
  Nd  Nd2  1  0.000000  0.580408  0.000000  1
  Nd  Nd3  1  0.419592  0.419592  0.000000  1
  Cd  Cd4  1  0.244452  0.000000  0.500000  1
  Cd  Cd5  1  0.000000  0.244452  0.500000  1
  Cd  Cd6  1  0.755548  0.755548  0.500000  1
  Au  Au7  1  0.333333  0.666667  0.500000  1
  Au  Au8  1  0.666667  0.333333  0.500000  1
