# generated using pymatgen
data_Tb4Fe6Co7P12Ru7
_symmetry_space_group_name_H-M   'P 1'
_cell_length_a   3.74861100
_cell_length_b   10.40956523
_cell_length_c   11.94320975
_cell_angle_alpha   89.95024744
_cell_angle_beta   90.00000000
_cell_angle_gamma   90.00000000
_symmetry_Int_Tables_number   1
_chemical_formula_structural   Tb4Fe6Co7P12Ru7
_chemical_formula_sum   'Tb4 Fe6 Co7 P12 Ru7'
_cell_volume   466.04071738
_cell_formula_units_Z   1
loop_
 _symmetry_equiv_pos_site_id
 _symmetry_equiv_pos_as_xyz
  1  'x, y, z'
loop_
 _atom_site_type_symbol
 _atom_site_label
 _atom_site_symmetry_multiplicity
 _atom_site_fract_x
 _atom_site_fract_y
 _atom_site_fract_z
 _atom_site_occupancy
  Tb  Tb0  1  0.250000  0.583561  0.708649  1
  Tb  Tb1  1  0.250000  0.916204  0.205490  1
  Tb  Tb2  1  0.750000  0.419010  0.290671  1
  Tb  Tb3  1  0.750000  0.080124  0.791567  1
  Fe  Fe4  1  0.250000  0.878919  0.700220  1
  Fe  Fe5  1  0.250000  0.621420  0.199602  1
  Fe  Fe6  1  0.250000  0.462973  0.932828  1
  Fe  Fe7  1  0.250000  0.038211  0.432492  1
  Fe  Fe8  1  0.750000  0.538814  0.064031  1
  Fe  Fe9  1  0.750000  0.962146  0.564105  1
  Co  Co10  1  0.750000  0.901143  0.014921  1
  Co  Co11  1  0.250000  0.227696  0.176450  1
  Co  Co12  1  0.250000  0.271595  0.677382  1
  Co  Co13  1  0.750000  0.775693  0.828261  1
  Co  Co14  1  0.750000  0.727930  0.323693  1
  Co  Co15  1  0.750000  0.118194  0.297661  1
  Co  Co16  1  0.750000  0.379291  0.799492  1
  P  P17  1  0.250000  0.429751  0.113141  1
  P  P18  1  0.250000  0.070659  0.613032  1
  P  P19  1  0.750000  0.574610  0.886582  1
  P  P20  1  0.750000  0.925725  0.386418  1
  P  P21  1  0.250000  0.270939  0.863940  1
  P  P22  1  0.250000  0.228329  0.362549  1
  P  P23  1  0.750000  0.728527  0.137328  1
  P  P24  1  0.750000  0.774677  0.640537  1
  P  P25  1  0.250000  0.602492  0.386055  1
  P  P26  1  0.250000  0.897982  0.887241  1
  P  P27  1  0.750000  0.397140  0.612624  1
  P  P28  1  0.750000  0.099633  0.111190  1
  Ru  Ru29  1  0.250000  0.708465  0.987104  1
  Ru  Ru30  1  0.250000  0.797114  0.483235  1
  Ru  Ru31  1  0.750000  0.295095  0.015264  1
  Ru  Ru32  1  0.750000  0.202974  0.514596  1
  Ru  Ru33  1  0.250000  0.402270  0.487037  1
  Ru  Ru34  1  0.250000  0.092222  0.989209  1
  Ru  Ru35  1  0.750000  0.598468  0.515407  1
