# generated using pymatgen
data_Na2GePRh2
_symmetry_space_group_name_H-M   'P 1'
_cell_length_a   4.07203100
_cell_length_b   4.07203100
_cell_length_c   6.83585000
_cell_angle_alpha   90.00000000
_cell_angle_beta   90.00000000
_cell_angle_gamma   90.00000000
_symmetry_Int_Tables_number   1
_chemical_formula_structural   Na2GePRh2
_chemical_formula_sum   'Na2 Ge1 P1 Rh2'
_cell_volume   113.34821246
_cell_formula_units_Z   1
loop_
 _symmetry_equiv_pos_site_id
 _symmetry_equiv_pos_as_xyz
  1  'x, y, z'
loop_
 _atom_site_type_symbol
 _atom_site_label
 _atom_site_symmetry_multiplicity
 _atom_site_fract_x
 _atom_site_fract_y
 _atom_site_fract_z
 _atom_site_occupancy
  Na  Na0  1  0.000000  0.499999  0.354583  1
  Na  Na1  1  0.499999  0.000000  0.651436  1
  Ge  Ge2  1  0.499999  0.000000  0.201631  1
  P  P3  1  0.000000  0.499999  0.816121  1
  Rh  Rh4  1  0.000000  0.000000  0.988115  1
  Rh  Rh5  1  0.499999  0.499999  0.988115  1
