# generated using pymatgen
data_ErTm7GaPd24
_symmetry_space_group_name_H-M   'P 1'
_cell_length_a   8.32954101
_cell_length_b   8.32954101
_cell_length_c   8.32954100
_cell_angle_alpha   89.99781260
_cell_angle_beta   89.99781260
_cell_angle_gamma   89.99781251
_symmetry_Int_Tables_number   1
_chemical_formula_structural   ErTm7GaPd24
_chemical_formula_sum   'Er1 Tm7 Ga1 Pd24'
_cell_volume   577.91399375
_cell_formula_units_Z   1
loop_
 _symmetry_equiv_pos_site_id
 _symmetry_equiv_pos_as_xyz
  1  'x, y, z'
loop_
 _atom_site_type_symbol
 _atom_site_label
 _atom_site_symmetry_multiplicity
 _atom_site_fract_x
 _atom_site_fract_y
 _atom_site_fract_z
 _atom_site_occupancy
  Er  Er0  1  0.251585  0.251585  0.251585  1
  Tm  Tm1  1  0.251563  0.251563  0.748439  1
  Tm  Tm2  1  0.251563  0.748439  0.251563  1
  Tm  Tm3  1  0.748439  0.251563  0.251563  1
  Tm  Tm4  1  0.748426  0.748426  0.748426  1
  Tm  Tm5  1  0.748439  0.748439  0.251556  1
  Tm  Tm6  1  0.748439  0.251556  0.748439  1
  Tm  Tm7  1  0.251556  0.748439  0.748439  1
  Ga  Ga8  1  0.999980  0.999980  0.999980  1
  Pd  Pd9  1  0.499980  0.499980  0.747286  1
  Pd  Pd10  1  0.500226  0.252721  0.500226  1
  Pd  Pd11  1  0.252721  0.500226  0.500226  1
  Pd  Pd12  1  0.500226  0.500226  0.252721  1
  Pd  Pd13  1  0.499980  0.747286  0.499980  1
  Pd  Pd14  1  0.747286  0.499980  0.499980  1
  Pd  Pd15  1  0.000029  0.000029  0.708833  1
  Pd  Pd16  1  0.999794  0.291163  0.999794  1
  Pd  Pd17  1  0.291163  0.999794  0.999794  1
  Pd  Pd18  1  0.999794  0.999794  0.291163  1
  Pd  Pd19  1  0.000029  0.708833  0.000029  1
  Pd  Pd20  1  0.708833  0.000029  0.000029  1
  Pd  Pd21  1  0.000013  0.499969  0.739858  1
  Pd  Pd22  1  0.500226  0.260115  0.999792  1
  Pd  Pd23  1  0.260115  0.999792  0.500226  1
  Pd  Pd24  1  0.999792  0.260115  0.500226  1
  Pd  Pd25  1  0.499969  0.000013  0.739858  1
  Pd  Pd26  1  0.260115  0.500226  0.999792  1
  Pd  Pd27  1  0.999792  0.500226  0.260115  1
  Pd  Pd28  1  0.499969  0.739858  0.000013  1
  Pd  Pd29  1  0.000013  0.739858  0.499969  1
  Pd  Pd30  1  0.500226  0.999792  0.260115  1
  Pd  Pd31  1  0.739858  0.000013  0.499969  1
  Pd  Pd32  1  0.739858  0.499969  0.000013  1
