# generated using pymatgen
data_LiZr6Co2Os3
_symmetry_space_group_name_H-M   'P 1'
_cell_length_a   4.62867800
_cell_length_b   6.52674400
_cell_length_c   13.91621300
_cell_angle_alpha   90.00000000
_cell_angle_beta   89.99964966
_cell_angle_gamma   90.00000000
_symmetry_Int_Tables_number   1
_chemical_formula_structural   LiZr6Co2Os3
_chemical_formula_sum   'Li2 Zr12 Co4 Os6'
_cell_volume   420.41152738
_cell_formula_units_Z   2
loop_
 _symmetry_equiv_pos_site_id
 _symmetry_equiv_pos_as_xyz
  1  'x, y, z'
loop_
 _atom_site_type_symbol
 _atom_site_label
 _atom_site_symmetry_multiplicity
 _atom_site_fract_x
 _atom_site_fract_y
 _atom_site_fract_z
 _atom_site_occupancy
  Li  Li0  1  0.000349  0.500000  0.666773  1
  Li  Li1  1  0.500347  0.000000  0.833225  1
  Zr  Zr2  1  0.499991  0.251884  0.002744  1
  Zr  Zr3  1  0.499991  0.748117  0.002744  1
  Zr  Zr4  1  0.999827  0.249244  0.167510  1
  Zr  Zr5  1  0.999827  0.750756  0.167510  1
  Zr  Zr6  1  0.499828  0.250750  0.332498  1
  Zr  Zr7  1  0.499828  0.749250  0.332498  1
  Zr  Zr8  1  0.999993  0.248115  0.497257  1
  Zr  Zr9  1  0.999993  0.751884  0.497257  1
  Zr  Zr10  1  0.500173  0.248808  0.664327  1
  Zr  Zr11  1  0.500173  0.751192  0.664327  1
  Zr  Zr12  1  0.000173  0.251196  0.835666  1
  Zr  Zr13  1  0.000173  0.748804  0.835666  1
  Co  Co14  1  0.999979  0.500000  0.001218  1
  Co  Co15  1  0.499725  0.000000  0.166453  1
  Co  Co16  1  0.999725  0.500000  0.333551  1
  Co  Co17  1  0.499979  0.000000  0.498782  1
  Os  Os18  1  0.999986  0.000000  0.999630  1
  Os  Os19  1  0.499802  0.500000  0.167067  1
  Os  Os20  1  0.999803  0.000000  0.332942  1
  Os  Os21  1  0.499985  0.500000  0.500372  1
  Os  Os22  1  0.000173  0.000000  0.667443  1
  Os  Os23  1  0.500174  0.500000  0.832545  1
