# generated using pymatgen
data_NaNb4O8
_symmetry_space_group_name_H-M   'P 1'
_cell_length_a   7.16857097
_cell_length_b   7.16857069
_cell_length_c   9.76461324
_cell_angle_alpha   86.11121057
_cell_angle_beta   93.88878619
_cell_angle_gamma   85.99247428
_symmetry_Int_Tables_number   1
_chemical_formula_structural   NaNb4O8
_chemical_formula_sum   'Na3 Nb12 O24'
_cell_volume   498.07948695
_cell_formula_units_Z   3
loop_
 _symmetry_equiv_pos_site_id
 _symmetry_equiv_pos_as_xyz
  1  'x, y, z'
loop_
 _atom_site_type_symbol
 _atom_site_label
 _atom_site_symmetry_multiplicity
 _atom_site_fract_x
 _atom_site_fract_y
 _atom_site_fract_z
 _atom_site_occupancy
  Na  Na0  1  0.617987  0.382013  0.115254  1
  Na  Na1  1  0.907643  0.092357  0.406338  1
  Na  Na2  1  0.380076  0.619924  0.883313  1
  Nb  Nb3  1  0.101325  0.898675  0.100307  1
  Nb  Nb4  1  0.601414  0.398586  0.602880  1
  Nb  Nb5  1  0.396413  0.603587  0.397613  1
  Nb  Nb6  1  0.899247  0.100753  0.897147  1
  Nb  Nb7  1  0.595122  0.836548  0.618587  1
  Nb  Nb8  1  0.104291  0.330958  0.113515  1
  Nb  Nb9  1  0.669042  0.895709  0.113515  1
  Nb  Nb10  1  0.163453  0.404878  0.618587  1
  Nb  Nb11  1  0.329611  0.104571  0.884829  1
  Nb  Nb12  1  0.836273  0.598210  0.382626  1
  Nb  Nb13  1  0.401790  0.163727  0.382626  1
  Nb  Nb14  1  0.895429  0.670389  0.884829  1
  O  O15  1  0.585932  0.082528  0.249917  1
  O  O16  1  0.080740  0.578379  0.753001  1
  O  O17  1  0.421621  0.919260  0.753001  1
  O  O18  1  0.917472  0.414068  0.249917  1
  O  O19  1  0.808903  0.810355  0.499159  1
  O  O20  1  0.325694  0.325811  0.999666  1
  O  O21  1  0.189645  0.191097  0.499159  1
  O  O22  1  0.674189  0.674306  0.999666  1
  O  O23  1  0.177467  0.091952  0.234024  1
  O  O24  1  0.675607  0.593252  0.733062  1
  O  O25  1  0.131194  0.595594  0.453805  1
  O  O26  1  0.631901  0.099948  0.959240  1
  O  O27  1  0.092111  0.181970  0.767108  1
  O  O28  1  0.593633  0.674994  0.266376  1
  O  O29  1  0.599561  0.132212  0.543731  1
  O  O30  1  0.099064  0.631426  0.041178  1
  O  O31  1  0.818030  0.907889  0.767108  1
  O  O32  1  0.325006  0.406367  0.266376  1
  O  O33  1  0.867788  0.400439  0.543731  1
  O  O34  1  0.368574  0.900936  0.041178  1
  O  O35  1  0.908048  0.822533  0.234024  1
  O  O36  1  0.406748  0.324393  0.733062  1
  O  O37  1  0.404406  0.868806  0.453805  1
  O  O38  1  0.900052  0.368099  0.959240  1
