# generated using pymatgen
data_TbCo2(PRu)3
_symmetry_space_group_name_H-M   'P 1'
_cell_length_a   3.79271400
_cell_length_b   10.62966200
_cell_length_c   12.12998800
_cell_angle_alpha   90.00000000
_cell_angle_beta   90.00000000
_cell_angle_gamma   90.00000000
_symmetry_Int_Tables_number   1
_chemical_formula_structural   TbCo2(PRu)3
_chemical_formula_sum   'Tb4 Co8 P12 Ru12'
_cell_volume   489.02371563
_cell_formula_units_Z   4
loop_
 _symmetry_equiv_pos_site_id
 _symmetry_equiv_pos_as_xyz
  1  'x, y, z'
loop_
 _atom_site_type_symbol
 _atom_site_label
 _atom_site_symmetry_multiplicity
 _atom_site_fract_x
 _atom_site_fract_y
 _atom_site_fract_z
 _atom_site_occupancy
  Tb  Tb0  1  0.250000  0.584458  0.706622  1
  Tb  Tb1  1  0.250000  0.915542  0.206622  1
  Tb  Tb2  1  0.750000  0.415542  0.293378  1
  Tb  Tb3  1  0.750000  0.084458  0.793378  1
  Co  Co4  1  0.250000  0.887565  0.695793  1
  Co  Co5  1  0.250000  0.612435  0.195793  1
  Co  Co6  1  0.750000  0.112435  0.304207  1
  Co  Co7  1  0.750000  0.387565  0.804207  1
  Co  Co8  1  0.250000  0.462836  0.935037  1
  Co  Co9  1  0.250000  0.037164  0.435037  1
  Co  Co10  1  0.750000  0.537164  0.064963  1
  Co  Co11  1  0.750000  0.962836  0.564963  1
  P  P12  1  0.250000  0.425565  0.112381  1
  P  P13  1  0.250000  0.074435  0.612381  1
  P  P14  1  0.750000  0.574435  0.887619  1
  P  P15  1  0.750000  0.925565  0.387619  1
  P  P16  1  0.250000  0.272261  0.870999  1
  P  P17  1  0.250000  0.227739  0.370999  1
  P  P18  1  0.750000  0.727739  0.129001  1
  P  P19  1  0.750000  0.772261  0.629001  1
  P  P20  1  0.250000  0.601496  0.387655  1
  P  P21  1  0.250000  0.898504  0.887655  1
  P  P22  1  0.750000  0.398504  0.612345  1
  P  P23  1  0.750000  0.101496  0.112345  1
  Ru  Ru24  1  0.250000  0.706208  0.986408  1
  Ru  Ru25  1  0.250000  0.793792  0.486408  1
  Ru  Ru26  1  0.750000  0.293792  0.013592  1
  Ru  Ru27  1  0.750000  0.206208  0.513592  1
  Ru  Ru28  1  0.250000  0.405209  0.485871  1
  Ru  Ru29  1  0.250000  0.094791  0.985871  1
  Ru  Ru30  1  0.750000  0.594791  0.514129  1
  Ru  Ru31  1  0.750000  0.905209  0.014129  1
  Ru  Ru32  1  0.250000  0.223504  0.179960  1
  Ru  Ru33  1  0.250000  0.276496  0.679960  1
  Ru  Ru34  1  0.750000  0.776496  0.820040  1
  Ru  Ru35  1  0.750000  0.723504  0.320040  1
