# generated using pymatgen
data_ErZr5(SiRu)6
_symmetry_space_group_name_H-M   'P 1'
_cell_length_a   7.72324510
_cell_length_b   7.68383249
_cell_length_c   7.72324419
_cell_angle_alpha   127.74936084
_cell_angle_beta   122.72377504
_cell_angle_gamma   81.34748451
_symmetry_Int_Tables_number   1
_chemical_formula_structural   ErZr5(SiRu)6
_chemical_formula_sum   'Er1 Zr5 Si6 Ru6'
_cell_volume   293.44144271
_cell_formula_units_Z   1
loop_
 _symmetry_equiv_pos_site_id
 _symmetry_equiv_pos_as_xyz
  1  'x, y, z'
loop_
 _atom_site_type_symbol
 _atom_site_label
 _atom_site_symmetry_multiplicity
 _atom_site_fract_x
 _atom_site_fract_y
 _atom_site_fract_z
 _atom_site_occupancy
  Er  Er0  1  0.963949  0.683791  0.219842  1
  Zr  Zr1  1  0.449709  0.653050  0.703341  1
  Zr  Zr2  1  0.549466  0.256574  0.207108  1
  Zr  Zr3  1  0.753549  0.842344  0.588795  1
  Zr  Zr4  1  0.248706  0.835630  0.086925  1
  Zr  Zr5  1  0.037879  0.258469  0.720588  1
  Si  Si6  1  0.232881  0.226718  0.493837  1
  Si  Si7  1  0.761129  0.263446  0.002318  1
  Si  Si8  1  0.341282  0.587765  0.259608  1
  Si  Si9  1  0.660663  0.924640  0.250522  1
  Si  Si10  1  0.174117  0.924640  0.763977  1
  Si  Si11  1  0.828157  0.587765  0.746483  1
  Ru  Ru12  1  0.494712  0.496013  0.992033  1
  Ru  Ru13  1  0.003980  0.496013  0.501301  1
  Ru  Ru14  1  0.136802  0.252268  0.145513  1
  Ru  Ru15  1  0.857267  0.009105  0.110108  1
  Ru  Ru16  1  0.398997  0.009105  0.651838  1
  Ru  Ru17  1  0.606757  0.252268  0.615468  1
