# generated using pymatgen
data_Ho3ErReOs7
_symmetry_space_group_name_H-M   'P 1'
_cell_length_a   5.29188777
_cell_length_b   5.29188833
_cell_length_c   8.81503802
_cell_angle_alpha   90.00734052
_cell_angle_beta   89.99266058
_cell_angle_gamma   118.30970843
_symmetry_Int_Tables_number   1
_chemical_formula_structural   Ho3ErReOs7
_chemical_formula_sum   'Ho3 Er1 Re1 Os7'
_cell_volume   217.33218187
_cell_formula_units_Z   1
loop_
 _symmetry_equiv_pos_site_id
 _symmetry_equiv_pos_as_xyz
  1  'x, y, z'
loop_
 _atom_site_type_symbol
 _atom_site_label
 _atom_site_symmetry_multiplicity
 _atom_site_fract_x
 _atom_site_fract_y
 _atom_site_fract_z
 _atom_site_occupancy
  Ho  Ho0  1  0.330767  0.669233  0.435723  1
  Ho  Ho1  1  0.666234  0.333766  0.565805  1
  Ho  Ho2  1  0.666169  0.333831  0.934255  1
  Er  Er3  1  0.330535  0.669465  0.064425  1
  Re  Re4  1  0.833915  0.166085  0.249477  1
  Os  Os5  1  0.993350  0.006650  0.499842  1
  Os  Os6  1  0.993359  0.006641  0.000183  1
  Os  Os7  1  0.827690  0.649425  0.249589  1
  Os  Os8  1  0.350575  0.172310  0.249589  1
  Os  Os9  1  0.175821  0.824179  0.750318  1
  Os  Os10  1  0.171797  0.340212  0.750396  1
  Os  Os11  1  0.659788  0.828203  0.750396  1
