# generated using pymatgen
data_Dy6Y14Cd6TcRu
_symmetry_space_group_name_H-M   'P 1'
_cell_length_a   9.60836724
_cell_length_b   9.60836668
_cell_length_c   9.92335545
_cell_angle_alpha   90.05350669
_cell_angle_beta   89.94649167
_cell_angle_gamma   119.97666823
_symmetry_Int_Tables_number   1
_chemical_formula_structural   Dy6Y14Cd6TcRu
_chemical_formula_sum   'Dy6 Y14 Cd6 Tc1 Ru1'
_cell_volume   793.57896321
_cell_formula_units_Z   1
loop_
 _symmetry_equiv_pos_site_id
 _symmetry_equiv_pos_as_xyz
  1  'x, y, z'
loop_
 _atom_site_type_symbol
 _atom_site_label
 _atom_site_symmetry_multiplicity
 _atom_site_fract_x
 _atom_site_fract_y
 _atom_site_fract_z
 _atom_site_occupancy
  Dy  Dy0  1  0.999776  0.000224  0.499886  1
  Dy  Dy1  1  0.999986  0.000014  0.999962  1
  Dy  Dy2  1  0.209998  0.790002  0.441030  1
  Dy  Dy3  1  0.209901  0.420096  0.441042  1
  Dy  Dy4  1  0.579904  0.790099  0.441042  1
  Dy  Dy5  1  0.789712  0.210288  0.559655  1
  Y  Y6  1  0.790209  0.580277  0.558807  1
  Y  Y7  1  0.419723  0.209791  0.558807  1
  Y  Y8  1  0.790175  0.209825  0.940888  1
  Y  Y9  1  0.789996  0.580116  0.940947  1
  Y  Y10  1  0.419884  0.210004  0.940947  1
  Y  Y11  1  0.209786  0.790214  0.058646  1
  Y  Y12  1  0.209750  0.419506  0.058661  1
  Y  Y13  1  0.580494  0.790250  0.058661  1
  Y  Y14  1  0.539894  0.460106  0.250133  1
  Y  Y15  1  0.540014  0.079922  0.250325  1
  Y  Y16  1  0.920078  0.459986  0.250325  1
  Y  Y17  1  0.458643  0.541357  0.749712  1
  Y  Y18  1  0.458820  0.917512  0.749558  1
  Y  Y19  1  0.082488  0.541180  0.749558  1
  Cd  Cd20  1  0.885581  0.114419  0.249813  1
  Cd  Cd21  1  0.885542  0.771114  0.249908  1
  Cd  Cd22  1  0.228886  0.114458  0.249908  1
  Cd  Cd23  1  0.114255  0.885745  0.750037  1
  Cd  Cd24  1  0.114348  0.228517  0.750195  1
  Cd  Cd25  1  0.771483  0.885652  0.750195  1
  Tc  Tc26  1  0.333365  0.666635  0.252283  1
  Ru  Ru27  1  0.667312  0.332688  0.749068  1
