# generated using pymatgen
data_Pr8GeAuBr12
_symmetry_space_group_name_H-M   'P 1'
_cell_length_a   4.28535000
_cell_length_b   13.92653974
_cell_length_c   14.77949043
_cell_angle_alpha   90.16615617
_cell_angle_beta   90.00000000
_cell_angle_gamma   90.00000000
_symmetry_Int_Tables_number   1
_chemical_formula_structural   Pr8GeAuBr12
_chemical_formula_sum   'Pr8 Ge1 Au1 Br12'
_cell_volume   882.03771472
_cell_formula_units_Z   1
loop_
 _symmetry_equiv_pos_site_id
 _symmetry_equiv_pos_as_xyz
  1  'x, y, z'
loop_
 _atom_site_type_symbol
 _atom_site_label
 _atom_site_symmetry_multiplicity
 _atom_site_fract_x
 _atom_site_fract_y
 _atom_site_fract_z
 _atom_site_occupancy
  Pr  Pr0  1  0.500000  0.121561  0.336830  1
  Pr  Pr1  1  0.500000  0.878439  0.663170  1
  Pr  Pr2  1  0.500000  0.619176  0.160343  1
  Pr  Pr3  1  0.500000  0.380824  0.839657  1
  Pr  Pr4  1  0.000000  0.121101  0.580280  1
  Pr  Pr5  1  0.000000  0.878899  0.419720  1
  Pr  Pr6  1  0.000000  0.619510  0.921053  1
  Pr  Pr7  1  0.000000  0.380490  0.078947  1
  Ge  Ge8  1  0.500000  0.500000  0.000000  1
  Au  Au9  1  0.500000  0.000000  0.500000  1
  Br  Br10  1  0.500000  0.245552  0.161378  1
  Br  Br11  1  0.500000  0.754448  0.838622  1
  Br  Br12  1  0.500000  0.742130  0.336027  1
  Br  Br13  1  0.500000  0.257870  0.663973  1
  Br  Br14  1  0.000000  0.253531  0.410354  1
  Br  Br15  1  0.000000  0.746469  0.589646  1
  Br  Br16  1  0.000000  0.752005  0.089205  1
  Br  Br17  1  0.000000  0.247995  0.910795  1
  Br  Br18  1  0.000000  0.002736  0.245032  1
  Br  Br19  1  0.000000  0.997264  0.754968  1
  Br  Br20  1  0.000000  0.502577  0.253472  1
  Br  Br21  1  0.000000  0.497423  0.746528  1
