# generated using pymatgen
data_SmMoN2
_symmetry_space_group_name_H-M   'P 1'
_cell_length_a   3.27496000
_cell_length_b   5.81744500
_cell_length_c   10.73494400
_cell_angle_alpha   90.00000000
_cell_angle_beta   90.00000000
_cell_angle_gamma   90.00000000
_symmetry_Int_Tables_number   1
_chemical_formula_structural   SmMoN2
_chemical_formula_sum   'Sm4 Mo4 N8'
_cell_volume   204.52107613
_cell_formula_units_Z   4
loop_
 _symmetry_equiv_pos_site_id
 _symmetry_equiv_pos_as_xyz
  1  'x, y, z'
loop_
 _atom_site_type_symbol
 _atom_site_label
 _atom_site_symmetry_multiplicity
 _atom_site_fract_x
 _atom_site_fract_y
 _atom_site_fract_z
 _atom_site_occupancy
  Sm  Sm0  1  0.250000  0.579861  0.854586  1
  Sm  Sm1  1  0.750000  0.420139  0.145414  1
  Sm  Sm2  1  0.750000  0.920139  0.354586  1
  Sm  Sm3  1  0.250000  0.079861  0.645414  1
  Mo  Mo4  1  0.250000  0.936129  0.093009  1
  Mo  Mo5  1  0.750000  0.063871  0.906991  1
  Mo  Mo6  1  0.750000  0.563871  0.593009  1
  Mo  Mo7  1  0.250000  0.436129  0.406991  1
  N  N8  1  0.250000  0.663064  0.252073  1
  N  N9  1  0.750000  0.336936  0.747927  1
  N  N10  1  0.750000  0.836936  0.752073  1
  N  N11  1  0.250000  0.163064  0.247927  1
  N  N12  1  0.250000  0.749312  0.509767  1
  N  N13  1  0.750000  0.250688  0.490233  1
  N  N14  1  0.750000  0.750688  0.009767  1
  N  N15  1  0.250000  0.249312  0.990233  1
