# generated using pymatgen
data_Ca2Pr(BPt2)3
_symmetry_space_group_name_H-M   'P 1'
_cell_length_a   5.51939456
_cell_length_b   5.51939498
_cell_length_c   7.69325300
_cell_angle_alpha   90.00000000
_cell_angle_beta   90.00000000
_cell_angle_gamma   120.20175853
_symmetry_Int_Tables_number   1
_chemical_formula_structural   Ca2Pr(BPt2)3
_chemical_formula_sum   'Ca2 Pr1 B3 Pt6'
_cell_volume   202.55222723
_cell_formula_units_Z   1
loop_
 _symmetry_equiv_pos_site_id
 _symmetry_equiv_pos_as_xyz
  1  'x, y, z'
loop_
 _atom_site_type_symbol
 _atom_site_label
 _atom_site_symmetry_multiplicity
 _atom_site_fract_x
 _atom_site_fract_y
 _atom_site_fract_z
 _atom_site_occupancy
  Ca  Ca0  1  0.500000  0.000000  0.495855  1
  Ca  Ca1  1  0.000000  0.500000  0.170812  1
  Pr  Pr2  1  0.500000  0.500000  0.833333  1
  B  B3  1  0.500000  0.000000  0.004340  1
  B  B4  1  0.000000  0.500000  0.662327  1
  B  B5  1  0.500000  0.500000  0.333333  1
  Pt  Pt6  1  0.147504  0.293358  0.499158  1
  Pt  Pt7  1  0.706642  0.852496  0.167509  1
  Pt  Pt8  1  0.852496  0.706642  0.499158  1
  Pt  Pt9  1  0.293358  0.147504  0.167509  1
  Pt  Pt10  1  0.151587  0.848413  0.833333  1
  Pt  Pt11  1  0.848413  0.151587  0.833333  1
