# generated using pymatgen
data_Dy4Er2Mn3(Co5P4)3
_symmetry_space_group_name_H-M   'P 1'
_cell_length_a   3.69685000
_cell_length_b   10.54606500
_cell_length_c   12.14262100
_cell_angle_alpha   90.00000000
_cell_angle_beta   90.00000000
_cell_angle_gamma   90.00000000
_symmetry_Int_Tables_number   1
_chemical_formula_structural   Dy4Er2Mn3(Co5P4)3
_chemical_formula_sum   'Dy4 Er2 Mn3 Co15 P12'
_cell_volume   473.40704110
_cell_formula_units_Z   1
loop_
 _symmetry_equiv_pos_site_id
 _symmetry_equiv_pos_as_xyz
  1  'x, y, z'
loop_
 _atom_site_type_symbol
 _atom_site_label
 _atom_site_symmetry_multiplicity
 _atom_site_fract_x
 _atom_site_fract_y
 _atom_site_fract_z
 _atom_site_occupancy
  Dy  Dy0  1  0.000000  0.500000  0.523460  1
  Dy  Dy1  1  0.500000  0.000000  0.476927  1
  Dy  Dy2  1  0.000000  0.680559  0.795676  1
  Dy  Dy3  1  0.000000  0.319441  0.795676  1
  Er  Er4  1  0.500000  0.818316  0.204850  1
  Er  Er5  1  0.500000  0.181684  0.204850  1
  Mn  Mn6  1  0.500000  0.500000  0.155298  1
  Mn  Mn7  1  0.000000  0.000000  0.841326  1
  Mn  Mn8  1  0.000000  0.500000  0.988898  1
  Co  Co9  1  0.500000  0.500000  0.699482  1
  Co  Co10  1  0.000000  0.000000  0.297396  1
  Co  Co11  1  0.500000  0.000000  0.013787  1
  Co  Co12  1  0.500000  0.330174  0.994520  1
  Co  Co13  1  0.500000  0.669826  0.994520  1
  Co  Co14  1  0.000000  0.165006  0.005496  1
  Co  Co15  1  0.000000  0.834994  0.005496  1
  Co  Co16  1  0.500000  0.295905  0.430247  1
  Co  Co17  1  0.500000  0.704095  0.430247  1
  Co  Co18  1  0.000000  0.203433  0.569925  1
  Co  Co19  1  0.000000  0.796567  0.569925  1
  Co  Co20  1  0.500000  0.879860  0.709556  1
  Co  Co21  1  0.500000  0.120140  0.709556  1
  Co  Co22  1  0.000000  0.621502  0.291330  1
  Co  Co23  1  0.000000  0.378498  0.291330  1
  P  P24  1  0.500000  0.500000  0.882603  1
  P  P25  1  0.000000  0.000000  0.118035  1
  P  P26  1  0.500000  0.500000  0.345785  1
  P  P27  1  0.000000  0.000000  0.654998  1
  P  P28  1  0.500000  0.310341  0.616330  1
  P  P29  1  0.500000  0.689659  0.616330  1
  P  P30  1  0.000000  0.188772  0.383580  1
  P  P31  1  0.000000  0.811228  0.383580  1
  P  P32  1  0.500000  0.847211  0.892922  1
  P  P33  1  0.500000  0.152789  0.892922  1
  P  P34  1  0.000000  0.655337  0.106571  1
  P  P35  1  0.000000  0.344663  0.106571  1
