# generated using pymatgen
data_U2VSb6Mo
_symmetry_space_group_name_H-M   'P 1'
_cell_length_a   6.03891599
_cell_length_b   6.34775885
_cell_length_c   12.43389000
_cell_angle_alpha   90.00000000
_cell_angle_beta   90.00000000
_cell_angle_gamma   90.51649568
_symmetry_Int_Tables_number   1
_chemical_formula_structural   U2VSb6Mo
_chemical_formula_sum   'U4 V2 Sb12 Mo2'
_cell_volume   476.61618102
_cell_formula_units_Z   2
loop_
 _symmetry_equiv_pos_site_id
 _symmetry_equiv_pos_as_xyz
  1  'x, y, z'
loop_
 _atom_site_type_symbol
 _atom_site_label
 _atom_site_symmetry_multiplicity
 _atom_site_fract_x
 _atom_site_fract_y
 _atom_site_fract_z
 _atom_site_occupancy
  U  U0  1  0.243717  0.490774  0.305142  1
  U  U1  1  0.756283  0.509226  0.694858  1
  U  U2  1  0.243717  0.990774  0.694858  1
  U  U3  1  0.756283  0.009226  0.305142  1
  V  V4  1  0.500000  0.250000  0.110262  1
  V  V5  1  0.500000  0.750000  0.889738  1
  Sb  Sb6  1  0.000000  0.750000  0.499072  1
  Sb  Sb7  1  0.000000  0.250000  0.500928  1
  Sb  Sb8  1  0.500000  0.250000  0.499962  1
  Sb  Sb9  1  0.500000  0.750000  0.500038  1
  Sb  Sb10  1  0.253859  0.604797  0.062164  1
  Sb  Sb11  1  0.746141  0.395203  0.937836  1
  Sb  Sb12  1  0.253859  0.104797  0.937836  1
  Sb  Sb13  1  0.746141  0.895203  0.062164  1
  Sb  Sb14  1  0.254903  0.982276  0.237687  1
  Sb  Sb15  1  0.745097  0.017724  0.762313  1
  Sb  Sb16  1  0.254903  0.482276  0.762313  1
  Sb  Sb17  1  0.745097  0.517724  0.237687  1
  Mo  Mo18  1  0.000000  0.750000  0.886615  1
  Mo  Mo19  1  0.000000  0.250000  0.113385  1
