# generated using pymatgen
data_DyHoNpO6
_symmetry_space_group_name_H-M   'P 1'
_cell_length_a   5.52181000
_cell_length_b   7.82495099
_cell_length_c   11.83542941
_cell_angle_alpha   73.76273891
_cell_angle_beta   90.00000000
_cell_angle_gamma   90.00000000
_symmetry_Int_Tables_number   1
_chemical_formula_structural   DyHoNpO6
_chemical_formula_sum   'Dy4 Ho4 Np4 O24'
_cell_volume   490.98590364
_cell_formula_units_Z   4
loop_
 _symmetry_equiv_pos_site_id
 _symmetry_equiv_pos_as_xyz
  1  'x, y, z'
loop_
 _atom_site_type_symbol
 _atom_site_label
 _atom_site_symmetry_multiplicity
 _atom_site_fract_x
 _atom_site_fract_y
 _atom_site_fract_z
 _atom_site_occupancy
  Dy  Dy0  1  0.744220  0.000000  0.750000  1
  Dy  Dy1  1  0.255780  0.000000  0.250000  1
  Dy  Dy2  1  0.698874  0.500000  0.750000  1
  Dy  Dy3  1  0.301126  0.500000  0.250000  1
  Ho  Ho4  1  0.186783  0.795092  0.579662  1
  Ho  Ho5  1  0.813217  0.795092  0.079662  1
  Ho  Ho6  1  0.186783  0.204908  0.920338  1
  Ho  Ho7  1  0.813217  0.204908  0.420338  1
  Np  Np8  1  0.255495  0.719884  0.886972  1
  Np  Np9  1  0.744505  0.719884  0.386972  1
  Np  Np10  1  0.255495  0.280116  0.613028  1
  Np  Np11  1  0.744505  0.280116  0.113028  1
  O  O12  1  0.044392  0.943549  0.896960  1
  O  O13  1  0.552984  0.849047  0.931699  1
  O  O14  1  0.955608  0.943549  0.396960  1
  O  O15  1  0.449238  0.800777  0.726590  1
  O  O16  1  0.447016  0.849047  0.431699  1
  O  O17  1  0.964229  0.713972  0.766251  1
  O  O18  1  0.550762  0.800777  0.226590  1
  O  O19  1  0.876124  0.626448  0.555244  1
  O  O20  1  0.388886  0.480145  0.883556  1
  O  O21  1  0.035771  0.713972  0.266251  1
  O  O22  1  0.388886  0.519855  0.616444  1
  O  O23  1  0.876124  0.373552  0.944756  1
  O  O24  1  0.123876  0.626448  0.055244  1
  O  O25  1  0.611114  0.480145  0.383556  1
  O  O26  1  0.964229  0.286028  0.733749  1
  O  O27  1  0.611114  0.519855  0.116444  1
  O  O28  1  0.123876  0.373552  0.444756  1
  O  O29  1  0.449238  0.199223  0.773410  1
  O  O30  1  0.035771  0.286028  0.233749  1
  O  O31  1  0.552984  0.150953  0.568301  1
  O  O32  1  0.550762  0.199223  0.273410  1
  O  O33  1  0.044392  0.056451  0.603040  1
  O  O34  1  0.447016  0.150953  0.068301  1
  O  O35  1  0.955608  0.056451  0.103040  1
