# generated using pymatgen
data_CeGd3Ho(SiB4)2
_symmetry_space_group_name_H-M   'P 1'
_cell_length_a   7.26291108
_cell_length_b   7.26291108
_cell_length_c   8.19734099
_cell_angle_alpha   89.96015488
_cell_angle_beta   89.96015488
_cell_angle_gamma   90.04805175
_symmetry_Int_Tables_number   1
_chemical_formula_structural   CeGd3Ho(SiB4)2
_chemical_formula_sum   'Ce2 Gd6 Ho2 Si4 B16'
_cell_volume   432.40837034
_cell_formula_units_Z   2
loop_
 _symmetry_equiv_pos_site_id
 _symmetry_equiv_pos_as_xyz
  1  'x, y, z'
loop_
 _atom_site_type_symbol
 _atom_site_label
 _atom_site_symmetry_multiplicity
 _atom_site_fract_x
 _atom_site_fract_y
 _atom_site_fract_z
 _atom_site_occupancy
  Ce  Ce0  1  0.682297  0.182297  0.227815  1
  Ce  Ce1  1  0.317703  0.817703  0.772185  1
  Gd  Gd2  1  0.319071  0.819071  0.224500  1
  Gd  Gd3  1  0.819523  0.680177  0.223961  1
  Gd  Gd4  1  0.819823  0.680477  0.776039  1
  Gd  Gd5  1  0.680929  0.180929  0.775500  1
  Gd  Gd6  1  0.180477  0.319823  0.776039  1
  Gd  Gd7  1  0.180177  0.319523  0.223961  1
  Ho  Ho8  1  0.000000  0.000000  0.500000  1
  Ho  Ho9  1  0.500000  0.500000  0.500000  1
  Si  Si10  1  0.114891  0.614891  0.500817  1
  Si  Si11  1  0.885109  0.385109  0.499183  1
  Si  Si12  1  0.385433  0.114567  0.500000  1
  Si  Si13  1  0.614567  0.885433  0.500000  1
  B  B14  1  0.172414  0.039028  0.999645  1
  B  B15  1  0.827586  0.960972  0.000355  1
  B  B16  1  0.959973  0.171958  0.000082  1
  B  B17  1  0.328042  0.540027  0.999918  1
  B  B18  1  0.040027  0.828042  0.999918  1
  B  B19  1  0.671958  0.459973  0.000082  1
  B  B20  1  0.539028  0.672414  0.999645  1
  B  B21  1  0.460972  0.327586  0.000355  1
  B  B22  1  0.091212  0.591212  0.998457  1
  B  B23  1  0.908788  0.408788  0.001543  1
  B  B24  1  0.409644  0.090356  0.000000  1
  B  B25  1  0.590356  0.909644  0.000000  1
  B  B26  1  0.998813  0.000066  0.159560  1
  B  B27  1  0.001187  0.999934  0.840440  1
  B  B28  1  0.499934  0.501187  0.840440  1
  B  B29  1  0.500066  0.498813  0.159560  1
