# generated using pymatgen
data_CdCoIr3Pb3O14
_symmetry_space_group_name_H-M   'P 1'
_cell_length_a   7.28180850
_cell_length_b   7.28180872
_cell_length_c   7.23318778
_cell_angle_alpha   59.77738760
_cell_angle_beta   59.77739590
_cell_angle_gamma   59.99999595
_symmetry_Int_Tables_number   1
_chemical_formula_structural   CdCoIr3Pb3O14
_chemical_formula_sum   'Cd1 Co1 Ir3 Pb3 O14'
_cell_volume   270.28612033
_cell_formula_units_Z   1
loop_
 _symmetry_equiv_pos_site_id
 _symmetry_equiv_pos_as_xyz
  1  'x, y, z'
loop_
 _atom_site_type_symbol
 _atom_site_label
 _atom_site_symmetry_multiplicity
 _atom_site_fract_x
 _atom_site_fract_y
 _atom_site_fract_z
 _atom_site_occupancy
  Cd  Cd0  1  0.125000  0.125000  0.625000  1
  Co  Co1  1  0.625000  0.625000  0.125000  1
  Ir  Ir2  1  0.125000  0.625000  0.625000  1
  Ir  Ir3  1  0.625000  0.125000  0.625000  1
  Ir  Ir4  1  0.625000  0.625000  0.625000  1
  Pb  Pb5  1  0.625000  0.125000  0.125000  1
  Pb  Pb6  1  0.125000  0.625000  0.125000  1
  Pb  Pb7  1  0.125000  0.125000  0.125000  1
  O  O8  1  0.701855  0.701855  0.294705  1
  O  O9  1  0.298312  0.298312  0.709626  1
  O  O10  1  0.693749  0.298312  0.709626  1
  O  O11  1  0.301583  0.701855  0.294705  1
  O  O12  1  0.298312  0.693749  0.709626  1
  O  O13  1  0.701855  0.301583  0.294705  1
  O  O14  1  0.548145  0.548145  0.955295  1
  O  O15  1  0.951688  0.951688  0.540374  1
  O  O16  1  0.556251  0.951688  0.540374  1
  O  O17  1  0.948417  0.548145  0.955295  1
  O  O18  1  0.951688  0.556251  0.540374  1
  O  O19  1  0.548145  0.948417  0.955295  1
  O  O20  1  0.244627  0.244627  0.266119  1
  O  O21  1  0.005373  0.005373  0.983881  1
