# generated using pymatgen
data_Ca12Lu3Sc5(GeO4)12
_symmetry_space_group_name_H-M   'P 1'
_cell_length_a   11.00669760
_cell_length_b   11.01304025
_cell_length_c   11.01852733
_cell_angle_alpha   109.48229303
_cell_angle_beta   109.46832032
_cell_angle_gamma   109.44058318
_symmetry_Int_Tables_number   1
_chemical_formula_structural   Ca12Lu3Sc5(GeO4)12
_chemical_formula_sum   'Ca12 Lu3 Sc5 Ge12 O48'
_cell_volume   1028.45721628
_cell_formula_units_Z   1
loop_
 _symmetry_equiv_pos_site_id
 _symmetry_equiv_pos_as_xyz
  1  'x, y, z'
loop_
 _atom_site_type_symbol
 _atom_site_label
 _atom_site_symmetry_multiplicity
 _atom_site_fract_x
 _atom_site_fract_y
 _atom_site_fract_z
 _atom_site_occupancy
  Ca  Ca0  1  0.374993  0.125189  0.249895  1
  Ca  Ca1  1  0.748693  0.125637  0.374036  1
  Ca  Ca2  1  0.249880  0.373812  0.126333  1
  Ca  Ca3  1  0.126197  0.252058  0.374887  1
  Ca  Ca4  1  0.376394  0.752955  0.126285  1
  Ca  Ca5  1  0.123880  0.375771  0.748625  1
  Ca  Ca6  1  0.625007  0.874811  0.750105  1
  Ca  Ca7  1  0.251307  0.874363  0.625964  1
  Ca  Ca8  1  0.750120  0.626188  0.873667  1
  Ca  Ca9  1  0.873803  0.747942  0.625113  1
  Ca  Ca10  1  0.623606  0.247045  0.873715  1
  Ca  Ca11  1  0.876120  0.624229  0.251375  1
  Lu  Lu12  1  0.000000  0.500000  0.000000  1
  Lu  Lu13  1  0.000000  0.000000  0.500000  1
  Lu  Lu14  1  0.500000  0.500000  0.000000  1
  Sc  Sc15  1  0.000000  0.000000  0.000000  1
  Sc  Sc16  1  0.500000  0.000000  0.000000  1
  Sc  Sc17  1  0.000000  0.500000  0.500000  1
  Sc  Sc18  1  0.500000  0.000000  0.500000  1
  Sc  Sc19  1  0.500000  0.500000  0.500000  1
  Ge  Ge20  1  0.626531  0.374314  0.251800  1
  Ge  Ge21  1  0.747921  0.374251  0.622621  1
  Ge  Ge22  1  0.249553  0.122820  0.876761  1
  Ge  Ge23  1  0.873488  0.248310  0.125891  1
  Ge  Ge24  1  0.622640  0.749438  0.376761  1
  Ge  Ge25  1  0.373469  0.625686  0.748200  1
  Ge  Ge26  1  0.126512  0.751690  0.874109  1
  Ge  Ge27  1  0.750447  0.877180  0.123239  1
  Ge  Ge28  1  0.377360  0.250562  0.623239  1
  Ge  Ge29  1  0.252079  0.625749  0.377379  1
  Ge  Ge30  1  0.874063  0.124032  0.750112  1
  Ge  Ge31  1  0.125937  0.875968  0.249888  1
  O  O32  1  0.413709  0.811439  0.792269  1
  O  O33  1  0.875799  0.394469  0.088457  1
  O  O34  1  0.104131  0.978963  0.693152  1
  O  O35  1  0.516496  0.620517  0.706691  1
  O  O36  1  0.688894  0.085926  0.707834  1
  O  O37  1  0.620123  0.707562  0.519737  1
  O  O38  1  0.623973  0.411379  0.105559  1
  O  O39  1  0.706684  0.517909  0.619559  1
  O  O40  1  0.811215  0.517233  0.398243  1
  O  O41  1  0.983340  0.793269  0.879188  1
  O  O42  1  0.792375  0.879594  0.980104  1
  O  O43  1  0.712589  0.694701  0.088474  1
  O  O44  1  0.412902  0.102294  0.619458  1
  O  O45  1  0.397726  0.811300  0.518900  1
  O  O46  1  0.086182  0.707009  0.688571  1
  O  O47  1  0.104212  0.620446  0.414266  1
  O  O48  1  0.520716  0.395618  0.807027  1
  O  O49  1  0.090011  0.876653  0.396507  1
  O  O50  1  0.980681  0.693447  0.103652  1
  O  O51  1  0.188785  0.482767  0.601757  1
  O  O52  1  0.689011  0.101531  0.982530  1
  O  O53  1  0.787559  0.411197  0.805748  1
  O  O54  1  0.397763  0.087002  0.880290  1
  O  O55  1  0.878622  0.981517  0.792329  1
  O  O56  1  0.586291  0.188561  0.207731  1
  O  O57  1  0.124201  0.605531  0.911543  1
  O  O58  1  0.895869  0.021037  0.306848  1
  O  O59  1  0.483504  0.379483  0.293309  1
  O  O60  1  0.311106  0.914074  0.292166  1
  O  O61  1  0.379877  0.292438  0.480263  1
  O  O62  1  0.376027  0.588621  0.894441  1
  O  O63  1  0.293316  0.482091  0.380441  1
  O  O64  1  0.121378  0.018483  0.207671  1
  O  O65  1  0.602237  0.912998  0.119710  1
  O  O66  1  0.212441  0.588803  0.194252  1
  O  O67  1  0.194610  0.213276  0.588537  1
  O  O68  1  0.310989  0.898469  0.017470  1
  O  O69  1  0.019319  0.306553  0.896348  1
  O  O70  1  0.909989  0.123347  0.603493  1
  O  O71  1  0.479284  0.604382  0.192973  1
  O  O72  1  0.895788  0.379554  0.585734  1
  O  O73  1  0.913818  0.292991  0.311429  1
  O  O74  1  0.602274  0.188700  0.481100  1
  O  O75  1  0.587098  0.897706  0.380542  1
  O  O76  1  0.287411  0.305299  0.911526  1
  O  O77  1  0.207625  0.120406  0.019896  1
  O  O78  1  0.016660  0.206731  0.120812  1
  O  O79  1  0.805390  0.786724  0.411463  1
