# generated using pymatgen
data_La12AlGe7Ir8
_symmetry_space_group_name_H-M   'P 1'
_cell_length_a   5.82722700
_cell_length_b   8.28748458
_cell_length_c   13.59525223
_cell_angle_alpha   89.90964444
_cell_angle_beta   90.00000000
_cell_angle_gamma   90.00000000
_symmetry_Int_Tables_number   1
_chemical_formula_structural   La12AlGe7Ir8
_chemical_formula_sum   'La12 Al1 Ge7 Ir8'
_cell_volume   656.55543194
_cell_formula_units_Z   1
loop_
 _symmetry_equiv_pos_site_id
 _symmetry_equiv_pos_as_xyz
  1  'x, y, z'
loop_
 _atom_site_type_symbol
 _atom_site_label
 _atom_site_symmetry_multiplicity
 _atom_site_fract_x
 _atom_site_fract_y
 _atom_site_fract_z
 _atom_site_occupancy
  La  La0  1  0.150022  0.893056  0.599296  1
  La  La1  1  0.849561  0.106789  0.098218  1
  La  La2  1  0.150022  0.606944  0.400704  1
  La  La3  1  0.849561  0.393211  0.901782  1
  La  La4  1  0.848139  0.101833  0.399800  1
  La  La5  1  0.151128  0.893187  0.901644  1
  La  La6  1  0.848139  0.398167  0.600200  1
  La  La7  1  0.151128  0.606813  0.098356  1
  La  La8  1  0.363046  0.251075  0.751256  1
  La  La9  1  0.635147  0.749845  0.247880  1
  La  La10  1  0.363046  0.248925  0.248744  1
  La  La11  1  0.635147  0.750155  0.752120  1
  Al  Al12  1  0.381617  0.250000  0.500000  1
  Ge  Ge13  1  0.855128  0.102294  0.749771  1
  Ge  Ge14  1  0.143873  0.898074  0.249913  1
  Ge  Ge15  1  0.855128  0.397706  0.250229  1
  Ge  Ge16  1  0.143873  0.601926  0.750087  1
  Ge  Ge17  1  0.637260  0.750000  0.000000  1
  Ge  Ge18  1  0.632639  0.750000  0.500000  1
  Ge  Ge19  1  0.365458  0.250000  0.000000  1
  Ir  Ir20  1  0.626747  0.033742  0.592109  1
  Ir  Ir21  1  0.375379  0.961093  0.091766  1
  Ir  Ir22  1  0.626747  0.466258  0.407891  1
  Ir  Ir23  1  0.375379  0.538907  0.908234  1
  Ir  Ir24  1  0.367681  0.969316  0.410692  1
  Ir  Ir25  1  0.625662  0.038181  0.908836  1
  Ir  Ir26  1  0.367681  0.530684  0.589308  1
  Ir  Ir27  1  0.625662  0.461819  0.091164  1
