# generated using pymatgen
data_TbY3(ErPt)4
_symmetry_space_group_name_H-M   'P 1'
_cell_length_a   4.76300700
_cell_length_b   7.15296458
_cell_length_c   8.74375434
_cell_angle_alpha   89.93451162
_cell_angle_beta   90.00000000
_cell_angle_gamma   90.00000000
_symmetry_Int_Tables_number   1
_chemical_formula_structural   TbY3(ErPt)4
_chemical_formula_sum   'Tb1 Y3 Er4 Pt4'
_cell_volume   297.89619629
_cell_formula_units_Z   1
loop_
 _symmetry_equiv_pos_site_id
 _symmetry_equiv_pos_as_xyz
  1  'x, y, z'
loop_
 _atom_site_type_symbol
 _atom_site_label
 _atom_site_symmetry_multiplicity
 _atom_site_fract_x
 _atom_site_fract_y
 _atom_site_fract_z
 _atom_site_occupancy
  Tb  Tb0  1  0.250000  0.990729  0.330663  1
  Y  Y1  1  0.250000  0.489664  0.169747  1
  Y  Y2  1  0.750000  0.009840  0.670606  1
  Y  Y3  1  0.750000  0.509812  0.830068  1
  Er  Er4  1  0.250000  0.855426  0.920598  1
  Er  Er5  1  0.250000  0.355948  0.579267  1
  Er  Er6  1  0.750000  0.144020  0.078929  1
  Er  Er7  1  0.750000  0.644553  0.420559  1
  Pt  Pt8  1  0.250000  0.254381  0.906918  1
  Pt  Pt9  1  0.250000  0.755487  0.592845  1
  Pt  Pt10  1  0.750000  0.745190  0.092826  1
  Pt  Pt11  1  0.750000  0.244951  0.406971  1
