# generated using pymatgen
data_YSb3F18
_symmetry_space_group_name_H-M   'P 1'
_cell_length_a   9.04380400
_cell_length_b   9.04380399
_cell_length_c   9.80641900
_cell_angle_alpha   90.00000000
_cell_angle_beta   90.00000000
_cell_angle_gamma   120.00000003
_symmetry_Int_Tables_number   1
_chemical_formula_structural   YSb3F18
_chemical_formula_sum   'Y2 Sb6 F36'
_cell_volume   694.61372407
_cell_formula_units_Z   2
loop_
 _symmetry_equiv_pos_site_id
 _symmetry_equiv_pos_as_xyz
  1  'x, y, z'
loop_
 _atom_site_type_symbol
 _atom_site_label
 _atom_site_symmetry_multiplicity
 _atom_site_fract_x
 _atom_site_fract_y
 _atom_site_fract_z
 _atom_site_occupancy
  Y  Y0  1  0.000000  0.000000  0.000000  1
  Y  Y1  1  0.000000  0.000000  0.500000  1
  Sb  Sb2  1  0.647234  0.000000  0.750000  1
  Sb  Sb3  1  0.352766  0.352766  0.750000  1
  Sb  Sb4  1  0.000000  0.647234  0.750000  1
  Sb  Sb5  1  0.647234  0.647234  0.250000  1
  Sb  Sb6  1  0.000000  0.352766  0.250000  1
  Sb  Sb7  1  0.352766  0.000000  0.250000  1
  F  F8  1  0.463256  0.899982  0.872648  1
  F  F9  1  0.436727  0.536744  0.872648  1
  F  F10  1  0.100018  0.563273  0.872648  1
  F  F11  1  0.463256  0.563273  0.372648  1
  F  F12  1  0.100018  0.536744  0.372648  1
  F  F13  1  0.436727  0.899982  0.372648  1
  F  F14  1  0.536744  0.100018  0.127352  1
  F  F15  1  0.563273  0.463256  0.127352  1
  F  F16  1  0.899982  0.436727  0.127352  1
  F  F17  1  0.536744  0.436727  0.627352  1
  F  F18  1  0.899982  0.463256  0.627352  1
  F  F19  1  0.563273  0.100018  0.627352  1
  F  F20  1  0.775554  0.913088  0.865091  1
  F  F21  1  0.137534  0.224446  0.865091  1
  F  F22  1  0.086912  0.862466  0.865091  1
  F  F23  1  0.775554  0.862466  0.365091  1
  F  F24  1  0.086912  0.224446  0.365091  1
  F  F25  1  0.137534  0.913088  0.365091  1
  F  F26  1  0.224446  0.086912  0.134909  1
  F  F27  1  0.862466  0.775554  0.134909  1
  F  F28  1  0.913088  0.137534  0.134909  1
  F  F29  1  0.224446  0.137534  0.634909  1
  F  F30  1  0.913088  0.775554  0.634909  1
  F  F31  1  0.862466  0.086912  0.634909  1
  F  F32  1  0.777174  0.200209  0.854181  1
  F  F33  1  0.423035  0.222826  0.854181  1
  F  F34  1  0.799791  0.576965  0.854181  1
  F  F35  1  0.777174  0.576965  0.354181  1
  F  F36  1  0.799791  0.222826  0.354181  1
  F  F37  1  0.423035  0.200209  0.354181  1
  F  F38  1  0.222826  0.799791  0.145819  1
  F  F39  1  0.576965  0.777174  0.145819  1
  F  F40  1  0.200209  0.423035  0.145819  1
  F  F41  1  0.222826  0.423035  0.645819  1
  F  F42  1  0.200209  0.777174  0.645819  1
  F  F43  1  0.576965  0.799791  0.645819  1
