# generated using pymatgen
data_LuScAlB2Ru5
_symmetry_space_group_name_H-M   'P 1'
_cell_length_a   9.44306883
_cell_length_b   9.44306883
_cell_length_c   3.05707500
_cell_angle_alpha   90.00000000
_cell_angle_beta   90.00000000
_cell_angle_gamma   89.22524771
_symmetry_Int_Tables_number   1
_chemical_formula_structural   LuScAlB2Ru5
_chemical_formula_sum   'Lu2 Sc2 Al2 B4 Ru10'
_cell_volume   272.57919104
_cell_formula_units_Z   2
loop_
 _symmetry_equiv_pos_site_id
 _symmetry_equiv_pos_as_xyz
  1  'x, y, z'
loop_
 _atom_site_type_symbol
 _atom_site_label
 _atom_site_symmetry_multiplicity
 _atom_site_fract_x
 _atom_site_fract_y
 _atom_site_fract_z
 _atom_site_occupancy
  Lu  Lu0  1  0.676042  0.176042  0.000000  1
  Lu  Lu1  1  0.323958  0.823958  0.000000  1
  Sc  Sc2  1  0.174656  0.325344  0.000000  1
  Sc  Sc3  1  0.825344  0.674656  0.000000  1
  Al  Al4  1  0.000000  0.000000  0.000000  1
  Al  Al5  1  0.500000  0.500000  0.000000  1
  B  B6  1  0.123198  0.623198  0.000000  1
  B  B7  1  0.876802  0.376802  0.000000  1
  B  B8  1  0.625311  0.874689  0.000000  1
  B  B9  1  0.374689  0.125311  0.000000  1
  Ru  Ru10  1  0.213488  0.075497  0.500000  1
  Ru  Ru11  1  0.786512  0.924503  0.500000  1
  Ru  Ru12  1  0.065237  0.783386  0.500000  1
  Ru  Ru13  1  0.716614  0.434763  0.500000  1
  Ru  Ru14  1  0.934763  0.216614  0.500000  1
  Ru  Ru15  1  0.283386  0.565237  0.500000  1
  Ru  Ru16  1  0.575497  0.713488  0.500000  1
  Ru  Ru17  1  0.424503  0.286512  0.500000  1
  Ru  Ru18  1  0.500000  0.000000  0.500000  1
  Ru  Ru19  1  0.000000  0.500000  0.500000  1
