# generated using pymatgen
data_Tb3YbAl5Tc3
_symmetry_space_group_name_H-M   'P 1'
_cell_length_a   5.55744995
_cell_length_b   5.63035653
_cell_length_c   8.72469869
_cell_angle_alpha   89.99999622
_cell_angle_beta   90.03912872
_cell_angle_gamma   120.43492063
_symmetry_Int_Tables_number   1
_chemical_formula_structural   Tb3YbAl5Tc3
_chemical_formula_sum   'Tb3 Yb1 Al5 Tc3'
_cell_volume   235.38150784
_cell_formula_units_Z   1
loop_
 _symmetry_equiv_pos_site_id
 _symmetry_equiv_pos_as_xyz
  1  'x, y, z'
loop_
 _atom_site_type_symbol
 _atom_site_label
 _atom_site_symmetry_multiplicity
 _atom_site_fract_x
 _atom_site_fract_y
 _atom_site_fract_z
 _atom_site_occupancy
  Tb  Tb0  1  0.665765  0.332882  0.552356  1
  Tb  Tb1  1  0.662507  0.331252  0.946484  1
  Tb  Tb2  1  0.337082  0.668541  0.057458  1
  Yb  Yb3  1  0.337132  0.668566  0.442934  1
  Al  Al4  1  0.837553  0.160397  0.249310  1
  Al  Al5  1  0.837553  0.677157  0.249310  1
  Al  Al6  1  0.321924  0.160962  0.247806  1
  Al  Al7  1  0.184884  0.845283  0.750486  1
  Al  Al8  1  0.184884  0.339601  0.750486  1
  Tc  Tc9  1  0.974033  0.987017  0.512424  1
  Tc  Tc10  1  0.976746  0.988373  0.988750  1
  Tc  Tc11  1  0.679937  0.839968  0.752196  1
