# generated using pymatgen
data_Tb6C2SCl5
_symmetry_space_group_name_H-M   'P 1'
_cell_length_a   3.74946482
_cell_length_b   8.60892104
_cell_length_c   10.25925627
_cell_angle_alpha   87.18559082
_cell_angle_beta   79.49190641
_cell_angle_gamma   77.19973113
_symmetry_Int_Tables_number   1
_chemical_formula_structural   Tb6C2SCl5
_chemical_formula_sum   'Tb6 C2 S1 Cl5'
_cell_volume   317.49833194
_cell_formula_units_Z   1
loop_
 _symmetry_equiv_pos_site_id
 _symmetry_equiv_pos_as_xyz
  1  'x, y, z'
loop_
 _atom_site_type_symbol
 _atom_site_label
 _atom_site_symmetry_multiplicity
 _atom_site_fract_x
 _atom_site_fract_y
 _atom_site_fract_z
 _atom_site_occupancy
  Tb  Tb0  1  0.576988  0.069670  0.780298  1
  Tb  Tb1  1  0.961499  0.405247  0.675985  1
  Tb  Tb2  1  0.692860  0.161890  0.455316  1
  Tb  Tb3  1  0.043949  0.592532  0.322750  1
  Tb  Tb4  1  0.312099  0.836142  0.543090  1
  Tb  Tb5  1  0.428287  0.928051  0.218056  1
  C  C6  1  0.126468  0.122864  0.627617  1
  C  C7  1  0.878735  0.874948  0.370698  1
  S  S8  1  0.502702  0.498972  0.499397  1
  Cl  Cl9  1  0.753125  0.748302  0.747685  1
  Cl  Cl10  1  0.376644  0.375181  0.875720  1
  Cl  Cl11  1  0.251831  0.249513  0.250576  1
  Cl  Cl12  1  0.629038  0.622295  0.123097  1
  Cl  Cl13  1  0.002995  0.997982  0.999030  1
