# generated using pymatgen
data_Sm4TeC4Br
_symmetry_space_group_name_H-M   'P 1'
_cell_length_a   7.59282657
_cell_length_b   7.59282707
_cell_length_c   6.83321693
_cell_angle_alpha   100.10613727
_cell_angle_beta   100.10613796
_cell_angle_gamma   33.12543214
_symmetry_Int_Tables_number   1
_chemical_formula_structural   Sm4TeC4Br
_chemical_formula_sum   'Sm4 Te1 C4 Br1'
_cell_volume   211.64075863
_cell_formula_units_Z   1
loop_
 _symmetry_equiv_pos_site_id
 _symmetry_equiv_pos_as_xyz
  1  'x, y, z'
loop_
 _atom_site_type_symbol
 _atom_site_label
 _atom_site_symmetry_multiplicity
 _atom_site_fract_x
 _atom_site_fract_y
 _atom_site_fract_z
 _atom_site_occupancy
  Sm  Sm0  1  0.451251  0.857505  0.152127  1
  Sm  Sm1  1  0.142496  0.548749  0.347872  1
  Sm  Sm2  1  0.852621  0.460668  0.644431  1
  Sm  Sm3  1  0.539333  0.147380  0.855570  1
  Te  Te4  1  0.788819  0.211181  0.250000  1
  C  C5  1  0.098781  0.354696  0.025116  1
  C  C6  1  0.645304  0.901220  0.474883  1
  C  C7  1  0.350526  0.108700  0.527806  1
  C  C8  1  0.891301  0.649474  0.972195  1
  Br  Br9  1  0.239570  0.760430  0.750001  1
