# generated using pymatgen
data_Nd4In16Pt3Au5
_symmetry_space_group_name_H-M   'P 1'
_cell_length_a   4.64730900
_cell_length_b   7.47418439
_cell_length_c   18.77270717
_cell_angle_alpha   90.18083659
_cell_angle_beta   90.00000000
_cell_angle_gamma   90.00000000
_symmetry_Int_Tables_number   1
_chemical_formula_structural   Nd4In16Pt3Au5
_chemical_formula_sum   'Nd4 In16 Pt3 Au5'
_cell_volume   652.06381432
_cell_formula_units_Z   1
loop_
 _symmetry_equiv_pos_site_id
 _symmetry_equiv_pos_as_xyz
  1  'x, y, z'
loop_
 _atom_site_type_symbol
 _atom_site_label
 _atom_site_symmetry_multiplicity
 _atom_site_fract_x
 _atom_site_fract_y
 _atom_site_fract_z
 _atom_site_occupancy
  Nd  Nd0  1  0.750000  0.972245  0.643231  1
  Nd  Nd1  1  0.250000  0.473701  0.856172  1
  Nd  Nd2  1  0.750000  0.525629  0.144293  1
  Nd  Nd3  1  0.250000  0.026179  0.356069  1
  In  In4  1  0.250000  0.234766  0.190487  1
  In  In5  1  0.250000  0.492158  0.426685  1
  In  In6  1  0.250000  0.006967  0.928847  1
  In  In7  1  0.250000  0.828950  0.188691  1
  In  In8  1  0.250000  0.676765  0.687403  1
  In  In9  1  0.250000  0.258972  0.689800  1
  In  In10  1  0.250000  0.143042  0.534226  1
  In  In11  1  0.750000  0.992066  0.072739  1
  In  In12  1  0.750000  0.167394  0.814200  1
  In  In13  1  0.250000  0.357414  0.035424  1
  In  In14  1  0.750000  0.859422  0.464265  1
  In  In15  1  0.750000  0.640401  0.966238  1
  In  In16  1  0.750000  0.768522  0.812553  1
  In  In17  1  0.750000  0.511954  0.568284  1
  In  In18  1  0.750000  0.329006  0.310895  1
  In  In19  1  0.750000  0.735033  0.309301  1
  Pt  Pt20  1  0.250000  0.965691  0.781838  1
  Pt  Pt21  1  0.750000  0.033768  0.219240  1
  Pt  Pt22  1  0.250000  0.535456  0.280224  1
  Au  Au23  1  0.250000  0.750092  0.539567  1
  Au  Au24  1  0.250000  0.750361  0.041107  1
  Au  Au25  1  0.750000  0.249490  0.458230  1
  Au  Au26  1  0.750000  0.249683  0.960567  1
  Au  Au27  1  0.750000  0.464871  0.719420  1
