# generated using pymatgen
data_LiAlCu6
_symmetry_space_group_name_H-M   'P 1'
_cell_length_a   5.14464200
_cell_length_b   5.14464092
_cell_length_c   4.25609000
_cell_angle_alpha   90.00000000
_cell_angle_beta   90.00000000
_cell_angle_gamma   119.99999406
_symmetry_Int_Tables_number   1
_chemical_formula_structural   LiAlCu6
_chemical_formula_sum   'Li1 Al1 Cu6'
_cell_volume   97.55548396
_cell_formula_units_Z   1
loop_
 _symmetry_equiv_pos_site_id
 _symmetry_equiv_pos_as_xyz
  1  'x, y, z'
loop_
 _atom_site_type_symbol
 _atom_site_label
 _atom_site_symmetry_multiplicity
 _atom_site_fract_x
 _atom_site_fract_y
 _atom_site_fract_z
 _atom_site_occupancy
  Li  Li0  1  0.333333  0.666667  0.750000  1
  Al  Al1  1  0.666667  0.333333  0.250000  1
  Cu  Cu2  1  0.834059  0.165941  0.750000  1
  Cu  Cu3  1  0.331880  0.165941  0.750000  1
  Cu  Cu4  1  0.834059  0.668120  0.750000  1
  Cu  Cu5  1  0.165847  0.834153  0.250000  1
  Cu  Cu6  1  0.668308  0.834153  0.250000  1
  Cu  Cu7  1  0.165847  0.331692  0.250000  1
