# generated using pymatgen
data_Nd2Ga2(SiPt)3
_symmetry_space_group_name_H-M   'P 1'
_cell_length_a   8.42207058
_cell_length_b   8.42207015
_cell_length_c   8.42207054
_cell_angle_alpha   137.96574321
_cell_angle_beta   105.81765814
_cell_angle_gamma   89.12211640
_symmetry_Int_Tables_number   1
_chemical_formula_structural   Nd2Ga2(SiPt)3
_chemical_formula_sum   'Nd4 Ga4 Si6 Pt6'
_cell_volume   368.25544246
_cell_formula_units_Z   2
loop_
 _symmetry_equiv_pos_site_id
 _symmetry_equiv_pos_as_xyz
  1  'x, y, z'
loop_
 _atom_site_type_symbol
 _atom_site_label
 _atom_site_symmetry_multiplicity
 _atom_site_fract_x
 _atom_site_fract_y
 _atom_site_fract_z
 _atom_site_occupancy
  Nd  Nd0  1  0.634796  0.368503  0.266293  1
  Nd  Nd1  1  0.365204  0.631497  0.733707  1
  Nd  Nd2  1  0.102210  0.868503  0.233707  1
  Nd  Nd3  1  0.897790  0.131497  0.766293  1
  Ga  Ga4  1  0.270267  0.520267  0.250000  1
  Ga  Ga5  1  0.729733  0.479733  0.750000  1
  Ga  Ga6  1  0.729733  0.979733  0.250000  1
  Ga  Ga7  1  0.270267  0.020267  0.750000  1
  Si  Si8  1  0.456964  0.107099  0.349864  1
  Si  Si9  1  0.543036  0.892901  0.650136  1
  Si  Si10  1  0.757235  0.607099  0.150136  1
  Si  Si11  1  0.242765  0.392901  0.849864  1
  Si  Si12  1  0.000000  0.250000  0.250000  1
  Si  Si13  1  0.000000  0.750000  0.750000  1
  Pt  Pt14  1  0.244168  0.127831  0.116336  1
  Pt  Pt15  1  0.755832  0.872169  0.883664  1
  Pt  Pt16  1  0.011496  0.627831  0.383664  1
  Pt  Pt17  1  0.988504  0.372169  0.616336  1
  Pt  Pt18  1  0.500000  0.250000  0.750000  1
  Pt  Pt19  1  0.500000  0.750000  0.250000  1
