# generated using pymatgen
data_Dy3Y3Al24Ru3Rh5
_symmetry_space_group_name_H-M   'P 1'
_cell_length_a   8.83653891
_cell_length_b   8.80090136
_cell_length_c   9.54614348
_cell_angle_alpha   89.99999908
_cell_angle_beta   90.12714102
_cell_angle_gamma   119.86667846
_symmetry_Int_Tables_number   1
_chemical_formula_structural   Dy3Y3Al24Ru3Rh5
_chemical_formula_sum   'Dy3 Y3 Al24 Ru3 Rh5'
_cell_volume   643.79618135
_cell_formula_units_Z   1
loop_
 _symmetry_equiv_pos_site_id
 _symmetry_equiv_pos_as_xyz
  1  'x, y, z'
loop_
 _atom_site_type_symbol
 _atom_site_label
 _atom_site_symmetry_multiplicity
 _atom_site_fract_x
 _atom_site_fract_y
 _atom_site_fract_z
 _atom_site_occupancy
  Dy  Dy0  1  0.809678  0.194409  0.750493  1
  Dy  Dy1  1  0.809678  0.615269  0.750493  1
  Dy  Dy2  1  0.383823  0.191912  0.750396  1
  Y  Y3  1  0.190277  0.805747  0.249525  1
  Y  Y4  1  0.190277  0.384530  0.249525  1
  Y  Y5  1  0.616416  0.808208  0.249623  1
  Al  Al6  1  0.561048  0.437307  0.250494  1
  Al  Al7  1  0.561048  0.123741  0.250494  1
  Al  Al8  1  0.874593  0.437297  0.249182  1
  Al  Al9  1  0.438985  0.562647  0.749501  1
  Al  Al10  1  0.438985  0.876338  0.749501  1
  Al  Al11  1  0.125350  0.562675  0.750803  1
  Al  Al12  1  0.325677  0.162838  0.422799  1
  Al  Al13  1  0.835434  0.162308  0.422874  1
  Al  Al14  1  0.835434  0.673126  0.422874  1
  Al  Al15  1  0.674449  0.837225  0.577433  1
  Al  Al16  1  0.164504  0.837756  0.577359  1
  Al  Al17  1  0.164504  0.326748  0.577359  1
  Al  Al18  1  0.674292  0.837146  0.922926  1
  Al  Al19  1  0.162410  0.835276  0.922979  1
  Al  Al20  1  0.162410  0.327134  0.922979  1
  Al  Al21  1  0.325829  0.162914  0.076834  1
  Al  Al22  1  0.837519  0.164771  0.076775  1
  Al  Al23  1  0.837519  0.672748  0.076775  1
  Al  Al24  1  0.666646  0.333323  0.527907  1
  Al  Al25  1  0.333363  0.666681  0.472331  1
  Al  Al26  1  0.330988  0.665494  0.026828  1
  Al  Al27  1  0.668995  0.334498  0.972940  1
  Al  Al28  1  0.998504  0.999252  0.249992  1
  Al  Al29  1  0.001549  0.000774  0.750008  1
  Ru  Ru30  1  0.999966  0.999983  0.499825  1
  Ru  Ru31  1  0.999978  0.999989  0.000189  1
  Ru  Ru32  1  0.999839  0.499920  0.999779  1
  Rh  Rh33  1  0.500060  0.499924  0.500131  1
  Rh  Rh34  1  0.500060  0.000136  0.500131  1
  Rh  Rh35  1  0.999941  0.499970  0.500102  1
  Rh  Rh36  1  0.499986  0.499973  0.999920  1
  Rh  Rh37  1  0.499986  0.000013  0.999920  1
