# generated using pymatgen
data_Ho4AlGa3Pd3Ru
_symmetry_space_group_name_H-M   'P 1'
_cell_length_a   4.34536000
_cell_length_b   6.86925287
_cell_length_c   7.84423668
_cell_angle_alpha   89.85692686
_cell_angle_beta   90.00000000
_cell_angle_gamma   90.00000000
_symmetry_Int_Tables_number   1
_chemical_formula_structural   Ho4AlGa3Pd3Ru
_chemical_formula_sum   'Ho4 Al1 Ga3 Pd3 Ru1'
_cell_volume   234.14484525
_cell_formula_units_Z   1
loop_
 _symmetry_equiv_pos_site_id
 _symmetry_equiv_pos_as_xyz
  1  'x, y, z'
loop_
 _atom_site_type_symbol
 _atom_site_label
 _atom_site_symmetry_multiplicity
 _atom_site_fract_x
 _atom_site_fract_y
 _atom_site_fract_z
 _atom_site_occupancy
  Ho  Ho0  1  0.250000  0.033345  0.682080  1
  Ho  Ho1  1  0.250000  0.531633  0.817343  1
  Ho  Ho2  1  0.750000  0.977252  0.316047  1
  Ho  Ho3  1  0.750000  0.467246  0.186423  1
  Al  Al4  1  0.750000  0.350811  0.559219  1
  Ga  Ga5  1  0.250000  0.156232  0.065708  1
  Ga  Ga6  1  0.250000  0.639248  0.436490  1
  Ga  Ga7  1  0.750000  0.848888  0.936880  1
  Pd  Pd8  1  0.250000  0.772257  0.118037  1
  Pd  Pd9  1  0.750000  0.729138  0.619452  1
  Pd  Pd10  1  0.750000  0.232125  0.877436  1
  Ru  Ru11  1  0.250000  0.261828  0.384886  1
