# generated using pymatgen
data_Na6AsIO5
_symmetry_space_group_name_H-M   'P 1'
_cell_length_a   6.90925668
_cell_length_b   6.90925707
_cell_length_c   6.90925600
_cell_angle_alpha   60.00000512
_cell_angle_beta   60.00000325
_cell_angle_gamma   60.00000127
_symmetry_Int_Tables_number   1
_chemical_formula_structural   Na6AsIO5
_chemical_formula_sum   'Na6 As1 I1 O5'
_cell_volume   233.22709166
_cell_formula_units_Z   1
loop_
 _symmetry_equiv_pos_site_id
 _symmetry_equiv_pos_as_xyz
  1  'x, y, z'
loop_
 _atom_site_type_symbol
 _atom_site_label
 _atom_site_symmetry_multiplicity
 _atom_site_fract_x
 _atom_site_fract_y
 _atom_site_fract_z
 _atom_site_occupancy
  Na  Na0  1  0.484428  0.015573  0.015573  1
  Na  Na1  1  0.015573  0.484428  0.015573  1
  Na  Na2  1  0.484428  0.484428  0.015573  1
  Na  Na3  1  0.015573  0.015573  0.484428  1
  Na  Na4  1  0.484428  0.015573  0.484428  1
  Na  Na5  1  0.015573  0.484428  0.484428  1
  As  As6  1  0.500000  0.500000  0.500000  1
  I  I7  1  0.000000  0.000000  0.000000  1
  O  O8  1  0.602525  0.602525  0.192427  1
  O  O9  1  0.250000  0.250000  0.250000  1
  O  O10  1  0.602525  0.192427  0.602525  1
  O  O11  1  0.192427  0.602525  0.602525  1
  O  O12  1  0.602525  0.602525  0.602525  1
