# generated using pymatgen
data_EuAgRh2O7
_symmetry_space_group_name_H-M   'P 1'
_cell_length_a   7.41821077
_cell_length_b   7.41821017
_cell_length_c   7.58735300
_cell_angle_alpha   59.24282407
_cell_angle_beta   59.24282685
_cell_angle_gamma   59.30111110
_symmetry_Int_Tables_number   1
_chemical_formula_structural   EuAgRh2O7
_chemical_formula_sum   'Eu2 Ag2 Rh4 O14'
_cell_volume   290.27800612
_cell_formula_units_Z   2
loop_
 _symmetry_equiv_pos_site_id
 _symmetry_equiv_pos_as_xyz
  1  'x, y, z'
loop_
 _atom_site_type_symbol
 _atom_site_label
 _atom_site_symmetry_multiplicity
 _atom_site_fract_x
 _atom_site_fract_y
 _atom_site_fract_z
 _atom_site_occupancy
  Eu  Eu0  1  0.125000  0.125000  0.125000  1
  Eu  Eu1  1  0.125000  0.125000  0.625000  1
  Ag  Ag2  1  0.625000  0.125000  0.125000  1
  Ag  Ag3  1  0.125000  0.625000  0.125000  1
  Rh  Rh4  1  0.625000  0.625000  0.125000  1
  Rh  Rh5  1  0.625000  0.625000  0.625000  1
  Rh  Rh6  1  0.625000  0.125000  0.625000  1
  Rh  Rh7  1  0.125000  0.625000  0.625000  1
  O  O8  1  0.702958  0.300131  0.303656  1
  O  O9  1  0.702958  0.300131  0.693254  1
  O  O10  1  0.985301  0.985301  0.014699  1
  O  O11  1  0.300131  0.702958  0.303656  1
  O  O12  1  0.694789  0.694789  0.305211  1
  O  O13  1  0.949869  0.547042  0.556746  1
  O  O14  1  0.300131  0.702958  0.693254  1
  O  O15  1  0.264699  0.264699  0.235301  1
  O  O16  1  0.949869  0.547042  0.946344  1
  O  O17  1  0.547042  0.949869  0.556746  1
  O  O18  1  0.555211  0.555211  0.944789  1
  O  O19  1  0.958884  0.958884  0.541116  1
  O  O20  1  0.547042  0.949869  0.946344  1
  O  O21  1  0.291116  0.291116  0.708884  1
