# generated using pymatgen
data_LuZn3InRu
_symmetry_space_group_name_H-M   'P 1'
_cell_length_a   5.35145475
_cell_length_b   5.35145375
_cell_length_c   5.35145300
_cell_angle_alpha   57.71946501
_cell_angle_beta   57.71947173
_cell_angle_gamma   57.71947653
_symmetry_Int_Tables_number   1
_chemical_formula_structural   LuZn3InRu
_chemical_formula_sum   'Lu1 Zn3 In1 Ru1'
_cell_volume   102.69033053
_cell_formula_units_Z   1
loop_
 _symmetry_equiv_pos_site_id
 _symmetry_equiv_pos_as_xyz
  1  'x, y, z'
loop_
 _atom_site_type_symbol
 _atom_site_label
 _atom_site_symmetry_multiplicity
 _atom_site_fract_x
 _atom_site_fract_y
 _atom_site_fract_z
 _atom_site_occupancy
  Lu  Lu0  1  0.253019  0.253019  0.253019  1
  Zn  Zn1  1  0.624149  0.624149  0.124692  1
  Zn  Zn2  1  0.624149  0.124692  0.624149  1
  Zn  Zn3  1  0.124692  0.624149  0.624149  1
  In  In4  1  0.999684  0.999684  0.999684  1
  Ru  Ru5  1  0.624308  0.624308  0.624308  1
