# generated using pymatgen
data_Nd3Co7NiP6W
_symmetry_space_group_name_H-M   'P 1'
_cell_length_a   3.80412700
_cell_length_b   10.70937700
_cell_length_c   12.44752900
_cell_angle_alpha   90.00000000
_cell_angle_beta   90.00000000
_cell_angle_gamma   90.00000000
_symmetry_Int_Tables_number   1
_chemical_formula_structural   Nd3Co7NiP6W
_chemical_formula_sum   'Nd6 Co14 Ni2 P12 W2'
_cell_volume   507.11021786
_cell_formula_units_Z   2
loop_
 _symmetry_equiv_pos_site_id
 _symmetry_equiv_pos_as_xyz
  1  'x, y, z'
loop_
 _atom_site_type_symbol
 _atom_site_label
 _atom_site_symmetry_multiplicity
 _atom_site_fract_x
 _atom_site_fract_y
 _atom_site_fract_z
 _atom_site_occupancy
  Nd  Nd0  1  0.000000  0.500000  0.520893  1
  Nd  Nd1  1  0.500000  0.000000  0.479107  1
  Nd  Nd2  1  0.500000  0.817478  0.204289  1
  Nd  Nd3  1  0.500000  0.182522  0.204289  1
  Nd  Nd4  1  0.000000  0.682522  0.795711  1
  Nd  Nd5  1  0.000000  0.317478  0.795711  1
  Co  Co6  1  0.000000  0.500000  0.988019  1
  Co  Co7  1  0.500000  0.000000  0.011981  1
  Co  Co8  1  0.500000  0.332711  0.992182  1
  Co  Co9  1  0.500000  0.667289  0.992182  1
  Co  Co10  1  0.000000  0.167289  0.007818  1
  Co  Co11  1  0.000000  0.832711  0.007818  1
  Co  Co12  1  0.500000  0.296390  0.430806  1
  Co  Co13  1  0.500000  0.703610  0.430806  1
  Co  Co14  1  0.000000  0.203610  0.569194  1
  Co  Co15  1  0.000000  0.796390  0.569194  1
  Co  Co16  1  0.500000  0.880848  0.710547  1
  Co  Co17  1  0.500000  0.119152  0.710547  1
  Co  Co18  1  0.000000  0.619152  0.289453  1
  Co  Co19  1  0.000000  0.380848  0.289453  1
  Ni  Ni20  1  0.500000  0.500000  0.702523  1
  Ni  Ni21  1  0.000000  0.000000  0.297477  1
  P  P22  1  0.500000  0.500000  0.886507  1
  P  P23  1  0.000000  0.000000  0.113493  1
  P  P24  1  0.500000  0.500000  0.344114  1
  P  P25  1  0.000000  0.000000  0.655886  1
  P  P26  1  0.500000  0.305253  0.613743  1
  P  P27  1  0.500000  0.694747  0.613743  1
  P  P28  1  0.000000  0.194747  0.386257  1
  P  P29  1  0.000000  0.805253  0.386257  1
  P  P30  1  0.500000  0.846238  0.895544  1
  P  P31  1  0.500000  0.153762  0.895544  1
  P  P32  1  0.000000  0.653762  0.104456  1
  P  P33  1  0.000000  0.346238  0.104456  1
  W  W34  1  0.500000  0.500000  0.153141  1
  W  W35  1  0.000000  0.000000  0.846859  1
