# generated using pymatgen
data_Y5Ho5Bi5Pb
_symmetry_space_group_name_H-M   'P 1'
_cell_length_a   9.12447100
_cell_length_b   9.14290390
_cell_length_c   6.46009000
_cell_angle_alpha   90.00000000
_cell_angle_beta   90.00000000
_cell_angle_gamma   120.06684877
_symmetry_Int_Tables_number   1
_chemical_formula_structural   Y5Ho5Bi5Pb
_chemical_formula_sum   'Y5 Ho5 Bi5 Pb1'
_cell_volume   466.41027566
_cell_formula_units_Z   1
loop_
 _symmetry_equiv_pos_site_id
 _symmetry_equiv_pos_as_xyz
  1  'x, y, z'
loop_
 _atom_site_type_symbol
 _atom_site_label
 _atom_site_symmetry_multiplicity
 _atom_site_fract_x
 _atom_site_fract_y
 _atom_site_fract_z
 _atom_site_occupancy
  Y  Y0  1  0.758084  0.757206  0.750000  1
  Y  Y1  1  0.241916  0.999123  0.750000  1
  Y  Y2  1  0.238842  0.243046  0.250000  1
  Y  Y3  1  0.761158  0.004203  0.250000  1
  Y  Y4  1  0.000000  0.755772  0.250000  1
  Ho  Ho5  1  0.668850  0.333740  0.000473  1
  Ho  Ho6  1  0.331150  0.664892  0.000473  1
  Ho  Ho7  1  0.331150  0.664892  0.499527  1
  Ho  Ho8  1  0.668850  0.333740  0.499527  1
  Ho  Ho9  1  0.000000  0.241634  0.750000  1
  Bi  Bi10  1  0.391077  0.389855  0.750000  1
  Bi  Bi11  1  0.608923  0.998778  0.750000  1
  Bi  Bi12  1  0.000000  0.608122  0.750000  1
  Bi  Bi13  1  0.609340  0.610521  0.250000  1
  Bi  Bi14  1  0.390660  0.001181  0.250000  1
  Pb  Pb15  1  0.000000  0.393294  0.250000  1
