# generated using pymatgen
data_HoHf2Ga2Fe7
_symmetry_space_group_name_H-M   'P 1'
_cell_length_a   8.43661667
_cell_length_b   8.43661673
_cell_length_c   8.43661774
_cell_angle_alpha   34.96097992
_cell_angle_beta   34.96097466
_cell_angle_gamma   34.96098036
_symmetry_Int_Tables_number   1
_chemical_formula_structural   HoHf2Ga2Fe7
_chemical_formula_sum   'Ho1 Hf2 Ga2 Fe7'
_cell_volume   176.03809125
_cell_formula_units_Z   1
loop_
 _symmetry_equiv_pos_site_id
 _symmetry_equiv_pos_as_xyz
  1  'x, y, z'
loop_
 _atom_site_type_symbol
 _atom_site_label
 _atom_site_symmetry_multiplicity
 _atom_site_fract_x
 _atom_site_fract_y
 _atom_site_fract_z
 _atom_site_occupancy
  Ho  Ho0  1  0.000000  0.000000  0.000000  1
  Hf  Hf1  1  0.141661  0.141661  0.141661  1
  Hf  Hf2  1  0.858339  0.858339  0.858339  1
  Ga  Ga3  1  0.333871  0.333871  0.333871  1
  Ga  Ga4  1  0.666129  0.666129  0.666129  1
  Fe  Fe5  1  0.500000  0.500000  0.500000  1
  Fe  Fe6  1  0.081960  0.588523  0.588523  1
  Fe  Fe7  1  0.588523  0.588523  0.081960  1
  Fe  Fe8  1  0.588523  0.081960  0.588523  1
  Fe  Fe9  1  0.411477  0.918040  0.411477  1
  Fe  Fe10  1  0.918040  0.411477  0.411477  1
  Fe  Fe11  1  0.411477  0.411477  0.918040  1
