# generated using pymatgen
data_CsTcNiP2
_symmetry_space_group_name_H-M   'P 1'
_cell_length_a   7.87283297
_cell_length_b   7.87283214
_cell_length_c   7.87283059
_cell_angle_alpha   151.45296661
_cell_angle_beta   151.45296983
_cell_angle_gamma   40.81269104
_symmetry_Int_Tables_number   1
_chemical_formula_structural   CsTcNiP2
_chemical_formula_sum   'Cs1 Tc1 Ni1 P2'
_cell_volume   111.20366573
_cell_formula_units_Z   1
loop_
 _symmetry_equiv_pos_site_id
 _symmetry_equiv_pos_as_xyz
  1  'x, y, z'
loop_
 _atom_site_type_symbol
 _atom_site_label
 _atom_site_symmetry_multiplicity
 _atom_site_fract_x
 _atom_site_fract_y
 _atom_site_fract_z
 _atom_site_occupancy
  Cs  Cs0  1  0.000000  0.000000  0.000000  1
  Tc  Tc1  1  0.250000  0.750000  0.500000  1
  Ni  Ni2  1  0.750000  0.250000  0.500000  1
  P  P3  1  0.334897  0.334897  0.000000  1
  P  P4  1  0.665103  0.665103  0.000000  1
