# generated using pymatgen
data_Dy2Mn4Fe6Ni2P7
_symmetry_space_group_name_H-M   'P 1'
_cell_length_a   9.05356396
_cell_length_b   9.17043121
_cell_length_c   3.61640600
_cell_angle_alpha   90.00000000
_cell_angle_beta   90.00000000
_cell_angle_gamma   119.87267180
_symmetry_Int_Tables_number   1
_chemical_formula_structural   Dy2Mn4Fe6Ni2P7
_chemical_formula_sum   'Dy2 Mn4 Fe6 Ni2 P7'
_cell_volume   260.35920361
_cell_formula_units_Z   1
loop_
 _symmetry_equiv_pos_site_id
 _symmetry_equiv_pos_as_xyz
  1  'x, y, z'
loop_
 _atom_site_type_symbol
 _atom_site_label
 _atom_site_symmetry_multiplicity
 _atom_site_fract_x
 _atom_site_fract_y
 _atom_site_fract_z
 _atom_site_occupancy
  Dy  Dy0  1  0.668296  0.340592  0.000000  1
  Dy  Dy1  1  0.333463  0.662252  0.500000  1
  Mn  Mn2  1  0.614168  0.048672  0.500000  1
  Mn  Mn3  1  0.120405  0.896496  0.500000  1
  Mn  Mn4  1  0.101071  0.220687  0.500000  1
  Mn  Mn5  1  0.772781  0.877927  0.500000  1
  Fe  Fe6  1  0.573916  0.629824  0.000000  1
  Fe  Fe7  1  0.881775  0.728819  0.000000  1
  Fe  Fe8  1  0.273635  0.155077  0.000000  1
  Fe  Fe9  1  0.839983  0.120571  0.000000  1
  Fe  Fe10  1  0.951464  0.566590  0.500000  1
  Fe  Fe11  1  0.435285  0.386776  0.500000  1
  Ni  Ni12  1  0.370603  0.935982  0.000000  1
  Ni  Ni13  1  0.062944  0.429884  0.000000  1
  P  P14  1  0.107282  0.697336  0.000000  1
  P  P15  1  0.307225  0.410840  0.000000  1
  P  P16  1  0.588975  0.878457  0.000000  1
  P  P17  1  0.712192  0.595066  0.500000  1
  P  P18  1  0.404840  0.125885  0.500000  1
  P  P19  1  0.881852  0.291486  0.500000  1
  P  P20  1  0.997845  0.000782  0.000000  1
