# generated using pymatgen
data_InSn4(BIr3)2
_symmetry_space_group_name_H-M   'P 1'
_cell_length_a   6.72734700
_cell_length_b   6.72734777
_cell_length_c   5.64120900
_cell_angle_alpha   90.00000000
_cell_angle_beta   90.00000000
_cell_angle_gamma   120.00000114
_symmetry_Int_Tables_number   1
_chemical_formula_structural   InSn4(BIr3)2
_chemical_formula_sum   'In1 Sn4 B2 Ir6'
_cell_volume   221.10090752
_cell_formula_units_Z   1
loop_
 _symmetry_equiv_pos_site_id
 _symmetry_equiv_pos_as_xyz
  1  'x, y, z'
loop_
 _atom_site_type_symbol
 _atom_site_label
 _atom_site_symmetry_multiplicity
 _atom_site_fract_x
 _atom_site_fract_y
 _atom_site_fract_z
 _atom_site_occupancy
  In  In0  1  0.666667  0.333333  0.500000  1
  Sn  Sn1  1  0.996150  0.593098  0.000000  1
  Sn  Sn2  1  0.406902  0.403052  0.000000  1
  Sn  Sn3  1  0.596948  0.003850  0.000000  1
  Sn  Sn4  1  0.333333  0.666667  0.500000  1
  B  B5  1  0.000000  0.000000  0.500000  1
  B  B6  1  0.000000  0.000000  0.000000  1
  Ir  Ir7  1  0.004666  0.254765  0.746772  1
  Ir  Ir8  1  0.004666  0.254765  0.253228  1
  Ir  Ir9  1  0.745235  0.749902  0.253228  1
  Ir  Ir10  1  0.250098  0.995334  0.746772  1
  Ir  Ir11  1  0.250098  0.995334  0.253228  1
  Ir  Ir12  1  0.745235  0.749902  0.746772  1
