# generated using pymatgen
data_CaEu(RuC)4
_symmetry_space_group_name_H-M   'P 1'
_cell_length_a   5.42536665
_cell_length_b   5.42545687
_cell_length_c   5.83761900
_cell_angle_alpha   107.30648675
_cell_angle_beta   107.31290077
_cell_angle_gamma   111.16341636
_symmetry_Int_Tables_number   1
_chemical_formula_structural   CaEu(RuC)4
_chemical_formula_sum   'Ca1 Eu1 Ru4 C4'
_cell_volume   136.24353301
_cell_formula_units_Z   1
loop_
 _symmetry_equiv_pos_site_id
 _symmetry_equiv_pos_as_xyz
  1  'x, y, z'
loop_
 _atom_site_type_symbol
 _atom_site_label
 _atom_site_symmetry_multiplicity
 _atom_site_fract_x
 _atom_site_fract_y
 _atom_site_fract_z
 _atom_site_occupancy
  Ca  Ca0  1  0.374530  0.625592  0.250106  1
  Eu  Eu1  1  0.625446  0.374423  0.749888  1
  Ru  Ru2  1  0.260084  0.010183  0.020326  1
  Ru  Ru3  1  0.989833  0.739900  0.479653  1
  Ru  Ru4  1  0.008844  0.258821  0.517845  1
  Ru  Ru5  1  0.741193  0.991131  0.982174  1
  C  C6  1  0.692285  0.307734  0.249990  1
  C  C7  1  0.058002  0.942050  0.250013  1
  C  C8  1  0.945307  0.054629  0.749990  1
  C  C9  1  0.304475  0.695534  0.750018  1
