# generated using pymatgen
data_Pr3Nd7CuGeBi6
_symmetry_space_group_name_H-M   'P 1'
_cell_length_a   9.69015100
_cell_length_b   9.69015081
_cell_length_c   6.63992700
_cell_angle_alpha   90.00000000
_cell_angle_beta   90.00000000
_cell_angle_gamma   119.99999724
_symmetry_Int_Tables_number   1
_chemical_formula_structural   Pr3Nd7CuGeBi6
_chemical_formula_sum   'Pr3 Nd7 Cu1 Ge1 Bi6'
_cell_volume   539.95184464
_cell_formula_units_Z   1
loop_
 _symmetry_equiv_pos_site_id
 _symmetry_equiv_pos_as_xyz
  1  'x, y, z'
loop_
 _atom_site_type_symbol
 _atom_site_label
 _atom_site_symmetry_multiplicity
 _atom_site_fract_x
 _atom_site_fract_y
 _atom_site_fract_z
 _atom_site_occupancy
  Pr  Pr0  1  0.666667  0.333333  0.000000  1
  Pr  Pr1  1  0.333333  0.666667  0.000000  1
  Pr  Pr2  1  0.333333  0.666667  0.500000  1
  Nd  Nd3  1  0.666667  0.333333  0.500000  1
  Nd  Nd4  1  0.747749  0.747684  0.751703  1
  Nd  Nd5  1  0.252316  0.000065  0.751703  1
  Nd  Nd6  1  0.999935  0.252251  0.751703  1
  Nd  Nd7  1  0.252316  0.252251  0.248297  1
  Nd  Nd8  1  0.747749  0.000065  0.248297  1
  Nd  Nd9  1  0.999935  0.747684  0.248297  1
  Cu  Cu10  1  0.000000  0.000000  0.500000  1
  Ge  Ge11  1  0.000000  0.000000  0.000000  1
  Bi  Bi12  1  0.386829  0.386384  0.748862  1
  Bi  Bi13  1  0.613616  0.000445  0.748862  1
  Bi  Bi14  1  0.999555  0.613171  0.748862  1
  Bi  Bi15  1  0.613616  0.613171  0.251138  1
  Bi  Bi16  1  0.386829  0.000445  0.251138  1
  Bi  Bi17  1  0.999555  0.386384  0.251138  1
