# generated using pymatgen
data_Tm4Hg2Pd3Pt
_symmetry_space_group_name_H-M   'P 1'
_cell_length_a   7.74482600
_cell_length_b   7.74482594
_cell_length_c   3.60515200
_cell_angle_alpha   90.00000000
_cell_angle_beta   90.00000000
_cell_angle_gamma   89.97182863
_symmetry_Int_Tables_number   1
_chemical_formula_structural   Tm4Hg2Pd3Pt
_chemical_formula_sum   'Tm4 Hg2 Pd3 Pt1'
_cell_volume   216.24538821
_cell_formula_units_Z   1
loop_
 _symmetry_equiv_pos_site_id
 _symmetry_equiv_pos_as_xyz
  1  'x, y, z'
loop_
 _atom_site_type_symbol
 _atom_site_label
 _atom_site_symmetry_multiplicity
 _atom_site_fract_x
 _atom_site_fract_y
 _atom_site_fract_z
 _atom_site_occupancy
  Tm  Tm0  1  0.667974  0.167974  0.500000  1
  Tm  Tm1  1  0.325097  0.825097  0.500000  1
  Tm  Tm2  1  0.172692  0.335681  0.500000  1
  Tm  Tm3  1  0.835681  0.672692  0.500000  1
  Hg  Hg4  1  0.999957  0.005591  0.000000  1
  Hg  Hg5  1  0.505591  0.499957  0.000000  1
  Pd  Pd6  1  0.867068  0.367068  0.000000  1
  Pd  Pd7  1  0.628925  0.870849  0.000000  1
  Pd  Pd8  1  0.370849  0.128925  0.000000  1
  Pt  Pt9  1  0.126167  0.626167  0.000000  1
