# generated using pymatgen
data_BeNb2Si2Ni
_symmetry_space_group_name_H-M   'P 1'
_cell_length_a   6.18543000
_cell_length_b   3.68117100
_cell_length_c   7.04232500
_cell_angle_alpha   90.00000000
_cell_angle_beta   90.00000000
_cell_angle_gamma   90.00000000
_symmetry_Int_Tables_number   1
_chemical_formula_structural   BeNb2Si2Ni
_chemical_formula_sum   'Be2 Nb4 Si4 Ni2'
_cell_volume   160.35110317
_cell_formula_units_Z   2
loop_
 _symmetry_equiv_pos_site_id
 _symmetry_equiv_pos_as_xyz
  1  'x, y, z'
loop_
 _atom_site_type_symbol
 _atom_site_label
 _atom_site_symmetry_multiplicity
 _atom_site_fract_x
 _atom_site_fract_y
 _atom_site_fract_z
 _atom_site_occupancy
  Be  Be0  1  0.812513  0.250001  0.086675  1
  Be  Be1  1  0.312513  0.250001  0.413326  1
  Nb  Nb2  1  0.511107  0.750001  0.183360  1
  Nb  Nb3  1  0.011108  0.750001  0.316640  1
  Nb  Nb4  1  0.999795  0.250001  0.674277  1
  Nb  Nb5  1  0.499796  0.250001  0.825724  1
  Si  Si6  1  0.207862  0.250001  0.100210  1
  Si  Si7  1  0.707862  0.250001  0.399791  1
  Si  Si8  1  0.297938  0.750001  0.604010  1
  Si  Si9  1  0.797940  0.750001  0.895991  1
  Ni  Ni10  1  0.670785  0.750001  0.579496  1
  Ni  Ni11  1  0.170785  0.750001  0.920505  1
