# generated using pymatgen
data_H7Pt
_symmetry_space_group_name_H-M   'P 1'
_cell_length_a   2.70778345
_cell_length_b   3.46820553
_cell_length_c   10.00561423
_cell_angle_alpha   81.55504530
_cell_angle_beta   88.10210496
_cell_angle_gamma   90.61975200
_symmetry_Int_Tables_number   1
_chemical_formula_structural   H7Pt
_chemical_formula_sum   'H7 Pt1'
_cell_volume   92.88273177
_cell_formula_units_Z   1
loop_
 _symmetry_equiv_pos_site_id
 _symmetry_equiv_pos_as_xyz
  1  'x, y, z'
loop_
 _atom_site_type_symbol
 _atom_site_label
 _atom_site_symmetry_multiplicity
 _atom_site_fract_x
 _atom_site_fract_y
 _atom_site_fract_z
 _atom_site_occupancy
  H  H0  1  0.609163  0.131247  0.558750  1
  H  H1  1  0.414408  0.097206  0.094833  1
  H  H2  1  0.095940  0.695125  0.829726  1
  H  H3  1  0.989227  0.670031  0.900443  1
  H  H4  1  0.384837  0.992857  0.322231  1
  H  H5  1  0.901067  0.546670  0.205860  1
  H  H6  1  0.453671  0.232275  0.605847  1
  Pt  Pt7  1  0.899987  0.045058  0.208829  1
