# generated using pymatgen
data_HoPa(PdPt)3
_symmetry_space_group_name_H-M   'P 1'
_cell_length_a   4.13972600
_cell_length_b   4.15825700
_cell_length_c   8.25097600
_cell_angle_alpha   90.00000000
_cell_angle_beta   90.00000000
_cell_angle_gamma   90.00000000
_symmetry_Int_Tables_number   1
_chemical_formula_structural   HoPa(PdPt)3
_chemical_formula_sum   'Ho1 Pa1 Pd3 Pt3'
_cell_volume   142.03266900
_cell_formula_units_Z   1
loop_
 _symmetry_equiv_pos_site_id
 _symmetry_equiv_pos_as_xyz
  1  'x, y, z'
loop_
 _atom_site_type_symbol
 _atom_site_label
 _atom_site_symmetry_multiplicity
 _atom_site_fract_x
 _atom_site_fract_y
 _atom_site_fract_z
 _atom_site_occupancy
  Ho  Ho0  1  0.000000  0.000000  0.750110  1
  Pa  Pa1  1  0.000000  0.000000  0.249873  1
  Pd  Pd2  1  0.500000  0.500000  0.250309  1
  Pd  Pd3  1  0.500000  0.500000  0.749261  1
  Pd  Pd4  1  0.000000  0.500000  0.496551  1
  Pt  Pt5  1  0.000000  0.500000  0.004542  1
  Pt  Pt6  1  0.500000  0.000000  0.495045  1
  Pt  Pt7  1  0.500000  0.000000  0.004309  1
