# generated using pymatgen
data_Nb16GaNi7N4
_symmetry_space_group_name_H-M   'P 1'
_cell_length_a   8.28123793
_cell_length_b   8.27042469
_cell_length_c   8.27042500
_cell_angle_alpha   60.00000277
_cell_angle_beta   60.04318729
_cell_angle_gamma   60.04318697
_symmetry_Int_Tables_number   1
_chemical_formula_structural   Nb16GaNi7N4
_chemical_formula_sum   'Nb16 Ga1 Ni7 N4'
_cell_volume   400.79205215
_cell_formula_units_Z   1
loop_
 _symmetry_equiv_pos_site_id
 _symmetry_equiv_pos_as_xyz
  1  'x, y, z'
loop_
 _atom_site_type_symbol
 _atom_site_label
 _atom_site_symmetry_multiplicity
 _atom_site_fract_x
 _atom_site_fract_y
 _atom_site_fract_z
 _atom_site_occupancy
  Nb  Nb0  1  0.125683  0.624773  0.624773  1
  Nb  Nb1  1  0.616135  0.120018  0.631923  1
  Nb  Nb2  1  0.616135  0.631923  0.120018  1
  Nb  Nb3  1  0.616135  0.631923  0.631923  1
  Nb  Nb4  1  0.815194  0.813261  0.185773  1
  Nb  Nb5  1  0.179984  0.181970  0.819023  1
  Nb  Nb6  1  0.815194  0.185773  0.813261  1
  Nb  Nb7  1  0.179984  0.819023  0.181970  1
  Nb  Nb8  1  0.179984  0.819023  0.819023  1
  Nb  Nb9  1  0.815194  0.185773  0.185773  1
  Nb  Nb10  1  0.432431  0.432010  0.067779  1
  Nb  Nb11  1  0.070507  0.058969  0.435262  1
  Nb  Nb12  1  0.432431  0.067779  0.432010  1
  Nb  Nb13  1  0.070507  0.435262  0.058969  1
  Nb  Nb14  1  0.070507  0.435262  0.435262  1
  Nb  Nb15  1  0.432431  0.067779  0.067779  1
  Ga  Ga16  1  0.761643  0.412786  0.412786  1
  Ni  Ni17  1  0.422114  0.738950  0.419468  1
  Ni  Ni18  1  0.422114  0.419468  0.738950  1
  Ni  Ni19  1  0.422114  0.419468  0.419468  1
  Ni  Ni20  1  0.508565  0.830478  0.830478  1
  Ni  Ni21  1  0.830359  0.511517  0.829062  1
  Ni  Ni22  1  0.830359  0.829062  0.511517  1
  Ni  Ni23  1  0.830359  0.829062  0.829062  1
  N  N24  1  0.627145  0.124285  0.124285  1
  N  N25  1  0.125596  0.623341  0.125531  1
  N  N26  1  0.125596  0.125531  0.623341  1
  N  N27  1  0.125596  0.125531  0.125531  1
