# generated using pymatgen
data_Y3ErAl4IrPt3
_symmetry_space_group_name_H-M   'P 1'
_cell_length_a   4.42601000
_cell_length_b   6.82941483
_cell_length_c   7.77827417
_cell_angle_alpha   90.22312475
_cell_angle_beta   90.00000000
_cell_angle_gamma   90.00000000
_symmetry_Int_Tables_number   1
_chemical_formula_structural   Y3ErAl4IrPt3
_chemical_formula_sum   'Y3 Er1 Al4 Ir1 Pt3'
_cell_volume   235.11256423
_cell_formula_units_Z   1
loop_
 _symmetry_equiv_pos_site_id
 _symmetry_equiv_pos_as_xyz
  1  'x, y, z'
loop_
 _atom_site_type_symbol
 _atom_site_label
 _atom_site_symmetry_multiplicity
 _atom_site_fract_x
 _atom_site_fract_y
 _atom_site_fract_z
 _atom_site_occupancy
  Y  Y0  1  0.250000  0.471003  0.181147  1
  Y  Y1  1  0.750000  0.529915  0.815965  1
  Y  Y2  1  0.250000  0.969504  0.321075  1
  Er  Er3  1  0.750000  0.023671  0.680728  1
  Al  Al4  1  0.250000  0.852766  0.935329  1
  Al  Al5  1  0.750000  0.145612  0.061794  1
  Al  Al6  1  0.750000  0.646468  0.438337  1
  Al  Al7  1  0.250000  0.359404  0.563925  1
  Ir  Ir8  1  0.250000  0.732769  0.617377  1
  Pt  Pt9  1  0.750000  0.271422  0.384831  1
  Pt  Pt10  1  0.750000  0.773139  0.117585  1
  Pt  Pt11  1  0.250000  0.224327  0.881907  1
