# generated using pymatgen
data_Sc4Ti2Co3B4Ir7
_symmetry_space_group_name_H-M   'P 1'
_cell_length_a   9.19537068
_cell_length_b   9.26903989
_cell_length_c   3.07651800
_cell_angle_alpha   90.00000000
_cell_angle_beta   90.00000000
_cell_angle_gamma   90.35494147
_symmetry_Int_Tables_number   1
_chemical_formula_structural   Sc4Ti2Co3B4Ir7
_chemical_formula_sum   'Sc4 Ti2 Co3 B4 Ir7'
_cell_volume   262.21354340
_cell_formula_units_Z   1
loop_
 _symmetry_equiv_pos_site_id
 _symmetry_equiv_pos_as_xyz
  1  'x, y, z'
loop_
 _atom_site_type_symbol
 _atom_site_label
 _atom_site_symmetry_multiplicity
 _atom_site_fract_x
 _atom_site_fract_y
 _atom_site_fract_z
 _atom_site_occupancy
  Sc  Sc0  1  0.673579  0.173545  0.000000  1
  Sc  Sc1  1  0.324244  0.828725  0.000000  1
  Sc  Sc2  1  0.175939  0.321812  0.000000  1
  Sc  Sc3  1  0.825085  0.676020  0.000000  1
  Ti  Ti4  1  0.014277  0.004436  0.000000  1
  Ti  Ti5  1  0.498826  0.498214  0.000000  1
  Co  Co6  1  0.226573  0.066453  0.500000  1
  Co  Co7  1  0.496833  0.000350  0.500000  1
  Co  Co8  1  0.999866  0.500434  0.500000  1
  B  B9  1  0.107744  0.607840  0.000000  1
  B  B10  1  0.893031  0.391737  0.000000  1
  B  B11  1  0.610508  0.892899  0.000000  1
  B  B12  1  0.373214  0.105368  0.000000  1
  Ir  Ir13  1  0.780697  0.936113  0.500000  1
  Ir  Ir14  1  0.067725  0.779534  0.500000  1
  Ir  Ir15  1  0.722012  0.432508  0.500000  1
  Ir  Ir16  1  0.936428  0.222031  0.500000  1
  Ir  Ir17  1  0.277676  0.566538  0.500000  1
  Ir  Ir18  1  0.565799  0.723075  0.500000  1
  Ir  Ir19  1  0.429943  0.272368  0.500000  1
