# generated using pymatgen
data_TbLu3(Al3Ir)6
_symmetry_space_group_name_H-M   'P 1'
_cell_length_a   7.53593871
_cell_length_b   7.53884795
_cell_length_c   9.43011200
_cell_angle_alpha   90.00000000
_cell_angle_beta   90.00000000
_cell_angle_gamma   119.51906061
_symmetry_Int_Tables_number   1
_chemical_formula_structural   TbLu3(Al3Ir)6
_chemical_formula_sum   'Tb1 Lu3 Al18 Ir6'
_cell_volume   466.20206851
_cell_formula_units_Z   1
loop_
 _symmetry_equiv_pos_site_id
 _symmetry_equiv_pos_as_xyz
  1  'x, y, z'
loop_
 _atom_site_type_symbol
 _atom_site_label
 _atom_site_symmetry_multiplicity
 _atom_site_fract_x
 _atom_site_fract_y
 _atom_site_fract_z
 _atom_site_occupancy
  Tb  Tb0  1  0.994764  0.671342  0.250000  1
  Lu  Lu1  1  0.005083  0.328225  0.750000  1
  Lu  Lu2  1  0.671101  0.995217  0.250000  1
  Lu  Lu3  1  0.328494  0.005324  0.750000  1
  Al  Al4  1  0.129333  0.130286  0.250000  1
  Al  Al5  1  0.870994  0.871474  0.750000  1
  Al  Al6  1  0.000509  0.334289  0.073434  1
  Al  Al7  1  0.999892  0.664603  0.923053  1
  Al  Al8  1  0.999892  0.664603  0.576947  1
  Al  Al9  1  0.335953  0.001189  0.426501  1
  Al  Al10  1  0.000509  0.334289  0.426566  1
  Al  Al11  1  0.664773  0.999933  0.575412  1
  Al  Al12  1  0.664773  0.999933  0.924588  1
  Al  Al13  1  0.335953  0.001189  0.073499  1
  Al  Al14  1  0.332567  0.332562  0.553312  1
  Al  Al15  1  0.666690  0.667416  0.449912  1
  Al  Al16  1  0.666690  0.667416  0.050088  1
  Al  Al17  1  0.332567  0.332562  0.946688  1
  Al  Al18  1  0.341535  0.549644  0.250000  1
  Al  Al19  1  0.659413  0.449581  0.750000  1
  Al  Al20  1  0.548180  0.338545  0.250000  1
  Al  Al21  1  0.450062  0.660049  0.750000  1
  Ir  Ir22  1  0.671997  0.327297  0.999490  1
  Ir  Ir23  1  0.327861  0.672246  0.999561  1
  Ir  Ir24  1  0.327861  0.672246  0.500439  1
  Ir  Ir25  1  0.671997  0.327297  0.500510  1
  Ir  Ir26  1  0.000279  0.000621  0.999367  1
  Ir  Ir27  1  0.000279  0.000621  0.500633  1
