# generated using pymatgen
data_AcEuTiN3
_symmetry_space_group_name_H-M   'P 1'
_cell_length_a   6.33100612
_cell_length_b   6.33100682
_cell_length_c   12.38382900
_cell_angle_alpha   90.00000000
_cell_angle_beta   90.00000000
_cell_angle_gamma   125.97763157
_symmetry_Int_Tables_number   1
_chemical_formula_structural   AcEuTiN3
_chemical_formula_sum   'Ac4 Eu4 Ti4 N12'
_cell_volume   401.68095401
_cell_formula_units_Z   4
loop_
 _symmetry_equiv_pos_site_id
 _symmetry_equiv_pos_as_xyz
  1  'x, y, z'
loop_
 _atom_site_type_symbol
 _atom_site_label
 _atom_site_symmetry_multiplicity
 _atom_site_fract_x
 _atom_site_fract_y
 _atom_site_fract_z
 _atom_site_occupancy
  Ac  Ac0  1  0.045347  0.954653  0.854614  1
  Ac  Ac1  1  0.954653  0.045347  0.145386  1
  Ac  Ac2  1  0.454653  0.545347  0.354614  1
  Ac  Ac3  1  0.545347  0.454653  0.645386  1
  Eu  Eu4  1  0.638836  0.361164  0.077801  1
  Eu  Eu5  1  0.361164  0.638836  0.922199  1
  Eu  Eu6  1  0.861164  0.138836  0.577801  1
  Eu  Eu7  1  0.138836  0.861164  0.422199  1
  Ti  Ti8  1  0.749379  0.250621  0.839217  1
  Ti  Ti9  1  0.250621  0.749379  0.160783  1
  Ti  Ti10  1  0.750621  0.249379  0.339217  1
  Ti  Ti11  1  0.249379  0.750621  0.660783  1
  N  N12  1  0.578192  0.421808  0.865266  1
  N  N13  1  0.421808  0.578192  0.134734  1
  N  N14  1  0.921808  0.078192  0.365266  1
  N  N15  1  0.078192  0.921808  0.634734  1
  N  N16  1  0.552685  0.947315  0.750000  1
  N  N17  1  0.947315  0.552685  0.250000  1
  N  N18  1  0.447315  0.052685  0.250000  1
  N  N19  1  0.052685  0.447315  0.750000  1
  N  N20  1  0.847770  0.152230  0.965693  1
  N  N21  1  0.152230  0.847770  0.034307  1
  N  N22  1  0.652230  0.347770  0.465693  1
  N  N23  1  0.347770  0.652230  0.534307  1
