# generated using pymatgen
data_DyEr3Ga12Co
_symmetry_space_group_name_H-M   'P 1'
_cell_length_a   7.39496393
_cell_length_b   7.39496322
_cell_length_c   7.37502400
_cell_angle_alpha   109.41661556
_cell_angle_beta   109.41661361
_cell_angle_gamma   109.52577050
_symmetry_Int_Tables_number   1
_chemical_formula_structural   DyEr3Ga12Co
_chemical_formula_sum   'Dy1 Er3 Ga12 Co1'
_cell_volume   310.67468221
_cell_formula_units_Z   1
loop_
 _symmetry_equiv_pos_site_id
 _symmetry_equiv_pos_as_xyz
  1  'x, y, z'
loop_
 _atom_site_type_symbol
 _atom_site_label
 _atom_site_symmetry_multiplicity
 _atom_site_fract_x
 _atom_site_fract_y
 _atom_site_fract_z
 _atom_site_occupancy
  Dy  Dy0  1  0.000000  0.000000  0.500000  1
  Er  Er1  1  0.000000  0.500000  0.000000  1
  Er  Er2  1  0.500000  0.000000  0.000000  1
  Er  Er3  1  0.500000  0.500000  0.500000  1
  Ga  Ga4  1  0.749790  0.250210  0.500000  1
  Ga  Ga5  1  0.749790  0.499580  0.249790  1
  Ga  Ga6  1  0.500420  0.250210  0.750210  1
  Ga  Ga7  1  0.250210  0.500420  0.750210  1
  Ga  Ga8  1  0.250210  0.749790  0.500000  1
  Ga  Ga9  1  0.499580  0.749790  0.249790  1
  Ga  Ga10  1  0.717140  0.717140  0.999627  1
  Ga  Ga11  1  0.282860  0.000000  0.282487  1
  Ga  Ga12  1  0.000000  0.282860  0.282487  1
  Ga  Ga13  1  0.282860  0.282860  0.000373  1
  Ga  Ga14  1  0.717140  0.000000  0.717513  1
  Ga  Ga15  1  0.000000  0.717140  0.717513  1
  Co  Co16  1  0.000000  0.000000  0.000000  1
