# generated using pymatgen
data_TbY3FeRu7
_symmetry_space_group_name_H-M   'P 1'
_cell_length_a   5.33723900
_cell_length_b   5.22759451
_cell_length_c   8.92639700
_cell_angle_alpha   89.99887805
_cell_angle_beta   90.00000000
_cell_angle_gamma   120.69628624
_symmetry_Int_Tables_number   1
_chemical_formula_structural   TbY3FeRu7
_chemical_formula_sum   'Tb1 Y3 Fe1 Ru7'
_cell_volume   214.15849108
_cell_formula_units_Z   1
loop_
 _symmetry_equiv_pos_site_id
 _symmetry_equiv_pos_as_xyz
  1  'x, y, z'
loop_
 _atom_site_type_symbol
 _atom_site_label
 _atom_site_symmetry_multiplicity
 _atom_site_fract_x
 _atom_site_fract_y
 _atom_site_fract_z
 _atom_site_occupancy
  Tb  Tb0  1  0.331497  0.662997  0.434246  1
  Y  Y1  1  0.668437  0.336874  0.566998  1
  Y  Y2  1  0.668447  0.336894  0.932949  1
  Y  Y3  1  0.331381  0.662764  0.065864  1
  Fe  Fe4  1  0.162983  0.325967  0.750132  1
  Ru  Ru5  1  0.175116  0.828086  0.750111  1
  Ru  Ru6  1  0.344915  0.171118  0.249870  1
  Ru  Ru7  1  0.833956  0.667912  0.249930  1
  Ru  Ru8  1  0.652970  0.828086  0.750111  1
  Ru  Ru9  1  0.001996  0.003992  0.998186  1
  Ru  Ru10  1  0.826202  0.171118  0.249870  1
  Ru  Ru11  1  0.002097  0.004193  0.501734  1
