# generated using pymatgen
data_NaTm(IO3)4
_symmetry_space_group_name_H-M   'P 1'
_cell_length_a   5.18210600
_cell_length_b   7.31304247
_cell_length_c   16.03664454
_cell_angle_alpha   78.66916784
_cell_angle_beta   90.00000000
_cell_angle_gamma   90.00000000
_symmetry_Int_Tables_number   1
_chemical_formula_structural   NaTm(IO3)4
_chemical_formula_sum   'Na2 Tm2 I8 O24'
_cell_volume   595.89467961
_cell_formula_units_Z   2
loop_
 _symmetry_equiv_pos_site_id
 _symmetry_equiv_pos_as_xyz
  1  'x, y, z'
loop_
 _atom_site_type_symbol
 _atom_site_label
 _atom_site_symmetry_multiplicity
 _atom_site_fract_x
 _atom_site_fract_y
 _atom_site_fract_z
 _atom_site_occupancy
  Na  Na0  1  0.500000  0.500000  0.000000  1
  Na  Na1  1  0.000000  0.500000  0.500000  1
  Tm  Tm2  1  0.500000  0.000000  0.000000  1
  Tm  Tm3  1  0.000000  0.000000  0.500000  1
  I  I4  1  0.904669  0.664492  0.165140  1
  I  I5  1  0.404669  0.335508  0.334860  1
  I  I6  1  0.095331  0.335508  0.834860  1
  I  I7  1  0.595331  0.664492  0.665140  1
  I  I8  1  0.993183  0.184076  0.138793  1
  I  I9  1  0.493183  0.815924  0.361207  1
  I  I10  1  0.006817  0.815924  0.861207  1
  I  I11  1  0.506817  0.184076  0.638793  1
  O  O12  1  0.679414  0.743986  0.074663  1
  O  O13  1  0.179414  0.256014  0.425337  1
  O  O14  1  0.320586  0.256014  0.925337  1
  O  O15  1  0.820586  0.743986  0.574663  1
  O  O16  1  0.799018  0.828857  0.231127  1
  O  O17  1  0.299018  0.171143  0.268873  1
  O  O18  1  0.200982  0.171143  0.768873  1
  O  O19  1  0.700982  0.828857  0.731127  1
  O  O20  1  0.730692  0.448220  0.208574  1
  O  O21  1  0.230692  0.551780  0.291426  1
  O  O22  1  0.269308  0.551780  0.791426  1
  O  O23  1  0.769308  0.448220  0.708574  1
  O  O24  1  0.741377  0.196030  0.054976  1
  O  O25  1  0.241377  0.803970  0.445024  1
  O  O26  1  0.258623  0.803970  0.945024  1
  O  O27  1  0.758623  0.196030  0.554976  1
  O  O28  1  0.203682  0.009121  0.102840  1
  O  O29  1  0.703682  0.990879  0.397160  1
  O  O30  1  0.796318  0.990879  0.897160  1
  O  O31  1  0.296318  0.009121  0.602840  1
  O  O32  1  0.155159  0.399769  0.093252  1
  O  O33  1  0.655159  0.600231  0.406748  1
  O  O34  1  0.844841  0.600231  0.906748  1
  O  O35  1  0.344841  0.399769  0.593252  1
