# generated using pymatgen
data_Nb6Pd11RuRh6
_symmetry_space_group_name_H-M   'P 1'
_cell_length_a   5.62245699
_cell_length_b   5.62246148
_cell_length_c   13.64722729
_cell_angle_alpha   90.17124076
_cell_angle_beta   89.82874071
_cell_angle_gamma   120.31815694
_symmetry_Int_Tables_number   1
_chemical_formula_structural   Nb6Pd11RuRh6
_chemical_formula_sum   'Nb6 Pd11 Ru1 Rh6'
_cell_volume   372.41214126
_cell_formula_units_Z   1
loop_
 _symmetry_equiv_pos_site_id
 _symmetry_equiv_pos_as_xyz
  1  'x, y, z'
loop_
 _atom_site_type_symbol
 _atom_site_label
 _atom_site_symmetry_multiplicity
 _atom_site_fract_x
 _atom_site_fract_y
 _atom_site_fract_z
 _atom_site_occupancy
  Nb  Nb0  1  0.996465  0.003537  0.250412  1
  Nb  Nb1  1  0.005117  0.994883  0.745645  1
  Nb  Nb2  1  0.333787  0.666211  0.400684  1
  Nb  Nb3  1  0.666426  0.333572  0.597305  1
  Nb  Nb4  1  0.667691  0.332310  0.901324  1
  Nb  Nb5  1  0.336940  0.663060  0.101116  1
  Pd  Pd6  1  0.166904  0.331844  0.917229  1
  Pd  Pd7  1  0.668157  0.833096  0.917229  1
  Pd  Pd8  1  0.167029  0.832971  0.917150  1
  Pd  Pd9  1  0.834221  0.667203  0.082418  1
  Pd  Pd10  1  0.332796  0.165780  0.082418  1
  Pd  Pd11  1  0.833143  0.166856  0.081808  1
  Pd  Pd12  1  0.834023  0.669617  0.417948  1
  Pd  Pd13  1  0.330383  0.165978  0.417948  1
  Pd  Pd14  1  0.831806  0.168193  0.417780  1
  Pd  Pd15  1  0.165918  0.335555  0.582015  1
  Pd  Pd16  1  0.664445  0.834080  0.582015  1
  Ru  Ru17  1  0.499793  0.500204  0.250225  1
  Rh  Rh18  1  0.499825  0.004937  0.250094  1
  Rh  Rh19  1  0.995061  0.500173  0.250094  1
  Rh  Rh20  1  0.501357  0.498643  0.750127  1
  Rh  Rh21  1  0.502120  0.995303  0.750346  1
  Rh  Rh22  1  0.004697  0.497883  0.750346  1
  Rh  Rh23  1  0.161896  0.838110  0.586328  1
