# generated using pymatgen
data_Np4Ga12Ni
_symmetry_space_group_name_H-M   'P 1'
_cell_length_a   7.45366079
_cell_length_b   7.45365996
_cell_length_c   7.45366000
_cell_angle_alpha   109.47121803
_cell_angle_beta   109.47121576
_cell_angle_gamma   109.47122394
_symmetry_Int_Tables_number   1
_chemical_formula_structural   Np4Ga12Ni
_chemical_formula_sum   'Np4 Ga12 Ni1'
_cell_volume   318.77694968
_cell_formula_units_Z   1
loop_
 _symmetry_equiv_pos_site_id
 _symmetry_equiv_pos_as_xyz
  1  'x, y, z'
loop_
 _atom_site_type_symbol
 _atom_site_label
 _atom_site_symmetry_multiplicity
 _atom_site_fract_x
 _atom_site_fract_y
 _atom_site_fract_z
 _atom_site_occupancy
  Np  Np0  1  0.500000  0.500000  0.500000  1
  Np  Np1  1  0.000000  0.000000  0.500000  1
  Np  Np2  1  0.000000  0.500000  0.000000  1
  Np  Np3  1  0.500000  0.000000  0.000000  1
  Ga  Ga4  1  0.500000  0.750000  0.250000  1
  Ga  Ga5  1  0.500000  0.250000  0.750000  1
  Ga  Ga6  1  0.250000  0.500000  0.750000  1
  Ga  Ga7  1  0.750000  0.500000  0.250000  1
  Ga  Ga8  1  0.750000  0.250000  0.500000  1
  Ga  Ga9  1  0.250000  0.750000  0.500000  1
  Ga  Ga10  1  0.000000  0.285186  0.285186  1
  Ga  Ga11  1  0.000000  0.714814  0.714814  1
  Ga  Ga12  1  0.285186  0.000000  0.285186  1
  Ga  Ga13  1  0.714814  0.000000  0.714814  1
  Ga  Ga14  1  0.285186  0.285186  0.000000  1
  Ga  Ga15  1  0.714814  0.714814  0.000000  1
  Ni  Ni16  1  0.000000  0.000000  0.000000  1
