# generated using pymatgen
data_Ce12Fe5CuSi6
_symmetry_space_group_name_H-M   'P 1'
_cell_length_a   7.46844248
_cell_length_b   7.46844003
_cell_length_c   9.56923000
_cell_angle_alpha   89.86913569
_cell_angle_beta   89.86913573
_cell_angle_gamma   119.92293675
_symmetry_Int_Tables_number   1
_chemical_formula_structural   Ce12Fe5CuSi6
_chemical_formula_sum   'Ce12 Fe5 Cu1 Si6'
_cell_volume   462.59375597
_cell_formula_units_Z   1
loop_
 _symmetry_equiv_pos_site_id
 _symmetry_equiv_pos_as_xyz
  1  'x, y, z'
loop_
 _atom_site_type_symbol
 _atom_site_label
 _atom_site_symmetry_multiplicity
 _atom_site_fract_x
 _atom_site_fract_y
 _atom_site_fract_z
 _atom_site_occupancy
  Ce  Ce0  1  0.999707  0.576658  0.499274  1
  Ce  Ce1  1  0.576658  0.999707  0.499274  1
  Ce  Ce2  1  0.419456  0.419456  0.498890  1
  Ce  Ce3  1  0.998337  0.424644  0.003831  1
  Ce  Ce4  1  0.424644  0.998337  0.003831  1
  Ce  Ce5  1  0.604644  0.604644  0.026653  1
  Ce  Ce6  1  0.006399  0.748990  0.172235  1
  Ce  Ce7  1  0.748990  0.006399  0.172235  1
  Ce  Ce8  1  0.260970  0.260970  0.170227  1
  Ce  Ce9  1  0.989560  0.252234  0.663614  1
  Ce  Ce10  1  0.252234  0.989560  0.663614  1
  Ce  Ce11  1  0.740964  0.740964  0.671233  1
  Fe  Fe12  1  0.000190  0.349001  0.341913  1
  Fe  Fe13  1  0.349001  0.000190  0.341913  1
  Fe  Fe14  1  0.650595  0.650595  0.343639  1
  Fe  Fe15  1  0.999925  0.648220  0.843521  1
  Fe  Fe16  1  0.648220  0.999925  0.843521  1
  Cu  Cu17  1  0.331065  0.331065  0.839835  1
  Si  Si18  1  0.668968  0.335879  0.273313  1
  Si  Si19  1  0.335879  0.668968  0.273313  1
  Si  Si20  1  0.334118  0.668843  0.776728  1
  Si  Si21  1  0.668843  0.334118  0.776728  1
  Si  Si22  1  0.997848  0.997848  0.416109  1
  Si  Si23  1  0.992786  0.992786  0.913808  1
