# generated using pymatgen
data_Zr6Ti4Al12Ir7
_symmetry_space_group_name_H-M   'P 1'
_cell_length_a   8.79911738
_cell_length_b   8.79911803
_cell_length_c   8.79911800
_cell_angle_alpha   60.00000011
_cell_angle_beta   59.99999766
_cell_angle_gamma   60.00000306
_symmetry_Int_Tables_number   1
_chemical_formula_structural   Zr6Ti4Al12Ir7
_chemical_formula_sum   'Zr6 Ti4 Al12 Ir7'
_cell_volume   481.72856682
_cell_formula_units_Z   1
loop_
 _symmetry_equiv_pos_site_id
 _symmetry_equiv_pos_as_xyz
  1  'x, y, z'
loop_
 _atom_site_type_symbol
 _atom_site_label
 _atom_site_symmetry_multiplicity
 _atom_site_fract_x
 _atom_site_fract_y
 _atom_site_fract_z
 _atom_site_occupancy
  Zr  Zr0  1  0.691245  0.691245  0.308755  1
  Zr  Zr1  1  0.308755  0.691245  0.308755  1
  Zr  Zr2  1  0.691245  0.308755  0.308755  1
  Zr  Zr3  1  0.308755  0.308755  0.691245  1
  Zr  Zr4  1  0.691245  0.308755  0.691245  1
  Zr  Zr5  1  0.308755  0.691245  0.691245  1
  Ti  Ti6  1  0.879884  0.879884  0.360349  1
  Ti  Ti7  1  0.879884  0.360349  0.879884  1
  Ti  Ti8  1  0.360349  0.879884  0.879884  1
  Ti  Ti9  1  0.879884  0.879884  0.879884  1
  Al  Al10  1  0.120168  0.120168  0.639496  1
  Al  Al11  1  0.120168  0.639496  0.120168  1
  Al  Al12  1  0.639496  0.120168  0.120168  1
  Al  Al13  1  0.120168  0.120168  0.120168  1
  Al  Al14  1  0.662580  0.662580  0.012259  1
  Al  Al15  1  0.662580  0.012259  0.662580  1
  Al  Al16  1  0.012259  0.662580  0.662580  1
  Al  Al17  1  0.662580  0.662580  0.662580  1
  Al  Al18  1  0.336525  0.336525  0.990427  1
  Al  Al19  1  0.336525  0.990427  0.336525  1
  Al  Al20  1  0.990427  0.336525  0.336525  1
  Al  Al21  1  0.336525  0.336525  0.336525  1
  Ir  Ir22  1  0.000000  0.000000  0.000000  1
  Ir  Ir23  1  0.998306  0.998306  0.501694  1
  Ir  Ir24  1  0.501694  0.998306  0.501694  1
  Ir  Ir25  1  0.998306  0.501694  0.501694  1
  Ir  Ir26  1  0.501694  0.501694  0.998306  1
  Ir  Ir27  1  0.998306  0.501694  0.998306  1
  Ir  Ir28  1  0.501694  0.998306  0.998306  1
