# generated using pymatgen
data_Er2Lu(SiIr)2
_symmetry_space_group_name_H-M   'P 1'
_cell_length_a   5.51055601
_cell_length_b   5.51055521
_cell_length_c   13.15139100
_cell_angle_alpha   90.00000000
_cell_angle_beta   90.00000000
_cell_angle_gamma   136.70715956
_symmetry_Int_Tables_number   1
_chemical_formula_structural   Er2Lu(SiIr)2
_chemical_formula_sum   'Er4 Lu2 Si4 Ir4'
_cell_volume   273.85077584
_cell_formula_units_Z   2
loop_
 _symmetry_equiv_pos_site_id
 _symmetry_equiv_pos_as_xyz
  1  'x, y, z'
loop_
 _atom_site_type_symbol
 _atom_site_label
 _atom_site_symmetry_multiplicity
 _atom_site_fract_x
 _atom_site_fract_y
 _atom_site_fract_z
 _atom_site_occupancy
  Er  Er0  1  0.774033  0.225967  0.604661  1
  Er  Er1  1  0.225967  0.774033  0.395339  1
  Er  Er2  1  0.774033  0.225967  0.895339  1
  Er  Er3  1  0.225967  0.774033  0.104661  1
  Lu  Lu4  1  0.517692  0.482308  0.250000  1
  Lu  Lu5  1  0.482308  0.517692  0.750000  1
  Si  Si6  1  0.061902  0.938098  0.590627  1
  Si  Si7  1  0.061902  0.938098  0.909373  1
  Si  Si8  1  0.938098  0.061902  0.409373  1
  Si  Si9  1  0.938098  0.061902  0.090627  1
  Ir  Ir10  1  0.811248  0.188752  0.250000  1
  Ir  Ir11  1  0.188752  0.811248  0.750000  1
  Ir  Ir12  1  0.500000  0.500000  0.000000  1
  Ir  Ir13  1  0.500000  0.500000  0.500000  1
