# generated using pymatgen
data_Y6Al24PdRu7
_symmetry_space_group_name_H-M   'P 1'
_cell_length_a   8.82916803
_cell_length_b   8.82916885
_cell_length_c   9.56219452
_cell_angle_alpha   89.82158291
_cell_angle_beta   90.17841668
_cell_angle_gamma   119.69730221
_symmetry_Int_Tables_number   1
_chemical_formula_structural   Y6Al24PdRu7
_chemical_formula_sum   'Y6 Al24 Pd1 Ru7'
_cell_volume   647.50273551
_cell_formula_units_Z   1
loop_
 _symmetry_equiv_pos_site_id
 _symmetry_equiv_pos_as_xyz
  1  'x, y, z'
loop_
 _atom_site_type_symbol
 _atom_site_label
 _atom_site_symmetry_multiplicity
 _atom_site_fract_x
 _atom_site_fract_y
 _atom_site_fract_z
 _atom_site_occupancy
  Y  Y0  1  0.191476  0.386545  0.250811  1
  Y  Y1  1  0.808524  0.613455  0.749189  1
  Y  Y2  1  0.613455  0.808524  0.250811  1
  Y  Y3  1  0.386545  0.191476  0.749189  1
  Y  Y4  1  0.194172  0.805828  0.251832  1
  Y  Y5  1  0.805828  0.194172  0.748168  1
  Al  Al6  1  0.330355  0.669645  0.019571  1
  Al  Al7  1  0.669645  0.330355  0.980429  1
  Al  Al8  1  0.666797  0.333203  0.516316  1
  Al  Al9  1  0.333203  0.666797  0.483684  1
  Al  Al10  1  0.162851  0.324066  0.578519  1
  Al  Al11  1  0.837149  0.675934  0.421481  1
  Al  Al12  1  0.675934  0.837149  0.578519  1
  Al  Al13  1  0.843702  0.677252  0.079301  1
  Al  Al14  1  0.324066  0.162851  0.421481  1
  Al  Al15  1  0.156298  0.322748  0.920699  1
  Al  Al16  1  0.162656  0.837344  0.578483  1
  Al  Al17  1  0.322748  0.156298  0.079301  1
  Al  Al18  1  0.837344  0.162656  0.421517  1
  Al  Al19  1  0.677252  0.843702  0.920699  1
  Al  Al20  1  0.837401  0.162599  0.077893  1
  Al  Al21  1  0.162599  0.837401  0.922107  1
  Al  Al22  1  0.560609  0.121813  0.249009  1
  Al  Al23  1  0.439391  0.878187  0.750991  1
  Al  Al24  1  0.878187  0.439391  0.249009  1
  Al  Al25  1  0.121813  0.560609  0.750991  1
  Al  Al26  1  0.561750  0.438250  0.252301  1
  Al  Al27  1  0.438250  0.561750  0.747699  1
  Al  Al28  1  0.999381  0.000619  0.250142  1
  Al  Al29  1  0.000619  0.999381  0.749858  1
  Pd  Pd30  1  0.500000  0.500000  0.000000  1
  Ru  Ru31  1  0.500000  0.000000  0.000000  1
  Ru  Ru32  1  0.000000  0.500000  0.000000  1
  Ru  Ru33  1  0.500000  0.000000  0.500000  1
  Ru  Ru34  1  0.000000  0.500000  0.500000  1
  Ru  Ru35  1  0.500000  0.500000  0.500000  1
  Ru  Ru36  1  0.000000  0.000000  0.000000  1
  Ru  Ru37  1  0.000000  0.000000  0.500000  1
