# generated using pymatgen
data_Nb12Zn7GaN4
_symmetry_space_group_name_H-M   'P 1'
_cell_length_a   7.04042206
_cell_length_b   7.04042186
_cell_length_c   7.04042127
_cell_angle_alpha   90.04435237
_cell_angle_beta   90.04435870
_cell_angle_gamma   90.04435386
_symmetry_Int_Tables_number   1
_chemical_formula_structural   Nb12Zn7GaN4
_chemical_formula_sum   'Nb12 Zn7 Ga1 N4'
_cell_volume   348.97605897
_cell_formula_units_Z   1
loop_
 _symmetry_equiv_pos_site_id
 _symmetry_equiv_pos_as_xyz
  1  'x, y, z'
loop_
 _atom_site_type_symbol
 _atom_site_label
 _atom_site_symmetry_multiplicity
 _atom_site_fract_x
 _atom_site_fract_y
 _atom_site_fract_z
 _atom_site_occupancy
  Nb  Nb0  1  0.792499  0.957873  0.374022  1
  Nb  Nb1  1  0.708227  0.042513  0.875685  1
  Nb  Nb2  1  0.207660  0.457508  0.124932  1
  Nb  Nb3  1  0.292542  0.542369  0.625094  1
  Nb  Nb4  1  0.957873  0.374022  0.792499  1
  Nb  Nb5  1  0.042513  0.875685  0.708227  1
  Nb  Nb6  1  0.457508  0.124932  0.207660  1
  Nb  Nb7  1  0.542369  0.625094  0.292542  1
  Nb  Nb8  1  0.374022  0.792499  0.957873  1
  Nb  Nb9  1  0.875685  0.708227  0.042513  1
  Nb  Nb10  1  0.124932  0.207660  0.457508  1
  Nb  Nb11  1  0.625094  0.292542  0.542369  1
  Zn  Zn12  1  0.179571  0.818692  0.323833  1
  Zn  Zn13  1  0.323833  0.179571  0.818692  1
  Zn  Zn14  1  0.818692  0.323833  0.179571  1
  Zn  Zn15  1  0.678658  0.678658  0.678658  1
  Zn  Zn16  1  0.571449  0.429098  0.928479  1
  Zn  Zn17  1  0.429098  0.928479  0.571449  1
  Zn  Zn18  1  0.928479  0.571449  0.429098  1
  Ga  Ga19  1  0.072102  0.072102  0.072102  1
  N  N20  1  0.873759  0.124269  0.623836  1
  N  N21  1  0.623836  0.873759  0.124269  1
  N  N22  1  0.124269  0.623836  0.873759  1
  N  N23  1  0.375329  0.375329  0.375329  1
