# generated using pymatgen
data_Pr2CoSi2Ru
_symmetry_space_group_name_H-M   'P 1'
_cell_length_a   4.09139900
_cell_length_b   4.09139900
_cell_length_c   7.26312800
_cell_angle_alpha   90.00000000
_cell_angle_beta   90.00000000
_cell_angle_gamma   90.00000000
_symmetry_Int_Tables_number   1
_chemical_formula_structural   Pr2CoSi2Ru
_chemical_formula_sum   'Pr2 Co1 Si2 Ru1'
_cell_volume   121.58146364
_cell_formula_units_Z   1
loop_
 _symmetry_equiv_pos_site_id
 _symmetry_equiv_pos_as_xyz
  1  'x, y, z'
loop_
 _atom_site_type_symbol
 _atom_site_label
 _atom_site_symmetry_multiplicity
 _atom_site_fract_x
 _atom_site_fract_y
 _atom_site_fract_z
 _atom_site_occupancy
  Pr  Pr0  1  0.500000  0.000000  0.680981  1
  Pr  Pr1  1  0.000000  0.500000  0.319019  1
  Co  Co2  1  0.000000  0.000000  0.000000  1
  Si  Si3  1  0.500000  0.000000  0.169418  1
  Si  Si4  1  0.000000  0.500000  0.830582  1
  Ru  Ru5  1  0.500000  0.500000  0.000000  1
