# generated using pymatgen
data_SrYbIn2Au3
_symmetry_space_group_name_H-M   'P 1'
_cell_length_a   4.60761800
_cell_length_b   8.06765000
_cell_length_c   9.44486100
_cell_angle_alpha   90.00000000
_cell_angle_beta   90.00000000
_cell_angle_gamma   90.00000000
_symmetry_Int_Tables_number   1
_chemical_formula_structural   SrYbIn2Au3
_chemical_formula_sum   'Sr2 Yb2 In4 Au6'
_cell_volume   351.09050619
_cell_formula_units_Z   2
loop_
 _symmetry_equiv_pos_site_id
 _symmetry_equiv_pos_as_xyz
  1  'x, y, z'
loop_
 _atom_site_type_symbol
 _atom_site_label
 _atom_site_symmetry_multiplicity
 _atom_site_fract_x
 _atom_site_fract_y
 _atom_site_fract_z
 _atom_site_occupancy
  Sr  Sr0  1  0.500000  0.000000  0.727631  1
  Sr  Sr1  1  0.000000  0.500000  0.272369  1
  Yb  Yb2  1  0.000000  0.000000  0.347823  1
  Yb  Yb3  1  0.500000  0.500000  0.652177  1
  In  In4  1  0.000000  0.307167  0.884356  1
  In  In5  1  0.500000  0.192833  0.115644  1
  In  In6  1  0.000000  0.692833  0.884356  1
  In  In7  1  0.500000  0.807167  0.115644  1
  Au  Au8  1  0.000000  0.737361  0.587228  1
  Au  Au9  1  0.500000  0.762639  0.412772  1
  Au  Au10  1  0.500000  0.500000  0.973088  1
  Au  Au11  1  0.000000  0.000000  0.026912  1
  Au  Au12  1  0.500000  0.237361  0.412772  1
  Au  Au13  1  0.000000  0.262639  0.587228  1
