# generated using pymatgen
data_YbTmIrRu3
_symmetry_space_group_name_H-M   'P 1'
_cell_length_a   5.21427813
_cell_length_b   5.21427767
_cell_length_c   8.95435000
_cell_angle_alpha   89.99796919
_cell_angle_beta   90.00203146
_cell_angle_gamma   120.04718050
_symmetry_Int_Tables_number   1
_chemical_formula_structural   YbTmIrRu3
_chemical_formula_sum   'Yb2 Tm2 Ir2 Ru6'
_cell_volume   210.73970821
_cell_formula_units_Z   2
loop_
 _symmetry_equiv_pos_site_id
 _symmetry_equiv_pos_as_xyz
  1  'x, y, z'
loop_
 _atom_site_type_symbol
 _atom_site_label
 _atom_site_symmetry_multiplicity
 _atom_site_fract_x
 _atom_site_fract_y
 _atom_site_fract_z
 _atom_site_occupancy
  Yb  Yb0  1  0.333373  0.666627  0.062011  1
  Yb  Yb1  1  0.666627  0.333373  0.937989  1
  Tm  Tm2  1  0.666634  0.333366  0.573592  1
  Tm  Tm3  1  0.333366  0.666634  0.426408  1
  Ir  Ir4  1  0.000000  0.000000  0.500000  1
  Ir  Ir5  1  0.000000  0.000000  0.000000  1
  Ru  Ru6  1  0.170615  0.341379  0.747481  1
  Ru  Ru7  1  0.170729  0.829271  0.747473  1
  Ru  Ru8  1  0.658621  0.829385  0.747481  1
  Ru  Ru9  1  0.829385  0.658621  0.252519  1
  Ru  Ru10  1  0.829271  0.170729  0.252527  1
  Ru  Ru11  1  0.341379  0.170615  0.252519  1
