# generated using pymatgen
data_Cu(IrSe4)2
_symmetry_space_group_name_H-M   'P 1'
_cell_length_a   6.04392656
_cell_length_b   6.15739955
_cell_length_c   6.04500912
_cell_angle_alpha   91.45573975
_cell_angle_beta   90.35593578
_cell_angle_gamma   92.73585549
_symmetry_Int_Tables_number   1
_chemical_formula_structural   Cu(IrSe4)2
_chemical_formula_sum   'Cu1 Ir2 Se8'
_cell_volume   224.62908361
_cell_formula_units_Z   1
loop_
 _symmetry_equiv_pos_site_id
 _symmetry_equiv_pos_as_xyz
  1  'x, y, z'
loop_
 _atom_site_type_symbol
 _atom_site_label
 _atom_site_symmetry_multiplicity
 _atom_site_fract_x
 _atom_site_fract_y
 _atom_site_fract_z
 _atom_site_occupancy
  Cu  Cu0  1  0.500000  0.000000  0.500000  1
  Ir  Ir1  1  0.000000  0.500000  0.500000  1
  Ir  Ir2  1  0.500000  0.500000  0.000000  1
  Se  Se3  1  0.615224  0.888317  0.113000  1
  Se  Se4  1  0.893937  0.118741  0.615793  1
  Se  Se5  1  0.123792  0.615529  0.885499  1
  Se  Se6  1  0.626650  0.610502  0.624765  1
  Se  Se7  1  0.373350  0.389498  0.375235  1
  Se  Se8  1  0.876208  0.384471  0.114501  1
  Se  Se9  1  0.106063  0.881259  0.384207  1
  Se  Se10  1  0.384776  0.111683  0.887000  1
