# generated using pymatgen
data_Cs4Al3TlSe7
_symmetry_space_group_name_H-M   'P 1'
_cell_length_a   11.32490090
_cell_length_b   11.32490084
_cell_length_c   9.65282900
_cell_angle_alpha   76.27717222
_cell_angle_beta   76.27717229
_cell_angle_gamma   72.40559638
_symmetry_Int_Tables_number   1
_chemical_formula_structural   Cs4Al3TlSe7
_chemical_formula_sum   'Cs8 Al6 Tl2 Se14'
_cell_volume   1127.94609457
_cell_formula_units_Z   2
loop_
 _symmetry_equiv_pos_site_id
 _symmetry_equiv_pos_as_xyz
  1  'x, y, z'
loop_
 _atom_site_type_symbol
 _atom_site_label
 _atom_site_symmetry_multiplicity
 _atom_site_fract_x
 _atom_site_fract_y
 _atom_site_fract_z
 _atom_site_occupancy
  Cs  Cs0  1  0.031324  0.435535  0.719153  1
  Cs  Cs1  1  0.435535  0.031324  0.719153  1
  Cs  Cs2  1  0.968676  0.564465  0.280847  1
  Cs  Cs3  1  0.564465  0.968676  0.280847  1
  Cs  Cs4  1  0.295529  0.704471  0.000000  1
  Cs  Cs5  1  0.704471  0.295529  0.000000  1
  Cs  Cs6  1  0.845508  0.154492  0.500000  1
  Cs  Cs7  1  0.154492  0.845508  0.500000  1
  Al  Al8  1  0.213615  0.213615  0.178476  1
  Al  Al9  1  0.786385  0.786385  0.821524  1
  Al  Al10  1  0.071510  0.071510  0.055862  1
  Al  Al11  1  0.928490  0.928490  0.944138  1
  Al  Al12  1  0.347334  0.347334  0.329737  1
  Al  Al13  1  0.652666  0.652666  0.670263  1
  Tl  Tl14  1  0.440027  0.440027  0.669790  1
  Tl  Tl15  1  0.559973  0.559973  0.330210  1
  Se  Se16  1  0.005282  0.281811  0.112171  1
  Se  Se17  1  0.281811  0.005282  0.112171  1
  Se  Se18  1  0.994718  0.718189  0.887829  1
  Se  Se19  1  0.718189  0.994718  0.887829  1
  Se  Se20  1  0.206762  0.206762  0.431225  1
  Se  Se21  1  0.793238  0.793238  0.568775  1
  Se  Se22  1  0.063254  0.063254  0.810464  1
  Se  Se23  1  0.936746  0.936746  0.189536  1
  Se  Se24  1  0.350287  0.350287  0.070983  1
  Se  Se25  1  0.649713  0.649713  0.929017  1
  Se  Se26  1  0.265042  0.549578  0.398215  1
  Se  Se27  1  0.549578  0.265042  0.398215  1
  Se  Se28  1  0.734958  0.450422  0.601785  1
  Se  Se29  1  0.450422  0.734958  0.601785  1
