# generated using pymatgen
data_Ta12B12Os11W
_symmetry_space_group_name_H-M   'P 1'
_cell_length_a   3.12673700
_cell_length_b   9.08577201
_cell_length_c   15.83057022
_cell_angle_alpha   90.21550081
_cell_angle_beta   90.00000000
_cell_angle_gamma   90.00000000
_symmetry_Int_Tables_number   1
_chemical_formula_structural   Ta12B12Os11W
_chemical_formula_sum   'Ta12 B12 Os11 W1'
_cell_volume   449.72463128
_cell_formula_units_Z   1
loop_
 _symmetry_equiv_pos_site_id
 _symmetry_equiv_pos_as_xyz
  1  'x, y, z'
loop_
 _atom_site_type_symbol
 _atom_site_label
 _atom_site_symmetry_multiplicity
 _atom_site_fract_x
 _atom_site_fract_y
 _atom_site_fract_z
 _atom_site_occupancy
  Ta  Ta0  1  0.000000  0.799193  0.495372  1
  Ta  Ta1  1  0.000000  0.200420  0.505182  1
  Ta  Ta2  1  0.000000  0.300519  0.003646  1
  Ta  Ta3  1  0.000000  0.699992  0.995697  1
  Ta  Ta4  1  0.000000  0.516351  0.593628  1
  Ta  Ta5  1  0.000000  0.483748  0.406182  1
  Ta  Ta6  1  0.000000  0.017093  0.905715  1
  Ta  Ta7  1  0.000000  0.984832  0.091999  1
  Ta  Ta8  1  0.000000  0.689301  0.203118  1
  Ta  Ta9  1  0.000000  0.312781  0.797438  1
  Ta  Ta10  1  0.000000  0.182079  0.296485  1
  Ta  Ta11  1  0.000000  0.811458  0.702778  1
  B  B12  1  0.500000  0.604831  0.496739  1
  B  B13  1  0.500000  0.394488  0.503265  1
  B  B14  1  0.500000  0.107854  0.002409  1
  B  B15  1  0.500000  0.894655  0.994645  1
  B  B16  1  0.000000  0.609841  0.832657  1
  B  B17  1  0.000000  0.389686  0.167407  1
  B  B18  1  0.000000  0.109062  0.667402  1
  B  B19  1  0.000000  0.892084  0.333192  1
  B  B20  1  0.500000  0.715571  0.598810  1
  B  B21  1  0.500000  0.282939  0.401528  1
  B  B22  1  0.500000  0.217124  0.901080  1
  B  B23  1  0.500000  0.787800  0.099980  1
  Os  Os24  1  0.500000  0.716264  0.357192  1
  Os  Os25  1  0.500000  0.280893  0.644570  1
  Os  Os26  1  0.500000  0.220947  0.141738  1
  Os  Os27  1  0.500000  0.781480  0.856012  1
  Os  Os28  1  0.500000  0.518260  0.094434  1
  Os  Os29  1  0.500000  0.485510  0.906520  1
  Os  Os30  1  0.500000  0.015990  0.408934  1
  Os  Os31  1  0.500000  0.983471  0.594534  1
  Os  Os32  1  0.500000  0.560534  0.734628  1
  Os  Os33  1  0.500000  0.434988  0.266075  1
  Os  Os34  1  0.500000  0.061451  0.765945  1
  W  W35  1  0.500000  0.936510  0.233065  1
