# generated using pymatgen
data_Ac2Mn(TeO)2
_symmetry_space_group_name_H-M   'P 1'
_cell_length_a   4.32213900
_cell_length_b   4.32213700
_cell_length_c   10.04823400
_cell_angle_alpha   90.00000000
_cell_angle_beta   90.00000000
_cell_angle_gamma   90.00000000
_symmetry_Int_Tables_number   1
_chemical_formula_structural   Ac2Mn(TeO)2
_chemical_formula_sum   'Ac2 Mn1 Te2 O2'
_cell_volume   187.70982233
_cell_formula_units_Z   1
loop_
 _symmetry_equiv_pos_site_id
 _symmetry_equiv_pos_as_xyz
  1  'x, y, z'
loop_
 _atom_site_type_symbol
 _atom_site_label
 _atom_site_symmetry_multiplicity
 _atom_site_fract_x
 _atom_site_fract_y
 _atom_site_fract_z
 _atom_site_occupancy
  Ac  Ac0  1  0.000000  0.500000  0.375907  1
  Ac  Ac1  1  0.500000  0.000000  0.624093  1
  Mn  Mn2  1  0.000000  0.000000  0.000000  1
  Te  Te3  1  0.500000  0.000000  0.177550  1
  Te  Te4  1  0.000000  0.500000  0.822451  1
  O  O5  1  0.000000  0.000000  0.500000  1
  O  O6  1  0.500000  0.500000  0.500000  1
