# generated using pymatgen
data_MgSc2B2Ir5
_symmetry_space_group_name_H-M   'P 1'
_cell_length_a   3.04226400
_cell_length_b   9.53900700
_cell_length_c   9.53900700
_cell_angle_alpha   90.00000000
_cell_angle_beta   90.00000000
_cell_angle_gamma   90.00000000
_symmetry_Int_Tables_number   1
_chemical_formula_structural   MgSc2B2Ir5
_chemical_formula_sum   'Mg2 Sc4 B4 Ir10'
_cell_volume   276.82367719
_cell_formula_units_Z   2
loop_
 _symmetry_equiv_pos_site_id
 _symmetry_equiv_pos_as_xyz
  1  'x, y, z'
loop_
 _atom_site_type_symbol
 _atom_site_label
 _atom_site_symmetry_multiplicity
 _atom_site_fract_x
 _atom_site_fract_y
 _atom_site_fract_z
 _atom_site_occupancy
  Mg  Mg0  1  0.000000  0.000000  0.000000  1
  Mg  Mg1  1  0.000000  0.500000  0.500000  1
  Sc  Sc2  1  0.000000  0.177827  0.677827  1
  Sc  Sc3  1  0.000000  0.822173  0.322173  1
  Sc  Sc4  1  0.000000  0.322173  0.177827  1
  Sc  Sc5  1  0.000000  0.677827  0.822173  1
  B  B6  1  0.000000  0.625625  0.125625  1
  B  B7  1  0.000000  0.374375  0.874375  1
  B  B8  1  0.000000  0.874375  0.625625  1
  B  B9  1  0.000000  0.125625  0.374375  1
  Ir  Ir10  1  0.500000  0.069676  0.220254  1
  Ir  Ir11  1  0.500000  0.930324  0.779746  1
  Ir  Ir12  1  0.500000  0.779746  0.069676  1
  Ir  Ir13  1  0.500000  0.430324  0.720254  1
  Ir  Ir14  1  0.500000  0.220254  0.930324  1
  Ir  Ir15  1  0.500000  0.569676  0.279746  1
  Ir  Ir16  1  0.500000  0.720254  0.569676  1
  Ir  Ir17  1  0.500000  0.279746  0.430324  1
  Ir  Ir18  1  0.500000  0.000000  0.500000  1
  Ir  Ir19  1  0.500000  0.500000  0.000000  1
