# generated using pymatgen
data_V8Zn3Co9(TeO10)4
_symmetry_space_group_name_H-M   'P 1'
_cell_length_a   30.87404328
_cell_length_b   5.35272328
_cell_length_c   5.58953557
_cell_angle_alpha   80.99663284
_cell_angle_beta   90.09941711
_cell_angle_gamma   89.99324884
_symmetry_Int_Tables_number   1
_chemical_formula_structural   V8Zn3Co9(TeO10)4
_chemical_formula_sum   'V8 Zn3 Co9 Te4 O40'
_cell_volume   912.34526121
_cell_formula_units_Z   1
loop_
 _symmetry_equiv_pos_site_id
 _symmetry_equiv_pos_as_xyz
  1  'x, y, z'
loop_
 _atom_site_type_symbol
 _atom_site_label
 _atom_site_symmetry_multiplicity
 _atom_site_fract_x
 _atom_site_fract_y
 _atom_site_fract_z
 _atom_site_occupancy
  V  V0  1  0.445200  0.750863  0.220147  1
  V  V1  1  0.204642  0.930451  0.725334  1
  V  V2  1  0.055361  0.751675  0.722349  1
  V  V3  1  0.795401  0.069659  0.274848  1
  V  V4  1  0.294744  0.928874  0.228532  1
  V  V5  1  0.704819  0.071364  0.771882  1
  V  V6  1  0.555238  0.247990  0.777982  1
  V  V7  1  0.944631  0.248347  0.277710  1
  Zn  Zn8  1  0.226940  0.423673  0.220181  1
  Zn  Zn9  1  0.773063  0.576665  0.779382  1
  Zn  Zn10  1  0.370522  0.778576  0.766457  1
  Co  Co11  1  0.870967  0.225658  0.736252  1
  Co  Co12  1  0.058108  0.306591  0.357874  1
  Co  Co13  1  0.129047  0.774342  0.263924  1
  Co  Co14  1  0.727281  0.580521  0.274294  1
  Co  Co15  1  0.629352  0.224180  0.235661  1
  Co  Co16  1  0.941889  0.693451  0.642204  1
  Co  Co17  1  0.441758  0.304707  0.858375  1
  Co  Co18  1  0.558545  0.693025  0.141519  1
  Co  Co19  1  0.272701  0.420224  0.724683  1
  Te  Te20  1  0.130800  0.328086  0.930502  1
  Te  Te21  1  0.869172  0.671887  0.069480  1
  Te  Te22  1  0.369300  0.332295  0.428949  1
  Te  Te23  1  0.630745  0.669507  0.570167  1
  O  O24  1  0.901171  0.883803  0.827113  1
  O  O25  1  0.001787  0.680449  0.740215  1
  O  O26  1  0.598981  0.883923  0.327419  1
  O  O27  1  0.564265  0.928601  0.832539  1
  O  O28  1  0.760865  0.312487  0.148404  1
  O  O29  1  0.268765  0.200827  0.064611  1
  O  O30  1  0.498783  0.681363  0.238227  1
  O  O31  1  0.664245  0.514103  0.343726  1
  O  O32  1  0.831917  0.177449  0.460372  1
  O  O33  1  0.825779  0.972537  0.026029  1
  O  O34  1  0.998213  0.319533  0.259780  1
  O  O35  1  0.164385  0.484073  0.158137  1
  O  O36  1  0.920294  0.387559  0.511675  1
  O  O37  1  0.230420  0.203645  0.567268  1
  O  O38  1  0.668376  0.177835  0.958158  1
  O  O39  1  0.085211  0.608438  0.993848  1
  O  O40  1  0.416096  0.601453  0.490296  1
  O  O41  1  0.239201  0.687844  0.852560  1
  O  O42  1  0.331668  0.816753  0.048880  1
  O  O43  1  0.914768  0.391516  0.006253  1
  O  O44  1  0.324606  0.035719  0.472145  1
  O  O45  1  0.420749  0.612826  0.985669  1
  O  O46  1  0.730913  0.798085  0.932872  1
  O  O47  1  0.079701  0.612479  0.488428  1
  O  O48  1  0.174187  0.027504  0.973899  1
  O  O49  1  0.260986  0.684684  0.360535  1
  O  O50  1  0.769515  0.796567  0.432172  1
  O  O51  1  0.064279  0.071241  0.666926  1
  O  O52  1  0.674522  0.970711  0.525261  1
  O  O53  1  0.835585  0.515933  0.841819  1
  O  O54  1  0.584856  0.392603  0.506779  1
  O  O55  1  0.738559  0.316011  0.641636  1
  O  O56  1  0.579888  0.386569  0.011929  1
  O  O57  1  0.168089  0.822322  0.540213  1
  O  O58  1  0.435808  0.070302  0.168312  1
  O  O59  1  0.335923  0.489918  0.654879  1
  O  O60  1  0.935737  0.928819  0.333124  1
  O  O61  1  0.501627  0.318523  0.760739  1
  O  O62  1  0.098824  0.116233  0.172956  1
  O  O63  1  0.400230  0.116146  0.675508  1
