# generated using pymatgen
data_Ac2PuO6
_symmetry_space_group_name_H-M   'P 1'
_cell_length_a   5.74314600
_cell_length_b   5.77571000
_cell_length_c   17.25190500
_cell_angle_alpha   90.00000000
_cell_angle_beta   90.00000000
_cell_angle_gamma   90.00000000
_symmetry_Int_Tables_number   1
_chemical_formula_structural   Ac2PuO6
_chemical_formula_sum   'Ac8 Pu4 O24'
_cell_volume   572.25855504
_cell_formula_units_Z   4
loop_
 _symmetry_equiv_pos_site_id
 _symmetry_equiv_pos_as_xyz
  1  'x, y, z'
loop_
 _atom_site_type_symbol
 _atom_site_label
 _atom_site_symmetry_multiplicity
 _atom_site_fract_x
 _atom_site_fract_y
 _atom_site_fract_z
 _atom_site_occupancy
  Ac  Ac0  1  0.758649  0.246265  0.578401  1
  Ac  Ac1  1  0.241351  0.746265  0.921599  1
  Ac  Ac2  1  0.258649  0.253735  0.421599  1
  Ac  Ac3  1  0.741351  0.753735  0.078401  1
  Ac  Ac4  1  0.741403  0.253916  0.921631  1
  Ac  Ac5  1  0.258597  0.753916  0.578369  1
  Ac  Ac6  1  0.241403  0.246084  0.078369  1
  Ac  Ac7  1  0.758597  0.746084  0.421631  1
  Pu  Pu8  1  0.249978  0.250420  0.750037  1
  Pu  Pu9  1  0.750022  0.750420  0.749963  1
  Pu  Pu10  1  0.749978  0.249580  0.249963  1
  Pu  Pu11  1  0.250022  0.749580  0.250037  1
  O  O12  1  0.008743  0.502329  0.497614  1
  O  O13  1  0.991257  0.002329  0.002386  1
  O  O14  1  0.508743  0.997671  0.502386  1
  O  O15  1  0.491257  0.497671  0.997614  1
  O  O16  1  0.491312  0.997606  0.002364  1
  O  O17  1  0.508688  0.497606  0.497636  1
  O  O18  1  0.991312  0.502394  0.997636  1
  O  O19  1  0.008688  0.002394  0.502364  1
  O  O20  1  0.043860  0.442411  0.288979  1
  O  O21  1  0.956140  0.942411  0.211021  1
  O  O22  1  0.543860  0.057589  0.711021  1
  O  O23  1  0.456140  0.557589  0.788979  1
  O  O24  1  0.456160  0.056651  0.210951  1
  O  O25  1  0.543840  0.556651  0.289049  1
  O  O26  1  0.956160  0.443349  0.789049  1
  O  O27  1  0.043840  0.943349  0.710951  1
  O  O28  1  0.209549  0.354430  0.646597  1
  O  O29  1  0.790451  0.854430  0.853403  1
  O  O30  1  0.709549  0.145570  0.353403  1
  O  O31  1  0.290451  0.645570  0.146597  1
  O  O32  1  0.290289  0.146374  0.853443  1
  O  O33  1  0.709711  0.646374  0.646557  1
  O  O34  1  0.790289  0.353626  0.146557  1
  O  O35  1  0.209711  0.853626  0.353443  1
