# generated using pymatgen
data_Sm4Th(FeB3)2
_symmetry_space_group_name_H-M   'P 1'
_cell_length_a   5.48109778
_cell_length_b   5.48109940
_cell_length_c   8.30057673
_cell_angle_alpha   70.72129087
_cell_angle_beta   70.72128835
_cell_angle_gamma   60.00000849
_symmetry_Int_Tables_number   1
_chemical_formula_structural   Sm4Th(FeB3)2
_chemical_formula_sum   'Sm4 Th1 Fe2 B6'
_cell_volume   199.65023107
_cell_formula_units_Z   1
loop_
 _symmetry_equiv_pos_site_id
 _symmetry_equiv_pos_as_xyz
  1  'x, y, z'
loop_
 _atom_site_type_symbol
 _atom_site_label
 _atom_site_symmetry_multiplicity
 _atom_site_fract_x
 _atom_site_fract_y
 _atom_site_fract_z
 _atom_site_occupancy
  Sm  Sm0  1  0.747538  0.747538  0.757386  1
  Sm  Sm1  1  0.252462  0.252462  0.242614  1
  Sm  Sm2  1  0.585094  0.585094  0.244717  1
  Sm  Sm3  1  0.414906  0.414906  0.755283  1
  Th  Th4  1  0.000000  0.000000  0.000000  1
  Fe  Fe5  1  0.885995  0.885995  0.342015  1
  Fe  Fe6  1  0.114005  0.114005  0.657985  1
  B  B7  1  0.500000  0.166371  0.500000  1
  B  B8  1  0.833629  0.500000  0.500000  1
  B  B9  1  0.166371  0.833630  0.500000  1
  B  B10  1  0.166371  0.500000  0.500000  1
  B  B11  1  0.833629  0.166371  0.500000  1
  B  B12  1  0.500000  0.833629  0.500000  1
