# generated using pymatgen
data_LaErBiSbO7
_symmetry_space_group_name_H-M   'P 1'
_cell_length_a   6.60682987
_cell_length_b   6.60683104
_cell_length_c   7.68735700
_cell_angle_alpha   90.00000000
_cell_angle_beta   90.00000000
_cell_angle_gamma   109.74250803
_symmetry_Int_Tables_number   1
_chemical_formula_structural   LaErBiSbO7
_chemical_formula_sum   'La2 Er2 Bi2 Sb2 O14'
_cell_volume   315.83089427
_cell_formula_units_Z   2
loop_
 _symmetry_equiv_pos_site_id
 _symmetry_equiv_pos_as_xyz
  1  'x, y, z'
loop_
 _atom_site_type_symbol
 _atom_site_label
 _atom_site_symmetry_multiplicity
 _atom_site_fract_x
 _atom_site_fract_y
 _atom_site_fract_z
 _atom_site_occupancy
  La  La0  1  0.009482  0.990518  0.500000  1
  La  La1  1  0.009482  0.990518  0.000000  1
  Er  Er2  1  0.500673  0.959386  0.750000  1
  Er  Er3  1  0.040614  0.499327  0.250000  1
  Bi  Bi4  1  0.519357  0.037500  0.250000  1
  Bi  Bi5  1  0.962500  0.480643  0.750000  1
  Sb  Sb6  1  0.495548  0.504452  0.500000  1
  Sb  Sb7  1  0.495548  0.504452  0.000000  1
  O  O8  1  0.436846  0.191754  0.544240  1
  O  O9  1  0.808246  0.563154  0.455760  1
  O  O10  1  0.436846  0.191754  0.955760  1
  O  O11  1  0.808246  0.563154  0.044240  1
  O  O12  1  0.560090  0.826990  0.474256  1
  O  O13  1  0.173010  0.439910  0.525744  1
  O  O14  1  0.560090  0.826990  0.025744  1
  O  O15  1  0.173010  0.439910  0.974256  1
  O  O16  1  0.165381  0.857525  0.250000  1
  O  O17  1  0.142475  0.834619  0.750000  1
  O  O18  1  0.855697  0.097260  0.750000  1
  O  O19  1  0.902740  0.144303  0.250000  1
  O  O20  1  0.393872  0.449755  0.250000  1
  O  O21  1  0.550245  0.606128  0.750000  1
