# generated using pymatgen
data_Dy3In3NiIr2
_symmetry_space_group_name_H-M   'P 1'
_cell_length_a   7.59446401
_cell_length_b   7.59617795
_cell_length_c   3.77779700
_cell_angle_alpha   90.00000000
_cell_angle_beta   90.00000000
_cell_angle_gamma   119.99745938
_symmetry_Int_Tables_number   1
_chemical_formula_structural   Dy3In3NiIr2
_chemical_formula_sum   'Dy3 In3 Ni1 Ir2'
_cell_volume   188.74376974
_cell_formula_units_Z   1
loop_
 _symmetry_equiv_pos_site_id
 _symmetry_equiv_pos_as_xyz
  1  'x, y, z'
loop_
 _atom_site_type_symbol
 _atom_site_label
 _atom_site_symmetry_multiplicity
 _atom_site_fract_x
 _atom_site_fract_y
 _atom_site_fract_z
 _atom_site_occupancy
  Dy  Dy0  1  0.588286  0.588325  0.000000  1
  Dy  Dy1  1  0.411632  0.000028  0.000000  1
  Dy  Dy2  1  0.000186  0.411427  0.000000  1
  In  In3  1  0.000015  0.748598  0.500000  1
  In  In4  1  0.251433  0.251445  0.500000  1
  In  In5  1  0.748580  0.999967  0.500000  1
  Ni  Ni6  1  0.999899  0.000057  0.000000  1
  Ir  Ir7  1  0.666754  0.333495  0.500000  1
  Ir  Ir8  1  0.333215  0.666658  0.500000  1
