# generated using pymatgen
data_CaEu3HfNb3O14
_symmetry_space_group_name_H-M   'P 1'
_cell_length_a   7.55017142
_cell_length_b   7.57601386
_cell_length_c   7.57601400
_cell_angle_alpha   59.99999938
_cell_angle_beta   59.88671059
_cell_angle_gamma   59.88671763
_symmetry_Int_Tables_number   1
_chemical_formula_structural   CaEu3HfNb3O14
_chemical_formula_sum   'Ca1 Eu3 Hf1 Nb3 O14'
_cell_volume   305.89865381
_cell_formula_units_Z   1
loop_
 _symmetry_equiv_pos_site_id
 _symmetry_equiv_pos_as_xyz
  1  'x, y, z'
loop_
 _atom_site_type_symbol
 _atom_site_label
 _atom_site_symmetry_multiplicity
 _atom_site_fract_x
 _atom_site_fract_y
 _atom_site_fract_z
 _atom_site_occupancy
  Ca  Ca0  1  0.625000  0.125000  0.125000  1
  Eu  Eu1  1  0.125000  0.625000  0.125000  1
  Eu  Eu2  1  0.125000  0.125000  0.625000  1
  Eu  Eu3  1  0.125000  0.125000  0.125000  1
  Hf  Hf4  1  0.125000  0.625000  0.625000  1
  Nb  Nb5  1  0.625000  0.125000  0.625000  1
  Nb  Nb6  1  0.625000  0.625000  0.125000  1
  Nb  Nb7  1  0.625000  0.625000  0.625000  1
  O  O8  1  0.256853  0.247716  0.247716  1
  O  O9  1  0.993147  0.002284  0.002284  1
  O  O10  1  0.689137  0.693902  0.308480  1
  O  O11  1  0.306595  0.296874  0.698266  1
  O  O12  1  0.689137  0.308480  0.693902  1
  O  O13  1  0.306595  0.698266  0.296874  1
  O  O14  1  0.306595  0.698266  0.698266  1
  O  O15  1  0.689137  0.308480  0.308480  1
  O  O16  1  0.560863  0.556098  0.941520  1
  O  O17  1  0.943405  0.953126  0.551734  1
  O  O18  1  0.560863  0.941520  0.556098  1
  O  O19  1  0.943405  0.551734  0.953126  1
  O  O20  1  0.943405  0.551734  0.551734  1
  O  O21  1  0.560863  0.941520  0.941520  1
