# generated using pymatgen
data_Pr19NdIr5Rh7
_symmetry_space_group_name_H-M   'P 1'
_cell_length_a   11.33128371
_cell_length_b   11.33090690
_cell_length_c   6.67278237
_cell_angle_alpha   89.96924625
_cell_angle_beta   89.97776949
_cell_angle_gamma   90.03383517
_symmetry_Int_Tables_number   1
_chemical_formula_structural   Pr19NdIr5Rh7
_chemical_formula_sum   'Pr19 Nd1 Ir5 Rh7'
_cell_volume   856.74301846
_cell_formula_units_Z   1
loop_
 _symmetry_equiv_pos_site_id
 _symmetry_equiv_pos_as_xyz
  1  'x, y, z'
loop_
 _atom_site_type_symbol
 _atom_site_label
 _atom_site_symmetry_multiplicity
 _atom_site_fract_x
 _atom_site_fract_y
 _atom_site_fract_z
 _atom_site_occupancy
  Pr  Pr0  1  0.089586  0.290410  0.115301  1
  Pr  Pr1  1  0.791615  0.407441  0.114927  1
  Pr  Pr2  1  0.208623  0.591001  0.115013  1
  Pr  Pr3  1  0.908902  0.708767  0.115041  1
  Pr  Pr4  1  0.408973  0.791391  0.384994  1
  Pr  Pr5  1  0.592585  0.208391  0.385098  1
  Pr  Pr6  1  0.291107  0.091088  0.385135  1
  Pr  Pr7  1  0.709693  0.910424  0.384847  1
  Pr  Pr8  1  0.409638  0.208253  0.883037  1
  Pr  Pr9  1  0.709099  0.090938  0.884314  1
  Pr  Pr10  1  0.291566  0.909565  0.883322  1
  Pr  Pr11  1  0.590505  0.791969  0.882810  1
  Pr  Pr12  1  0.090395  0.708629  0.616461  1
  Pr  Pr13  1  0.909077  0.290742  0.615530  1
  Pr  Pr14  1  0.208070  0.409466  0.617171  1
  Pr  Pr15  1  0.791729  0.590402  0.616942  1
  Pr  Pr16  1  0.999796  0.999891  0.000017  1
  Pr  Pr17  1  0.500096  0.500166  0.000730  1
  Pr  Pr18  1  0.499826  0.499891  0.499334  1
  Nd  Nd19  1  0.999955  0.000333  0.500162  1
  Ir  Ir20  1  0.846188  0.153674  0.250864  1
  Ir  Ir21  1  0.346257  0.653858  0.750082  1
  Ir  Ir22  1  0.153849  0.153541  0.749022  1
  Ir  Ir23  1  0.846594  0.846038  0.749286  1
  Ir  Ir24  1  0.653154  0.346730  0.750107  1
  Rh  Rh25  1  0.153718  0.846389  0.250840  1
  Rh  Rh26  1  0.345614  0.345913  0.249880  1
  Rh  Rh27  1  0.654160  0.654288  0.249942  1
  Rh  Rh28  1  0.000355  0.500724  0.379280  1
  Rh  Rh29  1  0.499282  0.999650  0.120499  1
  Rh  Rh30  1  0.499696  0.999718  0.619398  1
  Rh  Rh31  1  0.000298  0.500318  0.880615  1
