# generated using pymatgen
data_TbY3(OF4)2
_symmetry_space_group_name_H-M   'P 1'
_cell_length_a   6.78849103
_cell_length_b   6.79251511
_cell_length_c   5.73138787
_cell_angle_alpha   79.63646591
_cell_angle_beta   79.63508852
_cell_angle_gamma   46.39768336
_symmetry_Int_Tables_number   1
_chemical_formula_structural   TbY3(OF4)2
_chemical_formula_sum   'Tb1 Y3 O2 F8'
_cell_volume   187.67480962
_cell_formula_units_Z   1
loop_
 _symmetry_equiv_pos_site_id
 _symmetry_equiv_pos_as_xyz
  1  'x, y, z'
loop_
 _atom_site_type_symbol
 _atom_site_label
 _atom_site_symmetry_multiplicity
 _atom_site_fract_x
 _atom_site_fract_y
 _atom_site_fract_z
 _atom_site_occupancy
  Tb  Tb0  1  0.104714  0.680422  0.578064  1
  Y  Y1  1  0.681055  0.104733  0.077847  1
  Y  Y2  1  0.318986  0.895499  0.922069  1
  Y  Y3  1  0.895351  0.319094  0.421859  1
  O  O4  1  0.951451  0.048771  0.750129  1
  O  O5  1  0.048289  0.952104  0.249647  1
  F  F6  1  0.315444  0.515706  0.924976  1
  F  F7  1  0.516810  0.314279  0.424343  1
  F  F8  1  0.704989  0.854357  0.829120  1
  F  F9  1  0.853738  0.705415  0.328703  1
  F  F10  1  0.145909  0.294397  0.670939  1
  F  F11  1  0.294787  0.145918  0.171008  1
  F  F12  1  0.483751  0.684834  0.575590  1
  F  F13  1  0.684726  0.484473  0.075706  1
