# generated using pymatgen
data_HoLu11Os3Ru
_symmetry_space_group_name_H-M   'P 1'
_cell_length_a   6.16259974
_cell_length_b   7.32954808
_cell_length_c   8.82586300
_cell_angle_alpha   90.00000000
_cell_angle_beta   90.00000000
_cell_angle_gamma   90.18689028
_symmetry_Int_Tables_number   1
_chemical_formula_structural   HoLu11Os3Ru
_chemical_formula_sum   'Ho1 Lu11 Os3 Ru1'
_cell_volume   398.65391279
_cell_formula_units_Z   1
loop_
 _symmetry_equiv_pos_site_id
 _symmetry_equiv_pos_as_xyz
  1  'x, y, z'
loop_
 _atom_site_type_symbol
 _atom_site_label
 _atom_site_symmetry_multiplicity
 _atom_site_fract_x
 _atom_site_fract_y
 _atom_site_fract_z
 _atom_site_occupancy
  Ho  Ho0  1  0.371945  0.960980  0.750000  1
  Lu  Lu1  1  0.334551  0.672977  0.062240  1
  Lu  Lu2  1  0.164995  0.176130  0.436407  1
  Lu  Lu3  1  0.665143  0.326781  0.561030  1
  Lu  Lu4  1  0.836681  0.824850  0.938700  1
  Lu  Lu5  1  0.665143  0.326781  0.938970  1
  Lu  Lu6  1  0.836681  0.824850  0.561300  1
  Lu  Lu7  1  0.334551  0.672977  0.437760  1
  Lu  Lu8  1  0.164995  0.176130  0.063593  1
  Lu  Lu9  1  0.872910  0.539633  0.250000  1
  Lu  Lu10  1  0.626275  0.038462  0.250000  1
  Lu  Lu11  1  0.126286  0.459865  0.750000  1
  Os  Os12  1  0.038169  0.882733  0.250000  1
  Os  Os13  1  0.462323  0.381643  0.250000  1
  Os  Os14  1  0.539564  0.616515  0.750000  1
  Ru  Ru15  1  0.959784  0.118691  0.750000  1
