# generated using pymatgen
data_Tm3Ni9AsP5
_symmetry_space_group_name_H-M   'P 1'
_cell_length_a   3.77286400
_cell_length_b   10.52516500
_cell_length_c   12.32536800
_cell_angle_alpha   90.00000000
_cell_angle_beta   90.00000000
_cell_angle_gamma   90.00000000
_symmetry_Int_Tables_number   1
_chemical_formula_structural   Tm3Ni9AsP5
_chemical_formula_sum   'Tm6 Ni18 As2 P10'
_cell_volume   489.44056200
_cell_formula_units_Z   2
loop_
 _symmetry_equiv_pos_site_id
 _symmetry_equiv_pos_as_xyz
  1  'x, y, z'
loop_
 _atom_site_type_symbol
 _atom_site_label
 _atom_site_symmetry_multiplicity
 _atom_site_fract_x
 _atom_site_fract_y
 _atom_site_fract_z
 _atom_site_occupancy
  Tm  Tm0  1  0.000000  0.500000  0.526542  1
  Tm  Tm1  1  0.500000  0.000000  0.473458  1
  Tm  Tm2  1  0.500000  0.818151  0.204564  1
  Tm  Tm3  1  0.500000  0.181849  0.204564  1
  Tm  Tm4  1  0.000000  0.681849  0.795436  1
  Tm  Tm5  1  0.000000  0.318151  0.795436  1
  Ni  Ni6  1  0.500000  0.500000  0.151939  1
  Ni  Ni7  1  0.000000  0.000000  0.848061  1
  Ni  Ni8  1  0.500000  0.500000  0.700888  1
  Ni  Ni9  1  0.000000  0.000000  0.299112  1
  Ni  Ni10  1  0.000000  0.500000  0.984783  1
  Ni  Ni11  1  0.500000  0.000000  0.015217  1
  Ni  Ni12  1  0.500000  0.332318  0.994831  1
  Ni  Ni13  1  0.500000  0.667682  0.994831  1
  Ni  Ni14  1  0.000000  0.167682  0.005169  1
  Ni  Ni15  1  0.000000  0.832318  0.005169  1
  Ni  Ni16  1  0.500000  0.292085  0.433205  1
  Ni  Ni17  1  0.500000  0.707915  0.433205  1
  Ni  Ni18  1  0.000000  0.207915  0.566795  1
  Ni  Ni19  1  0.000000  0.792085  0.566795  1
  Ni  Ni20  1  0.500000  0.872652  0.714047  1
  Ni  Ni21  1  0.500000  0.127348  0.714047  1
  Ni  Ni22  1  0.000000  0.627348  0.285953  1
  Ni  Ni23  1  0.000000  0.372652  0.285953  1
  As  As24  1  0.500000  0.500000  0.347038  1
  As  As25  1  0.000000  0.000000  0.652962  1
  P  P26  1  0.500000  0.500000  0.876922  1
  P  P27  1  0.000000  0.000000  0.123078  1
  P  P28  1  0.500000  0.315237  0.616773  1
  P  P29  1  0.500000  0.684763  0.616773  1
  P  P30  1  0.000000  0.184763  0.383227  1
  P  P31  1  0.000000  0.815237  0.383227  1
  P  P32  1  0.500000  0.846479  0.892981  1
  P  P33  1  0.500000  0.153521  0.892981  1
  P  P34  1  0.000000  0.653521  0.107019  1
  P  P35  1  0.000000  0.346479  0.107019  1
