# generated using pymatgen
data_La2YEr3(IrO7)2
_symmetry_space_group_name_H-M   'P 1'
_cell_length_a   6.46327769
_cell_length_b   6.45918440
_cell_length_c   7.50532600
_cell_angle_alpha   90.00000000
_cell_angle_beta   90.00000000
_cell_angle_gamma   109.48823237
_symmetry_Int_Tables_number   1
_chemical_formula_structural   La2YEr3(IrO7)2
_chemical_formula_sum   'La2 Y1 Er3 Ir2 O14'
_cell_volume   295.37802820
_cell_formula_units_Z   1
loop_
 _symmetry_equiv_pos_site_id
 _symmetry_equiv_pos_as_xyz
  1  'x, y, z'
loop_
 _atom_site_type_symbol
 _atom_site_label
 _atom_site_symmetry_multiplicity
 _atom_site_fract_x
 _atom_site_fract_y
 _atom_site_fract_z
 _atom_site_occupancy
  La  La0  1  0.998946  0.999432  0.500897  1
  La  La1  1  0.998946  0.999432  0.999103  1
  Y  Y2  1  0.061039  0.515507  0.250000  1
  Er  Er3  1  0.514142  0.059725  0.250000  1
  Er  Er4  1  0.938373  0.486447  0.750000  1
  Er  Er5  1  0.485944  0.939213  0.750000  1
  Ir  Ir6  1  0.498929  0.498958  0.500839  1
  Ir  Ir7  1  0.498929  0.498958  0.999161  1
  O  O8  1  0.442929  0.180086  0.534111  1
  O  O9  1  0.819342  0.558598  0.468771  1
  O  O10  1  0.442929  0.180086  0.965889  1
  O  O11  1  0.819342  0.558598  0.031229  1
  O  O12  1  0.555084  0.818757  0.466564  1
  O  O13  1  0.180425  0.440604  0.536232  1
  O  O14  1  0.555084  0.818757  0.033436  1
  O  O15  1  0.180425  0.440604  0.963768  1
  O  O16  1  0.161886  0.879784  0.250000  1
  O  O17  1  0.124588  0.837985  0.750000  1
  O  O18  1  0.837278  0.124376  0.750000  1
  O  O19  1  0.874841  0.159431  0.250000  1
  O  O20  1  0.414304  0.409148  0.250000  1
  O  O21  1  0.596291  0.595513  0.750000  1
