# generated using pymatgen
data_Sr2Li2Cu15
_symmetry_space_group_name_H-M   'P 1'
_cell_length_a   6.53845451
_cell_length_b   6.53845429
_cell_length_c   6.53845489
_cell_angle_alpha   84.02489213
_cell_angle_beta   84.02489566
_cell_angle_gamma   84.02488857
_symmetry_Int_Tables_number   1
_chemical_formula_structural   Sr2Li2Cu15
_chemical_formula_sum   'Sr2 Li2 Cu15'
_cell_volume   275.26737132
_cell_formula_units_Z   1
loop_
 _symmetry_equiv_pos_site_id
 _symmetry_equiv_pos_as_xyz
  1  'x, y, z'
loop_
 _atom_site_type_symbol
 _atom_site_label
 _atom_site_symmetry_multiplicity
 _atom_site_fract_x
 _atom_site_fract_y
 _atom_site_fract_z
 _atom_site_occupancy
  Sr  Sr0  1  0.656637  0.656637  0.656637  1
  Sr  Sr1  1  0.343363  0.343363  0.343363  1
  Li  Li2  1  0.906016  0.906016  0.906016  1
  Li  Li3  1  0.093984  0.093984  0.093984  1
  Cu  Cu4  1  0.000000  0.000000  0.500000  1
  Cu  Cu5  1  0.500000  0.000000  0.000000  1
  Cu  Cu6  1  0.000000  0.500000  0.000000  1
  Cu  Cu7  1  0.705801  0.294199  0.000000  1
  Cu  Cu8  1  0.000000  0.705801  0.294199  1
  Cu  Cu9  1  0.294199  0.000000  0.705801  1
  Cu  Cu10  1  0.000000  0.294199  0.705801  1
  Cu  Cu11  1  0.705801  0.000000  0.294199  1
  Cu  Cu12  1  0.294199  0.705801  0.000000  1
  Cu  Cu13  1  0.339919  0.339919  0.846861  1
  Cu  Cu14  1  0.846861  0.339919  0.339919  1
  Cu  Cu15  1  0.339919  0.846861  0.339919  1
  Cu  Cu16  1  0.660081  0.660081  0.153139  1
  Cu  Cu17  1  0.153139  0.660081  0.660081  1
  Cu  Cu18  1  0.660081  0.153139  0.660081  1
