# generated using pymatgen
data_Li8La8RuPt7
_symmetry_space_group_name_H-M   'P 1'
_cell_length_a   4.17495300
_cell_length_b   7.47703414
_cell_length_c   16.98747200
_cell_angle_alpha   89.78602063
_cell_angle_beta   90.00000000
_cell_angle_gamma   90.00000000
_symmetry_Int_Tables_number   1
_chemical_formula_structural   Li8La8RuPt7
_chemical_formula_sum   'Li8 La8 Ru1 Pt7'
_cell_volume   530.28174869
_cell_formula_units_Z   1
loop_
 _symmetry_equiv_pos_site_id
 _symmetry_equiv_pos_as_xyz
  1  'x, y, z'
loop_
 _atom_site_type_symbol
 _atom_site_label
 _atom_site_symmetry_multiplicity
 _atom_site_fract_x
 _atom_site_fract_y
 _atom_site_fract_z
 _atom_site_occupancy
  Li  Li0  1  0.250000  0.637433  0.353224  1
  Li  Li1  1  0.750000  0.356609  0.648474  1
  Li  Li2  1  0.750000  0.859108  0.850466  1
  Li  Li3  1  0.250000  0.142455  0.148713  1
  Li  Li4  1  0.250000  0.493512  0.058628  1
  Li  Li5  1  0.750000  0.507497  0.941541  1
  Li  Li6  1  0.750000  0.999597  0.558555  1
  Li  Li7  1  0.250000  0.988735  0.443510  1
  La  La8  1  0.250000  0.536841  0.783364  1
  La  La9  1  0.750000  0.463736  0.216821  1
  La  La10  1  0.750000  0.963176  0.285968  1
  La  La11  1  0.250000  0.040811  0.711370  1
  La  La12  1  0.250000  0.643573  0.559801  1
  La  La13  1  0.750000  0.330955  0.445784  1
  La  La14  1  0.750000  0.838240  0.060574  1
  La  La15  1  0.250000  0.163450  0.939132  1
  Ru  Ru16  1  0.250000  0.273018  0.557820  1
  Pt  Pt17  1  0.250000  0.759199  0.188122  1
  Pt  Pt18  1  0.750000  0.243568  0.811153  1
  Pt  Pt19  1  0.750000  0.747194  0.689520  1
  Pt  Pt20  1  0.250000  0.257035  0.310709  1
  Pt  Pt21  1  0.250000  0.747714  0.938101  1
  Pt  Pt22  1  0.750000  0.251181  0.062054  1
  Pt  Pt23  1  0.750000  0.755361  0.436597  1
