# generated using pymatgen
data_LaPr5Al24(Os3Ru)2
_symmetry_space_group_name_H-M   'P 1'
_cell_length_a   8.94163200
_cell_length_b   8.93715412
_cell_length_c   9.70950300
_cell_angle_alpha   90.00000000
_cell_angle_beta   90.00000000
_cell_angle_gamma   120.01656828
_symmetry_Int_Tables_number   1
_chemical_formula_structural   LaPr5Al24(Os3Ru)2
_chemical_formula_sum   'La1 Pr5 Al24 Os6 Ru2'
_cell_volume   671.84817311
_cell_formula_units_Z   1
loop_
 _symmetry_equiv_pos_site_id
 _symmetry_equiv_pos_as_xyz
  1  'x, y, z'
loop_
 _atom_site_type_symbol
 _atom_site_label
 _atom_site_symmetry_multiplicity
 _atom_site_fract_x
 _atom_site_fract_y
 _atom_site_fract_z
 _atom_site_occupancy
  La  La0  1  0.193222  0.386445  0.250000  1
  Pr  Pr1  1  0.807671  0.615341  0.750000  1
  Pr  Pr2  1  0.615720  0.807809  0.250000  1
  Pr  Pr3  1  0.385103  0.192377  0.750000  1
  Pr  Pr4  1  0.192089  0.807809  0.250000  1
  Pr  Pr5  1  0.807273  0.192377  0.750000  1
  Al  Al6  1  0.333637  0.667275  0.007647  1
  Al  Al7  1  0.666519  0.333037  0.991363  1
  Al  Al8  1  0.666519  0.333037  0.508637  1
  Al  Al9  1  0.333637  0.667275  0.492353  1
  Al  Al10  1  0.162291  0.324581  0.575600  1
  Al  Al11  1  0.837569  0.675140  0.424727  1
  Al  Al12  1  0.675275  0.837674  0.575141  1
  Al  Al13  1  0.837569  0.675140  0.075273  1
  Al  Al14  1  0.324937  0.161961  0.424888  1
  Al  Al15  1  0.162291  0.324581  0.924400  1
  Al  Al16  1  0.162400  0.837674  0.575141  1
  Al  Al17  1  0.324937  0.161961  0.075112  1
  Al  Al18  1  0.837023  0.161961  0.424888  1
  Al  Al19  1  0.675275  0.837674  0.924859  1
  Al  Al20  1  0.837023  0.161961  0.075112  1
  Al  Al21  1  0.162400  0.837674  0.924859  1
  Al  Al22  1  0.562125  0.124251  0.250000  1
  Al  Al23  1  0.437936  0.875872  0.750000  1
  Al  Al24  1  0.874559  0.437807  0.250000  1
  Al  Al25  1  0.124248  0.562124  0.750000  1
  Al  Al26  1  0.563248  0.437807  0.250000  1
  Al  Al27  1  0.437876  0.562124  0.750000  1
  Al  Al28  1  0.999705  0.999411  0.250000  1
  Al  Al29  1  0.000084  0.000168  0.750000  1
  Os  Os30  1  0.500026  0.000052  0.999718  1
  Os  Os31  1  0.000003  0.500110  0.000143  1
  Os  Os32  1  0.500026  0.000052  0.500282  1
  Os  Os33  1  0.500107  0.500110  0.000143  1
  Os  Os34  1  0.000003  0.500110  0.499857  1
  Os  Os35  1  0.500107  0.500110  0.499857  1
  Ru  Ru36  1  0.999781  0.999562  0.999826  1
  Ru  Ru37  1  0.999781  0.999562  0.500174  1
