# generated using pymatgen
data_Sr3Pb3(BrO)4
_symmetry_space_group_name_H-M   'P 1'
_cell_length_a   12.06637600
_cell_length_b   6.13353400
_cell_length_c   10.51320900
_cell_angle_alpha   90.00000000
_cell_angle_beta   90.00000000
_cell_angle_gamma   90.00000000
_symmetry_Int_Tables_number   1
_chemical_formula_structural   Sr3Pb3(BrO)4
_chemical_formula_sum   'Sr6 Pb6 Br8 O8'
_cell_volume   778.07763010
_cell_formula_units_Z   2
loop_
 _symmetry_equiv_pos_site_id
 _symmetry_equiv_pos_as_xyz
  1  'x, y, z'
loop_
 _atom_site_type_symbol
 _atom_site_label
 _atom_site_symmetry_multiplicity
 _atom_site_fract_x
 _atom_site_fract_y
 _atom_site_fract_z
 _atom_site_occupancy
  Sr  Sr0  1  0.082309  0.250000  0.057097  1
  Sr  Sr1  1  0.417691  0.750000  0.557095  1
  Sr  Sr2  1  0.586312  0.250000  0.451538  1
  Sr  Sr3  1  0.913687  0.750000  0.951538  1
  Sr  Sr4  1  0.547096  0.250000  0.800240  1
  Sr  Sr5  1  0.952904  0.750000  0.300239  1
  Pb  Pb6  1  0.047805  0.250000  0.715595  1
  Pb  Pb7  1  0.452196  0.750000  0.215594  1
  Pb  Pb8  1  0.300555  0.250000  0.341242  1
  Pb  Pb9  1  0.199444  0.750000  0.841242  1
  Pb  Pb10  1  0.801727  0.250000  0.153491  1
  Pb  Pb11  1  0.698273  0.750000  0.653492  1
  Br  Br12  1  0.809349  0.250000  0.834271  1
  Br  Br13  1  0.690650  0.750000  0.334272  1
  Br  Br14  1  0.309172  0.250000  0.662934  1
  Br  Br15  1  0.190829  0.750000  0.162934  1
  Br  Br16  1  0.363617  0.250000  0.043775  1
  Br  Br17  1  0.136383  0.750000  0.543776  1
  Br  Br18  1  0.864826  0.250000  0.437433  1
  Br  Br19  1  0.635175  0.750000  0.937433  1
  O  O20  1  0.429915  0.002466  0.370613  1
  O  O21  1  0.070084  0.997534  0.870614  1
  O  O22  1  0.931096  0.496769  0.130580  1
  O  O23  1  0.568904  0.503231  0.630581  1
  O  O24  1  0.568904  0.996767  0.630581  1
  O  O25  1  0.931096  0.003233  0.130580  1
  O  O26  1  0.070084  0.502464  0.870614  1
  O  O27  1  0.429915  0.497536  0.370613  1
