# generated using pymatgen
data_NiAs3Pd3Rh2
_symmetry_space_group_name_H-M   'P 1'
_cell_length_a   6.45155800
_cell_length_b   6.51606460
_cell_length_c   3.67007600
_cell_angle_alpha   90.00000000
_cell_angle_beta   90.00000000
_cell_angle_gamma   119.67304969
_symmetry_Int_Tables_number   1
_chemical_formula_structural   NiAs3Pd3Rh2
_chemical_formula_sum   'Ni1 As3 Pd3 Rh2'
_cell_volume   134.05316804
_cell_formula_units_Z   1
loop_
 _symmetry_equiv_pos_site_id
 _symmetry_equiv_pos_as_xyz
  1  'x, y, z'
loop_
 _atom_site_type_symbol
 _atom_site_label
 _atom_site_symmetry_multiplicity
 _atom_site_fract_x
 _atom_site_fract_y
 _atom_site_fract_z
 _atom_site_occupancy
  Ni  Ni0  1  0.740305  0.000000  0.000000  1
  As  As1  1  0.339426  0.671241  0.000000  1
  As  As2  1  0.668186  0.328759  0.000000  1
  As  As3  1  0.001197  0.000000  0.500000  1
  Pd  Pd4  1  0.978852  0.378919  0.500000  1
  Pd  Pd5  1  0.599933  0.621081  0.500000  1
  Pd  Pd6  1  0.410670  0.000000  0.500000  1
  Rh  Rh7  1  0.998273  0.735114  0.000000  1
  Rh  Rh8  1  0.263159  0.264886  0.000000  1
