# generated using pymatgen
data_LiHo16Cd3Rh4
_symmetry_space_group_name_H-M   'P 1'
_cell_length_a   9.60798218
_cell_length_b   9.60791631
_cell_length_c   9.60769800
_cell_angle_alpha   59.96303739
_cell_angle_beta   59.96460085
_cell_angle_gamma   59.96679154
_symmetry_Int_Tables_number   1
_chemical_formula_structural   LiHo16Cd3Rh4
_chemical_formula_sum   'Li1 Ho16 Cd3 Rh4'
_cell_volume   626.64132185
_cell_formula_units_Z   1
loop_
 _symmetry_equiv_pos_site_id
 _symmetry_equiv_pos_as_xyz
  1  'x, y, z'
loop_
 _atom_site_type_symbol
 _atom_site_label
 _atom_site_symmetry_multiplicity
 _atom_site_fract_x
 _atom_site_fract_y
 _atom_site_fract_z
 _atom_site_occupancy
  Li  Li0  1  0.822704  0.822677  0.822677  1
  Ho  Ho1  1  0.599619  0.599617  0.599583  1
  Ho  Ho2  1  0.598141  0.598163  0.206078  1
  Ho  Ho3  1  0.598172  0.206060  0.598162  1
  Ho  Ho4  1  0.206071  0.598179  0.598126  1
  Ho  Ho5  1  0.060108  0.439283  0.439278  1
  Ho  Ho6  1  0.435611  0.063090  0.063097  1
  Ho  Ho7  1  0.439295  0.060102  0.439269  1
  Ho  Ho8  1  0.063081  0.435610  0.063118  1
  Ho  Ho9  1  0.439284  0.439281  0.060130  1
  Ho  Ho10  1  0.063116  0.063121  0.435593  1
  Ho  Ho11  1  0.187664  0.813865  0.813864  1
  Ho  Ho12  1  0.814972  0.185467  0.185471  1
  Ho  Ho13  1  0.813878  0.187639  0.813861  1
  Ho  Ho14  1  0.185457  0.814984  0.185456  1
  Ho  Ho15  1  0.813845  0.813863  0.187651  1
  Ho  Ho16  1  0.185454  0.185458  0.814975  1
  Cd  Cd17  1  0.832151  0.832147  0.507060  1
  Cd  Cd18  1  0.832162  0.507046  0.832105  1
  Cd  Cd19  1  0.507041  0.832155  0.832097  1
  Rh  Rh20  1  0.392295  0.392274  0.392435  1
  Rh  Rh21  1  0.393226  0.393259  0.823355  1
  Rh  Rh22  1  0.393300  0.823373  0.393275  1
  Rh  Rh23  1  0.823356  0.393290  0.393284  1
