# generated using pymatgen
data_La5Pr3S8
_symmetry_space_group_name_H-M   'P 1'
_cell_length_a   8.23523690
_cell_length_b   8.20969791
_cell_length_c   8.20969700
_cell_angle_alpha   59.99999158
_cell_angle_beta   60.10252504
_cell_angle_gamma   60.10252871
_symmetry_Int_Tables_number   1
_chemical_formula_structural   La5Pr3S8
_chemical_formula_sum   'La5 Pr3 S8'
_cell_volume   393.08517438
_cell_formula_units_Z   1
loop_
 _symmetry_equiv_pos_site_id
 _symmetry_equiv_pos_as_xyz
  1  'x, y, z'
loop_
 _atom_site_type_symbol
 _atom_site_label
 _atom_site_symmetry_multiplicity
 _atom_site_fract_x
 _atom_site_fract_y
 _atom_site_fract_z
 _atom_site_occupancy
  La  La0  1  0.125000  0.625000  0.125000  1
  La  La1  1  0.125000  0.125000  0.625000  1
  La  La2  1  0.625000  0.125000  0.125000  1
  La  La3  1  0.125000  0.125000  0.125000  1
  La  La4  1  0.125000  0.625000  0.625000  1
  Pr  Pr5  1  0.625000  0.125000  0.625000  1
  Pr  Pr6  1  0.625000  0.625000  0.625000  1
  Pr  Pr7  1  0.625000  0.625000  0.125000  1
  S  S8  1  0.376550  0.873357  0.375046  1
  S  S9  1  0.873450  0.376643  0.874954  1
  S  S10  1  0.873450  0.874954  0.376643  1
  S  S11  1  0.873450  0.874954  0.874954  1
  S  S12  1  0.872815  0.375728  0.375728  1
  S  S13  1  0.376550  0.375046  0.873357  1
  S  S14  1  0.376550  0.375046  0.375046  1
  S  S15  1  0.377185  0.874272  0.874272  1
