# generated using pymatgen
data_HoPa5I24
_symmetry_space_group_name_H-M   'P 1'
_cell_length_a   9.19950600
_cell_length_b   9.25504679
_cell_length_c   19.38401368
_cell_angle_alpha   76.89484743
_cell_angle_beta   90.00000000
_cell_angle_gamma   90.00000000
_symmetry_Int_Tables_number   1
_chemical_formula_structural   HoPa5I24
_chemical_formula_sum   'Ho1 Pa5 I24'
_cell_volume   1607.40747501
_cell_formula_units_Z   1
loop_
 _symmetry_equiv_pos_site_id
 _symmetry_equiv_pos_as_xyz
  1  'x, y, z'
loop_
 _atom_site_type_symbol
 _atom_site_label
 _atom_site_symmetry_multiplicity
 _atom_site_fract_x
 _atom_site_fract_y
 _atom_site_fract_z
 _atom_site_occupancy
  Ho  Ho0  1  0.390659  0.000000  0.250000  1
  Pa  Pa1  1  0.880237  0.826780  0.581874  1
  Pa  Pa2  1  0.120626  0.173717  0.414624  1
  Pa  Pa3  1  0.627566  0.000000  0.750000  1
  Pa  Pa4  1  0.880237  0.173220  0.918126  1
  Pa  Pa5  1  0.120626  0.826283  0.085376  1
  I  I6  1  0.107815  0.394778  0.907751  1
  I  I7  1  0.586367  0.759662  0.259468  1
  I  I8  1  0.117866  0.070018  0.578039  1
  I  I9  1  0.353134  0.375182  0.427699  1
  I  I10  1  0.121321  0.775890  0.243264  1
  I  I11  1  0.121321  0.224110  0.256736  1
  I  I12  1  0.117866  0.929982  0.921961  1
  I  I13  1  0.413160  0.234457  0.740745  1
  I  I14  1  0.894523  0.606395  0.091650  1
  I  I15  1  0.877029  0.228628  0.754941  1
  I  I16  1  0.413160  0.765543  0.759255  1
  I  I17  1  0.894523  0.393605  0.408350  1
  I  I18  1  0.586367  0.240338  0.240532  1
  I  I19  1  0.653005  0.076622  0.587359  1
  I  I20  1  0.340628  0.925935  0.412358  1
  I  I21  1  0.877029  0.771372  0.745059  1
  I  I22  1  0.107815  0.605222  0.592249  1
  I  I23  1  0.645561  0.376667  0.928820  1
  I  I24  1  0.340628  0.074065  0.087642  1
  I  I25  1  0.879615  0.068030  0.079932  1
  I  I26  1  0.645561  0.623333  0.571180  1
  I  I27  1  0.653005  0.923378  0.912641  1
  I  I28  1  0.353134  0.624818  0.072301  1
  I  I29  1  0.879615  0.931970  0.420068  1
