# generated using pymatgen
data_CsK2Cu2AgAs2
_symmetry_space_group_name_H-M   'P 1'
_cell_length_a   7.96129300
_cell_length_b   7.82881308
_cell_length_c   7.96129332
_cell_angle_alpha   45.05534359
_cell_angle_beta   44.13119937
_cell_angle_gamma   45.05534266
_symmetry_Int_Tables_number   1
_chemical_formula_structural   CsK2Cu2AgAs2
_chemical_formula_sum   'Cs1 K2 Cu2 Ag1 As2'
_cell_volume   223.64113709
_cell_formula_units_Z   1
loop_
 _symmetry_equiv_pos_site_id
 _symmetry_equiv_pos_as_xyz
  1  'x, y, z'
loop_
 _atom_site_type_symbol
 _atom_site_label
 _atom_site_symmetry_multiplicity
 _atom_site_fract_x
 _atom_site_fract_y
 _atom_site_fract_z
 _atom_site_occupancy
  Cs  Cs0  1  0.500000  0.500000  0.500000  1
  K  K1  1  0.093315  0.079473  0.093315  1
  K  K2  1  0.906685  0.920527  0.906685  1
  Cu  Cu3  1  0.500000  0.500000  0.000000  1
  Cu  Cu4  1  0.000000  0.500000  0.500000  1
  Ag  Ag5  1  0.500000  0.000000  0.500000  1
  As  As6  1  0.758956  0.721241  0.758956  1
  As  As7  1  0.241044  0.278759  0.241044  1
