# generated using pymatgen
data_Pr9Er11Tl16
_symmetry_space_group_name_H-M   'P 1'
_cell_length_a   8.08020238
_cell_length_b   8.34687084
_cell_length_c   16.11223388
_cell_angle_alpha   89.80879751
_cell_angle_beta   90.46170936
_cell_angle_gamma   90.05980427
_symmetry_Int_Tables_number   1
_chemical_formula_structural   Pr9Er11Tl16
_chemical_formula_sum   'Pr9 Er11 Tl16'
_cell_volume   1086.63814272
_cell_formula_units_Z   1
loop_
 _symmetry_equiv_pos_site_id
 _symmetry_equiv_pos_as_xyz
  1  'x, y, z'
loop_
 _atom_site_type_symbol
 _atom_site_label
 _atom_site_symmetry_multiplicity
 _atom_site_fract_x
 _atom_site_fract_y
 _atom_site_fract_z
 _atom_site_occupancy
  Pr  Pr0  1  0.149879  0.333620  0.620178  1
  Pr  Pr1  1  0.490834  0.683388  0.600327  1
  Pr  Pr2  1  0.995729  0.817243  0.905995  1
  Pr  Pr3  1  0.504145  0.318203  0.095101  1
  Pr  Pr4  1  0.009472  0.179318  0.399427  1
  Pr  Pr5  1  0.504256  0.316283  0.402831  1
  Pr  Pr6  1  0.003466  0.182274  0.094988  1
  Pr  Pr7  1  0.497281  0.683315  0.906940  1
  Pr  Pr8  1  0.994837  0.821031  0.597603  1
  Er  Er9  1  0.649923  0.162352  0.626345  1
  Er  Er10  1  0.154053  0.338966  0.877560  1
  Er  Er11  1  0.345631  0.838157  0.123776  1
  Er  Er12  1  0.848864  0.662789  0.374308  1
  Er  Er13  1  0.353086  0.837523  0.372843  1
  Er  Er14  1  0.844278  0.662463  0.123273  1
  Er  Er15  1  0.655263  0.162153  0.877404  1
  Er  Er16  1  0.816244  0.498396  0.752438  1
  Er  Er17  1  0.316801  0.001013  0.752448  1
  Er  Er18  1  0.182209  0.502536  0.248424  1
  Er  Er19  1  0.684692  0.998793  0.248795  1
  Tl  Tl20  1  0.691323  0.961734  0.461513  1
  Tl  Tl21  1  0.182419  0.539750  0.040576  1
  Tl  Tl22  1  0.317479  0.039960  0.960494  1
  Tl  Tl23  1  0.802770  0.466014  0.537237  1
  Tl  Tl24  1  0.321778  0.030662  0.537405  1
  Tl  Tl25  1  0.817776  0.460148  0.960620  1
  Tl  Tl26  1  0.682094  0.961419  0.040824  1
  Tl  Tl27  1  0.184684  0.543862  0.455201  1
  Tl  Tl28  1  0.455989  0.377926  0.753659  1
  Tl  Tl29  1  0.953798  0.120305  0.752570  1
  Tl  Tl30  1  0.544561  0.622116  0.248672  1
  Tl  Tl31  1  0.044957  0.876479  0.248158  1
  Tl  Tl32  1  0.689818  0.859749  0.751710  1
  Tl  Tl33  1  0.190497  0.640257  0.752573  1
  Tl  Tl34  1  0.309831  0.139140  0.248372  1
  Tl  Tl35  1  0.809282  0.360663  0.249415  1
