# generated using pymatgen
data_Sr4Ho4ErTm3Se16
_symmetry_space_group_name_H-M   'P 1'
_cell_length_a   4.12279000
_cell_length_b   12.65251809
_cell_length_c   14.90744109
_cell_angle_alpha   89.99933782
_cell_angle_beta   90.00000000
_cell_angle_gamma   90.00000000
_symmetry_Int_Tables_number   1
_chemical_formula_structural   Sr4Ho4ErTm3Se16
_chemical_formula_sum   'Sr4 Ho4 Er1 Tm3 Se16'
_cell_volume   777.62691273
_cell_formula_units_Z   1
loop_
 _symmetry_equiv_pos_site_id
 _symmetry_equiv_pos_as_xyz
  1  'x, y, z'
loop_
 _atom_site_type_symbol
 _atom_site_label
 _atom_site_symmetry_multiplicity
 _atom_site_fract_x
 _atom_site_fract_y
 _atom_site_fract_z
 _atom_site_occupancy
  Sr  Sr0  1  0.250000  0.759328  0.333944  1
  Sr  Sr1  1  0.250000  0.259276  0.166400  1
  Sr  Sr2  1  0.750000  0.240441  0.665832  1
  Sr  Sr3  1  0.750000  0.740706  0.833841  1
  Ho  Ho4  1  0.250000  0.438515  0.388889  1
  Ho  Ho5  1  0.250000  0.938914  0.111464  1
  Ho  Ho6  1  0.750000  0.561258  0.611177  1
  Ho  Ho7  1  0.750000  0.061285  0.888881  1
  Er  Er8  1  0.750000  0.083031  0.402604  1
  Tm  Tm9  1  0.250000  0.416967  0.902726  1
  Tm  Tm10  1  0.250000  0.917288  0.597098  1
  Tm  Tm11  1  0.750000  0.582922  0.097330  1
  Se  Se12  1  0.250000  0.205489  0.829270  1
  Se  Se13  1  0.250000  0.705701  0.670408  1
  Se  Se14  1  0.750000  0.794494  0.170737  1
  Se  Se15  1  0.750000  0.294485  0.329762  1
  Se  Se16  1  0.250000  0.127588  0.530018  1
  Se  Se17  1  0.250000  0.627381  0.969902  1
  Se  Se18  1  0.750000  0.872564  0.469735  1
  Se  Se19  1  0.750000  0.372546  0.030213  1
  Se  Se20  1  0.250000  0.028697  0.284875  1
  Se  Se21  1  0.250000  0.528483  0.214739  1
  Se  Se22  1  0.750000  0.971433  0.714493  1
  Se  Se23  1  0.750000  0.471285  0.785311  1
  Se  Se24  1  0.250000  0.409411  0.577156  1
  Se  Se25  1  0.250000  0.909553  0.923121  1
  Se  Se26  1  0.750000  0.590337  0.422882  1
  Se  Se27  1  0.750000  0.090624  0.077194  1
