# generated using pymatgen
data_YScP7(IrRu5)2
_symmetry_space_group_name_H-M   'P 1'
_cell_length_a   9.37453267
_cell_length_b   9.44276340
_cell_length_c   3.93527900
_cell_angle_alpha   90.00000000
_cell_angle_beta   90.00000000
_cell_angle_gamma   120.18125119
_symmetry_Int_Tables_number   1
_chemical_formula_structural   YScP7(IrRu5)2
_chemical_formula_sum   'Y1 Sc1 P7 Ir2 Ru10'
_cell_volume   301.13330844
_cell_formula_units_Z   1
loop_
 _symmetry_equiv_pos_site_id
 _symmetry_equiv_pos_as_xyz
  1  'x, y, z'
loop_
 _atom_site_type_symbol
 _atom_site_label
 _atom_site_symmetry_multiplicity
 _atom_site_fract_x
 _atom_site_fract_y
 _atom_site_fract_z
 _atom_site_occupancy
  Y  Y0  1  0.330244  0.665241  0.000000  1
  Sc  Sc1  1  0.668716  0.333868  0.500000  1
  P  P2  1  0.600773  0.717478  0.500000  1
  P  P3  1  0.000541  0.000759  0.000000  1
  P  P4  1  0.277056  0.878931  0.500000  1
  P  P5  1  0.113766  0.401276  0.500000  1
  P  P6  1  0.883014  0.573093  0.000000  1
  P  P7  1  0.429001  0.305611  0.000000  1
  P  P8  1  0.696034  0.120921  0.000000  1
  Ir  Ir9  1  0.551878  0.944887  0.500000  1
  Ir  Ir10  1  0.391911  0.445686  0.500000  1
  Ru  Ru11  1  0.913880  0.125193  0.500000  1
  Ru  Ru12  1  0.213501  0.087521  0.500000  1
  Ru  Ru13  1  0.875597  0.792167  0.500000  1
  Ru  Ru14  1  0.725601  0.892004  0.000000  1
  Ru  Ru15  1  0.109551  0.837288  0.000000  1
  Ru  Ru16  1  0.167155  0.272594  0.000000  1
  Ru  Ru17  1  0.432661  0.070075  0.000000  1
  Ru  Ru18  1  0.932726  0.359830  0.000000  1
  Ru  Ru19  1  0.640214  0.569510  0.000000  1
  Ru  Ru20  1  0.046180  0.606067  0.500000  1
