# generated using pymatgen
data_Dy5Sc3P12Ir3Rh13
_symmetry_space_group_name_H-M   'P 1'
_cell_length_a   12.87348207
_cell_length_b   12.87124152
_cell_length_c   3.93252400
_cell_angle_alpha   90.00000000
_cell_angle_beta   90.00000000
_cell_angle_gamma   119.99424204
_symmetry_Int_Tables_number   1
_chemical_formula_structural   Dy5Sc3P12Ir3Rh13
_chemical_formula_sum   'Dy5 Sc3 P12 Ir3 Rh13'
_cell_volume   564.34369948
_cell_formula_units_Z   1
loop_
 _symmetry_equiv_pos_site_id
 _symmetry_equiv_pos_as_xyz
  1  'x, y, z'
loop_
 _atom_site_type_symbol
 _atom_site_label
 _atom_site_symmetry_multiplicity
 _atom_site_fract_x
 _atom_site_fract_y
 _atom_site_fract_z
 _atom_site_occupancy
  Dy  Dy0  1  0.333313  0.666626  0.500000  1
  Dy  Dy1  1  0.666687  0.333312  0.500000  1
  Dy  Dy2  1  0.000000  0.811446  0.000000  1
  Dy  Dy3  1  0.188291  0.188479  0.000000  1
  Dy  Dy4  1  0.811709  0.000188  0.000000  1
  Sc  Sc5  1  0.000000  0.443602  0.500000  1
  Sc  Sc6  1  0.555768  0.555741  0.500000  1
  Sc  Sc7  1  0.444232  0.999973  0.500000  1
  P  P8  1  0.000000  0.645132  0.500000  1
  P  P9  1  0.354670  0.354743  0.500000  1
  P  P10  1  0.645330  0.000073  0.500000  1
  P  P11  1  0.517351  0.687303  0.000000  1
  P  P12  1  0.312655  0.829997  0.000000  1
  P  P13  1  0.170340  0.482981  0.000000  1
  P  P14  1  0.482649  0.169952  0.000000  1
  P  P15  1  0.687345  0.517342  0.000000  1
  P  P16  1  0.829660  0.312642  0.000000  1
  P  P17  1  0.000000  0.177715  0.500000  1
  P  P18  1  0.822659  0.822777  0.500000  1
  P  P19  1  0.177341  0.000118  0.500000  1
  Ir  Ir20  1  0.721956  0.721931  0.000000  1
  Ir  Ir21  1  0.278044  0.999975  0.000000  1
  Ir  Ir22  1  0.000000  0.000027  0.500000  1
  Rh  Rh23  1  0.512759  0.869962  0.000000  1
  Rh  Rh24  1  0.129745  0.642847  0.000000  1
  Rh  Rh25  1  0.357080  0.486879  0.000000  1
  Rh  Rh26  1  0.487241  0.357202  0.000000  1
  Rh  Rh27  1  0.870255  0.513101  0.000000  1
  Rh  Rh28  1  0.642920  0.129798  0.000000  1
  Rh  Rh29  1  0.000000  0.278328  0.000000  1
  Rh  Rh30  1  0.626248  0.805172  0.500000  1
  Rh  Rh31  1  0.194909  0.821045  0.500000  1
  Rh  Rh32  1  0.178390  0.373462  0.500000  1
  Rh  Rh33  1  0.373752  0.178924  0.500000  1
  Rh  Rh34  1  0.805091  0.626135  0.500000  1
  Rh  Rh35  1  0.821610  0.195072  0.500000  1
