# generated using pymatgen
data_Li2Yb2LuAlGe3
_symmetry_space_group_name_H-M   'P 1'
_cell_length_a   7.02060406
_cell_length_b   7.12360593
_cell_length_c   4.26419600
_cell_angle_alpha   90.00000000
_cell_angle_beta   90.00000000
_cell_angle_gamma   120.79128003
_symmetry_Int_Tables_number   1
_chemical_formula_structural   Li2Yb2LuAlGe3
_chemical_formula_sum   'Li2 Yb2 Lu1 Al1 Ge3'
_cell_volume   183.19929948
_cell_formula_units_Z   1
loop_
 _symmetry_equiv_pos_site_id
 _symmetry_equiv_pos_as_xyz
  1  'x, y, z'
loop_
 _atom_site_type_symbol
 _atom_site_label
 _atom_site_symmetry_multiplicity
 _atom_site_fract_x
 _atom_site_fract_y
 _atom_site_fract_z
 _atom_site_occupancy
  Li  Li0  1  0.238325  0.996613  0.500000  1
  Li  Li1  1  0.997526  0.237233  0.500000  1
  Yb  Yb2  1  0.422994  0.424163  0.000000  1
  Yb  Yb3  1  0.572323  0.007316  0.000000  1
  Lu  Lu4  1  0.007288  0.579991  0.000000  1
  Al  Al5  1  0.755812  0.754283  0.500000  1
  Ge  Ge6  1  0.333320  0.667029  0.500000  1
  Ge  Ge7  1  0.683145  0.351951  0.500000  1
  Ge  Ge8  1  0.989268  0.981422  0.000000  1
