# generated using pymatgen
data_Tm20Ir3Pt8Rh
_symmetry_space_group_name_H-M   'P 1'
_cell_length_a   10.91094500
_cell_length_b   10.91094500
_cell_length_c   6.29901200
_cell_angle_alpha   90.00000000
_cell_angle_beta   90.00000000
_cell_angle_gamma   90.00000000
_symmetry_Int_Tables_number   1
_chemical_formula_structural   Tm20Ir3Pt8Rh
_chemical_formula_sum   'Tm20 Ir3 Pt8 Rh1'
_cell_volume   749.88932086
_cell_formula_units_Z   1
loop_
 _symmetry_equiv_pos_site_id
 _symmetry_equiv_pos_as_xyz
  1  'x, y, z'
loop_
 _atom_site_type_symbol
 _atom_site_label
 _atom_site_symmetry_multiplicity
 _atom_site_fract_x
 _atom_site_fract_y
 _atom_site_fract_z
 _atom_site_occupancy
  Tm  Tm0  1  0.295148  0.087032  0.375280  1
  Tm  Tm1  1  0.294890  0.912783  0.872869  1
  Tm  Tm2  1  0.705110  0.087217  0.872869  1
  Tm  Tm3  1  0.704852  0.912968  0.375280  1
  Tm  Tm4  1  0.587217  0.794890  0.872869  1
  Tm  Tm5  1  0.587032  0.204852  0.375280  1
  Tm  Tm6  1  0.412968  0.795148  0.375280  1
  Tm  Tm7  1  0.412783  0.205110  0.872869  1
  Tm  Tm8  1  0.204513  0.413167  0.625961  1
  Tm  Tm9  1  0.204429  0.587122  0.126071  1
  Tm  Tm10  1  0.795571  0.412878  0.126071  1
  Tm  Tm11  1  0.795487  0.586833  0.625961  1
  Tm  Tm12  1  0.912878  0.704429  0.126071  1
  Tm  Tm13  1  0.913167  0.295487  0.625961  1
  Tm  Tm14  1  0.086833  0.704513  0.625961  1
  Tm  Tm15  1  0.087122  0.295571  0.126071  1
  Tm  Tm16  1  0.000000  0.000000  0.499989  1
  Tm  Tm17  1  0.000000  0.000000  0.000239  1
  Tm  Tm18  1  0.500000  0.500000  0.000239  1
  Tm  Tm19  1  0.500000  0.500000  0.499989  1
  Ir  Ir20  1  0.500000  0.000000  0.620811  1
  Ir  Ir21  1  0.000000  0.500000  0.879932  1
  Ir  Ir22  1  0.000000  0.500000  0.380040  1
  Pt  Pt23  1  0.845515  0.153532  0.249645  1
  Pt  Pt24  1  0.845862  0.846220  0.749880  1
  Pt  Pt25  1  0.154138  0.153780  0.749880  1
  Pt  Pt26  1  0.154485  0.846468  0.249645  1
  Pt  Pt27  1  0.653780  0.345862  0.749880  1
  Pt  Pt28  1  0.653532  0.654485  0.249645  1
  Pt  Pt29  1  0.346468  0.345515  0.249645  1
  Pt  Pt30  1  0.346220  0.654138  0.749880  1
  Rh  Rh31  1  0.500000  0.000000  0.119938  1
