# generated using pymatgen
data_Y8SiPd5Pt19
_symmetry_space_group_name_H-M   'P 1'
_cell_length_a   8.34525800
_cell_length_b   8.35322100
_cell_length_c   8.38195800
_cell_angle_alpha   90.00000000
_cell_angle_beta   89.99958213
_cell_angle_gamma   90.00000000
_symmetry_Int_Tables_number   1
_chemical_formula_structural   Y8SiPd5Pt19
_chemical_formula_sum   'Y8 Si1 Pd5 Pt19'
_cell_volume   584.30448482
_cell_formula_units_Z   1
loop_
 _symmetry_equiv_pos_site_id
 _symmetry_equiv_pos_as_xyz
  1  'x, y, z'
loop_
 _atom_site_type_symbol
 _atom_site_label
 _atom_site_symmetry_multiplicity
 _atom_site_fract_x
 _atom_site_fract_y
 _atom_site_fract_z
 _atom_site_occupancy
  Y  Y0  1  0.252237  0.251974  0.252680  1
  Y  Y1  1  0.747197  0.746802  0.746508  1
  Y  Y2  1  0.747695  0.747781  0.252853  1
  Y  Y3  1  0.747197  0.253198  0.746508  1
  Y  Y4  1  0.252775  0.252493  0.746456  1
  Y  Y5  1  0.252237  0.748026  0.252680  1
  Y  Y6  1  0.252775  0.747507  0.746456  1
  Y  Y7  1  0.747695  0.252219  0.252853  1
  Si  Si8  1  0.000493  0.000000  0.005628  1
  Pd  Pd9  1  0.500160  0.000000  0.741093  1
  Pd  Pd10  1  0.741878  0.000000  0.500249  1
  Pd  Pd11  1  0.999925  0.500000  0.257663  1
  Pd  Pd12  1  0.999961  0.500000  0.741126  1
  Pd  Pd13  1  0.999565  0.000000  0.720931  1
  Pt  Pt14  1  0.257590  0.500000  0.999790  1
  Pt  Pt15  1  0.742557  0.500000  0.999875  1
  Pt  Pt16  1  0.000332  0.258160  0.500061  1
  Pt  Pt17  1  0.500078  0.257836  0.000196  1
  Pt  Pt18  1  0.000332  0.741840  0.500061  1
  Pt  Pt19  1  0.500078  0.742164  0.000196  1
  Pt  Pt20  1  0.500048  0.000000  0.257616  1
  Pt  Pt21  1  0.258001  0.000000  0.499939  1
  Pt  Pt22  1  0.251616  0.500000  0.499942  1
  Pt  Pt23  1  0.748214  0.500000  0.499889  1
  Pt  Pt24  1  0.499654  0.252175  0.499422  1
  Pt  Pt25  1  0.499654  0.747825  0.499422  1
  Pt  Pt26  1  0.500053  0.500000  0.252213  1
  Pt  Pt27  1  0.499986  0.500000  0.747667  1
  Pt  Pt28  1  0.281858  0.000000  0.998256  1
  Pt  Pt29  1  0.718663  0.000000  0.998414  1
  Pt  Pt30  1  0.000004  0.282018  0.998609  1
  Pt  Pt31  1  0.000004  0.717982  0.998609  1
  Pt  Pt32  1  0.999493  0.000000  0.286137  1
