# generated using pymatgen
data_Zr6Al16FePt6
_symmetry_space_group_name_H-M   'P 1'
_cell_length_a   8.75004195
_cell_length_b   8.76913165
_cell_length_c   8.75004206
_cell_angle_alpha   59.92780524
_cell_angle_beta   60.06851588
_cell_angle_gamma   59.92780685
_symmetry_Int_Tables_number   1
_chemical_formula_structural   Zr6Al16FePt6
_chemical_formula_sum   'Zr6 Al16 Fe1 Pt6'
_cell_volume   474.47243018
_cell_formula_units_Z   1
loop_
 _symmetry_equiv_pos_site_id
 _symmetry_equiv_pos_as_xyz
  1  'x, y, z'
loop_
 _atom_site_type_symbol
 _atom_site_label
 _atom_site_symmetry_multiplicity
 _atom_site_fract_x
 _atom_site_fract_y
 _atom_site_fract_z
 _atom_site_occupancy
  Zr  Zr0  1  0.688037  0.683950  0.311963  1
  Zr  Zr1  1  0.312412  0.687588  0.312412  1
  Zr  Zr2  1  0.688037  0.316050  0.311963  1
  Zr  Zr3  1  0.311963  0.316050  0.688037  1
  Zr  Zr4  1  0.687588  0.312412  0.687588  1
  Zr  Zr5  1  0.311963  0.683950  0.688037  1
  Al  Al6  1  0.881305  0.878634  0.361427  1
  Al  Al7  1  0.885079  0.362506  0.885079  1
  Al  Al8  1  0.361427  0.878634  0.881305  1
  Al  Al9  1  0.885079  0.867335  0.885079  1
  Al  Al10  1  0.118695  0.121366  0.638573  1
  Al  Al11  1  0.114921  0.637494  0.114921  1
  Al  Al12  1  0.638573  0.121366  0.118695  1
  Al  Al13  1  0.114921  0.132665  0.114921  1
  Al  Al14  1  0.674969  0.659082  0.006868  1
  Al  Al15  1  0.663822  0.009439  0.663822  1
  Al  Al16  1  0.006868  0.659082  0.674969  1
  Al  Al17  1  0.663822  0.662917  0.663822  1
  Al  Al18  1  0.325031  0.340918  0.993132  1
  Al  Al19  1  0.336178  0.990561  0.336178  1
  Al  Al20  1  0.993132  0.340918  0.325031  1
  Al  Al21  1  0.336178  0.337083  0.336178  1
  Fe  Fe22  1  0.000000  0.500000  0.000000  1
  Pt  Pt23  1  0.000000  0.000000  0.000000  1
  Pt  Pt24  1  0.000000  0.000000  0.500000  1
  Pt  Pt25  1  0.500000  0.000000  0.500000  1
  Pt  Pt26  1  0.000000  0.500000  0.500000  1
  Pt  Pt27  1  0.500000  0.500000  0.000000  1
  Pt  Pt28  1  0.500000  0.000000  0.000000  1
