# generated using pymatgen
data_LiDy2Tm2Sc5Si8
_symmetry_space_group_name_H-M   'P 1'
_cell_length_a   6.97486086
_cell_length_b   7.38245310
_cell_length_c   13.97510588
_cell_angle_alpha   90.03792784
_cell_angle_beta   90.04578098
_cell_angle_gamma   89.91834572
_symmetry_Int_Tables_number   1
_chemical_formula_structural   LiDy2Tm2Sc5Si8
_chemical_formula_sum   'Li2 Dy4 Tm4 Sc10 Si16'
_cell_volume   719.59920974
_cell_formula_units_Z   2
loop_
 _symmetry_equiv_pos_site_id
 _symmetry_equiv_pos_as_xyz
  1  'x, y, z'
loop_
 _atom_site_type_symbol
 _atom_site_label
 _atom_site_symmetry_multiplicity
 _atom_site_fract_x
 _atom_site_fract_y
 _atom_site_fract_z
 _atom_site_occupancy
  Li  Li0  1  0.160050  0.506429  0.749815  1
  Li  Li1  1  0.839806  0.493098  0.250154  1
  Dy  Dy2  1  0.009741  0.184099  0.098195  1
  Dy  Dy3  1  0.990163  0.816385  0.902065  1
  Dy  Dy4  1  0.485236  0.674013  0.903321  1
  Dy  Dy5  1  0.990241  0.816029  0.597565  1
  Tm  Tm6  1  0.514367  0.325296  0.097471  1
  Tm  Tm7  1  0.010495  0.185009  0.401385  1
  Tm  Tm8  1  0.514448  0.325134  0.402943  1
  Tm  Tm9  1  0.485357  0.674605  0.597043  1
  Sc  Sc10  1  0.341959  0.003634  0.250388  1
  Sc  Sc11  1  0.658031  0.997356  0.749708  1
  Sc  Sc12  1  0.326277  0.181738  0.625950  1
  Sc  Sc13  1  0.673674  0.818458  0.373803  1
  Sc  Sc14  1  0.165984  0.674794  0.372998  1
  Sc  Sc15  1  0.673691  0.818529  0.126708  1
  Sc  Sc16  1  0.834435  0.324713  0.626593  1
  Sc  Sc17  1  0.326475  0.181640  0.873761  1
  Sc  Sc18  1  0.834424  0.324856  0.872809  1
  Sc  Sc19  1  0.165879  0.674682  0.127367  1
  Si  Si20  1  0.029645  0.101504  0.749738  1
  Si  Si21  1  0.970696  0.899874  0.250562  1
  Si  Si22  1  0.466506  0.611149  0.250213  1
  Si  Si23  1  0.534174  0.387660  0.749561  1
  Si  Si24  1  0.288098  0.878693  0.749464  1
  Si  Si25  1  0.712129  0.122816  0.250687  1
  Si  Si26  1  0.221698  0.371679  0.250507  1
  Si  Si27  1  0.778470  0.627020  0.749305  1
  Si  Si28  1  0.161460  0.460514  0.532928  1
  Si  Si29  1  0.838577  0.537027  0.466088  1
  Si  Si30  1  0.342603  0.967450  0.460970  1
  Si  Si31  1  0.838651  0.538078  0.033656  1
  Si  Si32  1  0.656256  0.033311  0.538466  1
  Si  Si33  1  0.160014  0.460818  0.967125  1
  Si  Si34  1  0.656562  0.034415  0.961688  1
  Si  Si35  1  0.343728  0.967494  0.039003  1
