# generated using pymatgen
data_Zr6Ti4Ga5Se
_symmetry_space_group_name_H-M   'P 1'
_cell_length_a   7.96704000
_cell_length_b   7.94348534
_cell_length_c   5.44748600
_cell_angle_alpha   90.00000000
_cell_angle_beta   90.00000000
_cell_angle_gamma   120.09813925
_symmetry_Int_Tables_number   1
_chemical_formula_structural   Zr6Ti4Ga5Se
_chemical_formula_sum   'Zr6 Ti4 Ga5 Se1'
_cell_volume   298.26652861
_cell_formula_units_Z   1
loop_
 _symmetry_equiv_pos_site_id
 _symmetry_equiv_pos_as_xyz
  1  'x, y, z'
loop_
 _atom_site_type_symbol
 _atom_site_label
 _atom_site_symmetry_multiplicity
 _atom_site_fract_x
 _atom_site_fract_y
 _atom_site_fract_z
 _atom_site_occupancy
  Zr  Zr0  1  0.247097  0.000000  0.250000  1
  Zr  Zr1  1  0.243057  0.246210  0.750000  1
  Zr  Zr2  1  0.996847  0.753790  0.750000  1
  Zr  Zr3  1  0.002445  0.246079  0.250000  1
  Zr  Zr4  1  0.756366  0.753921  0.250000  1
  Zr  Zr5  1  0.749751  0.000000  0.750000  1
  Ti  Ti6  1  0.667338  0.332822  0.998054  1
  Ti  Ti7  1  0.334515  0.667178  0.501946  1
  Ti  Ti8  1  0.667338  0.332822  0.501946  1
  Ti  Ti9  1  0.334515  0.667178  0.998054  1
  Ga  Ga10  1  0.393149  0.000000  0.750000  1
  Ga  Ga11  1  0.000534  0.599930  0.250000  1
  Ga  Ga12  1  0.000971  0.401219  0.750000  1
  Ga  Ga13  1  0.599753  0.598781  0.750000  1
  Ga  Ga14  1  0.400604  0.400070  0.250000  1
  Se  Se15  1  0.605720  0.000000  0.250000  1
