# generated using pymatgen
data_CsLu(AgBi)2
_symmetry_space_group_name_H-M   'P 1'
_cell_length_a   4.87174700
_cell_length_b   4.87174668
_cell_length_c   9.55419400
_cell_angle_alpha   90.00000000
_cell_angle_beta   90.00000000
_cell_angle_gamma   120.00000899
_symmetry_Int_Tables_number   1
_chemical_formula_structural   CsLu(AgBi)2
_chemical_formula_sum   'Cs1 Lu1 Ag2 Bi2'
_cell_volume   196.37856028
_cell_formula_units_Z   1
loop_
 _symmetry_equiv_pos_site_id
 _symmetry_equiv_pos_as_xyz
  1  'x, y, z'
loop_
 _atom_site_type_symbol
 _atom_site_label
 _atom_site_symmetry_multiplicity
 _atom_site_fract_x
 _atom_site_fract_y
 _atom_site_fract_z
 _atom_site_occupancy
  Cs  Cs0  1  0.000000  0.000000  0.500000  1
  Lu  Lu1  1  0.000000  0.000000  0.000000  1
  Ag  Ag2  1  0.666667  0.333333  0.133475  1
  Ag  Ag3  1  0.333333  0.666667  0.866525  1
  Bi  Bi4  1  0.666667  0.333333  0.791218  1
  Bi  Bi5  1  0.333333  0.666667  0.208782  1
