# generated using pymatgen
data_Ca9CeSi6O
_symmetry_space_group_name_H-M   'P 1'
_cell_length_a   9.07827103
_cell_length_b   9.05579603
_cell_length_c   9.07106207
_cell_angle_alpha   129.99863096
_cell_angle_beta   130.06474794
_cell_angle_gamma   73.32184694
_symmetry_Int_Tables_number   1
_chemical_formula_structural   Ca9CeSi6O
_chemical_formula_sum   'Ca9 Ce1 Si6 O1'
_cell_volume   426.87643771
_cell_formula_units_Z   1
loop_
 _symmetry_equiv_pos_site_id
 _symmetry_equiv_pos_as_xyz
  1  'x, y, z'
loop_
 _atom_site_type_symbol
 _atom_site_label
 _atom_site_symmetry_multiplicity
 _atom_site_fract_x
 _atom_site_fract_y
 _atom_site_fract_z
 _atom_site_occupancy
  Ca  Ca0  1  0.433639  0.764218  0.000000  1
  Ca  Ca1  1  0.928958  0.930100  0.641992  1
  Ca  Ca2  1  0.286967  0.288108  0.358010  1
  Ca  Ca3  1  0.709504  0.067767  0.000001  1
  Ca  Ca4  1  0.068544  0.711760  0.000001  1
  Ca  Ca5  1  0.562262  0.562977  0.322507  1
  Ca  Ca6  1  0.239755  0.240469  0.677492  1
  Ca  Ca7  1  0.252213  0.752384  0.505200  1
  Ca  Ca8  1  0.747014  0.247186  0.494800  1
  Ce  Ce9  1  0.761190  0.436628  0.999998  1
  Si  Si10  1  0.996195  0.499492  0.488368  1
  Si  Si11  1  0.507824  0.011123  0.511629  1
  Si  Si12  1  0.125861  0.359146  0.999999  1
  Si  Si13  1  0.356079  0.134676  0.000000  1
  Si  Si14  1  0.867504  0.861128  0.225283  1
  Si  Si15  1  0.642221  0.635845  0.774718  1
  O  O16  1  0.514268  0.496992  0.999999  1
