# generated using pymatgen
data_TbSm2Er(Sn5Rh3)2
_symmetry_space_group_name_H-M   'P 1'
_cell_length_a   13.50008431
_cell_length_b   13.50008578
_cell_length_c   7.27375417
_cell_angle_alpha   89.97560153
_cell_angle_beta   90.02439916
_cell_angle_gamma   160.99825678
_symmetry_Int_Tables_number   1
_chemical_formula_structural   TbSm2Er(Sn5Rh3)2
_chemical_formula_sum   'Tb1 Sm2 Er1 Sn10 Rh6'
_cell_volume   431.63025362
_cell_formula_units_Z   1
loop_
 _symmetry_equiv_pos_site_id
 _symmetry_equiv_pos_as_xyz
  1  'x, y, z'
loop_
 _atom_site_type_symbol
 _atom_site_label
 _atom_site_symmetry_multiplicity
 _atom_site_fract_x
 _atom_site_fract_y
 _atom_site_fract_z
 _atom_site_occupancy
  Tb  Tb0  1  0.523544  0.476456  0.237329  1
  Sm  Sm1  1  0.172269  0.827731  0.754526  1
  Sm  Sm2  1  0.827725  0.172275  0.254475  1
  Er  Er3  1  0.476246  0.523754  0.737343  1
  Sn  Sn4  1  0.880970  0.119030  0.730981  1
  Sn  Sn5  1  0.119186  0.880814  0.231004  1
  Sn  Sn6  1  0.704724  0.295276  0.049979  1
  Sn  Sn7  1  0.295306  0.704694  0.550008  1
  Sn  Sn8  1  0.595808  0.404192  0.613084  1
  Sn  Sn9  1  0.404113  0.595887  0.112768  1
  Sn  Sn10  1  0.952477  0.047523  0.399845  1
  Sn  Sn11  1  0.047294  0.952706  0.898907  1
  Sn  Sn12  1  0.290559  0.709441  0.976146  1
  Sn  Sn13  1  0.709445  0.290555  0.476160  1
  Rh  Rh14  1  0.050055  0.949945  0.519086  1
  Rh  Rh15  1  0.949911  0.050089  0.017691  1
  Rh  Rh16  1  0.777498  0.222502  0.763993  1
  Rh  Rh17  1  0.222553  0.777447  0.263975  1
  Rh  Rh18  1  0.394574  0.605426  0.484805  1
  Rh  Rh19  1  0.605742  0.394258  0.983891  1
