# generated using pymatgen
data_CaAl6IrAu3
_symmetry_space_group_name_H-M   'P 1'
_cell_length_a   7.55577000
_cell_length_b   7.55577020
_cell_length_c   4.02793700
_cell_angle_alpha   90.00000000
_cell_angle_beta   90.00000000
_cell_angle_gamma   119.99999911
_symmetry_Int_Tables_number   1
_chemical_formula_structural   CaAl6IrAu3
_chemical_formula_sum   'Ca1 Al6 Ir1 Au3'
_cell_volume   199.14562748
_cell_formula_units_Z   1
loop_
 _symmetry_equiv_pos_site_id
 _symmetry_equiv_pos_as_xyz
  1  'x, y, z'
loop_
 _atom_site_type_symbol
 _atom_site_label
 _atom_site_symmetry_multiplicity
 _atom_site_fract_x
 _atom_site_fract_y
 _atom_site_fract_z
 _atom_site_occupancy
  Ca  Ca0  1  0.000000  0.000000  0.000000  1
  Al  Al1  1  0.523968  0.476032  0.000000  1
  Al  Al2  1  0.205427  0.794573  0.500000  1
  Al  Al3  1  0.523968  0.047936  0.000000  1
  Al  Al4  1  0.205427  0.410853  0.500000  1
  Al  Al5  1  0.952064  0.476032  0.000000  1
  Al  Al6  1  0.589147  0.794573  0.500000  1
  Ir  Ir7  1  0.333333  0.666667  0.000000  1
  Au  Au8  1  0.802799  0.197201  0.500000  1
  Au  Au9  1  0.802799  0.605598  0.500000  1
  Au  Au10  1  0.394402  0.197201  0.500000  1
