# generated using pymatgen
data_Ho2Fe6Ni6P7
_symmetry_space_group_name_H-M   'P 1'
_cell_length_a   9.03742500
_cell_length_b   9.03742470
_cell_length_c   3.65024100
_cell_angle_alpha   90.00000000
_cell_angle_beta   90.00000000
_cell_angle_gamma   120.00000476
_symmetry_Int_Tables_number   1
_chemical_formula_structural   Ho2Fe6Ni6P7
_chemical_formula_sum   'Ho2 Fe6 Ni6 P7'
_cell_volume   258.19126639
_cell_formula_units_Z   1
loop_
 _symmetry_equiv_pos_site_id
 _symmetry_equiv_pos_as_xyz
  1  'x, y, z'
loop_
 _atom_site_type_symbol
 _atom_site_label
 _atom_site_symmetry_multiplicity
 _atom_site_fract_x
 _atom_site_fract_y
 _atom_site_fract_z
 _atom_site_occupancy
  Ho  Ho0  1  0.000000  0.000000  0.000000  1
  Ho  Ho1  1  0.333333  0.666667  0.500000  1
  Fe  Fe2  1  0.786648  0.178279  0.000000  1
  Fe  Fe3  1  0.391631  0.213352  0.000000  1
  Fe  Fe4  1  0.821721  0.608369  0.000000  1
  Fe  Fe5  1  0.545470  0.116191  0.500000  1
  Fe  Fe6  1  0.570721  0.454530  0.500000  1
  Fe  Fe7  1  0.883809  0.429279  0.500000  1
  Ni  Ni8  1  0.292767  0.897243  0.000000  1
  Ni  Ni9  1  0.604476  0.707233  0.000000  1
  Ni  Ni10  1  0.102757  0.395524  0.000000  1
  Ni  Ni11  1  0.717051  0.947128  0.500000  1
  Ni  Ni12  1  0.230077  0.282949  0.500000  1
  Ni  Ni13  1  0.052872  0.769923  0.500000  1
  P  P14  1  0.554291  0.929489  0.000000  1
  P  P15  1  0.375198  0.445709  0.000000  1
  P  P16  1  0.070511  0.624802  0.000000  1
  P  P17  1  0.950158  0.218696  0.500000  1
  P  P18  1  0.268539  0.049842  0.500000  1
  P  P19  1  0.781304  0.731461  0.500000  1
  P  P20  1  0.666667  0.333333  0.000000  1
