# generated using pymatgen
data_Er8Tm4Ga9Si9Ge2
_symmetry_space_group_name_H-M   'P 1'
_cell_length_a   5.90639801
_cell_length_b   5.90639891
_cell_length_c   18.54579800
_cell_angle_alpha   90.00000000
_cell_angle_beta   90.00000000
_cell_angle_gamma   102.92391473
_symmetry_Int_Tables_number   1
_chemical_formula_structural   Er8Tm4Ga9Si9Ge2
_chemical_formula_sum   'Er8 Tm4 Ga9 Si9 Ge2'
_cell_volume   630.59087789
_cell_formula_units_Z   1
loop_
 _symmetry_equiv_pos_site_id
 _symmetry_equiv_pos_as_xyz
  1  'x, y, z'
loop_
 _atom_site_type_symbol
 _atom_site_label
 _atom_site_symmetry_multiplicity
 _atom_site_fract_x
 _atom_site_fract_y
 _atom_site_fract_z
 _atom_site_occupancy
  Er  Er0  1  0.200357  0.802197  0.128097  1
  Er  Er1  1  0.198646  0.801758  0.624984  1
  Er  Er2  1  0.200357  0.802197  0.871903  1
  Er  Er3  1  0.198646  0.801758  0.375016  1
  Er  Er4  1  0.802197  0.200357  0.128097  1
  Er  Er5  1  0.801758  0.198646  0.624984  1
  Er  Er6  1  0.801758  0.198646  0.375016  1
  Er  Er7  1  0.802197  0.200357  0.871903  1
  Tm  Tm8  1  0.651955  0.651955  0.000000  1
  Tm  Tm9  1  0.660244  0.660244  0.500000  1
  Tm  Tm10  1  0.340971  0.340971  0.250508  1
  Tm  Tm11  1  0.340971  0.340971  0.749492  1
  Ga  Ga12  1  0.317580  0.317580  0.901909  1
  Ga  Ga13  1  0.324302  0.324302  0.401949  1
  Ga  Ga14  1  0.676882  0.676882  0.348454  1
  Ga  Ga15  1  0.676851  0.676851  0.847927  1
  Ga  Ga16  1  0.317580  0.317580  0.098091  1
  Ga  Ga17  1  0.324302  0.324302  0.598051  1
  Ga  Ga18  1  0.676851  0.676851  0.152073  1
  Ga  Ga19  1  0.676882  0.676882  0.651546  1
  Ga  Ga20  1  0.037893  0.037893  0.000000  1
  Si  Si21  1  0.484840  0.087323  0.500000  1
  Si  Si22  1  0.913940  0.516542  0.250554  1
  Si  Si23  1  0.913940  0.516542  0.749446  1
  Si  Si24  1  0.516542  0.913940  0.250554  1
  Si  Si25  1  0.516542  0.913940  0.749446  1
  Si  Si26  1  0.087323  0.484840  0.500000  1
  Si  Si27  1  0.051198  0.051198  0.500000  1
  Si  Si28  1  0.950175  0.950175  0.250766  1
  Si  Si29  1  0.950175  0.950175  0.749234  1
  Ge  Ge30  1  0.499648  0.086503  0.000000  1
  Ge  Ge31  1  0.086503  0.499648  0.000000  1
