# generated using pymatgen
data_Tb3Ho5(CdNi)2
_symmetry_space_group_name_H-M   'P 1'
_cell_length_a   9.53163881
_cell_length_b   9.53163867
_cell_length_c   9.53163900
_cell_angle_alpha   59.99999537
_cell_angle_beta   59.99999585
_cell_angle_gamma   59.99999675
_symmetry_Int_Tables_number   1
_chemical_formula_structural   Tb3Ho5(CdNi)2
_chemical_formula_sum   'Tb6 Ho10 Cd4 Ni4'
_cell_volume   612.33304257
_cell_formula_units_Z   2
loop_
 _symmetry_equiv_pos_site_id
 _symmetry_equiv_pos_as_xyz
  1  'x, y, z'
loop_
 _atom_site_type_symbol
 _atom_site_label
 _atom_site_symmetry_multiplicity
 _atom_site_fract_x
 _atom_site_fract_y
 _atom_site_fract_z
 _atom_site_occupancy
  Tb  Tb0  1  0.936896  0.563104  0.563104  1
  Tb  Tb1  1  0.563104  0.936896  0.936896  1
  Tb  Tb2  1  0.563104  0.936896  0.563104  1
  Tb  Tb3  1  0.936896  0.563104  0.936896  1
  Tb  Tb4  1  0.563104  0.563104  0.936896  1
  Tb  Tb5  1  0.936896  0.936896  0.563104  1
  Ho  Ho6  1  0.348156  0.348156  0.348156  1
  Ho  Ho7  1  0.348156  0.348156  0.955533  1
  Ho  Ho8  1  0.348156  0.955533  0.348156  1
  Ho  Ho9  1  0.955533  0.348156  0.348156  1
  Ho  Ho10  1  0.811547  0.188453  0.188453  1
  Ho  Ho11  1  0.188453  0.811547  0.811547  1
  Ho  Ho12  1  0.188453  0.811547  0.188453  1
  Ho  Ho13  1  0.811547  0.188453  0.811547  1
  Ho  Ho14  1  0.188453  0.188453  0.811547  1
  Ho  Ho15  1  0.811547  0.811547  0.188453  1
  Cd  Cd16  1  0.580721  0.580721  0.580721  1
  Cd  Cd17  1  0.580721  0.580721  0.257836  1
  Cd  Cd18  1  0.580721  0.257836  0.580721  1
  Cd  Cd19  1  0.257836  0.580721  0.580721  1
  Ni  Ni20  1  0.142434  0.142434  0.142434  1
  Ni  Ni21  1  0.142434  0.142434  0.572699  1
  Ni  Ni22  1  0.142434  0.572699  0.142434  1
  Ni  Ni23  1  0.572699  0.142434  0.142434  1
