# generated using pymatgen
data_Tb4Y4Ir3WO24
_symmetry_space_group_name_H-M   'P 1'
_cell_length_a   5.30187505
_cell_length_b   9.20067275
_cell_length_c   9.95743614
_cell_angle_alpha   90.07534710
_cell_angle_beta   90.02751760
_cell_angle_gamma   90.08490432
_symmetry_Int_Tables_number   1
_chemical_formula_structural   Tb4Y4Ir3WO24
_chemical_formula_sum   'Tb4 Y4 Ir3 W1 O24'
_cell_volume   485.73086291
_cell_formula_units_Z   1
loop_
 _symmetry_equiv_pos_site_id
 _symmetry_equiv_pos_as_xyz
  1  'x, y, z'
loop_
 _atom_site_type_symbol
 _atom_site_label
 _atom_site_symmetry_multiplicity
 _atom_site_fract_x
 _atom_site_fract_y
 _atom_site_fract_z
 _atom_site_occupancy
  Tb  Tb0  1  0.983731  0.600948  0.534355  1
  Tb  Tb1  1  0.484030  0.896178  0.467374  1
  Tb  Tb2  1  0.020112  0.102051  0.962424  1
  Tb  Tb3  1  0.516596  0.398777  0.034124  1
  Y  Y4  1  0.461114  0.781292  0.869653  1
  Y  Y5  1  0.960377  0.719203  0.129756  1
  Y  Y6  1  0.040847  0.218111  0.369794  1
  Y  Y7  1  0.540391  0.281773  0.629696  1
  Ir  Ir8  1  0.959248  0.996542  0.647368  1
  Ir  Ir9  1  0.458984  0.503359  0.351832  1
  Ir  Ir10  1  0.041160  0.496515  0.851831  1
  W  W11  1  0.540061  0.004749  0.151214  1
  O  O12  1  0.753214  0.088349  0.502454  1
  O  O13  1  0.252652  0.410346  0.496472  1
  O  O14  1  0.246556  0.588823  0.997262  1
  O  O15  1  0.745824  0.911509  0.004688  1
  O  O16  1  0.234105  0.115982  0.570090  1
  O  O17  1  0.734030  0.383666  0.429754  1
  O  O18  1  0.765167  0.614911  0.930753  1
  O  O19  1  0.268166  0.885784  0.067663  1
  O  O20  1  0.083217  0.844361  0.528079  1
  O  O21  1  0.583062  0.653696  0.473802  1
  O  O22  1  0.915740  0.344700  0.971086  1
  O  O23  1  0.413582  0.156775  0.030618  1
  O  O24  1  0.692068  0.859832  0.264477  1
  O  O25  1  0.187588  0.642954  0.736861  1
  O  O26  1  0.311991  0.357306  0.236879  1
  O  O27  1  0.812131  0.142747  0.762501  1
  O  O28  1  0.328889  0.048426  0.299099  1
  O  O29  1  0.834205  0.446085  0.701920  1
  O  O30  1  0.675214  0.865368  0.682462  1
  O  O31  1  0.167686  0.946281  0.796616  1
  O  O32  1  0.821411  0.136818  0.179426  1
  O  O33  1  0.324892  0.365764  0.817270  1
  O  O34  1  0.176348  0.635230  0.317889  1
  O  O35  1  0.665610  0.554793  0.202456  1
