# generated using pymatgen
data_PuNbC2
_symmetry_space_group_name_H-M   'P 1'
_cell_length_a   5.92141641
_cell_length_b   5.92141598
_cell_length_c   5.92141599
_cell_angle_alpha   32.26829159
_cell_angle_beta   32.26829935
_cell_angle_gamma   32.26829002
_symmetry_Int_Tables_number   1
_chemical_formula_structural   PuNbC2
_chemical_formula_sum   'Pu1 Nb1 C2'
_cell_volume   52.60293219
_cell_formula_units_Z   1
loop_
 _symmetry_equiv_pos_site_id
 _symmetry_equiv_pos_as_xyz
  1  'x, y, z'
loop_
 _atom_site_type_symbol
 _atom_site_label
 _atom_site_symmetry_multiplicity
 _atom_site_fract_x
 _atom_site_fract_y
 _atom_site_fract_z
 _atom_site_occupancy
  Pu  Pu0  1  0.000000  0.000000  0.000000  1
  Nb  Nb1  1  0.500000  0.500000  0.500000  1
  C  C2  1  0.242323  0.242323  0.242323  1
  C  C3  1  0.757677  0.757677  0.757677  1
