# generated using pymatgen
data_Ca5(Nd5Ga4)3
_symmetry_space_group_name_H-M   'P 1'
_cell_length_a   7.86488799
_cell_length_b   7.86987527
_cell_length_c   14.69141436
_cell_angle_alpha   89.89465676
_cell_angle_beta   89.82259132
_cell_angle_gamma   89.77802042
_symmetry_Int_Tables_number   1
_chemical_formula_structural   Ca5(Nd5Ga4)3
_chemical_formula_sum   'Ca5 Nd15 Ga12'
_cell_volume   909.32249212
_cell_formula_units_Z   1
loop_
 _symmetry_equiv_pos_site_id
 _symmetry_equiv_pos_as_xyz
  1  'x, y, z'
loop_
 _atom_site_type_symbol
 _atom_site_label
 _atom_site_symmetry_multiplicity
 _atom_site_fract_x
 _atom_site_fract_y
 _atom_site_fract_z
 _atom_site_occupancy
  Ca  Ca0  1  0.827969  0.835630  0.604759  1
  Ca  Ca1  1  0.998322  0.504250  0.743529  1
  Ca  Ca2  1  0.999241  0.499811  0.244034  1
  Ca  Ca3  1  0.499321  0.999199  0.253465  1
  Ca  Ca4  1  0.502564  0.998387  0.755954  1
  Nd  Nd5  1  0.172414  0.832071  0.100861  1
  Nd  Nd6  1  0.167806  0.824121  0.397734  1
  Nd  Nd7  1  0.827963  0.174081  0.397359  1
  Nd  Nd8  1  0.670657  0.666664  0.396423  1
  Nd  Nd9  1  0.673438  0.323191  0.601767  1
  Nd  Nd10  1  0.331151  0.677326  0.601661  1
  Nd  Nd11  1  0.670387  0.675569  0.100977  1
  Nd  Nd12  1  0.675304  0.329863  0.900240  1
  Nd  Nd13  1  0.831919  0.825692  0.897641  1
  Nd  Nd14  1  0.324100  0.329162  0.398000  1
  Nd  Nd15  1  0.178930  0.173625  0.605501  1
  Nd  Nd16  1  0.827291  0.167606  0.100852  1
  Nd  Nd17  1  0.325501  0.668354  0.900216  1
  Nd  Nd18  1  0.330160  0.324877  0.100953  1
  Nd  Nd19  1  0.172045  0.178083  0.897631  1
  Ga  Ga20  1  0.616375  0.381110  0.248339  1
  Ga  Ga21  1  0.121924  0.883887  0.752692  1
  Ga  Ga22  1  0.383078  0.382852  0.749290  1
  Ga  Ga23  1  0.380936  0.616833  0.248689  1
  Ga  Ga24  1  0.881571  0.882157  0.249916  1
  Ga  Ga25  1  0.614717  0.613461  0.752241  1
  Ga  Ga26  1  0.998639  0.498164  0.500608  1
  Ga  Ga27  1  0.884348  0.121089  0.752663  1
  Ga  Ga28  1  0.497723  0.998141  0.495024  1
  Ga  Ga29  1  0.499060  0.998477  0.997292  1
  Ga  Ga30  1  0.116567  0.116865  0.249359  1
  Ga  Ga31  1  0.998578  0.499402  0.004332  1
