# generated using pymatgen
data_LaTbCo9P7W3
_symmetry_space_group_name_H-M   'P 1'
_cell_length_a   3.76715426
_cell_length_b   9.09200549
_cell_length_c   9.09180100
_cell_angle_alpha   120.01018244
_cell_angle_beta   90.04676860
_cell_angle_gamma   89.92241323
_symmetry_Int_Tables_number   1
_chemical_formula_structural   LaTbCo9P7W3
_chemical_formula_sum   'La1 Tb1 Co9 P7 W3'
_cell_volume   269.65512098
_cell_formula_units_Z   1
loop_
 _symmetry_equiv_pos_site_id
 _symmetry_equiv_pos_as_xyz
  1  'x, y, z'
loop_
 _atom_site_type_symbol
 _atom_site_label
 _atom_site_symmetry_multiplicity
 _atom_site_fract_x
 _atom_site_fract_y
 _atom_site_fract_z
 _atom_site_occupancy
  La  La0  1  0.261854  0.666626  0.333332  1
  Tb  Tb1  1  0.761926  0.333339  0.666608  1
  Co  Co2  1  0.261995  0.880269  0.157396  1
  Co  Co3  1  0.261865  0.842603  0.722870  1
  Co  Co4  1  0.261908  0.277176  0.119780  1
  Co  Co5  1  0.761853  0.614018  0.567511  1
  Co  Co6  1  0.761863  0.432492  0.046516  1
  Co  Co7  1  0.761965  0.953460  0.385976  1
  Co  Co8  1  0.261910  0.366853  0.430941  1
  Co  Co9  1  0.261950  0.569062  0.935912  1
  Co  Co10  1  0.261864  0.064094  0.633133  1
  P  P11  1  0.261991  0.999983  0.000000  1
  P  P12  1  0.761776  0.886026  0.594233  1
  P  P13  1  0.762048  0.405743  0.291812  1
  P  P14  1  0.761760  0.708211  0.113922  1
  P  P15  1  0.261863  0.110520  0.414448  1
  P  P16  1  0.261887  0.585602  0.696092  1
  P  P17  1  0.261882  0.303922  0.889484  1
  W  W18  1  0.761862  0.098219  0.878918  1
  W  W19  1  0.761958  0.121091  0.219327  1
  W  W20  1  0.762019  0.780691  0.901791  1
