# generated using pymatgen
data_La2ErTh(Re2Si)8
_symmetry_space_group_name_H-M   'P 1'
_cell_length_a   4.16942000
_cell_length_b   7.31677025
_cell_length_c   15.59899530
_cell_angle_alpha   90.19159343
_cell_angle_beta   90.00000000
_cell_angle_gamma   90.00000000
_symmetry_Int_Tables_number   1
_chemical_formula_structural   La2ErTh(Re2Si)8
_chemical_formula_sum   'La2 Er1 Th1 Re16 Si8'
_cell_volume   475.87102535
_cell_formula_units_Z   1
loop_
 _symmetry_equiv_pos_site_id
 _symmetry_equiv_pos_as_xyz
  1  'x, y, z'
loop_
 _atom_site_type_symbol
 _atom_site_label
 _atom_site_symmetry_multiplicity
 _atom_site_fract_x
 _atom_site_fract_y
 _atom_site_fract_z
 _atom_site_occupancy
  La  La0  1  0.500000  0.079061  0.379917  1
  La  La1  1  0.500000  0.917375  0.617228  1
  Er  Er2  1  0.000000  0.583160  0.118222  1
  Th  Th3  1  0.000000  0.420363  0.883648  1
  Re  Re4  1  0.000000  0.150124  0.052268  1
  Re  Re5  1  0.000000  0.864261  0.951462  1
  Re  Re6  1  0.500000  0.634233  0.446999  1
  Re  Re7  1  0.500000  0.362089  0.552141  1
  Re  Re8  1  0.000000  0.731519  0.317932  1
  Re  Re9  1  0.000000  0.265856  0.680763  1
  Re  Re10  1  0.500000  0.239389  0.176735  1
  Re  Re11  1  0.500000  0.763425  0.823353  1
  Re  Re12  1  0.000000  0.431737  0.417908  1
  Re  Re13  1  0.000000  0.564404  0.580630  1
  Re  Re14  1  0.500000  0.934828  0.083064  1
  Re  Re15  1  0.500000  0.072767  0.921866  1
  Re  Re16  1  0.000000  0.988752  0.203030  1
  Re  Re17  1  0.000000  0.003633  0.795873  1
  Re  Re18  1  0.500000  0.494189  0.291492  1
  Re  Re19  1  0.500000  0.502139  0.708267  1
  Si  Si20  1  0.000000  0.823776  0.473655  1
  Si  Si21  1  0.000000  0.172766  0.524604  1
  Si  Si22  1  0.500000  0.338972  0.025718  1
  Si  Si23  1  0.500000  0.673756  0.978679  1
  Si  Si24  1  0.000000  0.296511  0.270190  1
  Si  Si25  1  0.000000  0.702868  0.726293  1
  Si  Si26  1  0.500000  0.788967  0.223113  1
  Si  Si27  1  0.500000  0.199085  0.774953  1
