# generated using pymatgen
data_Lu3Pa(Ga3Ir)6
_symmetry_space_group_name_H-M   'P 1'
_cell_length_a   7.59354610
_cell_length_b   7.58214656
_cell_length_c   9.41069300
_cell_angle_alpha   90.00000000
_cell_angle_beta   90.00000000
_cell_angle_gamma   119.88466931
_symmetry_Int_Tables_number   1
_chemical_formula_structural   Lu3Pa(Ga3Ir)6
_chemical_formula_sum   'Lu3 Pa1 Ga18 Ir6'
_cell_volume   469.77790708
_cell_formula_units_Z   1
loop_
 _symmetry_equiv_pos_site_id
 _symmetry_equiv_pos_as_xyz
  1  'x, y, z'
loop_
 _atom_site_type_symbol
 _atom_site_label
 _atom_site_symmetry_multiplicity
 _atom_site_fract_x
 _atom_site_fract_y
 _atom_site_fract_z
 _atom_site_occupancy
  Lu  Lu0  1  0.003210  0.330513  0.750000  1
  Lu  Lu1  1  0.671029  0.997407  0.250000  1
  Lu  Lu2  1  0.329786  0.001959  0.750000  1
  Pa  Pa3  1  0.997636  0.669639  0.250000  1
  Ga  Ga4  1  0.339074  0.546159  0.250000  1
  Ga  Ga5  1  0.660587  0.450463  0.750000  1
  Ga  Ga6  1  0.545016  0.339691  0.250000  1
  Ga  Ga7  1  0.451560  0.661783  0.750000  1
  Ga  Ga8  1  0.998324  0.330263  0.079423  1
  Ga  Ga9  1  0.001620  0.665172  0.915027  1
  Ga  Ga10  1  0.001620  0.665172  0.584973  1
  Ga  Ga11  1  0.339460  0.002766  0.420246  1
  Ga  Ga12  1  0.998324  0.330263  0.420577  1
  Ga  Ga13  1  0.665395  0.002250  0.582190  1
  Ga  Ga14  1  0.665395  0.002250  0.917810  1
  Ga  Ga15  1  0.339460  0.002766  0.079754  1
  Ga  Ga16  1  0.330684  0.330622  0.570884  1
  Ga  Ga17  1  0.663796  0.668326  0.434045  1
  Ga  Ga18  1  0.663796  0.668326  0.065955  1
  Ga  Ga19  1  0.330684  0.330622  0.929116  1
  Ga  Ga20  1  0.130397  0.130168  0.250000  1
  Ga  Ga21  1  0.873667  0.874987  0.750000  1
  Ir  Ir22  1  0.673887  0.330797  0.001510  1
  Ir  Ir23  1  0.326008  0.671398  0.001319  1
  Ir  Ir24  1  0.326008  0.671398  0.498681  1
  Ir  Ir25  1  0.673887  0.330797  0.498490  1
  Ir  Ir26  1  0.999844  0.997023  0.001893  1
  Ir  Ir27  1  0.999844  0.997023  0.498107  1
