# generated using pymatgen
data_NdSc2CoIr8
_symmetry_space_group_name_H-M   'P 1'
_cell_length_a   5.13613400
_cell_length_b   8.82826200
_cell_length_c   8.82826200
_cell_angle_alpha   90.00000000
_cell_angle_beta   90.00000000
_cell_angle_gamma   90.00000000
_symmetry_Int_Tables_number   1
_chemical_formula_structural   NdSc2CoIr8
_chemical_formula_sum   'Nd2 Sc4 Co2 Ir16'
_cell_volume   400.30108998
_cell_formula_units_Z   2
loop_
 _symmetry_equiv_pos_site_id
 _symmetry_equiv_pos_as_xyz
  1  'x, y, z'
loop_
 _atom_site_type_symbol
 _atom_site_label
 _atom_site_symmetry_multiplicity
 _atom_site_fract_x
 _atom_site_fract_y
 _atom_site_fract_z
 _atom_site_occupancy
  Nd  Nd0  1  0.000000  0.500000  0.500000  1
  Nd  Nd1  1  0.000000  0.000000  0.000000  1
  Sc  Sc2  1  0.000000  0.622835  0.122835  1
  Sc  Sc3  1  0.000000  0.377165  0.877165  1
  Sc  Sc4  1  0.000000  0.877165  0.622835  1
  Sc  Sc5  1  0.000000  0.122835  0.377165  1
  Co  Co6  1  0.500000  0.000000  0.500000  1
  Co  Co7  1  0.500000  0.500000  0.000000  1
  Ir  Ir8  1  0.757649  0.174392  0.674392  1
  Ir  Ir9  1  0.757649  0.825608  0.325608  1
  Ir  Ir10  1  0.757649  0.325608  0.174392  1
  Ir  Ir11  1  0.757649  0.674392  0.825608  1
  Ir  Ir12  1  0.242351  0.825608  0.325608  1
  Ir  Ir13  1  0.242351  0.174392  0.674392  1
  Ir  Ir14  1  0.242351  0.674392  0.825608  1
  Ir  Ir15  1  0.242351  0.325608  0.174392  1
  Ir  Ir16  1  0.500000  0.709984  0.561736  1
  Ir  Ir17  1  0.500000  0.290016  0.438264  1
  Ir  Ir18  1  0.500000  0.790016  0.061736  1
  Ir  Ir19  1  0.500000  0.209984  0.938264  1
  Ir  Ir20  1  0.500000  0.561736  0.290016  1
  Ir  Ir21  1  0.500000  0.438264  0.709984  1
  Ir  Ir22  1  0.500000  0.061736  0.209984  1
  Ir  Ir23  1  0.500000  0.938264  0.790016  1
