# generated using pymatgen
data_Cr3Cd6Fe(GeO4)6
_symmetry_space_group_name_H-M   'P 1'
_cell_length_a   10.78375470
_cell_length_b   10.78375468
_cell_length_c   10.77435458
_cell_angle_alpha   109.47231290
_cell_angle_beta   109.47232838
_cell_angle_gamma   109.50434532
_symmetry_Int_Tables_number   1
_chemical_formula_structural   Cr3Cd6Fe(GeO4)6
_chemical_formula_sum   'Cr6 Cd12 Fe2 Ge12 O48'
_cell_volume   964.09506961
_cell_formula_units_Z   2
loop_
 _symmetry_equiv_pos_site_id
 _symmetry_equiv_pos_as_xyz
  1  'x, y, z'
loop_
 _atom_site_type_symbol
 _atom_site_label
 _atom_site_symmetry_multiplicity
 _atom_site_fract_x
 _atom_site_fract_y
 _atom_site_fract_z
 _atom_site_occupancy
  Cr  Cr0  1  0.500001  0.000000  0.000000  1
  Cr  Cr1  1  0.500000  0.500000  0.000000  1
  Cr  Cr2  1  0.000000  0.500001  0.000000  1
  Cr  Cr3  1  0.000000  0.500001  0.500000  1
  Cr  Cr4  1  0.000000  0.000000  0.500001  1
  Cr  Cr5  1  0.500001  0.500001  0.500001  1
  Cd  Cd6  1  0.250272  0.375246  0.124780  1
  Cd  Cd7  1  0.375105  0.749757  0.124881  1
  Cd  Cd8  1  0.374971  0.124971  0.250000  1
  Cd  Cd9  1  0.874878  0.624877  0.250001  1
  Cd  Cd10  1  0.124876  0.250225  0.375120  1
  Cd  Cd11  1  0.750467  0.125493  0.375221  1
  Cd  Cd12  1  0.249535  0.874508  0.624780  1
  Cd  Cd13  1  0.875125  0.749776  0.624881  1
  Cd  Cd14  1  0.125124  0.375123  0.750001  1
  Cd  Cd15  1  0.625030  0.875030  0.750001  1
  Cd  Cd16  1  0.624895  0.250245  0.875120  1
  Cd  Cd17  1  0.749729  0.624755  0.875221  1
  Fe  Fe18  1  0.000000  0.000000  0.000000  1
  Fe  Fe19  1  0.500001  0.000000  0.500000  1
  Ge  Ge20  1  0.748901  0.874476  0.124909  1
  Ge  Ge21  1  0.874821  0.250703  0.125371  1
  Ge  Ge22  1  0.124729  0.874729  0.249999  1
  Ge  Ge23  1  0.624843  0.374843  0.250001  1
  Ge  Ge24  1  0.625331  0.749450  0.374628  1
  Ge  Ge25  1  0.249570  0.623995  0.375092  1
  Ge  Ge26  1  0.750432  0.376006  0.624909  1
  Ge  Ge27  1  0.374670  0.250552  0.625373  1
  Ge  Ge28  1  0.875270  0.125271  0.750000  1
  Ge  Ge29  1  0.375159  0.625158  0.750000  1
  Ge  Ge30  1  0.125179  0.749296  0.874627  1
  Ge  Ge31  1  0.251098  0.125522  0.875091  1
  O  O32  1  0.202227  0.119810  0.016880  1
  O  O33  1  0.315936  0.897212  0.016544  1
  O  O34  1  0.700874  0.684063  0.082015  1
  O  O35  1  0.879931  0.397702  0.081370  1
  O  O36  1  0.982676  0.683916  0.102388  1
  O  O37  1  0.619162  0.418389  0.102596  1
  O  O38  1  0.602072  0.918619  0.119973  1
  O  O39  1  0.016405  0.201940  0.119370  1
  O  O40  1  0.200687  0.581275  0.184282  1
  O  O41  1  0.482725  0.602015  0.183863  1
  O  O42  1  0.581191  0.183953  0.200780  1
  O  O43  1  0.119542  0.017222  0.202266  1
  O  O44  1  0.314954  0.917274  0.297733  1
  O  O45  1  0.483173  0.380411  0.299220  1
  O  O46  1  0.918151  0.298861  0.316136  1
  O  O47  1  0.896992  0.016406  0.315717  1
  O  O48  1  0.582571  0.897035  0.380630  1
  O  O49  1  0.298646  0.482099  0.380026  1
  O  O50  1  0.815792  0.516566  0.397403  1
  O  O51  1  0.081527  0.880287  0.397611  1
  O  O52  1  0.102048  0.618858  0.417985  1
  O  O53  1  0.816331  0.798560  0.418630  1
  O  O54  1  0.380669  0.299392  0.483456  1
  O  O55  1  0.602929  0.185346  0.483119  1
  O  O56  1  0.397070  0.814654  0.516880  1
  O  O57  1  0.619331  0.700608  0.516544  1
  O  O58  1  0.897951  0.381141  0.582015  1
  O  O59  1  0.183668  0.201440  0.581371  1
  O  O60  1  0.918472  0.119713  0.602388  1
  O  O61  1  0.184207  0.483433  0.602597  1
  O  O62  1  0.417429  0.102964  0.619369  1
  O  O63  1  0.701354  0.517902  0.619973  1
  O  O64  1  0.103008  0.983595  0.684282  1
  O  O65  1  0.081847  0.701139  0.683864  1
  O  O66  1  0.685045  0.082724  0.702267  1
  O  O67  1  0.516828  0.619589  0.700780  1
  O  O68  1  0.880457  0.982778  0.797732  1
  O  O69  1  0.418810  0.816047  0.799220  1
  O  O70  1  0.517275  0.397985  0.816136  1
  O  O71  1  0.799313  0.418726  0.815718  1
  O  O72  1  0.983594  0.798058  0.880630  1
  O  O73  1  0.397927  0.081380  0.880026  1
  O  O74  1  0.380836  0.581611  0.897403  1
  O  O75  1  0.017325  0.316084  0.897612  1
  O  O76  1  0.299126  0.315936  0.917985  1
  O  O77  1  0.120069  0.602297  0.918629  1
  O  O78  1  0.684064  0.102788  0.983457  1
  O  O79  1  0.797772  0.880190  0.983119  1
