# generated using pymatgen
data_GeB12S
_symmetry_space_group_name_H-M   'P 1'
_cell_length_a   5.30260685
_cell_length_b   5.30260688
_cell_length_c   5.30260712
_cell_angle_alpha   70.08609039
_cell_angle_beta   70.08608748
_cell_angle_gamma   70.08609218
_symmetry_Int_Tables_number   1
_chemical_formula_structural   GeB12S
_chemical_formula_sum   'Ge1 B12 S1'
_cell_volume   127.47464593
_cell_formula_units_Z   1
loop_
 _symmetry_equiv_pos_site_id
 _symmetry_equiv_pos_as_xyz
  1  'x, y, z'
loop_
 _atom_site_type_symbol
 _atom_site_label
 _atom_site_symmetry_multiplicity
 _atom_site_fract_x
 _atom_site_fract_y
 _atom_site_fract_z
 _atom_site_occupancy
  Ge  Ge0  1  0.395045  0.395045  0.395045  1
  B  B1  1  0.015376  0.015376  0.324228  1
  B  B2  1  0.324228  0.015376  0.015376  1
  B  B3  1  0.276923  0.820398  0.820398  1
  B  B4  1  0.820398  0.820398  0.276923  1
  B  B5  1  0.820398  0.276923  0.820398  1
  B  B6  1  0.179479  0.726579  0.179479  1
  B  B7  1  0.726579  0.179479  0.179479  1
  B  B8  1  0.179479  0.179479  0.726579  1
  B  B9  1  0.672964  0.986365  0.986365  1
  B  B10  1  0.986365  0.986365  0.672964  1
  B  B11  1  0.986365  0.672964  0.986365  1
  B  B12  1  0.015376  0.324228  0.015376  1
  S  S13  1  0.601025  0.601025  0.601025  1
