# generated using pymatgen
data_Y12Er4Cd3AgIr4
_symmetry_space_group_name_H-M   'P 1'
_cell_length_a   9.64711471
_cell_length_b   9.64711464
_cell_length_c   9.64711496
_cell_angle_alpha   59.79271653
_cell_angle_beta   59.79271576
_cell_angle_gamma   59.79272377
_symmetry_Int_Tables_number   1
_chemical_formula_structural   Y12Er4Cd3AgIr4
_chemical_formula_sum   'Y12 Er4 Cd3 Ag1 Ir4'
_cell_volume   631.87164277
_cell_formula_units_Z   1
loop_
 _symmetry_equiv_pos_site_id
 _symmetry_equiv_pos_as_xyz
  1  'x, y, z'
loop_
 _atom_site_type_symbol
 _atom_site_label
 _atom_site_symmetry_multiplicity
 _atom_site_fract_x
 _atom_site_fract_y
 _atom_site_fract_z
 _atom_site_occupancy
  Y  Y0  1  0.809448  0.190117  0.190117  1
  Y  Y1  1  0.188024  0.809091  0.809091  1
  Y  Y2  1  0.190117  0.809448  0.190117  1
  Y  Y3  1  0.809091  0.188024  0.809091  1
  Y  Y4  1  0.190117  0.190117  0.809448  1
  Y  Y5  1  0.809091  0.809091  0.188024  1
  Y  Y6  1  0.937283  0.560754  0.560754  1
  Y  Y7  1  0.561288  0.937079  0.937079  1
  Y  Y8  1  0.560754  0.937283  0.560754  1
  Y  Y9  1  0.937079  0.561288  0.937079  1
  Y  Y10  1  0.560754  0.560754  0.937283  1
  Y  Y11  1  0.937079  0.937079  0.561288  1
  Er  Er12  1  0.348480  0.348480  0.348480  1
  Er  Er13  1  0.349022  0.349022  0.955367  1
  Er  Er14  1  0.349022  0.955367  0.349022  1
  Er  Er15  1  0.955367  0.349022  0.349022  1
  Cd  Cd16  1  0.581341  0.581341  0.258758  1
  Cd  Cd17  1  0.581341  0.258758  0.581341  1
  Cd  Cd18  1  0.258758  0.581341  0.581341  1
  Ag  Ag19  1  0.582657  0.582657  0.582657  1
  Ir  Ir20  1  0.142911  0.142911  0.142911  1
  Ir  Ir21  1  0.143981  0.143981  0.573016  1
  Ir  Ir22  1  0.143981  0.573016  0.143981  1
  Ir  Ir23  1  0.573016  0.143981  0.143981  1
