# generated using pymatgen
data_Yb7Si16Mo13
_symmetry_space_group_name_H-M   'P 1'
_cell_length_a   6.69568927
_cell_length_b   6.85091409
_cell_length_c   12.95471910
_cell_angle_alpha   89.57939704
_cell_angle_beta   90.12817702
_cell_angle_gamma   90.35612295
_symmetry_Int_Tables_number   1
_chemical_formula_structural   Yb7Si16Mo13
_chemical_formula_sum   'Yb7 Si16 Mo13'
_cell_volume   594.22467150
_cell_formula_units_Z   1
loop_
 _symmetry_equiv_pos_site_id
 _symmetry_equiv_pos_as_xyz
  1  'x, y, z'
loop_
 _atom_site_type_symbol
 _atom_site_label
 _atom_site_symmetry_multiplicity
 _atom_site_fract_x
 _atom_site_fract_y
 _atom_site_fract_z
 _atom_site_occupancy
  Yb  Yb0  1  0.997215  0.165349  0.090084  1
  Yb  Yb1  1  0.002713  0.835431  0.907469  1
  Yb  Yb2  1  0.503085  0.663519  0.909898  1
  Yb  Yb3  1  0.003622  0.835384  0.589349  1
  Yb  Yb4  1  0.497753  0.332608  0.089799  1
  Yb  Yb5  1  0.001487  0.165152  0.412461  1
  Yb  Yb6  1  0.500549  0.333541  0.412793  1
  Si  Si7  1  0.032803  0.131038  0.747805  1
  Si  Si8  1  0.964734  0.875097  0.250708  1
  Si  Si9  1  0.466658  0.619151  0.248880  1
  Si  Si10  1  0.534512  0.379339  0.743362  1
  Si  Si11  1  0.300000  0.864221  0.748025  1
  Si  Si12  1  0.697609  0.131329  0.251631  1
  Si  Si13  1  0.199965  0.361615  0.250824  1
  Si  Si14  1  0.795177  0.638256  0.747214  1
  Si  Si15  1  0.175645  0.467690  0.545648  1
  Si  Si16  1  0.841240  0.543309  0.457832  1
  Si  Si17  1  0.344142  0.943773  0.461668  1
  Si  Si18  1  0.842164  0.544134  0.045087  1
  Si  Si19  1  0.655769  0.031134  0.545947  1
  Si  Si20  1  0.156364  0.456571  0.951979  1
  Si  Si21  1  0.658062  0.044094  0.952208  1
  Si  Si22  1  0.341784  0.957174  0.044173  1
  Mo  Mo23  1  0.495959  0.685961  0.610331  1
  Mo  Mo24  1  0.161736  0.499746  0.745432  1
  Mo  Mo25  1  0.839479  0.505359  0.251903  1
  Mo  Mo26  1  0.338000  0.988705  0.250399  1
  Mo  Mo27  1  0.662301  0.001936  0.747081  1
  Mo  Mo28  1  0.331967  0.165463  0.624582  1
  Mo  Mo29  1  0.660988  0.824900  0.375975  1
  Mo  Mo30  1  0.167733  0.666099  0.372295  1
  Mo  Mo31  1  0.664023  0.830898  0.128219  1
  Mo  Mo32  1  0.832152  0.338662  0.623715  1
  Mo  Mo33  1  0.336876  0.170020  0.867948  1
  Mo  Mo34  1  0.830617  0.336933  0.869595  1
  Mo  Mo35  1  0.165117  0.666412  0.127683  1
