# generated using pymatgen
data_Pr2Si5(PRh6)2
_symmetry_space_group_name_H-M   'P 1'
_cell_length_a   9.79444601
_cell_length_b   9.75101806
_cell_length_c   3.88288634
_cell_angle_alpha   89.97397639
_cell_angle_beta   90.01292464
_cell_angle_gamma   119.77602783
_symmetry_Int_Tables_number   1
_chemical_formula_structural   Pr2Si5(PRh6)2
_chemical_formula_sum   'Pr2 Si5 P2 Rh12'
_cell_volume   321.87766404
_cell_formula_units_Z   1
loop_
 _symmetry_equiv_pos_site_id
 _symmetry_equiv_pos_as_xyz
  1  'x, y, z'
loop_
 _atom_site_type_symbol
 _atom_site_label
 _atom_site_symmetry_multiplicity
 _atom_site_fract_x
 _atom_site_fract_y
 _atom_site_fract_z
 _atom_site_occupancy
  Pr  Pr0  1  0.331928  0.664985  0.739615  1
  Pr  Pr1  1  0.666013  0.335068  0.242564  1
  Si  Si2  1  0.999611  0.997375  0.675136  1
  Si  Si3  1  0.396346  0.288211  0.741431  1
  Si  Si4  1  0.711786  0.109814  0.742458  1
  Si  Si5  1  0.890766  0.604259  0.741457  1
  Si  Si6  1  0.603175  0.708529  0.240653  1
  P  P7  1  0.291846  0.893241  0.239532  1
  P  P8  1  0.105670  0.396179  0.239982  1
  Rh  Rh9  1  0.443685  0.064884  0.742045  1
  Rh  Rh10  1  0.937165  0.380593  0.742039  1
  Rh  Rh11  1  0.620379  0.558046  0.741634  1
  Rh  Rh12  1  0.555676  0.940762  0.240968  1
  Rh  Rh13  1  0.060867  0.616464  0.239808  1
  Rh  Rh14  1  0.378525  0.439223  0.239745  1
  Rh  Rh15  1  0.145598  0.270032  0.739472  1
  Rh  Rh16  1  0.729134  0.877260  0.739776  1
  Rh  Rh17  1  0.127072  0.850575  0.738978  1
  Rh  Rh18  1  0.868188  0.754313  0.243988  1
  Rh  Rh19  1  0.249086  0.109302  0.244027  1
  Rh  Rh20  1  0.887484  0.140885  0.244692  1
