# generated using pymatgen
data_Ho2Lu2ReB12Ir
_symmetry_space_group_name_H-M   'P 1'
_cell_length_a   3.63027100
_cell_length_b   9.07838372
_cell_length_c   11.47150137
_cell_angle_alpha   90.26333578
_cell_angle_beta   90.00000000
_cell_angle_gamma   90.00000000
_symmetry_Int_Tables_number   1
_chemical_formula_structural   Ho2Lu2ReB12Ir
_chemical_formula_sum   'Ho4 Lu4 Re2 B24 Ir2'
_cell_volume   378.06219877
_cell_formula_units_Z   2
loop_
 _symmetry_equiv_pos_site_id
 _symmetry_equiv_pos_as_xyz
  1  'x, y, z'
loop_
 _atom_site_type_symbol
 _atom_site_label
 _atom_site_symmetry_multiplicity
 _atom_site_fract_x
 _atom_site_fract_y
 _atom_site_fract_z
 _atom_site_occupancy
  Ho  Ho0  1  0.000000  0.316421  0.410134  1
  Ho  Ho1  1  0.000000  0.683579  0.589866  1
  Ho  Ho2  1  0.000000  0.825705  0.082389  1
  Ho  Ho3  1  0.000000  0.174295  0.917611  1
  Lu  Lu4  1  0.000000  0.946559  0.372491  1
  Lu  Lu5  1  0.000000  0.053441  0.627509  1
  Lu  Lu6  1  0.000000  0.441938  0.125754  1
  Lu  Lu7  1  0.000000  0.558062  0.874246  1
  Re  Re8  1  0.000000  0.138935  0.180493  1
  Re  Re9  1  0.000000  0.861065  0.819507  1
  B  B10  1  0.500000  0.554512  0.434131  1
  B  B11  1  0.500000  0.445488  0.565869  1
  B  B12  1  0.500000  0.053628  0.067214  1
  B  B13  1  0.500000  0.946372  0.932786  1
  B  B14  1  0.500000  0.750880  0.421109  1
  B  B15  1  0.500000  0.249120  0.578891  1
  B  B16  1  0.500000  0.249495  0.080673  1
  B  B17  1  0.500000  0.750505  0.919327  1
  B  B18  1  0.500000  0.791962  0.265727  1
  B  B19  1  0.500000  0.208038  0.734273  1
  B  B20  1  0.500000  0.293376  0.234571  1
  B  B21  1  0.500000  0.706624  0.765429  1
  B  B22  1  0.500000  0.631026  0.183411  1
  B  B23  1  0.500000  0.368974  0.816589  1
  B  B24  1  0.500000  0.130956  0.315457  1
  B  B25  1  0.500000  0.869044  0.684543  1
  B  B26  1  0.500000  0.982123  0.213624  1
  B  B27  1  0.500000  0.017877  0.786376  1
  B  B28  1  0.500000  0.482117  0.286907  1
  B  B29  1  0.500000  0.517883  0.713093  1
  B  B30  1  0.500000  0.603959  0.029114  1
  B  B31  1  0.500000  0.396041  0.970886  1
  B  B32  1  0.500000  0.104610  0.471762  1
  B  B33  1  0.500000  0.895390  0.528238  1
  Ir  Ir34  1  0.000000  0.637484  0.321540  1
  Ir  Ir35  1  0.000000  0.362516  0.678460  1
