# generated using pymatgen
data_ScPa2(SnRh)3
_symmetry_space_group_name_H-M   'P 1'
_cell_length_a   7.42452426
_cell_length_b   7.42452391
_cell_length_c   3.98263500
_cell_angle_alpha   90.00000000
_cell_angle_beta   90.00000000
_cell_angle_gamma   120.72695551
_symmetry_Int_Tables_number   1
_chemical_formula_structural   ScPa2(SnRh)3
_chemical_formula_sum   'Sc1 Pa2 Sn3 Rh3'
_cell_volume   188.71664593
_cell_formula_units_Z   1
loop_
 _symmetry_equiv_pos_site_id
 _symmetry_equiv_pos_as_xyz
  1  'x, y, z'
loop_
 _atom_site_type_symbol
 _atom_site_label
 _atom_site_symmetry_multiplicity
 _atom_site_fract_x
 _atom_site_fract_y
 _atom_site_fract_z
 _atom_site_occupancy
  Sc  Sc0  1  0.594082  0.594082  0.500000  1
  Pa  Pa1  1  0.411892  0.999361  0.500000  1
  Pa  Pa2  1  0.999361  0.411892  0.500000  1
  Sn  Sn3  1  0.741959  0.983975  0.000000  1
  Sn  Sn4  1  0.983975  0.741959  0.000000  1
  Sn  Sn5  1  0.271438  0.271438  0.000000  1
  Rh  Rh6  1  0.317317  0.670792  0.000000  1
  Rh  Rh7  1  0.670792  0.317317  0.000000  1
  Rh  Rh8  1  0.009185  0.009185  0.500000  1
