# generated using pymatgen
data_Tb3ZnIn3HgRu
_symmetry_space_group_name_H-M   'P 1'
_cell_length_a   7.85028900
_cell_length_b   7.85028914
_cell_length_c   3.91165700
_cell_angle_alpha   90.00000000
_cell_angle_beta   90.00000000
_cell_angle_gamma   120.00001204
_symmetry_Int_Tables_number   1
_chemical_formula_structural   Tb3ZnIn3HgRu
_chemical_formula_sum   'Tb3 Zn1 In3 Hg1 Ru1'
_cell_volume   208.76738107
_cell_formula_units_Z   1
loop_
 _symmetry_equiv_pos_site_id
 _symmetry_equiv_pos_as_xyz
  1  'x, y, z'
loop_
 _atom_site_type_symbol
 _atom_site_label
 _atom_site_symmetry_multiplicity
 _atom_site_fract_x
 _atom_site_fract_y
 _atom_site_fract_z
 _atom_site_occupancy
  Tb  Tb0  1  0.966885  0.577380  0.500000  1
  Tb  Tb1  1  0.422620  0.389505  0.500000  1
  Tb  Tb2  1  0.610495  0.033115  0.500000  1
  Zn  Zn3  1  0.000000  0.000000  0.500000  1
  In  In4  1  0.743803  0.737387  0.000000  1
  In  In5  1  0.993585  0.256197  0.000000  1
  In  In6  1  0.262613  0.006415  0.000000  1
  Hg  Hg7  1  0.333333  0.666667  0.000000  1
  Ru  Ru8  1  0.666667  0.333333  0.000000  1
