# generated using pymatgen
data_LiAc9(Si3H)2
_symmetry_space_group_name_H-M   'P 1'
_cell_length_a   9.35526550
_cell_length_b   9.35526628
_cell_length_c   9.35526600
_cell_angle_alpha   128.66534168
_cell_angle_beta   128.66533765
_cell_angle_gamma   75.54965247
_symmetry_Int_Tables_number   1
_chemical_formula_structural   LiAc9(Si3H)2
_chemical_formula_sum   'Li1 Ac9 Si6 H2'
_cell_volume   485.68613319
_cell_formula_units_Z   1
loop_
 _symmetry_equiv_pos_site_id
 _symmetry_equiv_pos_as_xyz
  1  'x, y, z'
loop_
 _atom_site_type_symbol
 _atom_site_label
 _atom_site_symmetry_multiplicity
 _atom_site_fract_x
 _atom_site_fract_y
 _atom_site_fract_z
 _atom_site_occupancy
  Li  Li0  1  0.500000  0.500000  0.000000  1
  Ac  Ac1  1  0.000000  0.000000  0.000000  1
  Ac  Ac2  1  0.520106  0.041316  0.850847  1
  Ac  Ac3  1  0.190471  0.669261  0.149153  1
  Ac  Ac4  1  0.041316  0.190471  0.521210  1
  Ac  Ac5  1  0.669261  0.520106  0.478790  1
  Ac  Ac6  1  0.479894  0.958684  0.149153  1
  Ac  Ac7  1  0.809529  0.330739  0.850847  1
  Ac  Ac8  1  0.958684  0.809529  0.478790  1
  Ac  Ac9  1  0.330739  0.479894  0.521210  1
  Si  Si10  1  0.235864  0.235864  0.000000  1
  Si  Si11  1  0.764136  0.764136  0.000000  1
  Si  Si12  1  0.892865  0.386046  0.278912  1
  Si  Si13  1  0.107135  0.613954  0.721088  1
  Si  Si14  1  0.386046  0.107135  0.493181  1
  Si  Si15  1  0.613954  0.892865  0.506819  1
  H  H16  1  0.250000  0.750000  0.500000  1
  H  H17  1  0.750000  0.250000  0.500000  1
