# generated using pymatgen
data_Dy4ErRu2
_symmetry_space_group_name_H-M   'P 1'
_cell_length_a   6.34170881
_cell_length_b   7.26311731
_cell_length_c   8.48317824
_cell_angle_alpha   96.66008037
_cell_angle_beta   111.94901273
_cell_angle_gamma   90.00000050
_symmetry_Int_Tables_number   1
_chemical_formula_structural   Dy4ErRu2
_chemical_formula_sum   'Dy8 Er2 Ru4'
_cell_volume   359.57353137
_cell_formula_units_Z   2
loop_
 _symmetry_equiv_pos_site_id
 _symmetry_equiv_pos_as_xyz
  1  'x, y, z'
loop_
 _atom_site_type_symbol
 _atom_site_label
 _atom_site_symmetry_multiplicity
 _atom_site_fract_x
 _atom_site_fract_y
 _atom_site_fract_z
 _atom_site_occupancy
  Dy  Dy0  1  0.791992  0.584411  0.814276  1
  Dy  Dy1  1  0.977717  0.915589  0.185724  1
  Dy  Dy2  1  0.208008  0.415589  0.185724  1
  Dy  Dy3  1  0.022283  0.084411  0.814276  1
  Dy  Dy4  1  0.206759  0.684854  0.566876  1
  Dy  Dy5  1  0.639882  0.815146  0.433124  1
  Dy  Dy6  1  0.793241  0.315146  0.433124  1
  Dy  Dy7  1  0.360118  0.184854  0.566876  1
  Er  Er8  1  0.421254  0.750000  0.000000  1
  Er  Er9  1  0.578746  0.250000  0.000000  1
  Ru  Ru10  1  0.603266  0.924323  0.780749  1
  Ru  Ru11  1  0.822516  0.575677  0.219251  1
  Ru  Ru12  1  0.396734  0.075677  0.219251  1
  Ru  Ru13  1  0.177484  0.424323  0.780749  1
