# generated using pymatgen
data_Ce2B8IrOs7
_symmetry_space_group_name_H-M   'P 1'
_cell_length_a   4.00593669
_cell_length_b   7.60420991
_cell_length_c   7.59399785
_cell_angle_alpha   89.78915712
_cell_angle_beta   90.13172085
_cell_angle_gamma   89.98646655
_symmetry_Int_Tables_number   1
_chemical_formula_structural   Ce2B8IrOs7
_chemical_formula_sum   'Ce2 B8 Ir1 Os7'
_cell_volume   231.32605290
_cell_formula_units_Z   1
loop_
 _symmetry_equiv_pos_site_id
 _symmetry_equiv_pos_as_xyz
  1  'x, y, z'
loop_
 _atom_site_type_symbol
 _atom_site_label
 _atom_site_symmetry_multiplicity
 _atom_site_fract_x
 _atom_site_fract_y
 _atom_site_fract_z
 _atom_site_occupancy
  Ce  Ce0  1  0.248727  0.249307  0.248820  1
  Ce  Ce1  1  0.751666  0.751150  0.752005  1
  B  B2  1  0.360963  0.913258  0.029698  1
  B  B3  1  0.364590  0.587818  0.465161  1
  B  B4  1  0.860957  0.531449  0.087633  1
  B  B5  1  0.862506  0.970426  0.412734  1
  B  B6  1  0.637818  0.087948  0.969493  1
  B  B7  1  0.639513  0.408551  0.525830  1
  B  B8  1  0.137578  0.465100  0.918827  1
  B  B9  1  0.139190  0.026028  0.589434  1
  Ir  Ir10  1  0.138450  0.401909  0.641325  1
  Os  Os11  1  0.137877  0.104487  0.858440  1
  Os  Os12  1  0.638807  0.141836  0.602993  1
  Os  Os13  1  0.638120  0.360004  0.896099  1
  Os  Os14  1  0.861271  0.603710  0.358817  1
  Os  Os15  1  0.860089  0.896282  0.141638  1
  Os  Os16  1  0.361459  0.858383  0.396348  1
  Os  Os17  1  0.360418  0.642353  0.104703  1
