# generated using pymatgen
data_SmLu(Bi3O7)2
_symmetry_space_group_name_H-M   'P 1'
_cell_length_a   6.65581621
_cell_length_b   6.86245771
_cell_length_c   7.85134270
_cell_angle_alpha   106.64663512
_cell_angle_beta   89.40492948
_cell_angle_gamma   99.37791288
_symmetry_Int_Tables_number   1
_chemical_formula_structural   SmLu(Bi3O7)2
_chemical_formula_sum   'Sm1 Lu1 Bi6 O14'
_cell_volume   338.74066076
_cell_formula_units_Z   1
loop_
 _symmetry_equiv_pos_site_id
 _symmetry_equiv_pos_as_xyz
  1  'x, y, z'
loop_
 _atom_site_type_symbol
 _atom_site_label
 _atom_site_symmetry_multiplicity
 _atom_site_fract_x
 _atom_site_fract_y
 _atom_site_fract_z
 _atom_site_occupancy
  Sm  Sm0  1  0.540481  0.997868  0.752339  1
  Lu  Lu1  1  0.461163  0.003104  0.250088  1
  Bi  Bi2  1  0.001016  0.000406  0.498694  1
  Bi  Bi3  1  0.000402  0.000521  0.004153  1
  Bi  Bi4  1  0.258674  0.518688  0.878193  1
  Bi  Bi5  1  0.736016  0.486776  0.121614  1
  Bi  Bi6  1  0.721369  0.462755  0.603656  1
  Bi  Bi7  1  0.275397  0.531523  0.386479  1
  O  O8  1  0.465775  0.665347  0.186406  1
  O  O9  1  0.536696  0.349484  0.818036  1
  O  O10  1  0.304937  0.940151  0.962259  1
  O  O11  1  0.696615  0.054302  0.054768  1
  O  O12  1  0.298118  0.917161  0.503763  1
  O  O13  1  0.703525  0.082475  0.482146  1
  O  O14  1  0.525915  0.342349  0.348401  1
  O  O15  1  0.464920  0.644439  0.642900  1
  O  O16  1  0.915080  0.676343  0.963214  1
  O  O17  1  0.087075  0.323532  0.038075  1
  O  O18  1  0.096586  0.324343  0.624190  1
  O  O19  1  0.897380  0.675946  0.377857  1
  O  O20  1  0.884740  0.930958  0.733616  1
  O  O21  1  0.128123  0.071532  0.269151  1
