# generated using pymatgen
data_Tb5Dy3Re(B8Ru)3
_symmetry_space_group_name_H-M   'P 1'
_cell_length_a   3.68371900
_cell_length_b   9.17127290
_cell_length_c   11.55974700
_cell_angle_alpha   90.13884963
_cell_angle_beta   90.00000000
_cell_angle_gamma   90.00000000
_symmetry_Int_Tables_number   1
_chemical_formula_structural   Tb5Dy3Re(B8Ru)3
_chemical_formula_sum   'Tb5 Dy3 Re1 B24 Ru3'
_cell_volume   390.53787993
_cell_formula_units_Z   1
loop_
 _symmetry_equiv_pos_site_id
 _symmetry_equiv_pos_as_xyz
  1  'x, y, z'
loop_
 _atom_site_type_symbol
 _atom_site_label
 _atom_site_symmetry_multiplicity
 _atom_site_fract_x
 _atom_site_fract_y
 _atom_site_fract_z
 _atom_site_occupancy
  Tb  Tb0  1  0.000000  0.323415  0.415060  1
  Tb  Tb1  1  0.000000  0.679389  0.588110  1
  Tb  Tb2  1  0.000000  0.823156  0.083557  1
  Tb  Tb3  1  0.000000  0.175771  0.913398  1
  Tb  Tb4  1  0.000000  0.943141  0.370816  1
  Dy  Dy5  1  0.000000  0.056366  0.628005  1
  Dy  Dy6  1  0.000000  0.442690  0.128842  1
  Dy  Dy7  1  0.000000  0.555934  0.872314  1
  Re  Re8  1  0.000000  0.862092  0.821154  1
  B  B9  1  0.500000  0.554339  0.432845  1
  B  B10  1  0.500000  0.445820  0.567460  1
  B  B11  1  0.500000  0.054165  0.067767  1
  B  B12  1  0.500000  0.946745  0.932871  1
  B  B13  1  0.500000  0.747907  0.419164  1
  B  B14  1  0.500000  0.252142  0.580634  1
  B  B15  1  0.500000  0.248048  0.081048  1
  B  B16  1  0.500000  0.751555  0.919033  1
  B  B17  1  0.500000  0.789663  0.266051  1
  B  B18  1  0.500000  0.209463  0.732952  1
  B  B19  1  0.500000  0.290540  0.233896  1
  B  B20  1  0.500000  0.708655  0.766208  1
  B  B21  1  0.500000  0.631129  0.185572  1
  B  B22  1  0.500000  0.368183  0.814022  1
  B  B23  1  0.500000  0.132226  0.314420  1
  B  B24  1  0.500000  0.868537  0.685804  1
  B  B25  1  0.500000  0.984609  0.212201  1
  B  B26  1  0.500000  0.016948  0.787387  1
  B  B27  1  0.500000  0.484102  0.288028  1
  B  B28  1  0.500000  0.515872  0.712580  1
  B  B29  1  0.500000  0.605921  0.030143  1
  B  B30  1  0.500000  0.392154  0.970790  1
  B  B31  1  0.500000  0.108151  0.469847  1
  B  B32  1  0.500000  0.892924  0.529193  1
  Ru  Ru33  1  0.000000  0.637651  0.321144  1
  Ru  Ru34  1  0.000000  0.362141  0.678499  1
  Ru  Ru35  1  0.000000  0.138455  0.179184  1
