# generated using pymatgen
data_Ce8Hf11Si16Pd
_symmetry_space_group_name_H-M   'P 1'
_cell_length_a   7.32869708
_cell_length_b   7.32869805
_cell_length_c   13.35423677
_cell_angle_alpha   89.53683938
_cell_angle_beta   90.46316216
_cell_angle_gamma   89.83528427
_symmetry_Int_Tables_number   1
_chemical_formula_structural   Ce8Hf11Si16Pd
_chemical_formula_sum   'Ce8 Hf11 Si16 Pd1'
_cell_volume   717.20352339
_cell_formula_units_Z   1
loop_
 _symmetry_equiv_pos_site_id
 _symmetry_equiv_pos_as_xyz
  1  'x, y, z'
loop_
 _atom_site_type_symbol
 _atom_site_label
 _atom_site_symmetry_multiplicity
 _atom_site_fract_x
 _atom_site_fract_y
 _atom_site_fract_z
 _atom_site_occupancy
  Ce  Ce0  1  0.994715  0.344317  0.210882  1
  Ce  Ce1  1  0.008463  0.656306  0.716506  1
  Ce  Ce2  1  0.157648  0.493409  0.465287  1
  Ce  Ce3  1  0.500134  0.846277  0.033684  1
  Ce  Ce4  1  0.846277  0.500134  0.966316  1
  Ce  Ce5  1  0.493409  0.157648  0.534713  1
  Ce  Ce6  1  0.344317  0.994715  0.789118  1
  Ce  Ce7  1  0.656306  0.008463  0.283494  1
  Hf  Hf8  1  0.826238  0.826238  0.500000  1
  Hf  Hf9  1  0.322876  0.677132  0.248757  1
  Hf  Hf10  1  0.677132  0.322876  0.751243  1
  Hf  Hf11  1  0.148542  0.999507  0.373780  1
  Hf  Hf12  1  0.854310  0.000030  0.879613  1
  Hf  Hf13  1  0.503444  0.650053  0.626175  1
  Hf  Hf14  1  0.352635  0.491453  0.878965  1
  Hf  Hf15  1  0.491453  0.352635  0.121035  1
  Hf  Hf16  1  0.650053  0.503444  0.373825  1
  Hf  Hf17  1  0.999507  0.148542  0.626220  1
  Hf  Hf18  1  0.000030  0.854310  0.120387  1
  Si  Si19  1  0.361191  0.298618  0.313507  1
  Si  Si20  1  0.638345  0.702186  0.816893  1
  Si  Si21  1  0.204820  0.862095  0.565970  1
  Si  Si22  1  0.132928  0.780104  0.930817  1
  Si  Si23  1  0.780104  0.132928  0.069183  1
  Si  Si24  1  0.862095  0.204820  0.434030  1
  Si  Si25  1  0.298618  0.361191  0.686493  1
  Si  Si26  1  0.702186  0.638345  0.183107  1
  Si  Si27  1  0.290647  0.052013  0.184178  1
  Si  Si28  1  0.707231  0.951774  0.686551  1
  Si  Si29  1  0.451885  0.793949  0.434757  1
  Si  Si30  1  0.208321  0.561557  0.064464  1
  Si  Si31  1  0.561557  0.208321  0.935536  1
  Si  Si32  1  0.793949  0.451885  0.565243  1
  Si  Si33  1  0.052013  0.290647  0.815822  1
  Si  Si34  1  0.951774  0.707231  0.313449  1
  Pd  Pd35  1  0.174843  0.174843  0.000000  1
