# generated using pymatgen
data_Fe7P4Ru
_symmetry_space_group_name_H-M   'P 1'
_cell_length_a   3.60533200
_cell_length_b   5.67642848
_cell_length_c   6.51896174
_cell_angle_alpha   90.06546625
_cell_angle_beta   90.00000000
_cell_angle_gamma   90.00000000
_symmetry_Int_Tables_number   1
_chemical_formula_structural   Fe7P4Ru
_chemical_formula_sum   'Fe7 P4 Ru1'
_cell_volume   133.41313284
_cell_formula_units_Z   1
loop_
 _symmetry_equiv_pos_site_id
 _symmetry_equiv_pos_as_xyz
  1  'x, y, z'
loop_
 _atom_site_type_symbol
 _atom_site_label
 _atom_site_symmetry_multiplicity
 _atom_site_fract_x
 _atom_site_fract_y
 _atom_site_fract_z
 _atom_site_occupancy
  Fe  Fe0  1  0.500000  0.641023  0.066076  1
  Fe  Fe1  1  0.500000  0.145939  0.431666  1
  Fe  Fe2  1  0.000000  0.356985  0.938585  1
  Fe  Fe3  1  0.000000  0.859758  0.565754  1
  Fe  Fe4  1  0.500000  0.027880  0.834199  1
  Fe  Fe5  1  0.000000  0.470736  0.332793  1
  Fe  Fe6  1  0.000000  0.967617  0.168005  1
  P  P7  1  0.500000  0.256421  0.117802  1
  P  P8  1  0.500000  0.766316  0.375749  1
  P  P9  1  0.000000  0.744198  0.884396  1
  P  P10  1  0.000000  0.236560  0.619050  1
  Ru  Ru11  1  0.500000  0.526563  0.665923  1
