# generated using pymatgen
data_Ho4ZnCo
_symmetry_space_group_name_H-M   'P 1'
_cell_length_a   9.32766538
_cell_length_b   9.32766561
_cell_length_c   9.32766600
_cell_angle_alpha   59.99999861
_cell_angle_beta   59.99999781
_cell_angle_gamma   59.99999934
_symmetry_Int_Tables_number   1
_chemical_formula_structural   Ho4ZnCo
_chemical_formula_sum   'Ho16 Zn4 Co4'
_cell_volume   573.85728762
_cell_formula_units_Z   4
loop_
 _symmetry_equiv_pos_site_id
 _symmetry_equiv_pos_as_xyz
  1  'x, y, z'
loop_
 _atom_site_type_symbol
 _atom_site_label
 _atom_site_symmetry_multiplicity
 _atom_site_fract_x
 _atom_site_fract_y
 _atom_site_fract_z
 _atom_site_occupancy
  Ho  Ho0  1  0.350091  0.350091  0.350091  1
  Ho  Ho1  1  0.350091  0.350091  0.949727  1
  Ho  Ho2  1  0.350091  0.949727  0.350091  1
  Ho  Ho3  1  0.949727  0.350091  0.350091  1
  Ho  Ho4  1  0.809522  0.190478  0.190478  1
  Ho  Ho5  1  0.190478  0.809522  0.809522  1
  Ho  Ho6  1  0.190478  0.809522  0.190478  1
  Ho  Ho7  1  0.809522  0.190478  0.809522  1
  Ho  Ho8  1  0.190478  0.190478  0.809522  1
  Ho  Ho9  1  0.809522  0.809522  0.190478  1
  Ho  Ho10  1  0.937830  0.562170  0.562170  1
  Ho  Ho11  1  0.562170  0.937830  0.937830  1
  Ho  Ho12  1  0.562170  0.937830  0.562170  1
  Ho  Ho13  1  0.937830  0.562170  0.937830  1
  Ho  Ho14  1  0.562170  0.562170  0.937830  1
  Ho  Ho15  1  0.937830  0.937830  0.562170  1
  Zn  Zn16  1  0.577748  0.577748  0.577748  1
  Zn  Zn17  1  0.577748  0.577748  0.266756  1
  Zn  Zn18  1  0.577748  0.266756  0.577748  1
  Zn  Zn19  1  0.266756  0.577748  0.577748  1
  Co  Co20  1  0.141713  0.141713  0.141713  1
  Co  Co21  1  0.141713  0.141713  0.574862  1
  Co  Co22  1  0.141713  0.574862  0.141713  1
  Co  Co23  1  0.574862  0.141713  0.141713  1
