# generated using pymatgen
data_Dy8Er12Si15Ru
_symmetry_space_group_name_H-M   'P 1'
_cell_length_a   7.31959160
_cell_length_b   7.71499510
_cell_length_c   14.45856500
_cell_angle_alpha   90.00000000
_cell_angle_beta   90.00000000
_cell_angle_gamma   90.02425293
_symmetry_Int_Tables_number   1
_chemical_formula_structural   Dy8Er12Si15Ru
_chemical_formula_sum   'Dy8 Er12 Si15 Ru1'
_cell_volume   816.48395940
_cell_formula_units_Z   1
loop_
 _symmetry_equiv_pos_site_id
 _symmetry_equiv_pos_as_xyz
  1  'x, y, z'
loop_
 _atom_site_type_symbol
 _atom_site_label
 _atom_site_symmetry_multiplicity
 _atom_site_fract_x
 _atom_site_fract_y
 _atom_site_fract_z
 _atom_site_occupancy
  Dy  Dy0  1  0.021259  0.184268  0.096797  1
  Dy  Dy1  1  0.982135  0.826209  0.905286  1
  Dy  Dy2  1  0.480514  0.680216  0.904769  1
  Dy  Dy3  1  0.982135  0.826209  0.594714  1
  Dy  Dy4  1  0.520384  0.318740  0.096445  1
  Dy  Dy5  1  0.021259  0.184268  0.403203  1
  Dy  Dy6  1  0.520384  0.318740  0.403555  1
  Dy  Dy7  1  0.480514  0.680216  0.595231  1
  Er  Er8  1  0.152663  0.516567  0.750000  1
  Er  Er9  1  0.844236  0.488087  0.250000  1
  Er  Er10  1  0.344834  0.015129  0.250000  1
  Er  Er11  1  0.664706  0.986712  0.750000  1
  Er  Er12  1  0.309931  0.173781  0.627295  1
  Er  Er13  1  0.679321  0.824095  0.375828  1
  Er  Er14  1  0.177504  0.680691  0.375827  1
  Er  Er15  1  0.679321  0.824095  0.124172  1
  Er  Er16  1  0.833275  0.314226  0.626187  1
  Er  Er17  1  0.309931  0.173781  0.872705  1
  Er  Er18  1  0.833275  0.314226  0.873813  1
  Er  Er19  1  0.177504  0.680691  0.124173  1
  Si  Si20  1  0.973783  0.895420  0.250000  1
  Si  Si21  1  0.475485  0.608195  0.250000  1
  Si  Si22  1  0.524906  0.395205  0.750000  1
  Si  Si23  1  0.277297  0.865708  0.750000  1
  Si  Si24  1  0.724099  0.131096  0.250000  1
  Si  Si25  1  0.226180  0.371739  0.250000  1
  Si  Si26  1  0.765424  0.622985  0.750000  1
  Si  Si27  1  0.155253  0.472770  0.538125  1
  Si  Si28  1  0.848081  0.531201  0.461897  1
  Si  Si29  1  0.347304  0.970576  0.460792  1
  Si  Si30  1  0.848081  0.531201  0.038103  1
  Si  Si31  1  0.647359  0.030744  0.538782  1
  Si  Si32  1  0.155253  0.472770  0.961875  1
  Si  Si33  1  0.647359  0.030744  0.961218  1
  Si  Si34  1  0.347304  0.970576  0.039208  1
  Ru  Ru35  1  0.021747  0.088124  0.750000  1
