# generated using pymatgen
data_CaYAlIr2
_symmetry_space_group_name_H-M   'P 1'
_cell_length_a   5.63957525
_cell_length_b   5.63957547
_cell_length_c   5.63957581
_cell_angle_alpha   138.12539259
_cell_angle_beta   117.93103630
_cell_angle_gamma   77.70084579
_symmetry_Int_Tables_number   1
_chemical_formula_structural   CaYAlIr2
_chemical_formula_sum   'Ca1 Y1 Al1 Ir2'
_cell_volume   102.93916626
_cell_formula_units_Z   1
loop_
 _symmetry_equiv_pos_site_id
 _symmetry_equiv_pos_as_xyz
  1  'x, y, z'
loop_
 _atom_site_type_symbol
 _atom_site_label
 _atom_site_symmetry_multiplicity
 _atom_site_fract_x
 _atom_site_fract_y
 _atom_site_fract_z
 _atom_site_occupancy
  Ca  Ca0  1  0.295773  0.795772  0.499999  1
  Y  Y1  1  0.700895  0.200895  0.500000  1
  Al  Al2  1  0.999956  0.999956  0.000000  1
  Ir  Ir3  1  0.735203  0.501688  0.233516  1
  Ir  Ir4  1  0.268172  0.501687  0.766484  1
