# generated using pymatgen
data_Dy9Y(Bi2Pt)2
_symmetry_space_group_name_H-M   'P 1'
_cell_length_a   8.08162310
_cell_length_b   9.04571200
_cell_length_c   12.44236216
_cell_angle_alpha   90.00000000
_cell_angle_beta   89.98155738
_cell_angle_gamma   90.00000000
_symmetry_Int_Tables_number   1
_chemical_formula_structural   Dy9Y(Bi2Pt)2
_chemical_formula_sum   'Dy18 Y2 Bi8 Pt4'
_cell_volume   909.58683300
_cell_formula_units_Z   2
loop_
 _symmetry_equiv_pos_site_id
 _symmetry_equiv_pos_as_xyz
  1  'x, y, z'
loop_
 _atom_site_type_symbol
 _atom_site_label
 _atom_site_symmetry_multiplicity
 _atom_site_fract_x
 _atom_site_fract_y
 _atom_site_fract_z
 _atom_site_occupancy
  Dy  Dy0  1  0.338596  0.250000  0.709563  1
  Dy  Dy1  1  0.661404  0.750000  0.290437  1
  Dy  Dy2  1  0.371232  0.750000  0.697294  1
  Dy  Dy3  1  0.628768  0.250000  0.302706  1
  Dy  Dy4  1  0.871262  0.250000  0.802666  1
  Dy  Dy5  1  0.128738  0.750000  0.197334  1
  Dy  Dy6  1  0.949812  0.750000  0.499951  1
  Dy  Dy7  1  0.050188  0.250000  0.500049  1
  Dy  Dy8  1  0.449842  0.250000  0.999945  1
  Dy  Dy9  1  0.550158  0.750000  0.000055  1
  Dy  Dy10  1  0.679337  0.045791  0.566809  1
  Dy  Dy11  1  0.320663  0.954209  0.433191  1
  Dy  Dy12  1  0.179337  0.954257  0.933234  1
  Dy  Dy13  1  0.320663  0.545791  0.433191  1
  Dy  Dy14  1  0.820663  0.045743  0.066766  1
  Dy  Dy15  1  0.679337  0.454209  0.566809  1
  Dy  Dy16  1  0.820663  0.454257  0.066766  1
  Dy  Dy17  1  0.179337  0.545743  0.933234  1
  Y  Y18  1  0.838382  0.750000  0.789935  1
  Y  Y19  1  0.161618  0.250000  0.210065  1
  Bi  Bi20  1  0.568813  0.491158  0.827312  1
  Bi  Bi21  1  0.431187  0.508842  0.172688  1
  Bi  Bi22  1  0.068894  0.508796  0.672656  1
  Bi  Bi23  1  0.431187  0.991158  0.172688  1
  Bi  Bi24  1  0.931106  0.491204  0.327344  1
  Bi  Bi25  1  0.568813  0.008842  0.827312  1
  Bi  Bi26  1  0.931106  0.008796  0.327344  1
  Bi  Bi27  1  0.068894  0.991204  0.672656  1
  Pt  Pt28  1  0.574890  0.750000  0.511483  1
  Pt  Pt29  1  0.425110  0.250000  0.488517  1
  Pt  Pt30  1  0.074671  0.250000  0.988068  1
  Pt  Pt31  1  0.925329  0.750000  0.011932  1
