# generated using pymatgen
data_Np4B12RuW
_symmetry_space_group_name_H-M   'P 1'
_cell_length_a   3.61135200
_cell_length_b   9.32110939
_cell_length_c   11.37805314
_cell_angle_alpha   89.77405523
_cell_angle_beta   90.00000000
_cell_angle_gamma   90.00000000
_symmetry_Int_Tables_number   1
_chemical_formula_structural   Np4B12RuW
_chemical_formula_sum   'Np8 B24 Ru2 W2'
_cell_volume   383.00285130
_cell_formula_units_Z   2
loop_
 _symmetry_equiv_pos_site_id
 _symmetry_equiv_pos_as_xyz
  1  'x, y, z'
loop_
 _atom_site_type_symbol
 _atom_site_label
 _atom_site_symmetry_multiplicity
 _atom_site_fract_x
 _atom_site_fract_y
 _atom_site_fract_z
 _atom_site_occupancy
  Np  Np0  1  0.000000  0.338689  0.408250  1
  Np  Np1  1  0.000000  0.661311  0.591750  1
  Np  Np2  1  0.000000  0.837046  0.093407  1
  Np  Np3  1  0.000000  0.162954  0.906593  1
  Np  Np4  1  0.000000  0.957707  0.401344  1
  Np  Np5  1  0.000000  0.042293  0.598656  1
  Np  Np6  1  0.000000  0.461368  0.100115  1
  Np  Np7  1  0.000000  0.538632  0.899885  1
  B  B8  1  0.500000  0.551827  0.432671  1
  B  B9  1  0.500000  0.448173  0.567329  1
  B  B10  1  0.500000  0.051849  0.068298  1
  B  B11  1  0.500000  0.948151  0.931702  1
  B  B12  1  0.500000  0.745219  0.424860  1
  B  B13  1  0.500000  0.254781  0.575140  1
  B  B14  1  0.500000  0.242998  0.077040  1
  B  B15  1  0.500000  0.757002  0.922960  1
  B  B16  1  0.500000  0.807681  0.273741  1
  B  B17  1  0.500000  0.192319  0.726259  1
  B  B18  1  0.500000  0.305313  0.225833  1
  B  B19  1  0.500000  0.694687  0.774167  1
  B  B20  1  0.500000  0.647138  0.186201  1
  B  B21  1  0.500000  0.352862  0.813799  1
  B  B22  1  0.500000  0.146646  0.311015  1
  B  B23  1  0.500000  0.853354  0.688985  1
  B  B24  1  0.500000  0.989551  0.219658  1
  B  B25  1  0.500000  0.010449  0.780342  1
  B  B26  1  0.500000  0.487228  0.278884  1
  B  B27  1  0.500000  0.512772  0.721116  1
  B  B28  1  0.500000  0.643325  0.038092  1
  B  B29  1  0.500000  0.356675  0.961908  1
  B  B30  1  0.500000  0.142577  0.459080  1
  B  B31  1  0.500000  0.857423  0.540920  1
  Ru  Ru32  1  0.000000  0.147169  0.180755  1
  Ru  Ru33  1  0.000000  0.852831  0.819245  1
  W  W34  1  0.000000  0.647217  0.318559  1
  W  W35  1  0.000000  0.352783  0.681441  1
