# generated using pymatgen
data_La2Pr2Al18Rh5Au
_symmetry_space_group_name_H-M   'P 1'
_cell_length_a   7.69633138
_cell_length_b   7.69493591
_cell_length_c   9.65178305
_cell_angle_alpha   90.00862384
_cell_angle_beta   89.99101115
_cell_angle_gamma   119.52224280
_symmetry_Int_Tables_number   1
_chemical_formula_structural   La2Pr2Al18Rh5Au
_chemical_formula_sum   'La2 Pr2 Al18 Rh5 Au1'
_cell_volume   497.39069380
_cell_formula_units_Z   1
loop_
 _symmetry_equiv_pos_site_id
 _symmetry_equiv_pos_as_xyz
  1  'x, y, z'
loop_
 _atom_site_type_symbol
 _atom_site_label
 _atom_site_symmetry_multiplicity
 _atom_site_fract_x
 _atom_site_fract_y
 _atom_site_fract_z
 _atom_site_occupancy
  La  La0  1  0.992064  0.666258  0.749824  1
  La  La1  1  0.002052  0.329521  0.250983  1
  Pr  Pr2  1  0.670760  0.998165  0.748982  1
  Pr  Pr3  1  0.333428  0.007860  0.250244  1
  Al  Al4  1  0.129690  0.127768  0.751451  1
  Al  Al5  1  0.872619  0.869998  0.248558  1
  Al  Al6  1  0.014282  0.334715  0.577518  1
  Al  Al7  1  0.006556  0.676248  0.423798  1
  Al  Al8  1  0.000449  0.666685  0.072169  1
  Al  Al9  1  0.334429  0.000071  0.928297  1
  Al  Al10  1  0.002936  0.334060  0.926915  1
  Al  Al11  1  0.664821  0.996596  0.072617  1
  Al  Al12  1  0.664227  0.985260  0.422861  1
  Al  Al13  1  0.324821  0.993912  0.575818  1
  Al  Al14  1  0.332730  0.333194  0.044179  1
  Al  Al15  1  0.666272  0.667687  0.955815  1
  Al  Al16  1  0.663628  0.671283  0.551731  1
  Al  Al17  1  0.329238  0.335889  0.448333  1
  Al  Al18  1  0.342310  0.549545  0.751499  1
  Al  Al19  1  0.659016  0.460288  0.240078  1
  Al  Al20  1  0.538781  0.339791  0.759896  1
  Al  Al21  1  0.451249  0.658849  0.248493  1
  Rh  Rh22  1  0.329859  0.670438  0.499944  1
  Rh  Rh23  1  0.329524  0.670787  0.000036  1
  Rh  Rh24  1  0.671478  0.328345  0.999972  1
  Rh  Rh25  1  0.999825  0.000168  0.500003  1
  Rh  Rh26  1  0.000242  0.999722  0.999984  1
  Au  Au27  1  0.672714  0.326897  0.499999  1
