# generated using pymatgen
data_Ho10Tl4In4Pd3Ru
_symmetry_space_group_name_H-M   'P 1'
_cell_length_a   3.60196994
_cell_length_b   8.18822646
_cell_length_c   18.37129233
_cell_angle_alpha   89.98696981
_cell_angle_beta   90.00068865
_cell_angle_gamma   89.91704885
_symmetry_Int_Tables_number   1
_chemical_formula_structural   Ho10Tl4In4Pd3Ru
_chemical_formula_sum   'Ho10 Tl4 In4 Pd3 Ru1'
_cell_volume   541.83764008
_cell_formula_units_Z   1
loop_
 _symmetry_equiv_pos_site_id
 _symmetry_equiv_pos_as_xyz
  1  'x, y, z'
loop_
 _atom_site_type_symbol
 _atom_site_label
 _atom_site_symmetry_multiplicity
 _atom_site_fract_x
 _atom_site_fract_y
 _atom_site_fract_z
 _atom_site_occupancy
  Ho  Ho0  1  0.999819  0.500175  0.499516  1
  Ho  Ho1  1  0.000228  0.000537  0.001100  1
  Ho  Ho2  1  0.999837  0.730380  0.278733  1
  Ho  Ho3  1  0.000241  0.258920  0.718568  1
  Ho  Ho4  1  0.000324  0.758626  0.781266  1
  Ho  Ho5  1  0.999524  0.253340  0.219300  1
  Ho  Ho6  1  0.999830  0.614927  0.088465  1
  Ho  Ho7  1  0.000445  0.383055  0.914451  1
  Ho  Ho8  1  0.999699  0.884320  0.585420  1
  Ho  Ho9  1  0.000043  0.117785  0.412878  1
  Tl  Tl10  1  0.500199  0.708607  0.934023  1
  Tl  Tl11  1  0.499982  0.292460  0.067530  1
  Tl  Tl12  1  0.500157  0.792112  0.434109  1
  Tl  Tl13  1  0.499954  0.208510  0.565557  1
  In  In14  1  0.500244  0.582096  0.650452  1
  In  In15  1  0.498915  0.422672  0.349394  1
  In  In16  1  0.499930  0.917695  0.150960  1
  In  In17  1  0.501091  0.081214  0.849631  1
  Pd  Pd18  1  0.500295  0.472124  0.802259  1
  Pd  Pd19  1  0.500034  0.972014  0.697828  1
  Pd  Pd20  1  0.499410  0.025478  0.301159  1
  Ru  Ru21  1  0.499801  0.522955  0.197401  1
