# generated using pymatgen
data_Sr5Ca3(Al4Au3)4
_symmetry_space_group_name_H-M   'P 1'
_cell_length_a   14.21349600
_cell_length_b   14.21349684
_cell_length_c   4.43700100
_cell_angle_alpha   90.00000000
_cell_angle_beta   90.00000000
_cell_angle_gamma   120.00000271
_symmetry_Int_Tables_number   1
_chemical_formula_structural   Sr5Ca3(Al4Au3)4
_chemical_formula_sum   'Sr5 Ca3 Al16 Au12'
_cell_volume   776.28643130
_cell_formula_units_Z   1
loop_
 _symmetry_equiv_pos_site_id
 _symmetry_equiv_pos_as_xyz
  1  'x, y, z'
loop_
 _atom_site_type_symbol
 _atom_site_label
 _atom_site_symmetry_multiplicity
 _atom_site_fract_x
 _atom_site_fract_y
 _atom_site_fract_z
 _atom_site_occupancy
  Sr  Sr0  1  0.333333  0.666667  0.000000  1
  Sr  Sr1  1  0.666667  0.333333  0.000000  1
  Sr  Sr2  1  0.818294  0.000000  0.500000  1
  Sr  Sr3  1  0.000000  0.818294  0.500000  1
  Sr  Sr4  1  0.181706  0.181706  0.500000  1
  Ca  Ca5  1  0.440160  0.000000  0.000000  1
  Ca  Ca6  1  0.000000  0.440160  0.000000  1
  Ca  Ca7  1  0.559840  0.559840  0.000000  1
  Al  Al8  1  0.188803  0.381050  0.000000  1
  Al  Al9  1  0.618950  0.807754  0.000000  1
  Al  Al10  1  0.381050  0.188803  0.000000  1
  Al  Al11  1  0.192246  0.811197  0.000000  1
  Al  Al12  1  0.807754  0.618950  0.000000  1
  Al  Al13  1  0.811197  0.192246  0.000000  1
  Al  Al14  1  0.277875  0.000000  0.500000  1
  Al  Al15  1  0.000000  0.277875  0.500000  1
  Al  Al16  1  0.722125  0.722125  0.500000  1
  Al  Al17  1  0.357422  0.474101  0.500000  1
  Al  Al18  1  0.525899  0.883321  0.500000  1
  Al  Al19  1  0.474101  0.357422  0.500000  1
  Al  Al20  1  0.116679  0.642578  0.500000  1
  Al  Al21  1  0.883321  0.525899  0.500000  1
  Al  Al22  1  0.642578  0.116679  0.500000  1
  Al  Al23  1  0.000000  0.000000  0.000000  1
  Au  Au24  1  0.173538  0.479038  0.500000  1
  Au  Au25  1  0.520962  0.694502  0.500000  1
  Au  Au26  1  0.479038  0.173538  0.500000  1
  Au  Au27  1  0.305498  0.826462  0.500000  1
  Au  Au28  1  0.694502  0.520962  0.500000  1
  Au  Au29  1  0.826462  0.305498  0.500000  1
  Au  Au30  1  0.184384  0.000000  0.000000  1
  Au  Au31  1  0.000000  0.184384  0.000000  1
  Au  Au32  1  0.815616  0.815616  0.000000  1
  Au  Au33  1  0.644342  0.000000  0.000000  1
  Au  Au34  1  0.000000  0.644342  0.000000  1
  Au  Au35  1  0.355658  0.355658  0.000000  1
