# generated using pymatgen
data_SrMo2F12
_symmetry_space_group_name_H-M   'P 1'
_cell_length_a   5.57746865
_cell_length_b   5.62547445
_cell_length_c   10.10522068
_cell_angle_alpha   97.29159284
_cell_angle_beta   95.93124787
_cell_angle_gamma   118.59135338
_symmetry_Int_Tables_number   1
_chemical_formula_structural   SrMo2F12
_chemical_formula_sum   'Sr1 Mo2 F12'
_cell_volume   271.20100064
_cell_formula_units_Z   1
loop_
 _symmetry_equiv_pos_site_id
 _symmetry_equiv_pos_as_xyz
  1  'x, y, z'
loop_
 _atom_site_type_symbol
 _atom_site_label
 _atom_site_symmetry_multiplicity
 _atom_site_fract_x
 _atom_site_fract_y
 _atom_site_fract_z
 _atom_site_occupancy
  Sr  Sr0  1  0.969602  0.950374  0.874471  1
  Mo  Mo1  1  0.192833  0.489335  0.592900  1
  Mo  Mo2  1  0.399130  0.700628  0.138277  1
  F  F3  1  0.435545  0.020731  0.238932  1
  F  F4  1  0.536356  0.598934  0.724032  1
  F  F5  1  0.082391  0.676207  0.010984  1
  F  F6  1  0.140374  0.406341  0.206681  1
  F  F7  1  0.370652  0.399845  0.999252  1
  F  F8  1  0.236001  0.202199  0.507855  1
  F  F9  1  0.708124  0.733491  0.252400  1
  F  F10  1  0.191836  0.793378  0.715811  1
  F  F11  1  0.859195  0.426339  0.494746  1
  F  F12  1  0.983512  0.247009  0.717330  1
  F  F13  1  0.404677  0.730967  0.483095  1
  F  F14  1  0.637773  0.934223  0.021232  1
