# generated using pymatgen
data_Tb5Ru2C7
_symmetry_space_group_name_H-M   'P 1'
_cell_length_a   8.23196051
_cell_length_b   8.23195938
_cell_length_c   3.54000300
_cell_angle_alpha   90.00000000
_cell_angle_beta   90.00000000
_cell_angle_gamma   122.37134629
_symmetry_Int_Tables_number   1
_chemical_formula_structural   Tb5Ru2C7
_chemical_formula_sum   'Tb5 Ru2 C7'
_cell_volume   202.60914249
_cell_formula_units_Z   1
loop_
 _symmetry_equiv_pos_site_id
 _symmetry_equiv_pos_as_xyz
  1  'x, y, z'
loop_
 _atom_site_type_symbol
 _atom_site_label
 _atom_site_symmetry_multiplicity
 _atom_site_fract_x
 _atom_site_fract_y
 _atom_site_fract_z
 _atom_site_occupancy
  Tb  Tb0  1  0.500000  0.500000  0.000000  1
  Tb  Tb1  1  0.075514  0.337499  0.500000  1
  Tb  Tb2  1  0.924486  0.662501  0.500000  1
  Tb  Tb3  1  0.662501  0.924486  0.500000  1
  Tb  Tb4  1  0.337499  0.075514  0.500000  1
  Ru  Ru5  1  0.712723  0.287277  0.000000  1
  Ru  Ru6  1  0.287277  0.712723  0.000000  1
  C  C7  1  0.630921  0.369079  0.500000  1
  C  C8  1  0.369079  0.630921  0.500000  1
  C  C9  1  0.000000  0.000000  0.000000  1
  C  C10  1  0.171142  0.171142  0.000000  1
  C  C11  1  0.828858  0.828858  0.000000  1
  C  C12  1  0.000000  0.500000  0.000000  1
  C  C13  1  0.500000  0.000000  0.000000  1
