# generated using pymatgen
data_HfZrSi2IrRh
_symmetry_space_group_name_H-M   'P 1'
_cell_length_a   3.96452000
_cell_length_b   6.54941500
_cell_length_c   7.44921400
_cell_angle_alpha   90.00000000
_cell_angle_beta   90.00000000
_cell_angle_gamma   90.00000000
_symmetry_Int_Tables_number   1
_chemical_formula_structural   HfZrSi2IrRh
_chemical_formula_sum   'Hf2 Zr2 Si4 Ir2 Rh2'
_cell_volume   193.42097762
_cell_formula_units_Z   2
loop_
 _symmetry_equiv_pos_site_id
 _symmetry_equiv_pos_as_xyz
  1  'x, y, z'
loop_
 _atom_site_type_symbol
 _atom_site_label
 _atom_site_symmetry_multiplicity
 _atom_site_fract_x
 _atom_site_fract_y
 _atom_site_fract_z
 _atom_site_occupancy
  Hf  Hf0  1  0.250000  0.019178  0.317923  1
  Hf  Hf1  1  0.250000  0.519178  0.182077  1
  Zr  Zr2  1  0.750000  0.981584  0.681281  1
  Zr  Zr3  1  0.750000  0.481584  0.818719  1
  Si  Si4  1  0.250000  0.277209  0.618374  1
  Si  Si5  1  0.250000  0.777209  0.881626  1
  Si  Si6  1  0.750000  0.722087  0.380605  1
  Si  Si7  1  0.750000  0.222087  0.119395  1
  Ir  Ir8  1  0.750000  0.847526  0.068170  1
  Ir  Ir9  1  0.750000  0.347526  0.431830  1
  Rh  Rh10  1  0.250000  0.152416  0.939292  1
  Rh  Rh11  1  0.250000  0.652416  0.560708  1
