# generated using pymatgen
data_Tb(BPt4)2
_symmetry_space_group_name_H-M   'P 1'
_cell_length_a   6.18160631
_cell_length_b   6.18160703
_cell_length_c   8.99500903
_cell_angle_alpha   54.92997096
_cell_angle_beta   54.92996727
_cell_angle_gamma   37.64604938
_symmetry_Int_Tables_number   1
_chemical_formula_structural   Tb(BPt4)2
_chemical_formula_sum   'Tb1 B2 Pt8'
_cell_volume   166.83111442
_cell_formula_units_Z   1
loop_
 _symmetry_equiv_pos_site_id
 _symmetry_equiv_pos_as_xyz
  1  'x, y, z'
loop_
 _atom_site_type_symbol
 _atom_site_label
 _atom_site_symmetry_multiplicity
 _atom_site_fract_x
 _atom_site_fract_y
 _atom_site_fract_z
 _atom_site_occupancy
  Tb  Tb0  1  0.500000  0.500000  0.500000  1
  B  B1  1  0.052829  0.052829  0.709713  1
  B  B2  1  0.947171  0.947171  0.290287  1
  Pt  Pt3  1  0.223909  0.223909  0.422617  1
  Pt  Pt4  1  0.828224  0.828224  0.837881  1
  Pt  Pt5  1  0.171776  0.171776  0.162119  1
  Pt  Pt6  1  0.156151  0.156151  0.848396  1
  Pt  Pt7  1  0.480294  0.480294  0.857069  1
  Pt  Pt8  1  0.519706  0.519706  0.142931  1
  Pt  Pt9  1  0.776091  0.776091  0.577383  1
  Pt  Pt10  1  0.843849  0.843849  0.151604  1
