# generated using pymatgen
data_Lu8CdCo2Ag
_symmetry_space_group_name_H-M   'P 1'
_cell_length_a   9.26165777
_cell_length_b   9.26341763
_cell_length_c   9.26171183
_cell_angle_alpha   59.96183255
_cell_angle_beta   59.95863999
_cell_angle_gamma   59.96105430
_symmetry_Int_Tables_number   1
_chemical_formula_structural   Lu8CdCo2Ag
_chemical_formula_sum   'Lu16 Cd2 Co4 Ag2'
_cell_volume   561.36730895
_cell_formula_units_Z   2
loop_
 _symmetry_equiv_pos_site_id
 _symmetry_equiv_pos_as_xyz
  1  'x, y, z'
loop_
 _atom_site_type_symbol
 _atom_site_label
 _atom_site_symmetry_multiplicity
 _atom_site_fract_x
 _atom_site_fract_y
 _atom_site_fract_z
 _atom_site_occupancy
  Lu  Lu0  1  0.939911  0.935144  0.563244  1
  Lu  Lu1  1  0.811518  0.187742  0.188605  1
  Lu  Lu2  1  0.939799  0.562329  0.563275  1
  Lu  Lu3  1  0.938701  0.561259  0.938710  1
  Lu  Lu4  1  0.811345  0.811370  0.188302  1
  Lu  Lu5  1  0.346861  0.346130  0.346862  1
  Lu  Lu6  1  0.563177  0.935171  0.939890  1
  Lu  Lu7  1  0.563915  0.936228  0.563992  1
  Lu  Lu8  1  0.188286  0.811365  0.811337  1
  Lu  Lu9  1  0.188633  0.187754  0.811513  1
  Lu  Lu10  1  0.347291  0.346174  0.960819  1
  Lu  Lu11  1  0.347188  0.959984  0.347161  1
  Lu  Lu12  1  0.811700  0.188115  0.811735  1
  Lu  Lu13  1  0.563209  0.562345  0.939809  1
  Lu  Lu14  1  0.188379  0.811306  0.188405  1
  Lu  Lu15  1  0.960797  0.346172  0.347280  1
  Cd  Cd16  1  0.578149  0.581758  0.578148  1
  Cd  Cd17  1  0.578022  0.261800  0.578026  1
  Co  Co18  1  0.577210  0.141060  0.140919  1
  Co  Co19  1  0.140925  0.141219  0.140882  1
  Co  Co20  1  0.141172  0.576836  0.141110  1
  Co  Co21  1  0.140926  0.141104  0.577228  1
  Ag  Ag22  1  0.582237  0.583806  0.250591  1
  Ag  Ag23  1  0.250652  0.583834  0.582163  1
