# generated using pymatgen
data_Tc4Pb4O13
_symmetry_space_group_name_H-M   'P 1'
_cell_length_a   7.42674354
_cell_length_b   7.41598555
_cell_length_c   7.42248100
_cell_angle_alpha   59.97102662
_cell_angle_beta   60.01898856
_cell_angle_gamma   60.01384461
_symmetry_Int_Tables_number   1
_chemical_formula_structural   Tc4Pb4O13
_chemical_formula_sum   'Tc4 Pb4 O13'
_cell_volume   289.07722903
_cell_formula_units_Z   1
loop_
 _symmetry_equiv_pos_site_id
 _symmetry_equiv_pos_as_xyz
  1  'x, y, z'
loop_
 _atom_site_type_symbol
 _atom_site_label
 _atom_site_symmetry_multiplicity
 _atom_site_fract_x
 _atom_site_fract_y
 _atom_site_fract_z
 _atom_site_occupancy
  Tc  Tc0  1  0.874689  0.375968  0.874671  1
  Tc  Tc1  1  0.874721  0.874868  0.375698  1
  Tc  Tc2  1  0.874721  0.874868  0.874713  1
  Tc  Tc3  1  0.375630  0.874794  0.874788  1
  Pb  Pb4  1  0.881370  0.373223  0.372703  1
  Pb  Pb5  1  0.373575  0.372568  0.372990  1
  Pb  Pb6  1  0.373575  0.372568  0.880867  1
  Pb  Pb7  1  0.371681  0.880361  0.373979  1
  O  O8  1  0.197252  0.802826  0.802472  1
  O  O9  1  0.197252  0.802826  0.197450  1
  O  O10  1  0.555184  0.944777  0.944773  1
  O  O11  1  0.555184  0.944777  0.555267  1
  O  O12  1  0.944360  0.945105  0.555268  1
  O  O13  1  0.803426  0.802702  0.196936  1
  O  O14  1  0.555252  0.555377  0.944686  1
  O  O15  1  0.802534  0.197533  0.802648  1
  O  O16  1  0.802534  0.197533  0.197285  1
  O  O17  1  0.944753  0.555338  0.944663  1
  O  O18  1  0.944753  0.555338  0.555246  1
  O  O19  1  0.196983  0.197263  0.802877  1
  O  O20  1  0.500573  0.499384  0.500021  1
