# generated using pymatgen
data_HoThWC2
_symmetry_space_group_name_H-M   'P 1'
_cell_length_a   5.26033400
_cell_length_b   6.78512300
_cell_length_c   9.97128800
_cell_angle_alpha   90.00000000
_cell_angle_beta   90.00000000
_cell_angle_gamma   90.00000000
_symmetry_Int_Tables_number   1
_chemical_formula_structural   HoThWC2
_chemical_formula_sum   'Ho4 Th4 W4 C8'
_cell_volume   355.89534303
_cell_formula_units_Z   4
loop_
 _symmetry_equiv_pos_site_id
 _symmetry_equiv_pos_as_xyz
  1  'x, y, z'
loop_
 _atom_site_type_symbol
 _atom_site_label
 _atom_site_symmetry_multiplicity
 _atom_site_fract_x
 _atom_site_fract_y
 _atom_site_fract_z
 _atom_site_occupancy
  Ho  Ho0  1  0.250000  0.828213  0.055653  1
  Ho  Ho1  1  0.750000  0.671787  0.555653  1
  Ho  Ho2  1  0.250000  0.328213  0.444347  1
  Ho  Ho3  1  0.750000  0.171787  0.944347  1
  Th  Th4  1  0.250000  0.464395  0.787131  1
  Th  Th5  1  0.750000  0.035605  0.287131  1
  Th  Th6  1  0.250000  0.964395  0.712869  1
  Th  Th7  1  0.750000  0.535605  0.212869  1
  W  W8  1  0.250000  0.278749  0.132289  1
  W  W9  1  0.750000  0.221251  0.632289  1
  W  W10  1  0.250000  0.778749  0.367711  1
  W  W11  1  0.750000  0.721251  0.867711  1
  C  C12  1  0.250000  0.168231  0.945757  1
  C  C13  1  0.750000  0.831769  0.054243  1
  C  C14  1  0.250000  0.668231  0.554243  1
  C  C15  1  0.750000  0.331769  0.445757  1
  C  C16  1  0.250000  0.046940  0.260680  1
  C  C17  1  0.750000  0.453060  0.760680  1
  C  C18  1  0.250000  0.546940  0.239320  1
  C  C19  1  0.750000  0.953060  0.739320  1
