# generated using pymatgen
data_Rb4Sc2(MoH9)3
_symmetry_space_group_name_H-M   'P 1'
_cell_length_a   9.43429200
_cell_length_b   9.02208423
_cell_length_c   5.44666200
_cell_angle_alpha   90.00000000
_cell_angle_beta   90.00000000
_cell_angle_gamma   121.52324818
_symmetry_Int_Tables_number   1
_chemical_formula_structural   Rb4Sc2(MoH9)3
_chemical_formula_sum   'Rb4 Sc2 Mo3 H27'
_cell_volume   395.18856325
_cell_formula_units_Z   1
loop_
 _symmetry_equiv_pos_site_id
 _symmetry_equiv_pos_as_xyz
  1  'x, y, z'
loop_
 _atom_site_type_symbol
 _atom_site_label
 _atom_site_symmetry_multiplicity
 _atom_site_fract_x
 _atom_site_fract_y
 _atom_site_fract_z
 _atom_site_occupancy
  Rb  Rb0  1  0.257610  0.000000  0.500000  1
  Rb  Rb1  1  0.024347  0.615120  0.000000  1
  Rb  Rb2  1  0.409227  0.384880  0.000000  1
  Rb  Rb3  1  0.572550  0.000000  0.000000  1
  Sc  Sc4  1  0.979082  0.250378  0.500000  1
  Sc  Sc5  1  0.728704  0.749622  0.500000  1
  Mo  Mo6  1  0.724365  0.385321  0.500000  1
  Mo  Mo7  1  0.339042  0.614679  0.500000  1
  Mo  Mo8  1  0.944200  0.000000  0.000000  1
  H  H9  1  0.852979  0.345030  0.699168  1
  H  H10  1  0.720289  0.542158  0.699324  1
  H  H11  1  0.620852  0.291706  0.766059  1
  H  H12  1  0.178130  0.457842  0.300676  1
  H  H13  1  0.620852  0.291706  0.233941  1
  H  H14  1  0.852979  0.345030  0.300832  1
  H  H15  1  0.720289  0.542158  0.300676  1
  H  H16  1  0.329145  0.708294  0.766059  1
  H  H17  1  0.507949  0.654970  0.699168  1
  H  H18  1  0.127569  0.000000  0.000000  1
  H  H19  1  0.748568  0.808566  0.000000  1
  H  H20  1  0.940001  0.191434  0.000000  1
  H  H21  1  0.827247  0.000000  0.272187  1
  H  H22  1  0.082047  0.149110  0.772339  1
  H  H23  1  0.932937  0.850890  0.772339  1
  H  H24  1  0.932937  0.850890  0.227661  1
  H  H25  1  0.082047  0.149110  0.227661  1
  H  H26  1  0.827247  0.000000  0.727813  1
  H  H27  1  0.183529  0.661897  0.500000  1
  H  H28  1  0.489863  0.839531  0.500000  1
  H  H29  1  0.338842  0.421454  0.500000  1
  H  H30  1  0.521632  0.338103  0.500000  1
  H  H31  1  0.917388  0.578546  0.500000  1
  H  H32  1  0.650332  0.160469  0.500000  1
  H  H33  1  0.178130  0.457842  0.699324  1
  H  H34  1  0.329145  0.708294  0.233941  1
  H  H35  1  0.507949  0.654970  0.300832  1
