# generated using pymatgen
data_Sc3Co2Sn3Au
_symmetry_space_group_name_H-M   'P 1'
_cell_length_a   7.44889400
_cell_length_b   7.44883166
_cell_length_c   6.98059900
_cell_angle_alpha   89.99966228
_cell_angle_beta   90.00013196
_cell_angle_gamma   119.99939148
_symmetry_Int_Tables_number   1
_chemical_formula_structural   Sc3Co2Sn3Au
_chemical_formula_sum   'Sc6 Co4 Sn6 Au2'
_cell_volume   335.43311820
_cell_formula_units_Z   2
loop_
 _symmetry_equiv_pos_site_id
 _symmetry_equiv_pos_as_xyz
  1  'x, y, z'
loop_
 _atom_site_type_symbol
 _atom_site_label
 _atom_site_symmetry_multiplicity
 _atom_site_fract_x
 _atom_site_fract_y
 _atom_site_fract_z
 _atom_site_occupancy
  Sc  Sc0  1  0.381317  0.971478  0.250018  1
  Sc  Sc1  1  0.590170  0.618688  0.250018  1
  Sc  Sc2  1  0.028511  0.409834  0.250010  1
  Sc  Sc3  1  0.380240  0.969623  0.749989  1
  Sc  Sc4  1  0.589379  0.619755  0.749984  1
  Sc  Sc5  1  0.030367  0.410628  0.749980  1
  Co  Co6  1  0.333352  0.666668  0.001482  1
  Co  Co7  1  0.333352  0.666671  0.498523  1
  Co  Co8  1  0.000006  0.000012  0.249992  1
  Co  Co9  1  0.000012  0.000014  0.750011  1
  Sn  Sn10  1  0.735849  0.997928  0.000126  1
  Sn  Sn11  1  0.262055  0.264247  0.499867  1
  Sn  Sn12  1  0.002151  0.737931  0.499865  1
  Sn  Sn13  1  0.002037  0.737895  0.000138  1
  Sn  Sn14  1  0.262090  0.264173  0.000126  1
  Sn  Sn15  1  0.735784  0.997814  0.499871  1
  Au  Au16  1  0.666665  0.333321  0.996790  1
  Au  Au17  1  0.666664  0.333320  0.503208  1
