# generated using pymatgen
data_Ca3AcPt4
_symmetry_space_group_name_H-M   'P 1'
_cell_length_a   4.44395800
_cell_length_b   5.85117437
_cell_length_c   7.55970339
_cell_angle_alpha   90.67137765
_cell_angle_beta   90.00000000
_cell_angle_gamma   90.00000000
_symmetry_Int_Tables_number   1
_chemical_formula_structural   Ca3AcPt4
_chemical_formula_sum   'Ca3 Ac1 Pt4'
_cell_volume   196.55673344
_cell_formula_units_Z   1
loop_
 _symmetry_equiv_pos_site_id
 _symmetry_equiv_pos_as_xyz
  1  'x, y, z'
loop_
 _atom_site_type_symbol
 _atom_site_label
 _atom_site_symmetry_multiplicity
 _atom_site_fract_x
 _atom_site_fract_y
 _atom_site_fract_z
 _atom_site_occupancy
  Ca  Ca0  1  0.250000  0.366392  0.674561  1
  Ca  Ca1  1  0.250000  0.138626  0.189824  1
  Ca  Ca2  1  0.750000  0.633340  0.319000  1
  Ac  Ac3  1  0.750000  0.865619  0.817698  1
  Pt  Pt4  1  0.250000  0.858203  0.534719  1
  Pt  Pt5  1  0.250000  0.639331  0.039695  1
  Pt  Pt6  1  0.750000  0.146119  0.460425  1
  Pt  Pt7  1  0.750000  0.352371  0.964079  1
