# generated using pymatgen
data_Li6AlCd5Pd12
_symmetry_space_group_name_H-M   'P 1'
_cell_length_a   4.50081702
_cell_length_b   6.24544500
_cell_length_c   13.41868307
_cell_angle_alpha   90.00000000
_cell_angle_beta   89.98839599
_cell_angle_gamma   90.00000000
_symmetry_Int_Tables_number   1
_chemical_formula_structural   Li6AlCd5Pd12
_chemical_formula_sum   'Li6 Al1 Cd5 Pd12'
_cell_volume   377.19387527
_cell_formula_units_Z   1
loop_
 _symmetry_equiv_pos_site_id
 _symmetry_equiv_pos_as_xyz
  1  'x, y, z'
loop_
 _atom_site_type_symbol
 _atom_site_label
 _atom_site_symmetry_multiplicity
 _atom_site_fract_x
 _atom_site_fract_y
 _atom_site_fract_z
 _atom_site_occupancy
  Li  Li0  1  0.000000  0.500000  0.000000  1
  Li  Li1  1  0.499844  0.000000  0.168461  1
  Li  Li2  1  0.999837  0.500000  0.330456  1
  Li  Li3  1  0.499999  0.000000  0.500000  1
  Li  Li4  1  0.000164  0.500000  0.669545  1
  Li  Li5  1  0.500157  0.000000  0.831539  1
  Al  Al6  1  0.000000  0.000000  0.000000  1
  Cd  Cd7  1  0.499827  0.500000  0.163254  1
  Cd  Cd8  1  0.999834  0.000000  0.329388  1
  Cd  Cd9  1  0.499999  0.500000  0.500000  1
  Cd  Cd10  1  0.000165  0.000000  0.670612  1
  Cd  Cd11  1  0.500174  0.500000  0.836746  1
  Pd  Pd12  1  0.499999  0.226710  0.000000  1
  Pd  Pd13  1  0.499999  0.773290  0.000000  1
  Pd  Pd14  1  0.999835  0.239054  0.154167  1
  Pd  Pd15  1  0.999835  0.760946  0.154167  1
  Pd  Pd16  1  0.499823  0.250192  0.331971  1
  Pd  Pd17  1  0.499823  0.749808  0.331971  1
  Pd  Pd18  1  0.000000  0.248695  0.500000  1
  Pd  Pd19  1  0.000000  0.751306  0.500000  1
  Pd  Pd20  1  0.500176  0.250192  0.668029  1
  Pd  Pd21  1  0.500176  0.749808  0.668029  1
  Pd  Pd22  1  0.000163  0.239054  0.845833  1
  Pd  Pd23  1  0.000163  0.760946  0.845833  1
