# generated using pymatgen
data_ErTiCo3P7Ru9
_symmetry_space_group_name_H-M   'P 1'
_cell_length_a   9.28620400
_cell_length_b   9.28620474
_cell_length_c   3.77816200
_cell_angle_alpha   90.00000000
_cell_angle_beta   90.00000000
_cell_angle_gamma   119.99999641
_symmetry_Int_Tables_number   1
_chemical_formula_structural   ErTiCo3P7Ru9
_chemical_formula_sum   'Er1 Ti1 Co3 P7 Ru9'
_cell_volume   282.15496559
_cell_formula_units_Z   1
loop_
 _symmetry_equiv_pos_site_id
 _symmetry_equiv_pos_as_xyz
  1  'x, y, z'
loop_
 _atom_site_type_symbol
 _atom_site_label
 _atom_site_symmetry_multiplicity
 _atom_site_fract_x
 _atom_site_fract_y
 _atom_site_fract_z
 _atom_site_occupancy
  Er  Er0  1  0.000000  0.000000  0.000000  1
  Ti  Ti1  1  0.333333  0.666667  0.500000  1
  Co  Co2  1  0.825062  0.606252  0.000000  1
  Co  Co3  1  0.393748  0.218811  0.000000  1
  Co  Co4  1  0.781189  0.174938  0.000000  1
  P  P5  1  0.785395  0.734756  0.500000  1
  P  P6  1  0.265244  0.050639  0.500000  1
  P  P7  1  0.949361  0.214605  0.500000  1
  P  P8  1  0.666667  0.333333  0.000000  1
  P  P9  1  0.082057  0.636612  0.000000  1
  P  P10  1  0.363388  0.445445  0.000000  1
  P  P11  1  0.554555  0.917943  0.000000  1
  Ru  Ru12  1  0.097778  0.404714  0.000000  1
  Ru  Ru13  1  0.595286  0.693064  0.000000  1
  Ru  Ru14  1  0.306936  0.902222  0.000000  1
  Ru  Ru15  1  0.053953  0.769431  0.500000  1
  Ru  Ru16  1  0.230569  0.284523  0.500000  1
  Ru  Ru17  1  0.715477  0.946047  0.500000  1
  Ru  Ru18  1  0.873645  0.418886  0.500000  1
  Ru  Ru19  1  0.581114  0.454759  0.500000  1
  Ru  Ru20  1  0.545241  0.126355  0.500000  1
