# generated using pymatgen
data_NaYb(AgGe)2
_symmetry_space_group_name_H-M   'P 1'
_cell_length_a   5.76729354
_cell_length_b   5.76729487
_cell_length_c   5.76729509
_cell_angle_alpha   133.12501450
_cell_angle_beta   103.95255084
_cell_angle_gamma   94.31784531
_symmetry_Int_Tables_number   1
_chemical_formula_structural   NaYb(AgGe)2
_chemical_formula_sum   'Na1 Yb1 Ag2 Ge2'
_cell_volume   127.83352560
_cell_formula_units_Z   1
loop_
 _symmetry_equiv_pos_site_id
 _symmetry_equiv_pos_as_xyz
  1  'x, y, z'
loop_
 _atom_site_type_symbol
 _atom_site_label
 _atom_site_symmetry_multiplicity
 _atom_site_fract_x
 _atom_site_fract_y
 _atom_site_fract_z
 _atom_site_occupancy
  Na  Na0  1  0.285961  0.285961  0.000000  1
  Yb  Yb1  1  0.872603  0.372603  0.500000  1
  Ag  Ag2  1  0.275803  0.990861  0.284943  1
  Ag  Ag3  1  0.705917  0.990861  0.715057  1
  Ge  Ge4  1  0.477924  0.660757  0.817167  1
  Ge  Ge5  1  0.843589  0.660757  0.182833  1
