# generated using pymatgen
data_DyY4Sc3(P3Ir4)4
_symmetry_space_group_name_H-M   'P 1'
_cell_length_a   12.85908700
_cell_length_b   12.86032308
_cell_length_c   3.96577100
_cell_angle_alpha   90.00000000
_cell_angle_beta   90.00000000
_cell_angle_gamma   119.99682314
_symmetry_Int_Tables_number   1
_chemical_formula_structural   DyY4Sc3(P3Ir4)4
_chemical_formula_sum   'Dy1 Y4 Sc3 P12 Ir16'
_cell_volume   567.98148629
_cell_formula_units_Z   1
loop_
 _symmetry_equiv_pos_site_id
 _symmetry_equiv_pos_as_xyz
  1  'x, y, z'
loop_
 _atom_site_type_symbol
 _atom_site_label
 _atom_site_symmetry_multiplicity
 _atom_site_fract_x
 _atom_site_fract_y
 _atom_site_fract_z
 _atom_site_occupancy
  Dy  Dy0  1  0.811743  0.000000  0.000000  1
  Y  Y1  1  0.333346  0.666680  0.500000  1
  Y  Y2  1  0.666667  0.333320  0.500000  1
  Y  Y3  1  0.999985  0.811774  0.000000  1
  Y  Y4  1  0.188212  0.188226  0.000000  1
  Sc  Sc5  1  0.999969  0.444770  0.500000  1
  Sc  Sc6  1  0.555198  0.555230  0.500000  1
  Sc  Sc7  1  0.444872  0.000000  0.500000  1
  P  P8  1  0.999997  0.645348  0.500000  1
  P  P9  1  0.354650  0.354652  0.500000  1
  P  P10  1  0.645545  0.000000  0.500000  1
  P  P11  1  0.517103  0.686671  0.000000  1
  P  P12  1  0.313350  0.830408  0.000000  1
  P  P13  1  0.169562  0.482896  0.000000  1
  P  P14  1  0.482942  0.169592  0.000000  1
  P  P15  1  0.686666  0.517104  0.000000  1
  P  P16  1  0.830432  0.313329  0.000000  1
  P  P17  1  0.999786  0.176847  0.500000  1
  P  P18  1  0.822939  0.823153  0.500000  1
  P  P19  1  0.176910  0.000000  0.500000  1
  Ir  Ir20  1  0.510063  0.867903  0.000000  1
  Ir  Ir21  1  0.132135  0.642150  0.000000  1
  Ir  Ir22  1  0.357867  0.489969  0.000000  1
  Ir  Ir23  1  0.489987  0.357850  0.000000  1
  Ir  Ir24  1  0.867898  0.510031  0.000000  1
  Ir  Ir25  1  0.642161  0.132097  0.000000  1
  Ir  Ir26  1  0.999982  0.277865  0.000000  1
  Ir  Ir27  1  0.722117  0.722135  0.000000  1
  Ir  Ir28  1  0.277909  0.000000  0.000000  1
  Ir  Ir29  1  0.627941  0.806840  0.500000  1
  Ir  Ir30  1  0.193322  0.821142  0.500000  1
  Ir  Ir31  1  0.178864  0.372158  0.500000  1
  Ir  Ir32  1  0.372180  0.178858  0.500000  1
  Ir  Ir33  1  0.806706  0.627842  0.500000  1
  Ir  Ir34  1  0.821101  0.193160  0.500000  1
  Ir  Ir35  1  0.999894  0.000000  0.500000  1
