# generated using pymatgen
data_Hf18Re3As2W5
_symmetry_space_group_name_H-M   'P 1'
_cell_length_a   8.68939955
_cell_length_b   8.68940670
_cell_length_c   8.64311300
_cell_angle_alpha   90.00000000
_cell_angle_beta   90.00000000
_cell_angle_gamma   119.95713263
_symmetry_Int_Tables_number   1
_chemical_formula_structural   Hf18Re3As2W5
_chemical_formula_sum   'Hf18 Re3 As2 W5'
_cell_volume   565.41607283
_cell_formula_units_Z   1
loop_
 _symmetry_equiv_pos_site_id
 _symmetry_equiv_pos_as_xyz
  1  'x, y, z'
loop_
 _atom_site_type_symbol
 _atom_site_label
 _atom_site_symmetry_multiplicity
 _atom_site_fract_x
 _atom_site_fract_y
 _atom_site_fract_z
 _atom_site_occupancy
  Hf  Hf0  1  0.805657  0.611268  0.544368  1
  Hf  Hf1  1  0.805286  0.194714  0.544052  1
  Hf  Hf2  1  0.388733  0.194344  0.544368  1
  Hf  Hf3  1  0.194772  0.389532  0.451974  1
  Hf  Hf4  1  0.195112  0.804888  0.452358  1
  Hf  Hf5  1  0.610468  0.805228  0.451974  1
  Hf  Hf6  1  0.194772  0.389532  0.048026  1
  Hf  Hf7  1  0.195112  0.804888  0.047642  1
  Hf  Hf8  1  0.610468  0.805228  0.048026  1
  Hf  Hf9  1  0.805657  0.611268  0.955632  1
  Hf  Hf10  1  0.805286  0.194714  0.955948  1
  Hf  Hf11  1  0.388733  0.194344  0.955632  1
  Hf  Hf12  1  0.460278  0.920389  0.750000  1
  Hf  Hf13  1  0.460003  0.539997  0.750000  1
  Hf  Hf14  1  0.079611  0.539722  0.750000  1
  Hf  Hf15  1  0.540880  0.082067  0.250000  1
  Hf  Hf16  1  0.541232  0.458768  0.250000  1
  Hf  Hf17  1  0.917933  0.459120  0.250000  1
  Re  Re18  1  0.889923  0.779630  0.250000  1
  Re  Re19  1  0.889651  0.110349  0.250000  1
  Re  Re20  1  0.220370  0.110077  0.250000  1
  As  As21  1  0.666576  0.333424  0.750000  1
  As  As22  1  0.333420  0.666580  0.250000  1
  W  W23  1  0.109957  0.220179  0.750000  1
  W  W24  1  0.110285  0.889714  0.750000  1
  W  W25  1  0.779821  0.890043  0.750000  1
  W  W26  1  0.000002  0.999997  0.498315  1
  W  W27  1  0.000002  0.999997  0.001685  1
