# generated using pymatgen
data_Gd3Y2(SiB4)2
_symmetry_space_group_name_H-M   'P 1'
_cell_length_a   7.26329902
_cell_length_b   7.26329902
_cell_length_c   8.18189300
_cell_angle_alpha   90.00000000
_cell_angle_beta   90.00000000
_cell_angle_gamma   90.00773063
_symmetry_Int_Tables_number   1
_chemical_formula_structural   Gd3Y2(SiB4)2
_chemical_formula_sum   'Gd6 Y4 Si4 B16'
_cell_volume   431.63995535
_cell_formula_units_Z   2
loop_
 _symmetry_equiv_pos_site_id
 _symmetry_equiv_pos_as_xyz
  1  'x, y, z'
loop_
 _atom_site_type_symbol
 _atom_site_label
 _atom_site_symmetry_multiplicity
 _atom_site_fract_x
 _atom_site_fract_y
 _atom_site_fract_z
 _atom_site_occupancy
  Gd  Gd0  1  0.680542  0.180601  0.225060  1
  Gd  Gd1  1  0.319399  0.819458  0.774940  1
  Gd  Gd2  1  0.319399  0.819458  0.225060  1
  Gd  Gd3  1  0.819423  0.680577  0.224665  1
  Gd  Gd4  1  0.819423  0.680577  0.775335  1
  Gd  Gd5  1  0.680542  0.180601  0.774940  1
  Y  Y6  1  0.180260  0.319740  0.777716  1
  Y  Y7  1  0.180260  0.319740  0.222284  1
  Y  Y8  1  0.000349  0.000384  0.500000  1
  Y  Y9  1  0.499616  0.499651  0.500000  1
  Si  Si10  1  0.115303  0.613784  0.500000  1
  Si  Si11  1  0.886216  0.384697  0.500000  1
  Si  Si12  1  0.384533  0.115467  0.500000  1
  Si  Si13  1  0.614123  0.885877  0.500000  1
  B  B14  1  0.172649  0.039661  0.000000  1
  B  B15  1  0.827766  0.960768  0.000000  1
  B  B16  1  0.960897  0.172550  0.000000  1
  B  B17  1  0.327450  0.539103  0.000000  1
  B  B18  1  0.039257  0.827698  0.000000  1
  B  B19  1  0.672302  0.460743  0.000000  1
  B  B20  1  0.539232  0.672234  0.000000  1
  B  B21  1  0.460339  0.327351  0.000000  1
  B  B22  1  0.090214  0.589947  0.000000  1
  B  B23  1  0.910053  0.409786  0.000000  1
  B  B24  1  0.409833  0.090167  0.000000  1
  B  B25  1  0.590286  0.909714  0.000000  1
  B  B26  1  0.000297  0.000131  0.159716  1
  B  B27  1  0.000297  0.000131  0.840284  1
  B  B28  1  0.499869  0.499703  0.840284  1
  B  B29  1  0.499869  0.499703  0.159716  1
