# generated using pymatgen
data_YHo5LuScO12
_symmetry_space_group_name_H-M   'P 1'
_cell_length_a   6.62186281
_cell_length_b   6.61978372
_cell_length_c   6.61987615
_cell_angle_alpha   92.35129824
_cell_angle_beta   92.32848118
_cell_angle_gamma   92.35827671
_symmetry_Int_Tables_number   1
_chemical_formula_structural   YHo5LuScO12
_chemical_formula_sum   'Y1 Ho5 Lu1 Sc1 O12'
_cell_volume   289.43400369
_cell_formula_units_Z   1
loop_
 _symmetry_equiv_pos_site_id
 _symmetry_equiv_pos_as_xyz
  1  'x, y, z'
loop_
 _atom_site_type_symbol
 _atom_site_label
 _atom_site_symmetry_multiplicity
 _atom_site_fract_x
 _atom_site_fract_y
 _atom_site_fract_z
 _atom_site_occupancy
  Y  Y0  1  0.744473  0.930709  0.439516  1
  Ho  Ho1  1  0.930719  0.439490  0.744703  1
  Ho  Ho2  1  0.439039  0.744343  0.930452  1
  Ho  Ho3  1  0.255484  0.069744  0.560883  1
  Ho  Ho4  1  0.069801  0.560259  0.255473  1
  Ho  Ho5  1  0.560454  0.255787  0.069144  1
  Lu  Lu6  1  0.000391  0.000109  0.000008  1
  Sc  Sc7  1  0.499586  0.499798  0.500201  1
  O  O8  1  0.593548  0.464284  0.806817  1
  O  O9  1  0.462523  0.805986  0.594223  1
  O  O10  1  0.806968  0.591467  0.464300  1
  O  O11  1  0.406533  0.535837  0.193225  1
  O  O12  1  0.534198  0.194296  0.406092  1
  O  O13  1  0.193165  0.406504  0.535619  1
  O  O14  1  0.070897  0.909093  0.313237  1
  O  O15  1  0.909165  0.313688  0.069622  1
  O  O16  1  0.686204  0.930916  0.088673  1
  O  O17  1  0.090662  0.686280  0.930694  1
  O  O18  1  0.932296  0.092056  0.687776  1
  O  O19  1  0.313894  0.069352  0.909340  1
