# generated using pymatgen
data_Ba3AcSi4
_symmetry_space_group_name_H-M   'P 1'
_cell_length_a   7.65314836
_cell_length_b   7.65314862
_cell_length_c   7.05559500
_cell_angle_alpha   90.00000000
_cell_angle_beta   90.00000000
_cell_angle_gamma   142.88392466
_symmetry_Int_Tables_number   1
_chemical_formula_structural   Ba3AcSi4
_chemical_formula_sum   'Ba3 Ac1 Si4'
_cell_volume   249.36877574
_cell_formula_units_Z   1
loop_
 _symmetry_equiv_pos_site_id
 _symmetry_equiv_pos_as_xyz
  1  'x, y, z'
loop_
 _atom_site_type_symbol
 _atom_site_label
 _atom_site_symmetry_multiplicity
 _atom_site_fract_x
 _atom_site_fract_y
 _atom_site_fract_z
 _atom_site_occupancy
  Ba  Ba0  1  0.274605  0.725395  0.750000  1
  Ba  Ba1  1  0.720439  0.279561  0.250000  1
  Ba  Ba2  1  0.441732  0.558268  0.250000  1
  Ac  Ac3  1  0.551469  0.448531  0.750000  1
  Si  Si4  1  0.923975  0.076025  0.921528  1
  Si  Si5  1  0.081903  0.918097  0.069786  1
  Si  Si6  1  0.923975  0.076025  0.578472  1
  Si  Si7  1  0.081903  0.918097  0.430214  1
