# generated using pymatgen
data_Ta6CrH16
_symmetry_space_group_name_H-M   'P 1'
_cell_length_a   6.27323982
_cell_length_b   6.27323987
_cell_length_c   6.27323900
_cell_angle_alpha   59.99999934
_cell_angle_beta   59.99999907
_cell_angle_gamma   60.00000270
_symmetry_Int_Tables_number   1
_chemical_formula_structural   Ta6CrH16
_chemical_formula_sum   'Ta6 Cr1 H16'
_cell_volume   174.56638748
_cell_formula_units_Z   1
loop_
 _symmetry_equiv_pos_site_id
 _symmetry_equiv_pos_as_xyz
  1  'x, y, z'
loop_
 _atom_site_type_symbol
 _atom_site_label
 _atom_site_symmetry_multiplicity
 _atom_site_fract_x
 _atom_site_fract_y
 _atom_site_fract_z
 _atom_site_occupancy
  Ta  Ta0  1  0.000000  0.000000  0.500000  1
  Ta  Ta1  1  0.500000  0.000000  0.500000  1
  Ta  Ta2  1  0.000000  0.500000  0.500000  1
  Ta  Ta3  1  0.500000  0.500000  0.000000  1
  Ta  Ta4  1  0.000000  0.500000  0.000000  1
  Ta  Ta5  1  0.500000  0.000000  0.000000  1
  Cr  Cr6  1  0.000000  0.000000  0.000000  1
  H  H7  1  0.882304  0.882304  0.353087  1
  H  H8  1  0.882304  0.353087  0.882304  1
  H  H9  1  0.353087  0.882304  0.882304  1
  H  H10  1  0.882304  0.882304  0.882304  1
  H  H11  1  0.117696  0.117696  0.646913  1
  H  H12  1  0.117696  0.646913  0.117696  1
  H  H13  1  0.646913  0.117696  0.117696  1
  H  H14  1  0.117696  0.117696  0.117696  1
  H  H15  1  0.618382  0.618382  0.144855  1
  H  H16  1  0.618382  0.144855  0.618382  1
  H  H17  1  0.144855  0.618382  0.618382  1
  H  H18  1  0.618382  0.618382  0.618382  1
  H  H19  1  0.381618  0.381618  0.855145  1
  H  H20  1  0.381618  0.855145  0.381618  1
  H  H21  1  0.855145  0.381618  0.381618  1
  H  H22  1  0.381618  0.381618  0.381618  1
