# generated using pymatgen
data_Sm2Zn(PRh2)6
_symmetry_space_group_name_H-M   'P 1'
_cell_length_a   3.90457402
_cell_length_b   9.69146469
_cell_length_c   9.68988701
_cell_angle_alpha   119.99412873
_cell_angle_beta   89.99739415
_cell_angle_gamma   89.99338271
_symmetry_Int_Tables_number   1
_chemical_formula_structural   Sm2Zn(PRh2)6
_chemical_formula_sum   'Sm2 Zn1 P6 Rh12'
_cell_volume   317.56900451
_cell_formula_units_Z   1
loop_
 _symmetry_equiv_pos_site_id
 _symmetry_equiv_pos_as_xyz
  1  'x, y, z'
loop_
 _atom_site_type_symbol
 _atom_site_label
 _atom_site_symmetry_multiplicity
 _atom_site_fract_x
 _atom_site_fract_y
 _atom_site_fract_z
 _atom_site_occupancy
  Sm  Sm0  1  0.247065  0.666803  0.333474  1
  Sm  Sm1  1  0.752935  0.333197  0.666526  1
  Zn  Zn2  1  0.500000  0.000000  0.000000  1
  P  P3  1  0.748378  0.884380  0.599872  1
  P  P4  1  0.748592  0.400395  0.284665  1
  P  P5  1  0.748612  0.715400  0.115728  1
  P  P6  1  0.251622  0.115620  0.400128  1
  P  P7  1  0.251408  0.599605  0.715335  1
  P  P8  1  0.251388  0.284600  0.884272  1
  Rh  Rh9  1  0.753220  0.124848  0.841726  1
  Rh  Rh10  1  0.753503  0.158397  0.282960  1
  Rh  Rh11  1  0.753198  0.716891  0.875315  1
  Rh  Rh12  1  0.246780  0.875152  0.158274  1
  Rh  Rh13  1  0.246497  0.841603  0.717040  1
  Rh  Rh14  1  0.246802  0.283109  0.124685  1
  Rh  Rh15  1  0.749206  0.613809  0.549948  1
  Rh  Rh16  1  0.749310  0.450286  0.064069  1
  Rh  Rh17  1  0.749309  0.936128  0.386228  1
  Rh  Rh18  1  0.250794  0.386191  0.450052  1
  Rh  Rh19  1  0.250690  0.549714  0.935931  1
  Rh  Rh20  1  0.250691  0.063872  0.613772  1
