# generated using pymatgen
data_Y2Fe14(SiC)3
_symmetry_space_group_name_H-M   'P 1'
_cell_length_a   6.44844580
_cell_length_b   6.44844557
_cell_length_c   6.44844539
_cell_angle_alpha   83.72139081
_cell_angle_beta   83.72139091
_cell_angle_gamma   83.72136878
_symmetry_Int_Tables_number   1
_chemical_formula_structural   Y2Fe14(SiC)3
_chemical_formula_sum   'Y2 Fe14 Si3 C3'
_cell_volume   263.64457836
_cell_formula_units_Z   1
loop_
 _symmetry_equiv_pos_site_id
 _symmetry_equiv_pos_as_xyz
  1  'x, y, z'
loop_
 _atom_site_type_symbol
 _atom_site_label
 _atom_site_symmetry_multiplicity
 _atom_site_fract_x
 _atom_site_fract_y
 _atom_site_fract_z
 _atom_site_occupancy
  Y  Y0  1  0.652596  0.652596  0.652596  1
  Y  Y1  1  0.347404  0.347404  0.347404  1
  Fe  Fe2  1  0.715370  0.284630  0.000000  1
  Fe  Fe3  1  0.000000  0.715370  0.284630  1
  Fe  Fe4  1  0.284630  0.000000  0.715370  1
  Fe  Fe5  1  0.000000  0.284630  0.715370  1
  Fe  Fe6  1  0.715370  0.000000  0.284630  1
  Fe  Fe7  1  0.284630  0.715370  0.000000  1
  Fe  Fe8  1  0.339974  0.339974  0.863015  1
  Fe  Fe9  1  0.863015  0.339974  0.339974  1
  Fe  Fe10  1  0.339974  0.863015  0.339974  1
  Fe  Fe11  1  0.660026  0.660026  0.136985  1
  Fe  Fe12  1  0.136985  0.660026  0.660026  1
  Fe  Fe13  1  0.660026  0.136985  0.660026  1
  Fe  Fe14  1  0.903062  0.903062  0.903062  1
  Fe  Fe15  1  0.096938  0.096938  0.096938  1
  Si  Si16  1  0.000000  0.000000  0.500000  1
  Si  Si17  1  0.500000  0.000000  0.000000  1
  Si  Si18  1  0.000000  0.500000  0.000000  1
  C  C19  1  0.500000  0.500000  0.000000  1
  C  C20  1  0.000000  0.500000  0.500000  1
  C  C21  1  0.500000  0.000000  0.500000  1
