# generated using pymatgen
data_TcAgCl6
_symmetry_space_group_name_H-M   'P 1'
_cell_length_a   6.47627803
_cell_length_b   6.47806810
_cell_length_c   19.42683881
_cell_angle_alpha   88.08588008
_cell_angle_beta   87.93279589
_cell_angle_gamma   116.88687627
_symmetry_Int_Tables_number   1
_chemical_formula_structural   TcAgCl6
_chemical_formula_sum   'Tc3 Ag3 Cl18'
_cell_volume   725.32147032
_cell_formula_units_Z   3
loop_
 _symmetry_equiv_pos_site_id
 _symmetry_equiv_pos_as_xyz
  1  'x, y, z'
loop_
 _atom_site_type_symbol
 _atom_site_label
 _atom_site_symmetry_multiplicity
 _atom_site_fract_x
 _atom_site_fract_y
 _atom_site_fract_z
 _atom_site_occupancy
  Tc  Tc0  1  0.214845  0.449466  0.166077  1
  Tc  Tc1  1  0.550334  0.785163  0.500148  1
  Tc  Tc2  1  0.215899  0.783722  0.833762  1
  Ag  Ag3  1  0.547523  0.109074  0.165894  1
  Ag  Ag4  1  0.890362  0.451788  0.500683  1
  Ag  Ag5  1  0.552068  0.446639  0.833535  1
  Cl  Cl6  1  0.519705  0.764374  0.762064  1
  Cl  Cl7  1  0.938179  0.785416  0.911195  1
  Cl  Cl8  1  0.506254  0.073783  0.895367  1
  Cl  Cl9  1  0.846675  0.761339  0.426379  1
  Cl  Cl10  1  0.259198  0.490825  0.439542  1
  Cl  Cl11  1  0.928072  0.158149  0.104901  1
  Cl  Cl12  1  0.506727  0.740799  0.227442  1
  Cl  Cl13  1  0.926817  0.492373  0.772324  1
  Cl  Cl14  1  0.236276  0.481543  0.905745  1
  Cl  Cl15  1  0.573146  0.482026  0.572021  1
  Cl  Cl16  1  0.843380  0.073267  0.560644  1
  Cl  Cl17  1  0.274617  0.783910  0.578987  1
  Cl  Cl18  1  0.235668  0.152333  0.239783  1
  Cl  Cl19  1  0.541715  0.060739  0.423985  1
  Cl  Cl20  1  0.936551  0.456986  0.241490  1
  Cl  Cl21  1  0.520849  0.428567  0.095132  1
  Cl  Cl22  1  0.215212  0.060498  0.755880  1
  Cl  Cl23  1  0.219929  0.727215  0.087021  1
