# generated using pymatgen
data_AcTbS3
_symmetry_space_group_name_H-M   'P 1'
_cell_length_a   4.17356800
_cell_length_b   10.61592700
_cell_length_c   11.12585100
_cell_angle_alpha   90.00000000
_cell_angle_beta   90.00000000
_cell_angle_gamma   90.00000000
_symmetry_Int_Tables_number   1
_chemical_formula_structural   AcTbS3
_chemical_formula_sum   'Ac4 Tb4 S12'
_cell_volume   492.94521670
_cell_formula_units_Z   4
loop_
 _symmetry_equiv_pos_site_id
 _symmetry_equiv_pos_as_xyz
  1  'x, y, z'
loop_
 _atom_site_type_symbol
 _atom_site_label
 _atom_site_symmetry_multiplicity
 _atom_site_fract_x
 _atom_site_fract_y
 _atom_site_fract_z
 _atom_site_occupancy
  Ac  Ac0  1  0.250000  0.997577  0.804621  1
  Ac  Ac1  1  0.750000  0.002423  0.195379  1
  Ac  Ac2  1  0.750000  0.497577  0.695379  1
  Ac  Ac3  1  0.250000  0.502423  0.304621  1
  Tb  Tb4  1  0.250000  0.184552  0.492555  1
  Tb  Tb5  1  0.750000  0.815448  0.507445  1
  Tb  Tb6  1  0.750000  0.684552  0.007445  1
  Tb  Tb7  1  0.250000  0.315448  0.992555  1
  S  S8  1  0.250000  0.293242  0.732386  1
  S  S9  1  0.750000  0.706758  0.267614  1
  S  S10  1  0.750000  0.793242  0.767614  1
  S  S11  1  0.250000  0.206758  0.232386  1
  S  S12  1  0.250000  0.943827  0.392458  1
  S  S13  1  0.750000  0.056173  0.607542  1
  S  S14  1  0.750000  0.443827  0.107542  1
  S  S15  1  0.250000  0.556173  0.892458  1
  S  S16  1  0.250000  0.860626  0.043775  1
  S  S17  1  0.750000  0.139374  0.956225  1
  S  S18  1  0.750000  0.360626  0.456225  1
  S  S19  1  0.250000  0.639374  0.543775  1
