# generated using pymatgen
data_Sc5ZnCo2(BIr2)4
_symmetry_space_group_name_H-M   'P 1'
_cell_length_a   3.06141900
_cell_length_b   9.35456100
_cell_length_c   9.35456100
_cell_angle_alpha   90.00000000
_cell_angle_beta   90.00000000
_cell_angle_gamma   90.00000000
_symmetry_Int_Tables_number   1
_chemical_formula_structural   Sc5ZnCo2(BIr2)4
_chemical_formula_sum   'Sc5 Zn1 Co2 B4 Ir8'
_cell_volume   267.89807678
_cell_formula_units_Z   1
loop_
 _symmetry_equiv_pos_site_id
 _symmetry_equiv_pos_as_xyz
  1  'x, y, z'
loop_
 _atom_site_type_symbol
 _atom_site_label
 _atom_site_symmetry_multiplicity
 _atom_site_fract_x
 _atom_site_fract_y
 _atom_site_fract_z
 _atom_site_occupancy
  Sc  Sc0  1  0.000000  0.174748  0.677063  1
  Sc  Sc1  1  0.000000  0.825252  0.322937  1
  Sc  Sc2  1  0.000000  0.322937  0.174748  1
  Sc  Sc3  1  0.000000  0.677063  0.825252  1
  Sc  Sc4  1  0.000000  0.500000  0.500000  1
  Zn  Zn5  1  0.000000  0.000000  0.000000  1
  Co  Co6  1  0.500000  0.000000  0.500000  1
  Co  Co7  1  0.500000  0.500000  0.000000  1
  B  B8  1  0.000000  0.617235  0.107781  1
  B  B9  1  0.000000  0.382765  0.892219  1
  B  B10  1  0.000000  0.892219  0.617235  1
  B  B11  1  0.000000  0.107781  0.382765  1
  Ir  Ir12  1  0.500000  0.061598  0.222983  1
  Ir  Ir13  1  0.500000  0.938402  0.777017  1
  Ir  Ir14  1  0.500000  0.777017  0.061598  1
  Ir  Ir15  1  0.500000  0.433624  0.729595  1
  Ir  Ir16  1  0.500000  0.222983  0.938402  1
  Ir  Ir17  1  0.500000  0.566376  0.270405  1
  Ir  Ir18  1  0.500000  0.729595  0.566376  1
  Ir  Ir19  1  0.500000  0.270405  0.433624  1
