# generated using pymatgen
data_Ho2Er2MnB12Rh
_symmetry_space_group_name_H-M   'P 1'
_cell_length_a   3.59976800
_cell_length_b   9.08051673
_cell_length_c   11.45540403
_cell_angle_alpha   90.22039663
_cell_angle_beta   90.00000000
_cell_angle_gamma   90.00000000
_symmetry_Int_Tables_number   1
_chemical_formula_structural   Ho2Er2MnB12Rh
_chemical_formula_sum   'Ho4 Er4 Mn2 B24 Rh2'
_cell_volume   374.44865324
_cell_formula_units_Z   2
loop_
 _symmetry_equiv_pos_site_id
 _symmetry_equiv_pos_as_xyz
  1  'x, y, z'
loop_
 _atom_site_type_symbol
 _atom_site_label
 _atom_site_symmetry_multiplicity
 _atom_site_fract_x
 _atom_site_fract_y
 _atom_site_fract_z
 _atom_site_occupancy
  Ho  Ho0  1  0.500000  0.318003  0.410655  1
  Ho  Ho1  1  0.500000  0.681997  0.589345  1
  Ho  Ho2  1  0.500000  0.172077  0.917692  1
  Ho  Ho3  1  0.500000  0.827923  0.082308  1
  Er  Er4  1  0.500000  0.439118  0.126810  1
  Er  Er5  1  0.500000  0.560882  0.873190  1
  Er  Er6  1  0.500000  0.052528  0.630162  1
  Er  Er7  1  0.500000  0.947472  0.369838  1
  Mn  Mn8  1  0.500000  0.138749  0.179795  1
  Mn  Mn9  1  0.500000  0.861251  0.820205  1
  B  B10  1  0.000000  0.106768  0.471096  1
  B  B11  1  0.000000  0.893232  0.528904  1
  B  B12  1  0.000000  0.393310  0.970606  1
  B  B13  1  0.000000  0.606690  0.029394  1
  B  B14  1  0.000000  0.132049  0.313530  1
  B  B15  1  0.000000  0.867951  0.686470  1
  B  B16  1  0.000000  0.367667  0.817136  1
  B  B17  1  0.000000  0.632333  0.182864  1
  B  B18  1  0.000000  0.053689  0.068083  1
  B  B19  1  0.000000  0.946311  0.931917  1
  B  B20  1  0.000000  0.445980  0.566082  1
  B  B21  1  0.000000  0.554020  0.433918  1
  B  B22  1  0.000000  0.482355  0.287242  1
  B  B23  1  0.000000  0.517645  0.712758  1
  B  B24  1  0.000000  0.014194  0.788290  1
  B  B25  1  0.000000  0.985806  0.211710  1
  B  B26  1  0.000000  0.246032  0.082373  1
  B  B27  1  0.000000  0.753968  0.917627  1
  B  B28  1  0.000000  0.249979  0.579119  1
  B  B29  1  0.000000  0.750021  0.420881  1
  B  B30  1  0.000000  0.290398  0.233941  1
  B  B31  1  0.000000  0.709602  0.766059  1
  B  B32  1  0.000000  0.207538  0.735713  1
  B  B33  1  0.000000  0.792462  0.264287  1
  Rh  Rh34  1  0.500000  0.361573  0.678797  1
  Rh  Rh35  1  0.500000  0.638427  0.321203  1
