# generated using pymatgen
data_Zr5Sc(ZnRh2)6
_symmetry_space_group_name_H-M   'P 1'
_cell_length_a   4.50953500
_cell_length_b   6.24595100
_cell_length_c   13.44625500
_cell_angle_alpha   90.00000000
_cell_angle_beta   89.99903569
_cell_angle_gamma   90.00000000
_symmetry_Int_Tables_number   1
_chemical_formula_structural   Zr5Sc(ZnRh2)6
_chemical_formula_sum   'Zr5 Sc1 Zn6 Rh12'
_cell_volume   378.73171800
_cell_formula_units_Z   1
loop_
 _symmetry_equiv_pos_site_id
 _symmetry_equiv_pos_as_xyz
  1  'x, y, z'
loop_
 _atom_site_type_symbol
 _atom_site_label
 _atom_site_symmetry_multiplicity
 _atom_site_fract_x
 _atom_site_fract_y
 _atom_site_fract_z
 _atom_site_occupancy
  Zr  Zr0  1  0.000009  0.500000  0.998606  1
  Zr  Zr1  1  0.499859  0.000000  0.165759  1
  Zr  Zr2  1  0.999877  0.500000  0.333332  1
  Zr  Zr3  1  0.499992  0.000000  0.500892  1
  Zr  Zr4  1  0.000124  0.500000  0.668065  1
  Sc  Sc5  1  0.500129  0.000000  0.833330  1
  Zn  Zn6  1  0.000002  0.000000  0.999379  1
  Zn  Zn7  1  0.499870  0.500000  0.166295  1
  Zn  Zn8  1  0.999871  0.000000  0.333299  1
  Zn  Zn9  1  0.500000  0.500000  0.500394  1
  Zn  Zn10  1  0.000134  0.000000  0.667326  1
  Zn  Zn11  1  0.500137  0.500000  0.833305  1
  Rh  Rh12  1  0.499996  0.249028  0.999736  1
  Rh  Rh13  1  0.499996  0.750971  0.999736  1
  Rh  Rh14  1  0.999864  0.249758  0.166885  1
  Rh  Rh15  1  0.999864  0.750242  0.166885  1
  Rh  Rh16  1  0.499880  0.250162  0.333344  1
  Rh  Rh17  1  0.499880  0.749837  0.333344  1
  Rh  Rh18  1  0.999989  0.249689  0.499783  1
  Rh  Rh19  1  0.999989  0.750310  0.499783  1
  Rh  Rh20  1  0.500136  0.249003  0.666923  1
  Rh  Rh21  1  0.500136  0.750996  0.666923  1
  Rh  Rh22  1  0.000131  0.248927  0.833337  1
  Rh  Rh23  1  0.000131  0.751073  0.833337  1
