# generated using pymatgen
data_Nd3Sm5(Tm3Si4)4
_symmetry_space_group_name_H-M   'P 1'
_cell_length_a   7.69238947
_cell_length_b   7.69035014
_cell_length_c   14.16013435
_cell_angle_alpha   90.04902975
_cell_angle_beta   89.98977167
_cell_angle_gamma   90.03881335
_symmetry_Int_Tables_number   1
_chemical_formula_structural   Nd3Sm5(Tm3Si4)4
_chemical_formula_sum   'Nd3 Sm5 Tm12 Si16'
_cell_volume   837.67294155
_cell_formula_units_Z   1
loop_
 _symmetry_equiv_pos_site_id
 _symmetry_equiv_pos_as_xyz
  1  'x, y, z'
loop_
 _atom_site_type_symbol
 _atom_site_label
 _atom_site_symmetry_multiplicity
 _atom_site_fract_x
 _atom_site_fract_y
 _atom_site_fract_z
 _atom_site_occupancy
  Nd  Nd0  1  0.856789  0.492613  0.790382  1
  Nd  Nd1  1  0.143212  0.507552  0.290949  1
  Nd  Nd2  1  0.007490  0.356538  0.040624  1
  Sm  Sm3  1  0.642020  0.993343  0.459014  1
  Sm  Sm4  1  0.358214  0.006544  0.958855  1
  Sm  Sm5  1  0.993079  0.642354  0.541050  1
  Sm  Sm6  1  0.493382  0.858195  0.209004  1
  Sm  Sm7  1  0.506559  0.141785  0.708702  1
  Tm  Tm8  1  0.492862  0.359724  0.124245  1
  Tm  Tm9  1  0.992922  0.139701  0.625593  1
  Tm  Tm10  1  0.859713  0.006984  0.874115  1
  Tm  Tm11  1  0.140044  0.992648  0.374378  1
  Tm  Tm12  1  0.507645  0.640468  0.623953  1
  Tm  Tm13  1  0.359837  0.492910  0.875781  1
  Tm  Tm14  1  0.640138  0.507401  0.376000  1
  Tm  Tm15  1  0.007260  0.859944  0.125840  1
  Tm  Tm16  1  0.318530  0.317827  0.500120  1
  Tm  Tm17  1  0.182348  0.818706  0.749899  1
  Tm  Tm18  1  0.817446  0.180964  0.250140  1
  Tm  Tm19  1  0.680879  0.682615  0.000125  1
  Si  Si20  1  0.290860  0.938367  0.561861  1
  Si  Si21  1  0.708422  0.060878  0.061840  1
  Si  Si22  1  0.937273  0.289884  0.438679  1
  Si  Si23  1  0.439190  0.208419  0.311854  1
  Si  Si24  1  0.560903  0.791534  0.811808  1
  Si  Si25  1  0.210642  0.437659  0.687771  1
  Si  Si26  1  0.788559  0.563252  0.188289  1
  Si  Si27  1  0.063260  0.711375  0.938301  1
  Si  Si28  1  0.795947  0.849258  0.686721  1
  Si  Si29  1  0.205202  0.149850  0.187576  1
  Si  Si30  1  0.846916  0.797121  0.312822  1
  Si  Si31  1  0.348906  0.704757  0.437940  1
  Si  Si32  1  0.649884  0.294836  0.937556  1
  Si  Si33  1  0.703545  0.347977  0.562737  1
  Si  Si34  1  0.297132  0.653125  0.062704  1
  Si  Si35  1  0.152989  0.202893  0.812771  1
