# generated using pymatgen
data_Th8Sc12Tl9Sb7
_symmetry_space_group_name_H-M   'P 1'
_cell_length_a   7.91447652
_cell_length_b   7.83808665
_cell_length_c   14.94396100
_cell_angle_alpha   90.03741948
_cell_angle_beta   89.91592923
_cell_angle_gamma   90.02861473
_symmetry_Int_Tables_number   1
_chemical_formula_structural   Th8Sc12Tl9Sb7
_chemical_formula_sum   'Th8 Sc12 Tl9 Sb7'
_cell_volume   927.03763681
_cell_formula_units_Z   1
loop_
 _symmetry_equiv_pos_site_id
 _symmetry_equiv_pos_as_xyz
  1  'x, y, z'
loop_
 _atom_site_type_symbol
 _atom_site_label
 _atom_site_symmetry_multiplicity
 _atom_site_fract_x
 _atom_site_fract_y
 _atom_site_fract_z
 _atom_site_occupancy
  Th  Th0  1  0.988327  0.179807  0.089324  1
  Th  Th1  1  0.010270  0.822286  0.908965  1
  Th  Th2  1  0.513699  0.674856  0.908501  1
  Th  Th3  1  0.013265  0.820514  0.590584  1
  Th  Th4  1  0.487847  0.324986  0.091157  1
  Th  Th5  1  0.986975  0.179453  0.409440  1
  Th  Th6  1  0.486650  0.320086  0.409643  1
  Th  Th7  1  0.513606  0.679996  0.590194  1
  Sc  Sc8  1  0.179928  0.499285  0.750461  1
  Sc  Sc9  1  0.819468  0.500636  0.249681  1
  Sc  Sc10  1  0.319278  0.999943  0.250919  1
  Sc  Sc11  1  0.681206  0.000375  0.749448  1
  Sc  Sc12  1  0.352526  0.156529  0.622459  1
  Sc  Sc13  1  0.648276  0.842831  0.377708  1
  Sc  Sc14  1  0.148089  0.656805  0.377962  1
  Sc  Sc15  1  0.648145  0.840953  0.124293  1
  Sc  Sc16  1  0.851616  0.343363  0.622706  1
  Sc  Sc17  1  0.351154  0.158975  0.875518  1
  Sc  Sc18  1  0.850082  0.340835  0.878287  1
  Sc  Sc19  1  0.150433  0.657392  0.121285  1
  Tl  Tl20  1  0.311006  0.954503  0.045727  1
  Tl  Tl21  1  0.044082  0.129146  0.750191  1
  Tl  Tl22  1  0.956207  0.870328  0.249570  1
  Tl  Tl23  1  0.455665  0.628736  0.251659  1
  Tl  Tl24  1  0.544224  0.371121  0.749803  1
  Tl  Tl25  1  0.313054  0.858123  0.750398  1
  Tl  Tl26  1  0.687486  0.141128  0.249511  1
  Tl  Tl27  1  0.186331  0.359987  0.249395  1
  Tl  Tl28  1  0.813943  0.640900  0.750531  1
  Sb  Sb29  1  0.192990  0.452071  0.546792  1
  Sb  Sb30  1  0.806815  0.547389  0.453545  1
  Sb  Sb31  1  0.307059  0.952171  0.453554  1
  Sb  Sb32  1  0.808706  0.548279  0.045867  1
  Sb  Sb33  1  0.693439  0.047780  0.546458  1
  Sb  Sb34  1  0.191800  0.452733  0.953084  1
  Sb  Sb35  1  0.686353  0.045698  0.955381  1
