# generated using pymatgen
data_CeZr3(B2O5)4
_symmetry_space_group_name_H-M   'P 1'
_cell_length_a   7.08176153
_cell_length_b   4.50676017
_cell_length_c   9.12879734
_cell_angle_alpha   88.73316391
_cell_angle_beta   89.79258076
_cell_angle_gamma   89.76814068
_symmetry_Int_Tables_number   1
_chemical_formula_structural   CeZr3(B2O5)4
_chemical_formula_sum   'Ce1 Zr3 B8 O20'
_cell_volume   291.27746165
_cell_formula_units_Z   1
loop_
 _symmetry_equiv_pos_site_id
 _symmetry_equiv_pos_as_xyz
  1  'x, y, z'
loop_
 _atom_site_type_symbol
 _atom_site_label
 _atom_site_symmetry_multiplicity
 _atom_site_fract_x
 _atom_site_fract_y
 _atom_site_fract_z
 _atom_site_occupancy
  Ce  Ce0  1  0.116047  0.001445  0.327281  1
  Zr  Zr1  1  0.613295  0.002828  0.167298  1
  Zr  Zr2  1  0.885710  0.996284  0.674717  1
  Zr  Zr3  1  0.387423  0.005303  0.828294  1
  B  B4  1  0.421070  0.468837  0.333711  1
  B  B5  1  0.730943  0.472358  0.920881  1
  B  B6  1  0.587652  0.536697  0.666338  1
  B  B7  1  0.270693  0.525593  0.074290  1
  B  B8  1  0.088492  0.465760  0.834463  1
  B  B9  1  0.232879  0.532076  0.581883  1
  B  B10  1  0.905221  0.527192  0.163252  1
  B  B11  1  0.764622  0.470070  0.424728  1
  O  O12  1  0.590655  0.219207  0.680345  1
  O  O13  1  0.358573  0.320751  0.190209  1
  O  O14  1  0.898513  0.333260  0.850080  1
  O  O15  1  0.283555  0.374110  0.447555  1
  O  O16  1  0.716363  0.653819  0.552351  1
  O  O17  1  0.599289  0.233677  0.963203  1
  O  O18  1  0.223558  0.348621  0.945355  1
  O  O19  1  0.089705  0.783108  0.823125  1
  O  O20  1  0.896926  0.236971  0.473742  1
  O  O21  1  0.158683  0.308268  0.694387  1
  O  O22  1  0.893527  0.209222  0.173650  1
  O  O23  1  0.839201  0.676653  0.304675  1
  O  O24  1  0.775789  0.649164  0.051165  1
  O  O25  1  0.424935  0.784258  0.316837  1
  O  O26  1  0.603482  0.322285  0.355419  1
  O  O27  1  0.098842  0.640969  0.146240  1
  O  O28  1  0.095215  0.765398  0.543717  1
  O  O29  1  0.657606  0.691398  0.805807  1
  O  O30  1  0.396565  0.670453  0.654126  1
  O  O31  1  0.394967  0.773967  0.030876  1
