# generated using pymatgen
data_YBi11S18
_symmetry_space_group_name_H-M   'P 1'
_cell_length_a   4.08423700
_cell_length_b   10.85132923
_cell_length_c   18.52551644
_cell_angle_alpha   81.06513834
_cell_angle_beta   90.00000000
_cell_angle_gamma   90.00000000
_symmetry_Int_Tables_number   1
_chemical_formula_structural   YBi11S18
_chemical_formula_sum   'Y1 Bi11 S18'
_cell_volume   811.07691287
_cell_formula_units_Z   1
loop_
 _symmetry_equiv_pos_site_id
 _symmetry_equiv_pos_as_xyz
  1  'x, y, z'
loop_
 _atom_site_type_symbol
 _atom_site_label
 _atom_site_symmetry_multiplicity
 _atom_site_fract_x
 _atom_site_fract_y
 _atom_site_fract_z
 _atom_site_occupancy
  Y  Y0  1  0.750000  0.551873  0.885277  1
  Bi  Bi1  1  0.250000  0.805694  0.035723  1
  Bi  Bi2  1  0.750000  0.182808  0.967070  1
  Bi  Bi3  1  0.250000  0.902610  0.415837  1
  Bi  Bi4  1  0.750000  0.096245  0.584604  1
  Bi  Bi5  1  0.250000  0.177136  0.776629  1
  Bi  Bi6  1  0.750000  0.831015  0.222579  1
  Bi  Bi7  1  0.250000  0.798596  0.733005  1
  Bi  Bi8  1  0.750000  0.203331  0.274577  1
  Bi  Bi9  1  0.250000  0.524966  0.406190  1
  Bi  Bi10  1  0.750000  0.475916  0.592754  1
  Bi  Bi11  1  0.250000  0.442403  0.099847  1
  S  S12  1  0.250000  0.934220  0.577693  1
  S  S13  1  0.750000  0.065679  0.425088  1
  S  S14  1  0.250000  0.718674  0.875333  1
  S  S15  1  0.750000  0.268320  0.123850  1
  S  S16  1  0.250000  0.391215  0.962622  1
  S  S17  1  0.750000  0.613368  0.027383  1
  S  S18  1  0.250000  0.363014  0.284629  1
  S  S19  1  0.750000  0.633803  0.726732  1
  S  S20  1  0.250000  0.995249  0.270029  1
  S  S21  1  0.750000  0.010537  0.733759  1
  S  S22  1  0.250000  0.284572  0.631296  1
  S  S23  1  0.750000  0.717535  0.367293  1
  S  S24  1  0.250000  0.047068  0.920622  1
  S  S25  1  0.750000  0.952981  0.076349  1
  S  S26  1  0.250000  0.688517  0.177448  1
  S  S27  1  0.750000  0.320587  0.825040  1
  S  S28  1  0.250000  0.627807  0.529993  1
  S  S29  1  0.750000  0.374261  0.470750  1
