# generated using pymatgen
data_Zr4Sc2TaTi3Al12Ru7
_symmetry_space_group_name_H-M   'P 1'
_cell_length_a   8.82731336
_cell_length_b   8.82731391
_cell_length_c   8.83783300
_cell_angle_alpha   60.03937733
_cell_angle_beta   60.03937527
_cell_angle_gamma   60.00000451
_symmetry_Int_Tables_number   1
_chemical_formula_structural   Zr4Sc2TaTi3Al12Ru7
_chemical_formula_sum   'Zr4 Sc2 Ta1 Ti3 Al12 Ru7'
_cell_volume   487.24360347
_cell_formula_units_Z   1
loop_
 _symmetry_equiv_pos_site_id
 _symmetry_equiv_pos_as_xyz
  1  'x, y, z'
loop_
 _atom_site_type_symbol
 _atom_site_label
 _atom_site_symmetry_multiplicity
 _atom_site_fract_x
 _atom_site_fract_y
 _atom_site_fract_z
 _atom_site_occupancy
  Zr  Zr0  1  0.705508  0.705508  0.288843  1
  Zr  Zr1  1  0.301565  0.702333  0.291967  1
  Zr  Zr2  1  0.702333  0.301565  0.291967  1
  Zr  Zr3  1  0.292774  0.292774  0.704611  1
  Sc  Sc4  1  0.707935  0.291258  0.705718  1
  Sc  Sc5  1  0.291258  0.707935  0.705718  1
  Ta  Ta6  1  0.879159  0.879159  0.360699  1
  Ti  Ti7  1  0.881344  0.358599  0.877657  1
  Ti  Ti8  1  0.358599  0.881344  0.877657  1
  Ti  Ti9  1  0.881150  0.881150  0.878965  1
  Al  Al10  1  0.120307  0.120307  0.639509  1
  Al  Al11  1  0.119829  0.640661  0.118973  1
  Al  Al12  1  0.640661  0.119829  0.118973  1
  Al  Al13  1  0.120325  0.120325  0.117565  1
  Al  Al14  1  0.665920  0.665920  0.003061  1
  Al  Al15  1  0.663216  0.006115  0.668112  1
  Al  Al16  1  0.006115  0.663216  0.668112  1
  Al  Al17  1  0.663295  0.663295  0.669649  1
  Al  Al18  1  0.334866  0.334866  0.997732  1
  Al  Al19  1  0.334364  0.996269  0.336598  1
  Al  Al20  1  0.996269  0.334364  0.336598  1
  Al  Al21  1  0.333812  0.333812  0.336849  1
  Ru  Ru22  1  0.000249  0.000249  0.998591  1
  Ru  Ru23  1  0.998541  0.998541  0.501050  1
  Ru  Ru24  1  0.502913  0.995947  0.502521  1
  Ru  Ru25  1  0.995947  0.502913  0.502521  1
  Ru  Ru26  1  0.500319  0.500319  0.999823  1
  Ru  Ru27  1  0.001040  0.500384  0.999976  1
  Ru  Ru28  1  0.500384  0.001040  0.999976  1
