# generated using pymatgen
data_TmLu3MoOs7
_symmetry_space_group_name_H-M   'P 1'
_cell_length_a   5.41500100
_cell_length_b   5.22884557
_cell_length_c   8.85061200
_cell_angle_alpha   89.99683829
_cell_angle_beta   90.00000000
_cell_angle_gamma   121.18484341
_symmetry_Int_Tables_number   1
_chemical_formula_structural   TmLu3MoOs7
_chemical_formula_sum   'Tm1 Lu3 Mo1 Os7'
_cell_volume   214.38693455
_cell_formula_units_Z   1
loop_
 _symmetry_equiv_pos_site_id
 _symmetry_equiv_pos_as_xyz
  1  'x, y, z'
loop_
 _atom_site_type_symbol
 _atom_site_label
 _atom_site_symmetry_multiplicity
 _atom_site_fract_x
 _atom_site_fract_y
 _atom_site_fract_z
 _atom_site_occupancy
  Tm  Tm0  1  0.333055  0.666112  0.433894  1
  Lu  Lu1  1  0.669710  0.339419  0.563404  1
  Lu  Lu2  1  0.669677  0.339354  0.936788  1
  Lu  Lu3  1  0.332849  0.665699  0.066051  1
  Mo  Mo4  1  0.167383  0.334767  0.750365  1
  Os  Os5  1  0.172706  0.826066  0.750343  1
  Os  Os6  1  0.341786  0.168074  0.249538  1
  Os  Os7  1  0.825710  0.651419  0.249571  1
  Os  Os8  1  0.653359  0.826066  0.750343  1
  Os  Os9  1  0.003819  0.007639  0.002135  1
  Os  Os10  1  0.826288  0.168074  0.249538  1
  Os  Os11  1  0.003655  0.007310  0.498031  1
