# generated using pymatgen
data_Li4BiRh8Pb3
_symmetry_space_group_name_H-M   'P 1'
_cell_length_a   4.50437202
_cell_length_b   6.31712718
_cell_length_c   8.97652871
_cell_angle_alpha   89.90584434
_cell_angle_beta   89.89652680
_cell_angle_gamma   89.84239474
_symmetry_Int_Tables_number   1
_chemical_formula_structural   Li4BiRh8Pb3
_chemical_formula_sum   'Li4 Bi1 Rh8 Pb3'
_cell_volume   255.42262435
_cell_formula_units_Z   1
loop_
 _symmetry_equiv_pos_site_id
 _symmetry_equiv_pos_as_xyz
  1  'x, y, z'
loop_
 _atom_site_type_symbol
 _atom_site_label
 _atom_site_symmetry_multiplicity
 _atom_site_fract_x
 _atom_site_fract_y
 _atom_site_fract_z
 _atom_site_occupancy
  Li  Li0  1  0.250073  0.749903  0.127733  1
  Li  Li1  1  0.749941  0.250231  0.375076  1
  Li  Li2  1  0.250000  0.749666  0.622433  1
  Li  Li3  1  0.750098  0.250190  0.874991  1
  Bi  Bi4  1  0.750087  0.749948  0.875023  1
  Rh  Rh5  1  0.750141  0.500631  0.123056  1
  Rh  Rh6  1  0.750121  0.999356  0.123044  1
  Rh  Rh7  1  0.249808  0.999071  0.375039  1
  Rh  Rh8  1  0.249815  0.500984  0.374938  1
  Rh  Rh9  1  0.750017  0.500659  0.626903  1
  Rh  Rh10  1  0.750026  0.999339  0.626999  1
  Rh  Rh11  1  0.250008  0.997668  0.874943  1
  Rh  Rh12  1  0.250046  0.502317  0.875087  1
  Pb  Pb13  1  0.250097  0.250145  0.125605  1
  Pb  Pb14  1  0.749459  0.750238  0.374939  1
  Pb  Pb15  1  0.250270  0.249652  0.624191  1
