# generated using pymatgen
data_Tm2V3Si7Pt9
_symmetry_space_group_name_H-M   'P 1'
_cell_length_a   9.86421900
_cell_length_b   9.86421854
_cell_length_c   3.90924900
_cell_angle_alpha   90.00000000
_cell_angle_beta   90.00000000
_cell_angle_gamma   119.99999819
_symmetry_Int_Tables_number   1
_chemical_formula_structural   Tm2V3Si7Pt9
_chemical_formula_sum   'Tm2 V3 Si7 Pt9'
_cell_volume   329.41954609
_cell_formula_units_Z   1
loop_
 _symmetry_equiv_pos_site_id
 _symmetry_equiv_pos_as_xyz
  1  'x, y, z'
loop_
 _atom_site_type_symbol
 _atom_site_label
 _atom_site_symmetry_multiplicity
 _atom_site_fract_x
 _atom_site_fract_y
 _atom_site_fract_z
 _atom_site_occupancy
  Tm  Tm0  1  0.000000  0.000000  0.000000  1
  Tm  Tm1  1  0.333333  0.666667  0.500000  1
  V  V2  1  0.879463  0.448792  0.500000  1
  V  V3  1  0.569329  0.120537  0.500000  1
  V  V4  1  0.551208  0.430671  0.500000  1
  Si  Si5  1  0.258833  0.214561  0.500000  1
  Si  Si6  1  0.785439  0.044274  0.500000  1
  Si  Si7  1  0.955726  0.741167  0.500000  1
  Si  Si8  1  0.553236  0.632461  0.000000  1
  Si  Si9  1  0.367539  0.920774  0.000000  1
  Si  Si10  1  0.079226  0.446764  0.000000  1
  Si  Si11  1  0.666667  0.333333  0.000000  1
  Pt  Pt12  1  0.222490  0.946103  0.500000  1
  Pt  Pt13  1  0.053897  0.276388  0.500000  1
  Pt  Pt14  1  0.723612  0.777510  0.500000  1
  Pt  Pt15  1  0.304833  0.409557  0.000000  1
  Pt  Pt16  1  0.590443  0.895275  0.000000  1
  Pt  Pt17  1  0.104725  0.695167  0.000000  1
  Pt  Pt18  1  0.391050  0.177694  0.000000  1
  Pt  Pt19  1  0.822306  0.213355  0.000000  1
  Pt  Pt20  1  0.786645  0.608950  0.000000  1
