# generated using pymatgen
data_Tb8Zr12Si15Sb
_symmetry_space_group_name_H-M   'P 1'
_cell_length_a   7.17519738
_cell_length_b   7.33491234
_cell_length_c   14.02432500
_cell_angle_alpha   90.14013628
_cell_angle_beta   89.27062309
_cell_angle_gamma   90.05695901
_symmetry_Int_Tables_number   1
_chemical_formula_structural   Tb8Zr12Si15Sb
_chemical_formula_sum   'Tb8 Zr12 Si15 Sb1'
_cell_volume   738.03006986
_cell_formula_units_Z   1
loop_
 _symmetry_equiv_pos_site_id
 _symmetry_equiv_pos_as_xyz
  1  'x, y, z'
loop_
 _atom_site_type_symbol
 _atom_site_label
 _atom_site_symmetry_multiplicity
 _atom_site_fract_x
 _atom_site_fract_y
 _atom_site_fract_z
 _atom_site_occupancy
  Tb  Tb0  1  0.013505  0.177261  0.096538  1
  Tb  Tb1  1  0.985891  0.824077  0.904078  1
  Tb  Tb2  1  0.486440  0.676233  0.904085  1
  Tb  Tb3  1  0.988761  0.828663  0.598836  1
  Tb  Tb4  1  0.513184  0.323464  0.097224  1
  Tb  Tb5  1  0.005420  0.171824  0.400038  1
  Tb  Tb6  1  0.511078  0.321136  0.400091  1
  Tb  Tb7  1  0.503302  0.682993  0.600978  1
  Zr  Zr8  1  0.159347  0.495948  0.754509  1
  Zr  Zr9  1  0.840337  0.502420  0.250024  1
  Zr  Zr10  1  0.339740  0.999170  0.249309  1
  Zr  Zr11  1  0.661020  0.000282  0.751885  1
  Zr  Zr12  1  0.342354  0.163443  0.629963  1
  Zr  Zr13  1  0.665400  0.824749  0.372823  1
  Zr  Zr14  1  0.161436  0.684343  0.369800  1
  Zr  Zr15  1  0.668496  0.823073  0.123789  1
  Zr  Zr16  1  0.825783  0.322582  0.625639  1
  Zr  Zr17  1  0.329366  0.176742  0.876180  1
  Zr  Zr18  1  0.829913  0.322910  0.876218  1
  Zr  Zr19  1  0.170415  0.676920  0.124474  1
  Si  Si20  1  0.035600  0.118965  0.750434  1
  Si  Si21  1  0.961746  0.884412  0.246813  1
  Si  Si22  1  0.463256  0.617967  0.248630  1
  Si  Si23  1  0.535958  0.381893  0.751978  1
  Si  Si24  1  0.286298  0.869881  0.752114  1
  Si  Si25  1  0.713011  0.126609  0.248026  1
  Si  Si26  1  0.213143  0.374335  0.249314  1
  Si  Si27  1  0.789357  0.625970  0.751231  1
  Si  Si28  1  0.824409  0.536116  0.457618  1
  Si  Si29  1  0.339879  0.965962  0.459796  1
  Si  Si30  1  0.845283  0.531871  0.041011  1
  Si  Si31  1  0.662297  0.035191  0.537797  1
  Si  Si32  1  0.154209  0.468438  0.960141  1
  Si  Si33  1  0.653399  0.032084  0.959318  1
  Si  Si34  1  0.345214  0.968219  0.040916  1
  Sb  Sb35  1  0.175752  0.463857  0.538377  1
