# generated using pymatgen
data_YErU2(FeB4)4
_symmetry_space_group_name_H-M   'P 1'
_cell_length_a   3.36623600
_cell_length_b   5.87642407
_cell_length_c   11.36562525
_cell_angle_alpha   90.02065702
_cell_angle_beta   90.00000000
_cell_angle_gamma   90.00000000
_symmetry_Int_Tables_number   1
_chemical_formula_structural   YErU2(FeB4)4
_chemical_formula_sum   'Y1 Er1 U2 Fe4 B16'
_cell_volume   224.82830846
_cell_formula_units_Z   1
loop_
 _symmetry_equiv_pos_site_id
 _symmetry_equiv_pos_as_xyz
  1  'x, y, z'
loop_
 _atom_site_type_symbol
 _atom_site_label
 _atom_site_symmetry_multiplicity
 _atom_site_fract_x
 _atom_site_fract_y
 _atom_site_fract_z
 _atom_site_occupancy
  Y  Y0  1  0.000000  0.373274  0.648652  1
  Er  Er1  1  0.000000  0.626780  0.351181  1
  U  U2  1  0.000000  0.126611  0.151122  1
  U  U3  1  0.000000  0.873486  0.849280  1
  Fe  Fe4  1  0.000000  0.634500  0.089726  1
  Fe  Fe5  1  0.000000  0.365407  0.911259  1
  Fe  Fe6  1  0.000000  0.132607  0.408065  1
  Fe  Fe7  1  0.000000  0.867164  0.590784  1
  B  B8  1  0.500000  0.783481  0.185297  1
  B  B9  1  0.500000  0.216350  0.815501  1
  B  B10  1  0.500000  0.282783  0.314732  1
  B  B11  1  0.500000  0.718447  0.685029  1
  B  B12  1  0.500000  0.864150  0.034202  1
  B  B13  1  0.500000  0.135908  0.966455  1
  B  B14  1  0.500000  0.360807  0.466986  1
  B  B15  1  0.500000  0.639377  0.531649  1
  B  B16  1  0.500000  0.887121  0.454089  1
  B  B17  1  0.500000  0.111741  0.544727  1
  B  B18  1  0.500000  0.387299  0.046498  1
  B  B19  1  0.500000  0.612887  0.954230  1
  B  B20  1  0.500000  0.975003  0.309452  1
  B  B21  1  0.500000  0.024259  0.690178  1
  B  B22  1  0.500000  0.476018  0.191089  1
  B  B23  1  0.500000  0.524541  0.809816  1
