# generated using pymatgen
data_Sr(TiSe2)8
_symmetry_space_group_name_H-M   'P 1'
_cell_length_a   7.08291700
_cell_length_b   7.08291620
_cell_length_c   14.94653400
_cell_angle_alpha   90.00000000
_cell_angle_beta   90.00000000
_cell_angle_gamma   119.99998971
_symmetry_Int_Tables_number   1
_chemical_formula_structural   Sr(TiSe2)8
_chemical_formula_sum   'Sr1 Ti8 Se16'
_cell_volume   649.37479446
_cell_formula_units_Z   1
loop_
 _symmetry_equiv_pos_site_id
 _symmetry_equiv_pos_as_xyz
  1  'x, y, z'
loop_
 _atom_site_type_symbol
 _atom_site_label
 _atom_site_symmetry_multiplicity
 _atom_site_fract_x
 _atom_site_fract_y
 _atom_site_fract_z
 _atom_site_occupancy
  Sr  Sr0  1  0.000000  0.000000  0.000000  1
  Ti  Ti1  1  0.502210  0.497790  0.739760  1
  Ti  Ti2  1  0.497790  0.502210  0.260240  1
  Ti  Ti3  1  0.502210  0.004419  0.739760  1
  Ti  Ti4  1  0.497790  0.995581  0.260240  1
  Ti  Ti5  1  0.995581  0.497790  0.739760  1
  Ti  Ti6  1  0.004419  0.502210  0.260240  1
  Ti  Ti7  1  0.000000  0.000000  0.739186  1
  Ti  Ti8  1  0.000000  0.000000  0.260814  1
  Se  Se9  1  0.831557  0.663115  0.154404  1
  Se  Se10  1  0.833370  0.666741  0.636208  1
  Se  Se11  1  0.831557  0.168443  0.154404  1
  Se  Se12  1  0.833370  0.166630  0.636208  1
  Se  Se13  1  0.333333  0.666667  0.153865  1
  Se  Se14  1  0.333333  0.666667  0.638555  1
  Se  Se15  1  0.336885  0.168443  0.154404  1
  Se  Se16  1  0.333259  0.166630  0.636208  1
  Se  Se17  1  0.663115  0.831557  0.845596  1
  Se  Se18  1  0.666741  0.833370  0.363792  1
  Se  Se19  1  0.666667  0.333333  0.846135  1
  Se  Se20  1  0.666667  0.333333  0.361445  1
  Se  Se21  1  0.168443  0.831557  0.845596  1
  Se  Se22  1  0.166630  0.833370  0.363792  1
  Se  Se23  1  0.168443  0.336885  0.845596  1
  Se  Se24  1  0.166630  0.333259  0.363792  1
