# generated using pymatgen
data_Dy3CoSn6
_symmetry_space_group_name_H-M   'P 1'
_cell_length_a   8.49219919
_cell_length_b   8.49219937
_cell_length_c   13.16036000
_cell_angle_alpha   90.00000000
_cell_angle_beta   90.00000000
_cell_angle_gamma   148.78650314
_symmetry_Int_Tables_number   1
_chemical_formula_structural   Dy3CoSn6
_chemical_formula_sum   'Dy6 Co2 Sn12'
_cell_volume   491.84629792
_cell_formula_units_Z   2
loop_
 _symmetry_equiv_pos_site_id
 _symmetry_equiv_pos_as_xyz
  1  'x, y, z'
loop_
 _atom_site_type_symbol
 _atom_site_label
 _atom_site_symmetry_multiplicity
 _atom_site_fract_x
 _atom_site_fract_y
 _atom_site_fract_z
 _atom_site_occupancy
  Dy  Dy0  1  0.899525  0.100475  0.093388  1
  Dy  Dy1  1  0.100475  0.899525  0.593388  1
  Dy  Dy2  1  0.900446  0.099554  0.750000  1
  Dy  Dy3  1  0.100475  0.899525  0.906612  1
  Dy  Dy4  1  0.099554  0.900446  0.250000  1
  Dy  Dy5  1  0.899525  0.100475  0.406612  1
  Co  Co6  1  0.298471  0.701529  0.250000  1
  Co  Co7  1  0.701529  0.298471  0.750000  1
  Sn  Sn8  1  0.754974  0.245026  0.571065  1
  Sn  Sn9  1  0.427667  0.572333  0.576136  1
  Sn  Sn10  1  0.572333  0.427667  0.423864  1
  Sn  Sn11  1  0.733454  0.266546  0.250000  1
  Sn  Sn12  1  0.266546  0.733454  0.750000  1
  Sn  Sn13  1  0.245026  0.754974  0.071065  1
  Sn  Sn14  1  0.245026  0.754974  0.428935  1
  Sn  Sn15  1  0.572333  0.427667  0.076136  1
  Sn  Sn16  1  0.452957  0.547043  0.250000  1
  Sn  Sn17  1  0.547043  0.452957  0.750000  1
  Sn  Sn18  1  0.754974  0.245026  0.928935  1
  Sn  Sn19  1  0.427667  0.572333  0.923864  1
