# generated using pymatgen
data_Na3LiH6Os
_symmetry_space_group_name_H-M   'P 1'
_cell_length_a   6.28918711
_cell_length_b   6.28918747
_cell_length_c   6.28918784
_cell_angle_alpha   93.05264058
_cell_angle_beta   93.05263809
_cell_angle_gamma   93.05263050
_symmetry_Int_Tables_number   1
_chemical_formula_structural   Na3LiH6Os
_chemical_formula_sum   'Na6 Li2 H12 Os2'
_cell_volume   247.66356559
_cell_formula_units_Z   2
loop_
 _symmetry_equiv_pos_site_id
 _symmetry_equiv_pos_as_xyz
  1  'x, y, z'
loop_
 _atom_site_type_symbol
 _atom_site_label
 _atom_site_symmetry_multiplicity
 _atom_site_fract_x
 _atom_site_fract_y
 _atom_site_fract_z
 _atom_site_occupancy
  Na  Na0  1  0.877528  0.622472  0.250000  1
  Na  Na1  1  0.250000  0.877528  0.622472  1
  Na  Na2  1  0.622472  0.250000  0.877528  1
  Na  Na3  1  0.750000  0.122472  0.377528  1
  Na  Na4  1  0.377528  0.750000  0.122472  1
  Na  Na5  1  0.122472  0.377528  0.750000  1
  Li  Li6  1  0.250000  0.250000  0.250000  1
  Li  Li7  1  0.750000  0.750000  0.750000  1
  H  H8  1  0.233184  0.534418  0.428093  1
  H  H9  1  0.428093  0.233184  0.534418  1
  H  H10  1  0.534418  0.428093  0.233184  1
  H  H11  1  0.928093  0.034418  0.733184  1
  H  H12  1  0.733184  0.928093  0.034418  1
  H  H13  1  0.034418  0.733184  0.928093  1
  H  H14  1  0.766816  0.465582  0.571907  1
  H  H15  1  0.571907  0.766816  0.465582  1
  H  H16  1  0.465582  0.571907  0.766816  1
  H  H17  1  0.071907  0.965582  0.266816  1
  H  H18  1  0.266816  0.071907  0.965582  1
  H  H19  1  0.965582  0.266816  0.071907  1
  Os  Os20  1  0.500000  0.500000  0.500000  1
  Os  Os21  1  0.000000  0.000000  0.000000  1
