# generated using pymatgen
data_Dy3HoSe3N2
_symmetry_space_group_name_H-M   'P 1'
_cell_length_a   6.95315082
_cell_length_b   6.95315053
_cell_length_c   10.29693900
_cell_angle_alpha   52.26181619
_cell_angle_beta   52.26180762
_cell_angle_gamma   32.85117172
_symmetry_Int_Tables_number   1
_chemical_formula_structural   Dy3HoSe3N2
_chemical_formula_sum   'Dy3 Ho1 Se3 N2'
_cell_volume   207.92384736
_cell_formula_units_Z   1
loop_
 _symmetry_equiv_pos_site_id
 _symmetry_equiv_pos_as_xyz
  1  'x, y, z'
loop_
 _atom_site_type_symbol
 _atom_site_label
 _atom_site_symmetry_multiplicity
 _atom_site_fract_x
 _atom_site_fract_y
 _atom_site_fract_z
 _atom_site_occupancy
  Dy  Dy0  1  0.241629  0.241629  0.640842  1
  Dy  Dy1  1  0.757947  0.757948  0.359629  1
  Dy  Dy2  1  0.558461  0.558461  0.151471  1
  Ho  Ho3  1  0.442002  0.442002  0.848002  1
  Se  Se4  1  0.999716  0.999716  0.999755  1
  Se  Se5  1  0.833005  0.833005  0.773675  1
  Se  Se6  1  0.167705  0.167705  0.226237  1
  N  N7  1  0.352311  0.352311  0.362619  1
  N  N8  1  0.647222  0.647222  0.637771  1
