# generated using pymatgen
data_PrTh(ReN3)2
_symmetry_space_group_name_H-M   'P 1'
_cell_length_a   5.58223700
_cell_length_b   5.66367100
_cell_length_c   7.94463600
_cell_angle_alpha   90.00000000
_cell_angle_beta   90.00000000
_cell_angle_gamma   90.00000000
_symmetry_Int_Tables_number   1
_chemical_formula_structural   PrTh(ReN3)2
_chemical_formula_sum   'Pr2 Th2 Re4 N12'
_cell_volume   251.17724483
_cell_formula_units_Z   2
loop_
 _symmetry_equiv_pos_site_id
 _symmetry_equiv_pos_as_xyz
  1  'x, y, z'
loop_
 _atom_site_type_symbol
 _atom_site_label
 _atom_site_symmetry_multiplicity
 _atom_site_fract_x
 _atom_site_fract_y
 _atom_site_fract_z
 _atom_site_occupancy
  Pr  Pr0  1  0.499429  0.539867  0.250000  1
  Pr  Pr1  1  0.000571  0.039867  0.250000  1
  Th  Th2  1  0.488634  0.458245  0.750000  1
  Th  Th3  1  0.011366  0.958245  0.750000  1
  Re  Re4  1  0.991290  0.503445  0.005363  1
  Re  Re5  1  0.508710  0.003445  0.494637  1
  Re  Re6  1  0.991290  0.503445  0.494637  1
  Re  Re7  1  0.508710  0.003445  0.005363  1
  N  N8  1  0.446943  0.995541  0.250000  1
  N  N9  1  0.053057  0.495541  0.250000  1
  N  N10  1  0.569722  0.016663  0.750000  1
  N  N11  1  0.930278  0.516663  0.750000  1
  N  N12  1  0.787450  0.785090  0.028142  1
  N  N13  1  0.712550  0.285090  0.471858  1
  N  N14  1  0.208366  0.206307  0.540162  1
  N  N15  1  0.291634  0.706307  0.959838  1
  N  N16  1  0.208366  0.206307  0.959838  1
  N  N17  1  0.291634  0.706307  0.540162  1
  N  N18  1  0.787450  0.785090  0.471858  1
  N  N19  1  0.712550  0.285090  0.028142  1
