# generated using pymatgen
data_Cs4V2PdSe8
_symmetry_space_group_name_H-M   'P 1'
_cell_length_a   14.04849700
_cell_length_b   7.74597641
_cell_length_c   10.19524024
_cell_angle_alpha   84.62470585
_cell_angle_beta   90.00000000
_cell_angle_gamma   90.00000000
_symmetry_Int_Tables_number   1
_chemical_formula_structural   Cs4V2PdSe8
_chemical_formula_sum   'Cs8 V4 Pd2 Se16'
_cell_volume   1104.56036331
_cell_formula_units_Z   2
loop_
 _symmetry_equiv_pos_site_id
 _symmetry_equiv_pos_as_xyz
  1  'x, y, z'
loop_
 _atom_site_type_symbol
 _atom_site_label
 _atom_site_symmetry_multiplicity
 _atom_site_fract_x
 _atom_site_fract_y
 _atom_site_fract_z
 _atom_site_occupancy
  Cs  Cs0  1  0.134579  0.812007  0.684098  1
  Cs  Cs1  1  0.634579  0.187993  0.815902  1
  Cs  Cs2  1  0.865421  0.187993  0.315902  1
  Cs  Cs3  1  0.365421  0.812007  0.184098  1
  Cs  Cs4  1  0.351281  0.268713  0.542352  1
  Cs  Cs5  1  0.851281  0.731287  0.957648  1
  Cs  Cs6  1  0.648719  0.731287  0.457648  1
  Cs  Cs7  1  0.148719  0.268713  0.042352  1
  V  V8  1  0.427005  0.744558  0.774382  1
  V  V9  1  0.927005  0.255442  0.725618  1
  V  V10  1  0.572995  0.255442  0.225618  1
  V  V11  1  0.072995  0.744558  0.274382  1
  Pd  Pd12  1  0.000000  0.500000  0.500000  1
  Pd  Pd13  1  0.500000  0.500000  0.000000  1
  Se  Se14  1  0.086382  0.302836  0.669252  1
  Se  Se15  1  0.586382  0.697164  0.830748  1
  Se  Se16  1  0.913618  0.697164  0.330748  1
  Se  Se17  1  0.413618  0.302836  0.169252  1
  Se  Se18  1  0.401547  0.749006  0.554850  1
  Se  Se19  1  0.901547  0.250994  0.945150  1
  Se  Se20  1  0.598453  0.250994  0.445150  1
  Se  Se21  1  0.098453  0.749006  0.054850  1
  Se  Se22  1  0.155686  0.515138  0.382856  1
  Se  Se23  1  0.655686  0.484862  0.117144  1
  Se  Se24  1  0.844314  0.484862  0.617144  1
  Se  Se25  1  0.344314  0.515138  0.882856  1
  Se  Se26  1  0.374226  0.996947  0.843238  1
  Se  Se27  1  0.874226  0.003053  0.656762  1
  Se  Se28  1  0.625774  0.003053  0.156762  1
  Se  Se29  1  0.125774  0.996947  0.343238  1
