# generated using pymatgen
data_Na3V2BiO8
_symmetry_space_group_name_H-M   'P 1'
_cell_length_a   5.61824516
_cell_length_b   5.61824558
_cell_length_c   7.20821229
_cell_angle_alpha   89.81742414
_cell_angle_beta   89.81742250
_cell_angle_gamma   65.32341454
_symmetry_Int_Tables_number   1
_chemical_formula_structural   Na3V2BiO8
_chemical_formula_sum   'Na3 V2 Bi1 O8'
_cell_volume   206.74560730
_cell_formula_units_Z   1
loop_
 _symmetry_equiv_pos_site_id
 _symmetry_equiv_pos_as_xyz
  1  'x, y, z'
loop_
 _atom_site_type_symbol
 _atom_site_label
 _atom_site_symmetry_multiplicity
 _atom_site_fract_x
 _atom_site_fract_y
 _atom_site_fract_z
 _atom_site_occupancy
  Na  Na0  1  0.675490  0.675490  0.209761  1
  Na  Na1  1  0.000000  0.000000  0.000000  1
  Na  Na2  1  0.324511  0.324510  0.790239  1
  V  V3  1  0.648630  0.648630  0.726261  1
  V  V4  1  0.351370  0.351370  0.273739  1
  Bi  Bi5  1  0.000000  0.000000  0.500000  1
  O  O6  1  0.239886  0.239886  0.090208  1
  O  O7  1  0.250776  0.250776  0.477191  1
  O  O8  1  0.301366  0.772461  0.738102  1
  O  O9  1  0.772461  0.301366  0.738102  1
  O  O10  1  0.227539  0.698634  0.261898  1
  O  O11  1  0.698634  0.227539  0.261898  1
  O  O12  1  0.749224  0.749224  0.522809  1
  O  O13  1  0.760114  0.760114  0.909792  1
