# generated using pymatgen
data_Tb5YH18
_symmetry_space_group_name_H-M   'P 1'
_cell_length_a   6.37578901
_cell_length_b   6.37626026
_cell_length_c   6.60583401
_cell_angle_alpha   90.00693337
_cell_angle_beta   89.99653977
_cell_angle_gamma   120.00243272
_symmetry_Int_Tables_number   1
_chemical_formula_structural   Tb5YH18
_chemical_formula_sum   'Tb5 Y1 H18'
_cell_volume   232.56674275
_cell_formula_units_Z   1
loop_
 _symmetry_equiv_pos_site_id
 _symmetry_equiv_pos_as_xyz
  1  'x, y, z'
loop_
 _atom_site_type_symbol
 _atom_site_label
 _atom_site_symmetry_multiplicity
 _atom_site_fract_x
 _atom_site_fract_y
 _atom_site_fract_z
 _atom_site_occupancy
  Tb  Tb0  1  0.669649  0.669579  0.750073  1
  Tb  Tb1  1  0.330351  0.999931  0.750073  1
  Tb  Tb2  1  0.000000  0.330474  0.750119  1
  Tb  Tb3  1  0.330362  0.330372  0.250086  1
  Tb  Tb4  1  0.669638  0.000009  0.250086  1
  Y  Y5  1  0.000000  0.669629  0.249987  1
  H  H6  1  0.305458  0.305455  0.591622  1
  H  H7  1  0.694542  0.999997  0.591622  1
  H  H8  1  0.000000  0.694470  0.591366  1
  H  H9  1  0.694646  0.694573  0.091741  1
  H  H10  1  0.305354  0.999927  0.091741  1
  H  H11  1  0.000000  0.305328  0.091589  1
  H  H12  1  0.356821  0.356821  0.907820  1
  H  H13  1  0.643179  0.000001  0.907820  1
  H  H14  1  0.000000  0.643229  0.908074  1
  H  H15  1  0.643164  0.643172  0.407802  1
  H  H16  1  0.356836  0.000008  0.407802  1
  H  H17  1  0.000000  0.356975  0.407643  1
  H  H18  1  0.000000  0.000018  0.819809  1
  H  H19  1  0.000000  0.999617  0.319751  1
  H  H20  1  0.333351  0.666667  0.704816  1
  H  H21  1  0.666649  0.333315  0.704816  1
  H  H22  1  0.667119  0.333775  0.204879  1
  H  H23  1  0.332881  0.666657  0.204879  1
