# generated using pymatgen
data_Dy3Er2Cr3(P3Ir4)4
_symmetry_space_group_name_H-M   'P 1'
_cell_length_a   12.62514800
_cell_length_b   12.62514809
_cell_length_c   3.95409300
_cell_angle_alpha   90.00000000
_cell_angle_beta   90.00000000
_cell_angle_gamma   119.99999976
_symmetry_Int_Tables_number   1
_chemical_formula_structural   Dy3Er2Cr3(P3Ir4)4
_chemical_formula_sum   'Dy3 Er2 Cr3 P12 Ir16'
_cell_volume   545.82128980
_cell_formula_units_Z   1
loop_
 _symmetry_equiv_pos_site_id
 _symmetry_equiv_pos_as_xyz
  1  'x, y, z'
loop_
 _atom_site_type_symbol
 _atom_site_label
 _atom_site_symmetry_multiplicity
 _atom_site_fract_x
 _atom_site_fract_y
 _atom_site_fract_z
 _atom_site_occupancy
  Dy  Dy0  1  0.000000  0.810641  0.000000  1
  Dy  Dy1  1  0.189359  0.189359  0.000000  1
  Dy  Dy2  1  0.810641  0.000000  0.000000  1
  Er  Er3  1  0.333333  0.666667  0.500000  1
  Er  Er4  1  0.666667  0.333333  0.500000  1
  Cr  Cr5  1  0.000000  0.453458  0.500000  1
  Cr  Cr6  1  0.546542  0.546542  0.500000  1
  Cr  Cr7  1  0.453458  0.000000  0.500000  1
  P  P8  1  0.000000  0.632381  0.500000  1
  P  P9  1  0.367619  0.367619  0.500000  1
  P  P10  1  0.632381  0.000000  0.500000  1
  P  P11  1  0.516044  0.684217  0.000000  1
  P  P12  1  0.315783  0.831828  0.000000  1
  P  P13  1  0.168172  0.483956  0.000000  1
  P  P14  1  0.483956  0.168172  0.000000  1
  P  P15  1  0.684217  0.516044  0.000000  1
  P  P16  1  0.831828  0.315783  0.000000  1
  P  P17  1  0.000000  0.177670  0.500000  1
  P  P18  1  0.822330  0.822330  0.500000  1
  P  P19  1  0.177670  0.000000  0.500000  1
  Ir  Ir20  1  0.509139  0.868231  0.000000  1
  Ir  Ir21  1  0.131769  0.640909  0.000000  1
  Ir  Ir22  1  0.359091  0.490861  0.000000  1
  Ir  Ir23  1  0.490861  0.359091  0.000000  1
  Ir  Ir24  1  0.868231  0.509139  0.000000  1
  Ir  Ir25  1  0.640909  0.131769  0.000000  1
  Ir  Ir26  1  0.000000  0.287211  0.000000  1
  Ir  Ir27  1  0.712789  0.712789  0.000000  1
  Ir  Ir28  1  0.287211  0.000000  0.000000  1
  Ir  Ir29  1  0.623625  0.802693  0.500000  1
  Ir  Ir30  1  0.197307  0.820933  0.500000  1
  Ir  Ir31  1  0.179067  0.376375  0.500000  1
  Ir  Ir32  1  0.376375  0.179067  0.500000  1
  Ir  Ir33  1  0.802693  0.623625  0.500000  1
  Ir  Ir34  1  0.820933  0.197307  0.500000  1
  Ir  Ir35  1  0.000000  0.000000  0.500000  1
