# generated using pymatgen
data_Ta7Ti5B12Os11Ru
_symmetry_space_group_name_H-M   'P 1'
_cell_length_a   3.10005400
_cell_length_b   9.01047654
_cell_length_c   15.59841853
_cell_angle_alpha   89.95741446
_cell_angle_beta   90.00000000
_cell_angle_gamma   90.00000000
_symmetry_Int_Tables_number   1
_chemical_formula_structural   Ta7Ti5B12Os11Ru
_chemical_formula_sum   'Ta7 Ti5 B12 Os11 Ru1'
_cell_volume   435.70994051
_cell_formula_units_Z   1
loop_
 _symmetry_equiv_pos_site_id
 _symmetry_equiv_pos_as_xyz
  1  'x, y, z'
loop_
 _atom_site_type_symbol
 _atom_site_label
 _atom_site_symmetry_multiplicity
 _atom_site_fract_x
 _atom_site_fract_y
 _atom_site_fract_z
 _atom_site_occupancy
  Ta  Ta0  1  0.000000  0.483328  0.408065  1
  Ta  Ta1  1  0.000000  0.016651  0.906611  1
  Ta  Ta2  1  0.000000  0.982479  0.094066  1
  Ta  Ta3  1  0.000000  0.687170  0.204140  1
  Ta  Ta4  1  0.000000  0.314705  0.794859  1
  Ta  Ta5  1  0.000000  0.186378  0.296862  1
  Ta  Ta6  1  0.000000  0.814081  0.702828  1
  Ti  Ti7  1  0.000000  0.799447  0.495626  1
  Ti  Ti8  1  0.000000  0.199630  0.505577  1
  Ti  Ti9  1  0.000000  0.302057  0.004994  1
  Ti  Ti10  1  0.000000  0.697769  0.994069  1
  Ti  Ti11  1  0.000000  0.515464  0.594098  1
  B  B12  1  0.500000  0.606024  0.497740  1
  B  B13  1  0.500000  0.393962  0.506631  1
  B  B14  1  0.500000  0.108550  0.004927  1
  B  B15  1  0.500000  0.890192  0.995656  1
  B  B16  1  0.000000  0.606145  0.833404  1
  B  B17  1  0.000000  0.393246  0.163909  1
  B  B18  1  0.000000  0.110716  0.662812  1
  B  B19  1  0.000000  0.892635  0.336777  1
  B  B20  1  0.500000  0.711676  0.597988  1
  B  B21  1  0.500000  0.284242  0.403360  1
  B  B22  1  0.500000  0.217136  0.902483  1
  B  B23  1  0.500000  0.781298  0.096858  1
  Os  Os24  1  0.500000  0.719865  0.358481  1
  Os  Os25  1  0.500000  0.283287  0.640832  1
  Os  Os26  1  0.500000  0.218646  0.142296  1
  Os  Os27  1  0.500000  0.780932  0.857479  1
  Os  Os28  1  0.500000  0.519632  0.093000  1
  Os  Os29  1  0.500000  0.479789  0.905843  1
  Os  Os30  1  0.500000  0.021136  0.406782  1
  Os  Os31  1  0.500000  0.979211  0.592658  1
  Os  Os32  1  0.500000  0.565683  0.731267  1
  Os  Os33  1  0.500000  0.435398  0.266810  1
  Os  Os34  1  0.500000  0.064808  0.765625  1
  Ru  Ru35  1  0.500000  0.936630  0.234586  1
