# generated using pymatgen
data_Tb4TaTc3B16
_symmetry_space_group_name_H-M   'P 1'
_cell_length_a   6.02333700
_cell_length_b   11.65251122
_cell_length_c   3.62095300
_cell_angle_alpha   90.00000000
_cell_angle_beta   90.00000000
_cell_angle_gamma   89.94053321
_symmetry_Int_Tables_number   1
_chemical_formula_structural   Tb4TaTc3B16
_chemical_formula_sum   'Tb4 Ta1 Tc3 B16'
_cell_volume   254.14369839
_cell_formula_units_Z   1
loop_
 _symmetry_equiv_pos_site_id
 _symmetry_equiv_pos_as_xyz
  1  'x, y, z'
loop_
 _atom_site_type_symbol
 _atom_site_label
 _atom_site_symmetry_multiplicity
 _atom_site_fract_x
 _atom_site_fract_y
 _atom_site_fract_z
 _atom_site_occupancy
  Tb  Tb0  1  0.624614  0.347126  0.000000  1
  Tb  Tb1  1  0.372091  0.651874  0.000000  1
  Tb  Tb2  1  0.127999  0.149723  0.000000  1
  Tb  Tb3  1  0.872584  0.852360  0.000000  1
  Ta  Ta4  1  0.869111  0.584918  0.000000  1
  Tc  Tc5  1  0.634254  0.087463  0.000000  1
  Tc  Tc6  1  0.365991  0.915534  0.000000  1
  Tc  Tc7  1  0.129666  0.412645  0.000000  1
  B  B8  1  0.785051  0.184689  0.500000  1
  B  B9  1  0.216526  0.816673  0.500000  1
  B  B10  1  0.286258  0.314354  0.500000  1
  B  B11  1  0.707523  0.689242  0.500000  1
  B  B12  1  0.863411  0.031562  0.500000  1
  B  B13  1  0.137012  0.969296  0.500000  1
  B  B14  1  0.364106  0.465599  0.500000  1
  B  B15  1  0.630296  0.529913  0.500000  1
  B  B16  1  0.889431  0.449726  0.500000  1
  B  B17  1  0.118430  0.544231  0.500000  1
  B  B18  1  0.387974  0.047311  0.500000  1
  B  B19  1  0.612722  0.953782  0.500000  1
  B  B20  1  0.977968  0.306318  0.500000  1
  B  B21  1  0.028649  0.694696  0.500000  1
  B  B22  1  0.476284  0.191186  0.500000  1
  B  B23  1  0.522050  0.809775  0.500000  1
