# generated using pymatgen
data_Lu20CoGeBi10
_symmetry_space_group_name_H-M   'P 1'
_cell_length_a   8.01386823
_cell_length_b   9.33458200
_cell_length_c   11.90335200
_cell_angle_alpha   90.00000000
_cell_angle_beta   90.03170838
_cell_angle_gamma   90.00000000
_symmetry_Int_Tables_number   1
_chemical_formula_structural   Lu20CoGeBi10
_chemical_formula_sum   'Lu20 Co1 Ge1 Bi10'
_cell_volume   890.44332396
_cell_formula_units_Z   1
loop_
 _symmetry_equiv_pos_site_id
 _symmetry_equiv_pos_as_xyz
  1  'x, y, z'
loop_
 _atom_site_type_symbol
 _atom_site_label
 _atom_site_symmetry_multiplicity
 _atom_site_fract_x
 _atom_site_fract_y
 _atom_site_fract_z
 _atom_site_occupancy
  Lu  Lu0  1  0.186706  0.045720  0.934986  1
  Lu  Lu1  1  0.319203  0.018472  0.438376  1
  Lu  Lu2  1  0.319203  0.481528  0.438376  1
  Lu  Lu3  1  0.347311  0.750000  0.695526  1
  Lu  Lu4  1  0.459498  0.750000  0.001977  1
  Lu  Lu5  1  0.161187  0.250000  0.219386  1
  Lu  Lu6  1  0.812961  0.927815  0.063951  1
  Lu  Lu7  1  0.617955  0.750000  0.303576  1
  Lu  Lu8  1  0.050936  0.750000  0.501947  1
  Lu  Lu9  1  0.674177  0.922882  0.560885  1
  Lu  Lu10  1  0.186706  0.454280  0.934986  1
  Lu  Lu11  1  0.341752  0.250000  0.718824  1
  Lu  Lu12  1  0.171446  0.750000  0.218950  1
  Lu  Lu13  1  0.990158  0.250000  0.492820  1
  Lu  Lu14  1  0.674177  0.577118  0.560885  1
  Lu  Lu15  1  0.684347  0.250000  0.270254  1
  Lu  Lu16  1  0.812961  0.572185  0.063951  1
  Lu  Lu17  1  0.516681  0.250000  0.992658  1
  Lu  Lu18  1  0.824249  0.250000  0.773536  1
  Lu  Lu19  1  0.858368  0.750000  0.797756  1
  Co  Co20  1  0.417700  0.750000  0.483475  1
  Ge  Ge21  1  0.088271  0.750000  0.981978  1
  Bi  Bi22  1  0.061313  0.491296  0.676300  1
  Bi  Bi23  1  0.566595  0.510454  0.825750  1
  Bi  Bi24  1  0.929577  0.987478  0.324461  1
  Bi  Bi25  1  0.433671  0.011797  0.171310  1
  Bi  Bi26  1  0.566595  0.989546  0.825750  1
  Bi  Bi27  1  0.433671  0.488203  0.171310  1
  Bi  Bi28  1  0.061313  0.008704  0.676300  1
  Bi  Bi29  1  0.929577  0.512522  0.324461  1
  Bi  Bi30  1  0.597788  0.250000  0.525315  1
  Bi  Bi31  1  0.903943  0.250000  0.029986  1
