# generated using pymatgen
data_LiLu6Si6Pd
_symmetry_space_group_name_H-M   'P 1'
_cell_length_a   5.58266602
_cell_length_b   5.58266448
_cell_length_c   13.32561900
_cell_angle_alpha   71.22275762
_cell_angle_beta   71.22276298
_cell_angle_gamma   43.56391571
_symmetry_Int_Tables_number   1
_chemical_formula_structural   LiLu6Si6Pd
_chemical_formula_sum   'Li1 Lu6 Si6 Pd1'
_cell_volume   268.46951635
_cell_formula_units_Z   1
loop_
 _symmetry_equiv_pos_site_id
 _symmetry_equiv_pos_as_xyz
  1  'x, y, z'
loop_
 _atom_site_type_symbol
 _atom_site_label
 _atom_site_symmetry_multiplicity
 _atom_site_fract_x
 _atom_site_fract_y
 _atom_site_fract_z
 _atom_site_occupancy
  Li  Li0  1  0.755639  0.755639  0.409682  1
  Lu  Lu1  1  0.605125  0.605125  0.078111  1
  Lu  Lu2  1  0.396083  0.396083  0.922853  1
  Lu  Lu3  1  0.523326  0.523326  0.624610  1
  Lu  Lu4  1  0.472553  0.472553  0.378620  1
  Lu  Lu5  1  0.257231  0.257231  0.221524  1
  Lu  Lu6  1  0.744364  0.744364  0.773717  1
  Si  Si7  1  0.966007  0.966007  0.228768  1
  Si  Si8  1  0.037016  0.037016  0.769385  1
  Si  Si9  1  0.877504  0.877504  0.549559  1
  Si  Si10  1  0.119905  0.119905  0.452173  1
  Si  Si11  1  0.114590  0.114590  0.924207  1
  Si  Si12  1  0.888532  0.888532  0.074462  1
  Pd  Pd13  1  0.242125  0.242125  0.592330  1
