# generated using pymatgen
data_Tb2Y10TlCo5
_symmetry_space_group_name_H-M   'P 1'
_cell_length_a   8.32553337
_cell_length_b   8.33362506
_cell_length_c   8.33343300
_cell_angle_alpha   110.50537298
_cell_angle_beta   110.14513945
_cell_angle_gamma   107.81432869
_symmetry_Int_Tables_number   1
_chemical_formula_structural   Tb2Y10TlCo5
_chemical_formula_sum   'Tb2 Y10 Tl1 Co5'
_cell_volume   444.59347593
_cell_formula_units_Z   1
loop_
 _symmetry_equiv_pos_site_id
 _symmetry_equiv_pos_as_xyz
  1  'x, y, z'
loop_
 _atom_site_type_symbol
 _atom_site_label
 _atom_site_symmetry_multiplicity
 _atom_site_fract_x
 _atom_site_fract_y
 _atom_site_fract_z
 _atom_site_occupancy
  Tb  Tb0  1  0.985874  0.793392  0.192471  1
  Tb  Tb1  1  0.014126  0.206608  0.807529  1
  Y  Y2  1  0.815379  0.707682  0.522677  1
  Y  Y3  1  0.184621  0.292318  0.477323  1
  Y  Y4  1  0.184637  0.707284  0.892301  1
  Y  Y5  1  0.815363  0.292716  0.107699  1
  Y  Y6  1  0.684465  0.380738  0.695764  1
  Y  Y7  1  0.315535  0.619262  0.304236  1
  Y  Y8  1  0.684470  0.988699  0.303723  1
  Y  Y9  1  0.315530  0.011301  0.696277  1
  Y  Y10  1  0.598670  0.791531  0.807143  1
  Y  Y11  1  0.401330  0.208469  0.192857  1
  Tl  Tl12  1  0.500000  0.500000  0.000000  1
  Co  Co13  1  0.618933  0.000486  0.618474  1
  Co  Co14  1  0.381067  0.999514  0.381526  1
  Co  Co15  1  0.112638  0.612047  0.500598  1
  Co  Co16  1  0.887362  0.387953  0.499402  1
  Co  Co17  1  0.000000  0.000000  0.000000  1
