# generated using pymatgen
data_Pa2Si6Pd20Rh
_symmetry_space_group_name_H-M   'P 1'
_cell_length_a   8.68809401
_cell_length_b   8.68809403
_cell_length_c   8.71628700
_cell_angle_alpha   60.10694033
_cell_angle_beta   60.10694025
_cell_angle_gamma   60.00000252
_symmetry_Int_Tables_number   1
_chemical_formula_structural   Pa2Si6Pd20Rh
_chemical_formula_sum   'Pa2 Si6 Pd20 Rh1'
_cell_volume   465.97826807
_cell_formula_units_Z   1
loop_
 _symmetry_equiv_pos_site_id
 _symmetry_equiv_pos_as_xyz
  1  'x, y, z'
loop_
 _atom_site_type_symbol
 _atom_site_label
 _atom_site_symmetry_multiplicity
 _atom_site_fract_x
 _atom_site_fract_y
 _atom_site_fract_z
 _atom_site_occupancy
  Pa  Pa0  1  0.742761  0.742761  0.771718  1
  Pa  Pa1  1  0.250166  0.250166  0.249501  1
  Si  Si2  1  0.735437  0.735437  0.262332  1
  Si  Si3  1  0.266795  0.735437  0.262331  1
  Si  Si4  1  0.735437  0.266795  0.262331  1
  Si  Si5  1  0.262059  0.262059  0.737835  1
  Si  Si6  1  0.738046  0.262059  0.737835  1
  Si  Si7  1  0.262059  0.738046  0.737835  1
  Pd  Pd8  1  0.000599  0.000599  0.998204  1
  Pd  Pd9  1  0.618109  0.146041  0.617742  1
  Pd  Pd10  1  0.146041  0.618109  0.617742  1
  Pd  Pd11  1  0.618108  0.618108  0.617742  1
  Pd  Pd12  1  0.382005  0.382005  0.853985  1
  Pd  Pd13  1  0.381397  0.854651  0.382553  1
  Pd  Pd14  1  0.854651  0.381397  0.382553  1
  Pd  Pd15  1  0.381399  0.381399  0.382553  1
  Pd  Pd16  1  0.000250  0.000250  0.344570  1
  Pd  Pd17  1  0.654930  0.000250  0.344571  1
  Pd  Pd18  1  0.000250  0.654930  0.344571  1
  Pd  Pd19  1  0.653423  0.345271  0.000072  1
  Pd  Pd20  1  0.001234  0.345271  0.000073  1
  Pd  Pd21  1  0.000782  0.346817  0.651619  1
  Pd  Pd22  1  0.345271  0.653423  0.000072  1
  Pd  Pd23  1  0.346817  0.000782  0.651619  1
  Pd  Pd24  1  0.345271  0.001234  0.000073  1
  Pd  Pd25  1  0.000782  0.000782  0.651620  1
  Pd  Pd26  1  0.001234  0.653422  0.000073  1
  Pd  Pd27  1  0.653422  0.001234  0.000073  1
  Rh  Rh28  1  0.621267  0.621267  0.136202  1
