# generated using pymatgen
data_Li(UPt4)3
_symmetry_space_group_name_H-M   'P 1'
_cell_length_a   5.78873200
_cell_length_b   5.78873253
_cell_length_c   9.49150900
_cell_angle_alpha   90.00000000
_cell_angle_beta   90.00000000
_cell_angle_gamma   120.00000841
_symmetry_Int_Tables_number   1
_chemical_formula_structural   Li(UPt4)3
_chemical_formula_sum   'Li1 U3 Pt12'
_cell_volume   275.44366319
_cell_formula_units_Z   1
loop_
 _symmetry_equiv_pos_site_id
 _symmetry_equiv_pos_as_xyz
  1  'x, y, z'
loop_
 _atom_site_type_symbol
 _atom_site_label
 _atom_site_symmetry_multiplicity
 _atom_site_fract_x
 _atom_site_fract_y
 _atom_site_fract_z
 _atom_site_occupancy
  Li  Li0  1  0.333333  0.666667  0.750000  1
  U  U1  1  0.000000  0.000000  0.508715  1
  U  U2  1  0.000000  0.000000  0.991285  1
  U  U3  1  0.666667  0.333333  0.250000  1
  Pt  Pt4  1  0.499435  0.500565  0.503356  1
  Pt  Pt5  1  0.499435  0.998871  0.503356  1
  Pt  Pt6  1  0.001129  0.500565  0.503356  1
  Pt  Pt7  1  0.499435  0.500565  0.996644  1
  Pt  Pt8  1  0.499435  0.998871  0.996644  1
  Pt  Pt9  1  0.001129  0.500565  0.996644  1
  Pt  Pt10  1  0.168933  0.831067  0.250000  1
  Pt  Pt11  1  0.168933  0.337866  0.250000  1
  Pt  Pt12  1  0.662134  0.831067  0.250000  1
  Pt  Pt13  1  0.829027  0.170973  0.750000  1
  Pt  Pt14  1  0.829027  0.658053  0.750000  1
  Pt  Pt15  1  0.341947  0.170973  0.750000  1
