# generated using pymatgen
data_YTm(Re2Si)4
_symmetry_space_group_name_H-M   'P 1'
_cell_length_a   7.40816286
_cell_length_b   7.40816286
_cell_length_c   4.13607800
_cell_angle_alpha   90.00000000
_cell_angle_beta   90.00000000
_cell_angle_gamma   90.64363864
_symmetry_Int_Tables_number   1
_chemical_formula_structural   YTm(Re2Si)4
_chemical_formula_sum   'Y1 Tm1 Re8 Si4'
_cell_volume   226.97726535
_cell_formula_units_Z   1
loop_
 _symmetry_equiv_pos_site_id
 _symmetry_equiv_pos_as_xyz
  1  'x, y, z'
loop_
 _atom_site_type_symbol
 _atom_site_label
 _atom_site_symmetry_multiplicity
 _atom_site_fract_x
 _atom_site_fract_y
 _atom_site_fract_z
 _atom_site_occupancy
  Y  Y0  1  0.000000  0.000000  0.500000  1
  Tm  Tm1  1  0.500000  0.500000  0.000000  1
  Re  Re2  1  0.656547  0.903677  0.000000  1
  Re  Re3  1  0.160364  0.591627  0.500000  1
  Re  Re4  1  0.096323  0.343453  0.000000  1
  Re  Re5  1  0.903677  0.656547  0.000000  1
  Re  Re6  1  0.408373  0.839636  0.500000  1
  Re  Re7  1  0.591627  0.160364  0.500000  1
  Re  Re8  1  0.343453  0.096323  0.000000  1
  Re  Re9  1  0.839636  0.408373  0.500000  1
  Si  Si10  1  0.209865  0.790135  0.000000  1
  Si  Si11  1  0.790135  0.209865  0.000000  1
  Si  Si12  1  0.706987  0.706987  0.500000  1
  Si  Si13  1  0.293013  0.293013  0.500000  1
