# generated using pymatgen
data_Rb2Ca2TeO6
_symmetry_space_group_name_H-M   'P 1'
_cell_length_a   5.83077028
_cell_length_b   5.83077064
_cell_length_c   6.92901908
_cell_angle_alpha   99.16025798
_cell_angle_beta   99.16025903
_cell_angle_gamma   118.74667288
_symmetry_Int_Tables_number   1
_chemical_formula_structural   Rb2Ca2TeO6
_chemical_formula_sum   'Rb2 Ca2 Te1 O6'
_cell_volume   196.19546940
_cell_formula_units_Z   1
loop_
 _symmetry_equiv_pos_site_id
 _symmetry_equiv_pos_as_xyz
  1  'x, y, z'
loop_
 _atom_site_type_symbol
 _atom_site_label
 _atom_site_symmetry_multiplicity
 _atom_site_fract_x
 _atom_site_fract_y
 _atom_site_fract_z
 _atom_site_occupancy
  Rb  Rb0  1  0.827172  0.172826  0.499999  1
  Rb  Rb1  1  0.172826  0.827172  0.499999  1
  Ca  Ca2  1  0.664409  0.335591  0.000000  1
  Ca  Ca3  1  0.335591  0.664409  0.000000  1
  Te  Te4  1  0.000000  0.000000  0.000000  1
  O  O5  1  0.783404  0.783404  0.166880  1
  O  O6  1  0.343265  0.057014  0.166420  1
  O  O7  1  0.057014  0.343265  0.166420  1
  O  O8  1  0.942986  0.656736  0.833581  1
  O  O9  1  0.656736  0.942986  0.833581  1
  O  O10  1  0.216596  0.216596  0.833121  1
