# generated using pymatgen
data_Dy6Cd19SiAg4
_symmetry_space_group_name_H-M   'P 1'
_cell_length_a   9.77291273
_cell_length_b   9.77291224
_cell_length_c   9.75881900
_cell_angle_alpha   60.04768850
_cell_angle_beta   60.04769015
_cell_angle_gamma   59.90461679
_symmetry_Int_Tables_number   1
_chemical_formula_structural   Dy6Cd19SiAg4
_chemical_formula_sum   'Dy6 Cd19 Si1 Ag4'
_cell_volume   659.06532932
_cell_formula_units_Z   1
loop_
 _symmetry_equiv_pos_site_id
 _symmetry_equiv_pos_as_xyz
  1  'x, y, z'
loop_
 _atom_site_type_symbol
 _atom_site_label
 _atom_site_symmetry_multiplicity
 _atom_site_fract_x
 _atom_site_fract_y
 _atom_site_fract_z
 _atom_site_occupancy
  Dy  Dy0  1  0.795399  0.795399  0.204601  1
  Dy  Dy1  1  0.206113  0.793887  0.206113  1
  Dy  Dy2  1  0.793887  0.206113  0.206113  1
  Dy  Dy3  1  0.204601  0.204601  0.795399  1
  Dy  Dy4  1  0.793887  0.206113  0.793887  1
  Dy  Dy5  1  0.206113  0.793887  0.793887  1
  Cd  Cd6  1  0.834174  0.834174  0.492172  1
  Cd  Cd7  1  0.839479  0.492172  0.834174  1
  Cd  Cd8  1  0.492172  0.839479  0.834174  1
  Cd  Cd9  1  0.834174  0.834174  0.839479  1
  Cd  Cd10  1  0.165826  0.165826  0.507828  1
  Cd  Cd11  1  0.160521  0.507828  0.165826  1
  Cd  Cd12  1  0.507828  0.160521  0.165826  1
  Cd  Cd13  1  0.165826  0.165826  0.160521  1
  Cd  Cd14  1  0.623917  0.623917  0.134918  1
  Cd  Cd15  1  0.617250  0.134918  0.623917  1
  Cd  Cd16  1  0.134918  0.617250  0.623917  1
  Cd  Cd17  1  0.623917  0.623917  0.617250  1
  Cd  Cd18  1  0.376083  0.376083  0.865082  1
  Cd  Cd19  1  0.382750  0.865082  0.376083  1
  Cd  Cd20  1  0.865082  0.382750  0.376083  1
  Cd  Cd21  1  0.376083  0.376083  0.382750  1
  Cd  Cd22  1  0.000000  0.000000  0.500000  1
  Cd  Cd23  1  0.500000  0.500000  0.000000  1
  Cd  Cd24  1  0.500000  0.500000  0.500000  1
  Si  Si25  1  0.000000  0.000000  0.000000  1
  Ag  Ag26  1  0.500000  0.000000  0.500000  1
  Ag  Ag27  1  0.000000  0.500000  0.500000  1
  Ag  Ag28  1  0.000000  0.500000  0.000000  1
  Ag  Ag29  1  0.500000  0.000000  0.000000  1
