# generated using pymatgen
data_CaTbTm6(B6Ru)4
_symmetry_space_group_name_H-M   'P 1'
_cell_length_a   3.62981800
_cell_length_b   9.09365784
_cell_length_c   11.48262602
_cell_angle_alpha   89.91885763
_cell_angle_beta   90.00000000
_cell_angle_gamma   90.00000000
_symmetry_Int_Tables_number   1
_chemical_formula_structural   CaTbTm6(B6Ru)4
_chemical_formula_sum   'Ca1 Tb1 Tm6 B24 Ru4'
_cell_volume   379.02184721
_cell_formula_units_Z   1
loop_
 _symmetry_equiv_pos_site_id
 _symmetry_equiv_pos_as_xyz
  1  'x, y, z'
loop_
 _atom_site_type_symbol
 _atom_site_label
 _atom_site_symmetry_multiplicity
 _atom_site_fract_x
 _atom_site_fract_y
 _atom_site_fract_z
 _atom_site_occupancy
  Ca  Ca0  1  0.000000  0.322080  0.413871  1
  Tb  Tb1  1  0.000000  0.676339  0.585216  1
  Tm  Tm2  1  0.000000  0.822088  0.086079  1
  Tm  Tm3  1  0.000000  0.178501  0.914841  1
  Tm  Tm4  1  0.000000  0.944075  0.370831  1
  Tm  Tm5  1  0.000000  0.057900  0.628366  1
  Tm  Tm6  1  0.000000  0.442980  0.128994  1
  Tm  Tm7  1  0.000000  0.556188  0.872725  1
  B  B8  1  0.500000  0.554709  0.432114  1
  B  B9  1  0.500000  0.445644  0.568160  1
  B  B10  1  0.500000  0.052996  0.065811  1
  B  B11  1  0.500000  0.946100  0.933122  1
  B  B12  1  0.500000  0.749430  0.418458  1
  B  B13  1  0.500000  0.251168  0.581833  1
  B  B14  1  0.500000  0.248022  0.079805  1
  B  B15  1  0.500000  0.751339  0.920134  1
  B  B16  1  0.500000  0.792256  0.264968  1
  B  B17  1  0.500000  0.208798  0.735317  1
  B  B18  1  0.500000  0.290011  0.232957  1
  B  B19  1  0.500000  0.709238  0.766759  1
  B  B20  1  0.500000  0.631848  0.184754  1
  B  B21  1  0.500000  0.368646  0.816341  1
  B  B22  1  0.500000  0.130136  0.313704  1
  B  B23  1  0.500000  0.869518  0.685256  1
  B  B24  1  0.500000  0.982210  0.211359  1
  B  B25  1  0.500000  0.017647  0.787648  1
  B  B26  1  0.500000  0.483685  0.286798  1
  B  B27  1  0.500000  0.516566  0.713712  1
  B  B28  1  0.500000  0.607038  0.029669  1
  B  B29  1  0.500000  0.393222  0.971007  1
  B  B30  1  0.500000  0.102171  0.471735  1
  B  B31  1  0.500000  0.896958  0.528426  1
  Ru  Ru32  1  0.000000  0.640539  0.319166  1
  Ru  Ru33  1  0.000000  0.361208  0.681799  1
  Ru  Ru34  1  0.000000  0.136132  0.176910  1
  Ru  Ru35  1  0.000000  0.862614  0.821355  1
