# generated using pymatgen
data_Cs2RbErBi2
_symmetry_space_group_name_H-M   'P 1'
_cell_length_a   10.70116755
_cell_length_b   10.70116721
_cell_length_c   10.70116800
_cell_angle_alpha   130.58018965
_cell_angle_beta   136.37288403
_cell_angle_gamma   68.01542201
_symmetry_Int_Tables_number   1
_chemical_formula_structural   Cs2RbErBi2
_chemical_formula_sum   'Cs4 Rb2 Er2 Bi4'
_cell_volume   631.17640800
_cell_formula_units_Z   2
loop_
 _symmetry_equiv_pos_site_id
 _symmetry_equiv_pos_as_xyz
  1  'x, y, z'
loop_
 _atom_site_type_symbol
 _atom_site_label
 _atom_site_symmetry_multiplicity
 _atom_site_fract_x
 _atom_site_fract_y
 _atom_site_fract_z
 _atom_site_occupancy
  Cs  Cs0  1  0.686506  0.465044  0.778539  1
  Cs  Cs1  1  0.813494  0.092033  0.278539  1
  Cs  Cs2  1  0.186506  0.907967  0.721461  1
  Cs  Cs3  1  0.313494  0.534956  0.221461  1
  Rb  Rb4  1  0.750000  0.000000  0.750000  1
  Rb  Rb5  1  0.250000  0.000000  0.250000  1
  Er  Er6  1  0.250000  0.500000  0.750000  1
  Er  Er7  1  0.750000  0.500000  0.250000  1
  Bi  Bi8  1  0.405118  0.212595  0.807478  1
  Bi  Bi9  1  0.594882  0.787405  0.192522  1
  Bi  Bi10  1  0.094882  0.402360  0.307478  1
  Bi  Bi11  1  0.905118  0.597640  0.692522  1
