# generated using pymatgen
data_Lu12ZnFe4Pb
_symmetry_space_group_name_H-M   'P 1'
_cell_length_a   8.16850998
_cell_length_b   8.16850859
_cell_length_c   8.16850900
_cell_angle_alpha   111.00343603
_cell_angle_beta   110.88207209
_cell_angle_gamma   106.56664813
_symmetry_Int_Tables_number   1
_chemical_formula_structural   Lu12ZnFe4Pb
_chemical_formula_sum   'Lu12 Zn1 Fe4 Pb1'
_cell_volume   418.76799239
_cell_formula_units_Z   1
loop_
 _symmetry_equiv_pos_site_id
 _symmetry_equiv_pos_as_xyz
  1  'x, y, z'
loop_
 _atom_site_type_symbol
 _atom_site_label
 _atom_site_symmetry_multiplicity
 _atom_site_fract_x
 _atom_site_fract_y
 _atom_site_fract_z
 _atom_site_occupancy
  Lu  Lu0  1  0.432087  0.223417  0.208668  1
  Lu  Lu1  1  0.567913  0.776583  0.791332  1
  Lu  Lu2  1  0.014749  0.223417  0.791332  1
  Lu  Lu3  1  0.985251  0.776583  0.208668  1
  Lu  Lu4  1  0.185944  0.285866  0.471811  1
  Lu  Lu5  1  0.814056  0.714134  0.528189  1
  Lu  Lu6  1  0.185944  0.714134  0.900078  1
  Lu  Lu7  1  0.814056  0.285866  0.099922  1
  Lu  Lu8  1  0.311694  0.612431  0.300738  1
  Lu  Lu9  1  0.688306  0.387569  0.699262  1
  Lu  Lu10  1  0.311694  0.010957  0.699262  1
  Lu  Lu11  1  0.688306  0.989043  0.300738  1
  Zn  Zn12  1  0.000000  0.000000  0.000000  1
  Fe  Fe13  1  0.382243  0.000000  0.382243  1
  Fe  Fe14  1  0.617757  0.000000  0.617757  1
  Fe  Fe15  1  0.110272  0.610272  0.500000  1
  Fe  Fe16  1  0.889728  0.389728  0.500000  1
  Pb  Pb17  1  0.500000  0.500000  0.000000  1
