# generated using pymatgen
data_Ta5Be4Mo
_symmetry_space_group_name_H-M   'P 1'
_cell_length_a   6.46559800
_cell_length_b   6.46559800
_cell_length_c   3.33635900
_cell_angle_alpha   90.00000000
_cell_angle_beta   90.00000000
_cell_angle_gamma   90.00000000
_symmetry_Int_Tables_number   1
_chemical_formula_structural   Ta5Be4Mo
_chemical_formula_sum   'Ta5 Be4 Mo1'
_cell_volume   139.47300983
_cell_formula_units_Z   1
loop_
 _symmetry_equiv_pos_site_id
 _symmetry_equiv_pos_as_xyz
  1  'x, y, z'
loop_
 _atom_site_type_symbol
 _atom_site_label
 _atom_site_symmetry_multiplicity
 _atom_site_fract_x
 _atom_site_fract_y
 _atom_site_fract_z
 _atom_site_occupancy
  Ta  Ta0  1  0.000000  0.000000  0.000000  1
  Ta  Ta1  1  0.674823  0.185200  0.500000  1
  Ta  Ta2  1  0.325177  0.814800  0.500000  1
  Ta  Ta3  1  0.185200  0.325177  0.500000  1
  Ta  Ta4  1  0.814800  0.674823  0.500000  1
  Be  Be5  1  0.113441  0.614913  0.000000  1
  Be  Be6  1  0.886559  0.385087  0.000000  1
  Be  Be7  1  0.614913  0.886559  0.000000  1
  Be  Be8  1  0.385087  0.113441  0.000000  1
  Mo  Mo9  1  0.500000  0.500000  0.000000  1
