# generated using pymatgen
data_Rb6MnTe4
_symmetry_space_group_name_H-M   'P 1'
_cell_length_a   11.36805000
_cell_length_b   11.36804905
_cell_length_c   8.93846400
_cell_angle_alpha   90.00000000
_cell_angle_beta   90.00000000
_cell_angle_gamma   120.00000275
_symmetry_Int_Tables_number   1
_chemical_formula_structural   Rb6MnTe4
_chemical_formula_sum   'Rb12 Mn2 Te8'
_cell_volume   1000.38098702
_cell_formula_units_Z   2
loop_
 _symmetry_equiv_pos_site_id
 _symmetry_equiv_pos_as_xyz
  1  'x, y, z'
loop_
 _atom_site_type_symbol
 _atom_site_label
 _atom_site_symmetry_multiplicity
 _atom_site_fract_x
 _atom_site_fract_y
 _atom_site_fract_z
 _atom_site_occupancy
  Rb  Rb0  1  0.147197  0.852803  0.543136  1
  Rb  Rb1  1  0.294394  0.147197  0.043136  1
  Rb  Rb2  1  0.852803  0.705606  0.043136  1
  Rb  Rb3  1  0.147197  0.294394  0.543136  1
  Rb  Rb4  1  0.705606  0.852803  0.543136  1
  Rb  Rb5  1  0.852803  0.147197  0.043136  1
  Rb  Rb6  1  0.527614  0.472386  0.366383  1
  Rb  Rb7  1  0.055228  0.527614  0.866383  1
  Rb  Rb8  1  0.472386  0.944772  0.866383  1
  Rb  Rb9  1  0.527614  0.055228  0.366383  1
  Rb  Rb10  1  0.944772  0.472386  0.366383  1
  Rb  Rb11  1  0.472386  0.527614  0.866383  1
  Mn  Mn12  1  0.333333  0.666667  0.253587  1
  Mn  Mn13  1  0.666667  0.333333  0.753587  1
  Te  Te14  1  0.333333  0.666667  0.567162  1
  Te  Te15  1  0.666667  0.333333  0.067162  1
  Te  Te16  1  0.198373  0.801627  0.154464  1
  Te  Te17  1  0.396746  0.198373  0.654464  1
  Te  Te18  1  0.801627  0.603254  0.654464  1
  Te  Te19  1  0.198373  0.396746  0.154464  1
  Te  Te20  1  0.603254  0.801627  0.154464  1
  Te  Te21  1  0.801627  0.198373  0.654464  1
