# generated using pymatgen
data_Nb2V4Si6BW4
_symmetry_space_group_name_H-M   'P 1'
_cell_length_a   7.36384047
_cell_length_b   7.36353495
_cell_length_c   4.93758314
_cell_angle_alpha   90.25330908
_cell_angle_beta   89.87334611
_cell_angle_gamma   119.99864174
_symmetry_Int_Tables_number   1
_chemical_formula_structural   Nb2V4Si6BW4
_chemical_formula_sum   'Nb2 V4 Si6 B1 W4'
_cell_volume   231.86621712
_cell_formula_units_Z   1
loop_
 _symmetry_equiv_pos_site_id
 _symmetry_equiv_pos_as_xyz
  1  'x, y, z'
loop_
 _atom_site_type_symbol
 _atom_site_label
 _atom_site_symmetry_multiplicity
 _atom_site_fract_x
 _atom_site_fract_y
 _atom_site_fract_z
 _atom_site_occupancy
  Nb  Nb0  1  0.753738  0.752681  0.756711  1
  Nb  Nb1  1  0.246262  0.998943  0.756711  1
  V  V2  1  0.333468  0.667381  0.502324  1
  V  V3  1  0.666532  0.333912  0.502324  1
  V  V4  1  0.666336  0.333122  0.999223  1
  V  V5  1  0.333664  0.666788  0.999223  1
  Si  Si6  1  0.000000  0.403061  0.249505  1
  Si  Si7  1  0.596411  0.596570  0.251490  1
  Si  Si8  1  0.403589  0.000159  0.251490  1
  Si  Si9  1  0.000000  0.592266  0.750670  1
  Si  Si10  1  0.401313  0.403161  0.749860  1
  Si  Si11  1  0.598687  0.001848  0.749860  1
  B  B12  1  0.000000  0.002661  0.491348  1
  W  W13  1  0.000000  0.750484  0.247849  1
  W  W14  1  0.247294  0.248644  0.244292  1
  W  W15  1  0.752706  0.001349  0.244292  1
  W  W16  1  0.000000  0.246972  0.752827  1
