# generated using pymatgen
data_Yb3Tm4Sn23Ir6
_symmetry_space_group_name_H-M   'P 1'
_cell_length_a   9.90884576
_cell_length_b   9.90884677
_cell_length_c   10.09917400
_cell_angle_alpha   89.96588451
_cell_angle_beta   90.03411549
_cell_angle_gamma   120.08099769
_symmetry_Int_Tables_number   1
_chemical_formula_structural   Yb3Tm4Sn23Ir6
_chemical_formula_sum   'Yb3 Tm4 Sn23 Ir6'
_cell_volume   858.03997309
_cell_formula_units_Z   1
loop_
 _symmetry_equiv_pos_site_id
 _symmetry_equiv_pos_as_xyz
  1  'x, y, z'
loop_
 _atom_site_type_symbol
 _atom_site_label
 _atom_site_symmetry_multiplicity
 _atom_site_fract_x
 _atom_site_fract_y
 _atom_site_fract_z
 _atom_site_occupancy
  Yb  Yb0  1  0.000000  0.000000  0.000000  1
  Yb  Yb1  1  0.481957  0.518043  0.301986  1
  Yb  Yb2  1  0.518043  0.481957  0.698014  1
  Tm  Tm3  1  0.482989  0.967781  0.303687  1
  Tm  Tm4  1  0.517011  0.032219  0.696313  1
  Tm  Tm5  1  0.032219  0.517011  0.303687  1
  Tm  Tm6  1  0.967781  0.482989  0.696313  1
  Sn  Sn7  1  0.351198  0.998990  0.998953  1
  Sn  Sn8  1  0.648802  0.001010  0.001047  1
  Sn  Sn9  1  0.998990  0.351198  0.001047  1
  Sn  Sn10  1  0.001010  0.648802  0.998953  1
  Sn  Sn11  1  0.650092  0.650092  0.000000  1
  Sn  Sn12  1  0.349908  0.349908  0.000000  1
  Sn  Sn13  1  0.334279  0.665721  0.824368  1
  Sn  Sn14  1  0.665721  0.334279  0.175632  1
  Sn  Sn15  1  0.000000  0.000000  0.500000  1
  Sn  Sn16  1  0.775622  0.224378  0.460733  1
  Sn  Sn17  1  0.224378  0.775622  0.539267  1
  Sn  Sn18  1  0.775193  0.552733  0.459644  1
  Sn  Sn19  1  0.224807  0.447267  0.540356  1
  Sn  Sn20  1  0.447267  0.224807  0.459644  1
  Sn  Sn21  1  0.552733  0.775193  0.540356  1
  Sn  Sn22  1  0.330943  0.669057  0.125316  1
  Sn  Sn23  1  0.669057  0.330943  0.874684  1
  Sn  Sn24  1  0.117665  0.882335  0.285531  1
  Sn  Sn25  1  0.882335  0.117665  0.714469  1
  Sn  Sn26  1  0.117643  0.235038  0.283889  1
  Sn  Sn27  1  0.882357  0.764962  0.716111  1
  Sn  Sn28  1  0.764962  0.882357  0.283889  1
  Sn  Sn29  1  0.235038  0.117643  0.716111  1
  Ir  Ir30  1  0.828622  0.171378  0.203229  1
  Ir  Ir31  1  0.171378  0.828622  0.796771  1
  Ir  Ir32  1  0.833000  0.660341  0.200915  1
  Ir  Ir33  1  0.167000  0.339659  0.799085  1
  Ir  Ir34  1  0.339659  0.167000  0.200915  1
  Ir  Ir35  1  0.660341  0.833000  0.799085  1
