# generated using pymatgen
data_Ba6ZnPd4O15
_symmetry_space_group_name_H-M   'P 1'
_cell_length_a   7.47004339
_cell_length_b   7.47008250
_cell_length_c   7.46999100
_cell_angle_alpha   85.62643528
_cell_angle_beta   85.62684311
_cell_angle_gamma   85.62568970
_symmetry_Int_Tables_number   1
_chemical_formula_structural   Ba6ZnPd4O15
_chemical_formula_sum   'Ba6 Zn1 Pd4 O15'
_cell_volume   413.37337165
_cell_formula_units_Z   1
loop_
 _symmetry_equiv_pos_site_id
 _symmetry_equiv_pos_as_xyz
  1  'x, y, z'
loop_
 _atom_site_type_symbol
 _atom_site_label
 _atom_site_symmetry_multiplicity
 _atom_site_fract_x
 _atom_site_fract_y
 _atom_site_fract_z
 _atom_site_occupancy
  Ba  Ba0  1  0.339203  0.660797  0.999979  1
  Ba  Ba1  1  0.999980  0.339203  0.660798  1
  Ba  Ba2  1  0.660797  0.999978  0.339202  1
  Ba  Ba3  1  0.149291  0.850704  0.500002  1
  Ba  Ba4  1  0.500007  0.149293  0.850708  1
  Ba  Ba5  1  0.850700  0.500004  0.149294  1
  Zn  Zn6  1  0.499986  0.499996  0.500010  1
  Pd  Pd7  1  0.294986  0.294984  0.294975  1
  Pd  Pd8  1  0.704895  0.704890  0.704892  1
  Pd  Pd9  1  0.096994  0.096993  0.096997  1
  Pd  Pd10  1  0.902983  0.902986  0.902984  1
  O  O11  1  0.151863  0.000030  0.848191  1
  O  O12  1  0.848194  0.151860  0.000029  1
  O  O13  1  0.000033  0.848199  0.151864  1
  O  O14  1  0.033371  0.198237  0.341880  1
  O  O15  1  0.341880  0.033368  0.198234  1
  O  O16  1  0.198235  0.341880  0.033363  1
  O  O17  1  0.801790  0.966638  0.658171  1
  O  O18  1  0.658173  0.801792  0.966642  1
  O  O19  1  0.966646  0.658171  0.801788  1
  O  O20  1  0.378194  0.235446  0.541069  1
  O  O21  1  0.541061  0.378184  0.235439  1
  O  O22  1  0.235445  0.541069  0.378184  1
  O  O23  1  0.764531  0.621809  0.458958  1
  O  O24  1  0.458949  0.764532  0.621812  1
  O  O25  1  0.621813  0.458954  0.764534  1
