# generated using pymatgen
data_K3Ba(MnN2)4
_symmetry_space_group_name_H-M   'P 1'
_cell_length_a   6.45274778
_cell_length_b   6.45274738
_cell_length_c   7.84896129
_cell_angle_alpha   88.95616178
_cell_angle_beta   91.04384005
_cell_angle_gamma   127.34387822
_symmetry_Int_Tables_number   1
_chemical_formula_structural   K3Ba(MnN2)4
_chemical_formula_sum   'K3 Ba1 Mn4 N8'
_cell_volume   259.76698182
_cell_formula_units_Z   1
loop_
 _symmetry_equiv_pos_site_id
 _symmetry_equiv_pos_as_xyz
  1  'x, y, z'
loop_
 _atom_site_type_symbol
 _atom_site_label
 _atom_site_symmetry_multiplicity
 _atom_site_fract_x
 _atom_site_fract_y
 _atom_site_fract_z
 _atom_site_occupancy
  K  K0  1  0.841038  0.158962  0.549315  1
  K  K1  1  0.157062  0.842938  0.444246  1
  K  K2  1  0.657967  0.342033  0.075182  1
  Ba  Ba3  1  0.340318  0.659682  0.941177  1
  Mn  Mn4  1  0.545105  0.454895  0.636162  1
  Mn  Mn5  1  0.454767  0.545233  0.365758  1
  Mn  Mn6  1  0.957820  0.042180  0.132712  1
  Mn  Mn7  1  0.044300  0.955700  0.864503  1
  N  N8  1  0.894223  0.105777  0.918199  1
  N  N9  1  0.106983  0.893017  0.079403  1
  N  N10  1  0.603495  0.396505  0.424907  1
  N  N11  1  0.394705  0.605295  0.577557  1
  N  N12  1  0.330160  0.170173  0.752957  1
  N  N13  1  0.174215  0.331986  0.242483  1
  N  N14  1  0.668014  0.825785  0.242483  1
  N  N15  1  0.829827  0.669840  0.752957  1
