# generated using pymatgen
data_Li2Dy6Cd21As
_symmetry_space_group_name_H-M   'P 1'
_cell_length_a   9.75727676
_cell_length_b   9.75727583
_cell_length_c   9.79617300
_cell_angle_alpha   59.86803711
_cell_angle_beta   59.86804028
_cell_angle_gamma   59.99540455
_symmetry_Int_Tables_number   1
_chemical_formula_structural   Li2Dy6Cd21As
_chemical_formula_sum   'Li2 Dy6 Cd21 As1'
_cell_volume   658.13426486
_cell_formula_units_Z   1
loop_
 _symmetry_equiv_pos_site_id
 _symmetry_equiv_pos_as_xyz
  1  'x, y, z'
loop_
 _atom_site_type_symbol
 _atom_site_label
 _atom_site_symmetry_multiplicity
 _atom_site_fract_x
 _atom_site_fract_y
 _atom_site_fract_z
 _atom_site_occupancy
  Li  Li0  1  0.000000  0.000000  0.500000  1
  Li  Li1  1  0.500000  0.500000  0.500000  1
  Dy  Dy2  1  0.794603  0.794603  0.205397  1
  Dy  Dy3  1  0.207728  0.792272  0.202807  1
  Dy  Dy4  1  0.792272  0.207728  0.202807  1
  Dy  Dy5  1  0.205397  0.205397  0.794603  1
  Dy  Dy6  1  0.792272  0.207728  0.797193  1
  Dy  Dy7  1  0.207728  0.792272  0.797193  1
  Cd  Cd8  1  0.841544  0.841544  0.494721  1
  Cd  Cd9  1  0.835109  0.498972  0.832960  1
  Cd  Cd10  1  0.498972  0.835109  0.832960  1
  Cd  Cd11  1  0.841544  0.841544  0.822193  1
  Cd  Cd12  1  0.158456  0.158456  0.505279  1
  Cd  Cd13  1  0.164891  0.501028  0.167040  1
  Cd  Cd14  1  0.501028  0.164891  0.167040  1
  Cd  Cd15  1  0.158456  0.158456  0.177807  1
  Cd  Cd16  1  0.617745  0.617745  0.152322  1
  Cd  Cd17  1  0.627973  0.149417  0.611305  1
  Cd  Cd18  1  0.149417  0.627973  0.611305  1
  Cd  Cd19  1  0.617745  0.617745  0.612187  1
  Cd  Cd20  1  0.382255  0.382255  0.847678  1
  Cd  Cd21  1  0.372027  0.850583  0.388695  1
  Cd  Cd22  1  0.850583  0.372027  0.388695  1
  Cd  Cd23  1  0.382255  0.382255  0.387813  1
  Cd  Cd24  1  0.500000  0.000000  0.500000  1
  Cd  Cd25  1  0.000000  0.500000  0.500000  1
  Cd  Cd26  1  0.500000  0.500000  0.000000  1
  Cd  Cd27  1  0.000000  0.500000  0.000000  1
  Cd  Cd28  1  0.500000  0.000000  0.000000  1
  As  As29  1  0.000000  0.000000  0.000000  1
