# generated using pymatgen
data_Nd17Eu3Si15Pt
_symmetry_space_group_name_H-M   'P 1'
_cell_length_a   7.94951891
_cell_length_b   7.93717683
_cell_length_c   15.31164600
_cell_angle_alpha   89.96811518
_cell_angle_beta   89.73518284
_cell_angle_gamma   90.10193066
_symmetry_Int_Tables_number   1
_chemical_formula_structural   Nd17Eu3Si15Pt
_chemical_formula_sum   'Nd17 Eu3 Si15 Pt1'
_cell_volume   966.10290273
_cell_formula_units_Z   1
loop_
 _symmetry_equiv_pos_site_id
 _symmetry_equiv_pos_as_xyz
  1  'x, y, z'
loop_
 _atom_site_type_symbol
 _atom_site_label
 _atom_site_symmetry_multiplicity
 _atom_site_fract_x
 _atom_site_fract_y
 _atom_site_fract_z
 _atom_site_occupancy
  Nd  Nd0  1  0.690243  0.686973  0.500176  1
  Nd  Nd1  1  0.377504  0.009351  0.447379  1
  Nd  Nd2  1  0.492407  0.875553  0.698032  1
  Nd  Nd3  1  0.509828  0.123127  0.197776  1
  Nd  Nd4  1  0.875994  0.489895  0.300577  1
  Nd  Nd5  1  0.120997  0.511641  0.801521  1
  Nd  Nd6  1  0.624690  0.992028  0.947830  1
  Nd  Nd7  1  0.003458  0.376092  0.552710  1
  Nd  Nd8  1  0.990013  0.623316  0.051948  1
  Nd  Nd9  1  0.132500  0.988914  0.874528  1
  Nd  Nd10  1  0.515231  0.629033  0.125704  1
  Nd  Nd11  1  0.476734  0.363377  0.628190  1
  Nd  Nd12  1  0.628025  0.513821  0.874458  1
  Nd  Nd13  1  0.372943  0.482546  0.374579  1
  Nd  Nd14  1  0.873483  0.018803  0.375919  1
  Nd  Nd15  1  0.984162  0.126465  0.125079  1
  Nd  Nd16  1  0.022461  0.877441  0.624087  1
  Eu  Eu17  1  0.306243  0.307760  0.998435  1
  Eu  Eu18  1  0.191448  0.808744  0.250308  1
  Eu  Eu19  1  0.815772  0.189506  0.748562  1
  Si  Si20  1  0.333751  0.698560  0.949121  1
  Si  Si21  1  0.664735  0.302886  0.451160  1
  Si  Si22  1  0.700411  0.335360  0.051869  1
  Si  Si23  1  0.306215  0.668929  0.548328  1
  Si  Si24  1  0.801599  0.833863  0.201261  1
  Si  Si25  1  0.166392  0.201274  0.299016  1
  Si  Si26  1  0.835443  0.800325  0.799983  1
  Si  Si27  1  0.287628  0.919367  0.057652  1
  Si  Si28  1  0.581478  0.786045  0.310611  1
  Si  Si29  1  0.428721  0.205659  0.812656  1
  Si  Si30  1  0.784927  0.583029  0.689231  1
  Si  Si31  1  0.212249  0.421399  0.190889  1
  Si  Si32  1  0.704024  0.072124  0.557166  1
  Si  Si33  1  0.918164  0.288042  0.942684  1
  Si  Si34  1  0.078340  0.714014  0.442442  1
  Pt  Pt35  1  0.191790  0.174733  0.698134  1
