# generated using pymatgen
data_Nd3Ga3Sn2
_symmetry_space_group_name_H-M   'P 1'
_cell_length_a   6.42450159
_cell_length_b   6.42450085
_cell_length_c   10.02217500
_cell_angle_alpha   90.00000000
_cell_angle_beta   90.00000000
_cell_angle_gamma   103.18841339
_symmetry_Int_Tables_number   1
_chemical_formula_structural   Nd3Ga3Sn2
_chemical_formula_sum   'Nd6 Ga6 Sn4'
_cell_volume   402.74722623
_cell_formula_units_Z   2
loop_
 _symmetry_equiv_pos_site_id
 _symmetry_equiv_pos_as_xyz
  1  'x, y, z'
loop_
 _atom_site_type_symbol
 _atom_site_label
 _atom_site_symmetry_multiplicity
 _atom_site_fract_x
 _atom_site_fract_y
 _atom_site_fract_z
 _atom_site_occupancy
  Nd  Nd0  1  0.645946  0.645946  0.250000  1
  Nd  Nd1  1  0.354054  0.354054  0.750000  1
  Nd  Nd2  1  0.199530  0.800470  0.500000  1
  Nd  Nd3  1  0.199530  0.800470  0.000000  1
  Nd  Nd4  1  0.800470  0.199530  0.500000  1
  Nd  Nd5  1  0.800470  0.199530  0.000000  1
  Ga  Ga6  1  0.029913  0.029913  0.250000  1
  Ga  Ga7  1  0.970087  0.970087  0.750000  1
  Ga  Ga8  1  0.308788  0.308788  0.047914  1
  Ga  Ga9  1  0.691212  0.691212  0.952086  1
  Ga  Ga10  1  0.308788  0.308788  0.452086  1
  Ga  Ga11  1  0.691212  0.691212  0.547914  1
  Sn  Sn12  1  0.486939  0.087980  0.250000  1
  Sn  Sn13  1  0.912020  0.513061  0.750000  1
  Sn  Sn14  1  0.513061  0.912020  0.750000  1
  Sn  Sn15  1  0.087980  0.486939  0.250000  1
