# generated using pymatgen
data_YLuGa7Ni2Ag
_symmetry_space_group_name_H-M   'P 1'
_cell_length_a   4.14364459
_cell_length_b   6.44551788
_cell_length_c   7.94718940
_cell_angle_alpha   90.83876088
_cell_angle_beta   105.11153098
_cell_angle_gamma   90.00000158
_symmetry_Int_Tables_number   1
_chemical_formula_structural   YLuGa7Ni2Ag
_chemical_formula_sum   'Y1 Lu1 Ga7 Ni2 Ag1'
_cell_volume   204.88979237
_cell_formula_units_Z   1
loop_
 _symmetry_equiv_pos_site_id
 _symmetry_equiv_pos_as_xyz
  1  'x, y, z'
loop_
 _atom_site_type_symbol
 _atom_site_label
 _atom_site_symmetry_multiplicity
 _atom_site_fract_x
 _atom_site_fract_y
 _atom_site_fract_z
 _atom_site_occupancy
  Y  Y0  1  0.875988  0.261689  0.751977  1
  Lu  Lu1  1  0.124784  0.739064  0.249568  1
  Ga  Ga2  1  0.500948  0.502202  0.001896  1
  Ga  Ga3  1  0.067825  0.239415  0.135651  1
  Ga  Ga4  1  0.932633  0.759038  0.865265  1
  Ga  Ga5  1  0.684048  0.043991  0.368094  1
  Ga  Ga6  1  0.314994  0.955424  0.629991  1
  Ga  Ga7  1  0.684164  0.447312  0.368328  1
  Ga  Ga8  1  0.313922  0.555062  0.627845  1
  Ni  Ni9  1  0.220834  0.251591  0.441668  1
  Ni  Ni10  1  0.778459  0.749475  0.556917  1
  Ag  Ag11  1  0.501400  0.995738  0.002800  1
