# generated using pymatgen
data_Er3Tm(Os3W)2
_symmetry_space_group_name_H-M   'P 1'
_cell_length_a   5.48901601
_cell_length_b   5.48922046
_cell_length_c   8.43622400
_cell_angle_alpha   90.00079211
_cell_angle_beta   90.00048455
_cell_angle_gamma   119.98805314
_symmetry_Int_Tables_number   1
_chemical_formula_structural   Er3Tm(Os3W)2
_chemical_formula_sum   'Er3 Tm1 Os6 W2'
_cell_volume   220.15886342
_cell_formula_units_Z   1
loop_
 _symmetry_equiv_pos_site_id
 _symmetry_equiv_pos_as_xyz
  1  'x, y, z'
loop_
 _atom_site_type_symbol
 _atom_site_label
 _atom_site_symmetry_multiplicity
 _atom_site_fract_x
 _atom_site_fract_y
 _atom_site_fract_z
 _atom_site_occupancy
  Er  Er0  1  0.666671  0.333323  0.564470  1
  Er  Er1  1  0.333323  0.666681  0.435644  1
  Er  Er2  1  0.333332  0.666669  0.064313  1
  Tm  Tm3  1  0.666678  0.333337  0.935736  1
  Os  Os4  1  0.172853  0.345710  0.750162  1
  Os  Os5  1  0.172862  0.827121  0.750157  1
  Os  Os6  1  0.654292  0.827148  0.750149  1
  Os  Os7  1  0.827069  0.654144  0.249796  1
  Os  Os8  1  0.827061  0.172951  0.249795  1
  Os  Os9  1  0.345838  0.172912  0.249800  1
  W  W10  1  0.000010  0.000001  0.500014  1
  W  W11  1  0.000010  0.000003  0.999964  1
