# generated using pymatgen
data_Tb6SmTm13Sn16
_symmetry_space_group_name_H-M   'P 1'
_cell_length_a   7.98710111
_cell_length_b   8.12744446
_cell_length_c   15.34653583
_cell_angle_alpha   90.01634967
_cell_angle_beta   90.10621816
_cell_angle_gamma   89.82358134
_symmetry_Int_Tables_number   1
_chemical_formula_structural   Tb6SmTm13Sn16
_chemical_formula_sum   'Tb6 Sm1 Tm13 Sn16'
_cell_volume   996.20961343
_cell_formula_units_Z   1
loop_
 _symmetry_equiv_pos_site_id
 _symmetry_equiv_pos_as_xyz
  1  'x, y, z'
loop_
 _atom_site_type_symbol
 _atom_site_label
 _atom_site_symmetry_multiplicity
 _atom_site_fract_x
 _atom_site_fract_y
 _atom_site_fract_z
 _atom_site_occupancy
  Tb  Tb0  1  0.019126  0.179320  0.597935  1
  Tb  Tb1  1  0.481135  0.678847  0.403098  1
  Tb  Tb2  1  0.980528  0.820947  0.096782  1
  Tb  Tb3  1  0.480165  0.678086  0.096673  1
  Tb  Tb4  1  0.981228  0.821101  0.403172  1
  Tb  Tb5  1  0.518338  0.321445  0.596502  1
  Sm  Sm6  1  0.018976  0.179484  0.903132  1
  Tm  Tm7  1  0.365516  0.835953  0.877124  1
  Tm  Tm8  1  0.864637  0.663385  0.623041  1
  Tm  Tm9  1  0.634815  0.163663  0.377143  1
  Tm  Tm10  1  0.133532  0.336625  0.122358  1
  Tm  Tm11  1  0.633587  0.164114  0.122393  1
  Tm  Tm12  1  0.135016  0.336294  0.377321  1
  Tm  Tm13  1  0.365255  0.836729  0.623563  1
  Tm  Tm14  1  0.865921  0.663397  0.877591  1
  Tm  Tm15  1  0.522163  0.322015  0.902029  1
  Tm  Tm16  1  0.197817  0.503254  0.750573  1
  Tm  Tm17  1  0.696981  0.996296  0.750360  1
  Tm  Tm18  1  0.802414  0.496323  0.249734  1
  Tm  Tm19  1  0.302648  0.003694  0.249744  1
  Sn  Sn20  1  0.297744  0.037950  0.041852  1
  Sn  Sn21  1  0.797626  0.460991  0.458462  1
  Sn  Sn22  1  0.702428  0.961569  0.541860  1
  Sn  Sn23  1  0.207126  0.536121  0.957627  1
  Sn  Sn24  1  0.700808  0.962798  0.957961  1
  Sn  Sn25  1  0.202061  0.539527  0.541788  1
  Sn  Sn26  1  0.297710  0.038561  0.458619  1
  Sn  Sn27  1  0.794590  0.460321  0.040516  1
  Sn  Sn28  1  0.563058  0.621203  0.750250  1
  Sn  Sn29  1  0.063003  0.877320  0.750089  1
  Sn  Sn30  1  0.436538  0.378077  0.249809  1
  Sn  Sn31  1  0.936704  0.122507  0.249850  1
  Sn  Sn32  1  0.330985  0.147647  0.751193  1
  Sn  Sn33  1  0.826381  0.354432  0.750026  1
  Sn  Sn34  1  0.671672  0.854069  0.249830  1
  Sn  Sn35  1  0.171766  0.645934  0.250000  1
