# generated using pymatgen
data_CaYb(Al3Ni)6
_symmetry_space_group_name_H-M   'P 1'
_cell_length_a   10.16457102
_cell_length_b   10.16457152
_cell_length_c   10.16457061
_cell_angle_alpha   42.01035693
_cell_angle_beta   42.01035238
_cell_angle_gamma   42.01035521
_symmetry_Int_Tables_number   1
_chemical_formula_structural   CaYb(Al3Ni)6
_chemical_formula_sum   'Ca1 Yb1 Al18 Ni6'
_cell_volume   425.51479341
_cell_formula_units_Z   1
loop_
 _symmetry_equiv_pos_site_id
 _symmetry_equiv_pos_as_xyz
  1  'x, y, z'
loop_
 _atom_site_type_symbol
 _atom_site_label
 _atom_site_symmetry_multiplicity
 _atom_site_fract_x
 _atom_site_fract_y
 _atom_site_fract_z
 _atom_site_occupancy
  Ca  Ca0  1  0.166805  0.166805  0.166805  1
  Yb  Yb1  1  0.833314  0.833314  0.833314  1
  Al  Al2  1  0.103491  0.431584  0.760327  1
  Al  Al3  1  0.431584  0.760327  0.103491  1
  Al  Al4  1  0.568636  0.896899  0.239409  1
  Al  Al5  1  0.948019  0.948019  0.948019  1
  Al  Al6  1  0.051884  0.051884  0.051884  1
  Al  Al7  1  0.291364  0.708222  0.500337  1
  Al  Al8  1  0.896899  0.239409  0.568636  1
  Al  Al9  1  0.386234  0.386234  0.386234  1
  Al  Al10  1  0.500337  0.291364  0.708222  1
  Al  Al11  1  0.239409  0.568636  0.896899  1
  Al  Al12  1  0.718565  0.718565  0.718565  1
  Al  Al13  1  0.613867  0.613867  0.613867  1
  Al  Al14  1  0.333503  0.999760  0.666547  1
  Al  Al15  1  0.708222  0.500337  0.291364  1
  Al  Al16  1  0.666547  0.333503  0.999760  1
  Al  Al17  1  0.281699  0.281699  0.281699  1
  Al  Al18  1  0.999760  0.666547  0.333503  1
  Al  Al19  1  0.760327  0.103491  0.431584  1
  Ni  Ni20  1  0.418186  0.077834  0.756284  1
  Ni  Ni21  1  0.582822  0.243687  0.920720  1
  Ni  Ni22  1  0.077834  0.756284  0.418186  1
  Ni  Ni23  1  0.756284  0.418186  0.077834  1
  Ni  Ni24  1  0.920720  0.582822  0.243687  1
  Ni  Ni25  1  0.243687  0.920720  0.582822  1
