# generated using pymatgen
data_V12FeSi8Ru3C4
_symmetry_space_group_name_H-M   'P 1'
_cell_length_a   7.76732155
_cell_length_b   7.76732129
_cell_length_c   7.76732059
_cell_angle_alpha   59.83370150
_cell_angle_beta   59.83369858
_cell_angle_gamma   59.83370232
_symmetry_Int_Tables_number   1
_chemical_formula_structural   V12FeSi8Ru3C4
_chemical_formula_sum   'V12 Fe1 Si8 Ru3 C4'
_cell_volume   330.10834960
_cell_formula_units_Z   1
loop_
 _symmetry_equiv_pos_site_id
 _symmetry_equiv_pos_as_xyz
  1  'x, y, z'
loop_
 _atom_site_type_symbol
 _atom_site_label
 _atom_site_symmetry_multiplicity
 _atom_site_fract_x
 _atom_site_fract_y
 _atom_site_fract_z
 _atom_site_occupancy
  V  V0  1  0.814398  0.814398  0.186669  1
  V  V1  1  0.183661  0.183661  0.815927  1
  V  V2  1  0.814398  0.186669  0.814398  1
  V  V3  1  0.183661  0.815927  0.183661  1
  V  V4  1  0.186669  0.814398  0.814398  1
  V  V5  1  0.815927  0.183661  0.183661  1
  V  V6  1  0.435602  0.435602  0.063331  1
  V  V7  1  0.066339  0.066339  0.434073  1
  V  V8  1  0.435602  0.063331  0.435602  1
  V  V9  1  0.066339  0.434073  0.066339  1
  V  V10  1  0.063331  0.435602  0.435602  1
  V  V11  1  0.434073  0.066339  0.066339  1
  Fe  Fe12  1  0.625000  0.625000  0.625000  1
  Si  Si13  1  0.764371  0.416558  0.416558  1
  Si  Si14  1  0.416558  0.764371  0.416558  1
  Si  Si15  1  0.416558  0.416558  0.764371  1
  Si  Si16  1  0.409496  0.409496  0.409496  1
  Si  Si17  1  0.485629  0.833442  0.833442  1
  Si  Si18  1  0.833442  0.485629  0.833442  1
  Si  Si19  1  0.833442  0.833442  0.485629  1
  Si  Si20  1  0.840504  0.840504  0.840504  1
  Ru  Ru21  1  0.125000  0.625000  0.625000  1
  Ru  Ru22  1  0.625000  0.125000  0.625000  1
  Ru  Ru23  1  0.625000  0.625000  0.125000  1
  C  C24  1  0.625000  0.125000  0.125000  1
  C  C25  1  0.125000  0.625000  0.125000  1
  C  C26  1  0.125000  0.125000  0.625000  1
  C  C27  1  0.125000  0.125000  0.125000  1
