# generated using pymatgen
data_Ba4ErTcO8
_symmetry_space_group_name_H-M   'P 1'
_cell_length_a   7.41822273
_cell_length_b   7.41822169
_cell_length_c   5.93647700
_cell_angle_alpha   90.00000000
_cell_angle_beta   90.00000000
_cell_angle_gamma   133.04801815
_symmetry_Int_Tables_number   1
_chemical_formula_structural   Ba4ErTcO8
_chemical_formula_sum   'Ba4 Er1 Tc1 O8'
_cell_volume   238.73507824
_cell_formula_units_Z   1
loop_
 _symmetry_equiv_pos_site_id
 _symmetry_equiv_pos_as_xyz
  1  'x, y, z'
loop_
 _atom_site_type_symbol
 _atom_site_label
 _atom_site_symmetry_multiplicity
 _atom_site_fract_x
 _atom_site_fract_y
 _atom_site_fract_z
 _atom_site_occupancy
  Ba  Ba0  1  0.353820  0.646180  0.000000  1
  Ba  Ba1  1  0.853074  0.146926  0.500000  1
  Ba  Ba2  1  0.146926  0.853074  0.500000  1
  Ba  Ba3  1  0.646180  0.353820  0.000000  1
  Er  Er4  1  0.000000  0.000000  0.000000  1
  Tc  Tc5  1  0.500000  0.500000  0.500000  1
  O  O6  1  0.262108  0.262108  0.733065  1
  O  O7  1  0.737892  0.737892  0.266935  1
  O  O8  1  0.737892  0.737892  0.733065  1
  O  O9  1  0.262108  0.262108  0.266935  1
  O  O10  1  0.164307  0.835693  0.000000  1
  O  O11  1  0.649931  0.350069  0.500000  1
  O  O12  1  0.350069  0.649931  0.500000  1
  O  O13  1  0.835693  0.164307  0.000000  1
