# generated using pymatgen
data_Dy3Ho7Ru4
_symmetry_space_group_name_H-M   'P 1'
_cell_length_a   6.31558479
_cell_length_b   7.28807915
_cell_length_c   8.45566629
_cell_angle_alpha   96.76483366
_cell_angle_beta   112.03461489
_cell_angle_gamma   89.98793920
_symmetry_Int_Tables_number   1
_chemical_formula_structural   Dy3Ho7Ru4
_chemical_formula_sum   'Dy3 Ho7 Ru4'
_cell_volume   357.85229346
_cell_formula_units_Z   1
loop_
 _symmetry_equiv_pos_site_id
 _symmetry_equiv_pos_as_xyz
  1  'x, y, z'
loop_
 _atom_site_type_symbol
 _atom_site_label
 _atom_site_symmetry_multiplicity
 _atom_site_fract_x
 _atom_site_fract_y
 _atom_site_fract_z
 _atom_site_occupancy
  Dy  Dy0  1  0.790898  0.584083  0.812540  1
  Dy  Dy1  1  0.977604  0.915935  0.186660  1
  Dy  Dy2  1  0.209383  0.415827  0.187139  1
  Ho  Ho3  1  0.021996  0.084317  0.813356  1
  Ho  Ho4  1  0.205637  0.684894  0.565578  1
  Ho  Ho5  1  0.640461  0.815374  0.435072  1
  Ho  Ho6  1  0.794420  0.314979  0.434668  1
  Ho  Ho7  1  0.359544  0.184922  0.565471  1
  Ho  Ho8  1  0.419252  0.749814  0.999687  1
  Ho  Ho9  1  0.580370  0.250186  0.999972  1
  Ru  Ru10  1  0.602422  0.924620  0.779071  1
  Ru  Ru11  1  0.822499  0.576444  0.220833  1
  Ru  Ru12  1  0.398288  0.075546  0.220612  1
  Ru  Ru13  1  0.177229  0.423061  0.779340  1
