# generated using pymatgen
data_Lu12InTc3Ag
_symmetry_space_group_name_H-M   'P 1'
_cell_length_a   8.24274542
_cell_length_b   8.24274512
_cell_length_c   8.24274477
_cell_angle_alpha   111.20703829
_cell_angle_beta   107.29862061
_cell_angle_gamma   109.93226218
_symmetry_Int_Tables_number   1
_chemical_formula_structural   Lu12InTc3Ag
_chemical_formula_sum   'Lu12 In1 Tc3 Ag1'
_cell_volume   430.59737387
_cell_formula_units_Z   1
loop_
 _symmetry_equiv_pos_site_id
 _symmetry_equiv_pos_as_xyz
  1  'x, y, z'
loop_
 _atom_site_type_symbol
 _atom_site_label
 _atom_site_symmetry_multiplicity
 _atom_site_fract_x
 _atom_site_fract_y
 _atom_site_fract_z
 _atom_site_occupancy
  Lu  Lu0  1  0.308749  0.307249  0.615998  1
  Lu  Lu1  1  0.691251  0.692751  0.384002  1
  Lu  Lu2  1  0.691251  0.307249  0.998501  1
  Lu  Lu3  1  0.308749  0.692751  0.001499  1
  Lu  Lu4  1  0.190950  0.443006  0.252056  1
  Lu  Lu5  1  0.809050  0.556994  0.747944  1
  Lu  Lu6  1  0.190950  0.938892  0.747944  1
  Lu  Lu7  1  0.954493  0.187842  0.766652  1
  Lu  Lu8  1  0.809050  0.061108  0.252056  1
  Lu  Lu9  1  0.045507  0.812158  0.233348  1
  Lu  Lu10  1  0.421190  0.187842  0.233348  1
  Lu  Lu11  1  0.578810  0.812158  0.766652  1
  In  In12  1  0.500000  0.000000  0.500000  1
  Tc  Tc13  1  0.366159  0.366159  0.000000  1
  Tc  Tc14  1  0.633841  0.633841  0.000000  1
  Tc  Tc15  1  0.000000  0.000000  0.000000  1
  Ag  Ag16  1  0.000000  0.500000  0.500000  1
