# generated using pymatgen
data_YbPm3C4
_symmetry_space_group_name_H-M   'P 1'
_cell_length_a   3.62983385
_cell_length_b   7.03628852
_cell_length_c   6.78211439
_cell_angle_alpha   96.13872821
_cell_angle_beta   73.64994101
_cell_angle_gamma   104.98947212
_symmetry_Int_Tables_number   1
_chemical_formula_structural   YbPm3C4
_chemical_formula_sum   'Yb1 Pm3 C4'
_cell_volume   160.44939747
_cell_formula_units_Z   1
loop_
 _symmetry_equiv_pos_site_id
 _symmetry_equiv_pos_as_xyz
  1  'x, y, z'
loop_
 _atom_site_type_symbol
 _atom_site_label
 _atom_site_symmetry_multiplicity
 _atom_site_fract_x
 _atom_site_fract_y
 _atom_site_fract_z
 _atom_site_occupancy
  Yb  Yb0  1  0.699888  0.987021  0.815774  1
  Pm  Pm1  1  0.333585  0.729583  0.269981  1
  Pm  Pm2  1  0.936209  0.501114  0.860309  1
  Pm  Pm3  1  0.569813  0.244913  0.318980  1
  C  C4  1  0.062197  0.016172  0.104683  1
  C  C5  1  0.014876  0.823557  0.015271  1
  C  C6  1  0.209687  0.212149  0.021823  1
  C  C7  1  0.254512  0.406123  0.116746  1
