# generated using pymatgen
data_MnNb6Ga4OsC2
_symmetry_space_group_name_H-M   'P 1'
_cell_length_a   8.31011732
_cell_length_b   8.30286702
_cell_length_c   8.30953823
_cell_angle_alpha   60.05726752
_cell_angle_beta   60.04760937
_cell_angle_gamma   60.05528750
_symmetry_Int_Tables_number   1
_chemical_formula_structural   MnNb6Ga4OsC2
_chemical_formula_sum   'Mn2 Nb12 Ga8 Os2 C4'
_cell_volume   405.90305187
_cell_formula_units_Z   2
loop_
 _symmetry_equiv_pos_site_id
 _symmetry_equiv_pos_as_xyz
  1  'x, y, z'
loop_
 _atom_site_type_symbol
 _atom_site_label
 _atom_site_symmetry_multiplicity
 _atom_site_fract_x
 _atom_site_fract_y
 _atom_site_fract_z
 _atom_site_occupancy
  Mn  Mn0  1  0.625000  0.125000  0.625000  1
  Mn  Mn1  1  0.625000  0.625000  0.625000  1
  Nb  Nb2  1  0.804800  0.804407  0.195396  1
  Nb  Nb3  1  0.195433  0.195408  0.804772  1
  Nb  Nb4  1  0.803153  0.196828  0.803147  1
  Nb  Nb5  1  0.194340  0.805656  0.194352  1
  Nb  Nb6  1  0.195398  0.804401  0.804793  1
  Nb  Nb7  1  0.804780  0.195396  0.195430  1
  Nb  Nb8  1  0.445200  0.445593  0.054604  1
  Nb  Nb9  1  0.054567  0.054592  0.445228  1
  Nb  Nb10  1  0.446847  0.053172  0.446853  1
  Nb  Nb11  1  0.055660  0.444344  0.055648  1
  Nb  Nb12  1  0.054602  0.445599  0.445207  1
  Nb  Nb13  1  0.445220  0.054604  0.054570  1
  Ga  Ga14  1  0.757703  0.412410  0.417406  1
  Ga  Ga15  1  0.415812  0.759527  0.415801  1
  Ga  Ga16  1  0.417424  0.412408  0.757690  1
  Ga  Ga17  1  0.415818  0.408815  0.415802  1
  Ga  Ga18  1  0.492297  0.837590  0.832594  1
  Ga  Ga19  1  0.834188  0.490473  0.834199  1
  Ga  Ga20  1  0.832576  0.837592  0.492310  1
  Ga  Ga21  1  0.834182  0.841185  0.834198  1
  Os  Os22  1  0.125000  0.625000  0.625000  1
  Os  Os23  1  0.625000  0.625000  0.125000  1
  C  C24  1  0.625000  0.125000  0.125000  1
  C  C25  1  0.125000  0.625000  0.125000  1
  C  C26  1  0.125000  0.125000  0.625000  1
  C  C27  1  0.125000  0.125000  0.125000  1
