# generated using pymatgen
data_Ta6V5AsN2
_symmetry_space_group_name_H-M   'P 1'
_cell_length_a   8.23943504
_cell_length_b   8.23073830
_cell_length_c   8.26110600
_cell_angle_alpha   90.00000000
_cell_angle_beta   59.91295708
_cell_angle_gamma   119.96508157
_symmetry_Int_Tables_number   1
_chemical_formula_structural   Ta6V5AsN2
_chemical_formula_sum   'Ta12 V10 As2 N4'
_cell_volume   395.83701996
_cell_formula_units_Z   2
loop_
 _symmetry_equiv_pos_site_id
 _symmetry_equiv_pos_as_xyz
  1  'x, y, z'
loop_
 _atom_site_type_symbol
 _atom_site_label
 _atom_site_symmetry_multiplicity
 _atom_site_fract_x
 _atom_site_fract_y
 _atom_site_fract_z
 _atom_site_occupancy
  Ta  Ta0  1  0.626860  0.813431  0.436569  1
  Ta  Ta1  1  0.871873  0.435936  0.814064  1
  Ta  Ta2  1  0.250625  0.812721  0.814810  1
  Ta  Ta3  1  0.250625  0.437905  0.434566  1
  Ta  Ta4  1  0.250625  0.437905  0.814810  1
  Ta  Ta5  1  0.250625  0.812721  0.434566  1
  Ta  Ta6  1  0.373140  0.186569  0.563431  1
  Ta  Ta7  1  0.128127  0.564064  0.185936  1
  Ta  Ta8  1  0.749375  0.187279  0.185190  1
  Ta  Ta9  1  0.749375  0.562095  0.565434  1
  Ta  Ta10  1  0.749375  0.562095  0.185190  1
  Ta  Ta11  1  0.749375  0.187279  0.565434  1
  V  V12  1  0.095298  0.881569  0.202351  1
  V  V13  1  0.095298  0.213729  0.202351  1
  V  V14  1  0.417826  0.208913  0.876447  1
  V  V15  1  0.417826  0.208913  0.205727  1
  V  V16  1  0.904702  0.118431  0.797649  1
  V  V17  1  0.904702  0.786271  0.797649  1
  V  V18  1  0.582174  0.791087  0.123553  1
  V  V19  1  0.582174  0.791087  0.794273  1
  V  V20  1  0.500000  0.500000  0.000000  1
  V  V21  1  0.500000  0.000000  0.000000  1
  As  As22  1  0.000000  0.000000  0.500000  1
  As  As23  1  0.000000  0.000000  0.000000  1
  N  N24  1  0.500000  0.000000  0.500000  1
  N  N25  1  0.500000  0.500000  0.500000  1
  N  N26  1  0.000000  0.500000  0.000000  1
  N  N27  1  0.000000  0.500000  0.500000  1
