# generated using pymatgen
data_HoSc2Fe8Co
_symmetry_space_group_name_H-M   'P 1'
_cell_length_a   8.44864550
_cell_length_b   8.44864461
_cell_length_c   8.44864576
_cell_angle_alpha   34.36984927
_cell_angle_beta   34.36984531
_cell_angle_gamma   34.36985160
_symmetry_Int_Tables_number   1
_chemical_formula_structural   HoSc2Fe8Co
_chemical_formula_sum   'Ho1 Sc2 Fe8 Co1'
_cell_volume   171.42300653
_cell_formula_units_Z   1
loop_
 _symmetry_equiv_pos_site_id
 _symmetry_equiv_pos_as_xyz
  1  'x, y, z'
loop_
 _atom_site_type_symbol
 _atom_site_label
 _atom_site_symmetry_multiplicity
 _atom_site_fract_x
 _atom_site_fract_y
 _atom_site_fract_z
 _atom_site_occupancy
  Ho  Ho0  1  0.000000  0.000000  0.000000  1
  Sc  Sc1  1  0.143310  0.143310  0.143310  1
  Sc  Sc2  1  0.856690  0.856690  0.856690  1
  Fe  Fe3  1  0.332794  0.332794  0.332794  1
  Fe  Fe4  1  0.667206  0.667206  0.667206  1
  Fe  Fe5  1  0.082468  0.585113  0.585113  1
  Fe  Fe6  1  0.585113  0.585113  0.082468  1
  Fe  Fe7  1  0.585113  0.082468  0.585113  1
  Fe  Fe8  1  0.414887  0.917532  0.414887  1
  Fe  Fe9  1  0.917532  0.414887  0.414887  1
  Fe  Fe10  1  0.414887  0.414887  0.917532  1
  Co  Co11  1  0.500000  0.500000  0.500000  1
