# generated using pymatgen
data_TbEuTmGa8Ag3
_symmetry_space_group_name_H-M   'P 1'
_cell_length_a   4.38591742
_cell_length_b   8.41756945
_cell_length_c   8.41756961
_cell_angle_alpha   69.92135735
_cell_angle_beta   74.89899227
_cell_angle_gamma   74.89899659
_symmetry_Int_Tables_number   1
_chemical_formula_structural   TbEuTmGa8Ag3
_chemical_formula_sum   'Tb1 Eu1 Tm1 Ga8 Ag3'
_cell_volume   276.73862509
_cell_formula_units_Z   1
loop_
 _symmetry_equiv_pos_site_id
 _symmetry_equiv_pos_as_xyz
  1  'x, y, z'
loop_
 _atom_site_type_symbol
 _atom_site_label
 _atom_site_symmetry_multiplicity
 _atom_site_fract_x
 _atom_site_fract_y
 _atom_site_fract_z
 _atom_site_occupancy
  Tb  Tb0  1  0.199951  0.800049  0.800049  1
  Eu  Eu1  1  0.500565  0.499435  0.499435  1
  Tm  Tm2  1  0.800754  0.199246  0.199246  1
  Ga  Ga3  1  0.354681  0.362259  0.928378  1
  Ga  Ga4  1  0.645037  0.636890  0.073036  1
  Ga  Ga5  1  0.354681  0.928378  0.362259  1
  Ga  Ga6  1  0.645037  0.073036  0.636890  1
  Ga  Ga7  1  0.161861  0.469962  0.206316  1
  Ga  Ga8  1  0.838899  0.529039  0.793164  1
  Ga  Ga9  1  0.161861  0.206316  0.469962  1
  Ga  Ga10  1  0.838899  0.793164  0.529039  1
  Ag  Ag11  1  0.499168  0.000832  0.000832  1
  Ag  Ag12  1  0.999303  0.808112  0.193281  1
  Ag  Ag13  1  0.999303  0.193281  0.808112  1
