# generated using pymatgen
data_CaYbSi6Pd20Pb
_symmetry_space_group_name_H-M   'P 1'
_cell_length_a   8.72357203
_cell_length_b   8.72357214
_cell_length_c   8.72357300
_cell_angle_alpha   60.00000054
_cell_angle_beta   60.00000012
_cell_angle_gamma   60.00000269
_symmetry_Int_Tables_number   1
_chemical_formula_structural   CaYbSi6Pd20Pb
_chemical_formula_sum   'Ca1 Yb1 Si6 Pd20 Pb1'
_cell_volume   469.42706050
_cell_formula_units_Z   1
loop_
 _symmetry_equiv_pos_site_id
 _symmetry_equiv_pos_as_xyz
  1  'x, y, z'
loop_
 _atom_site_type_symbol
 _atom_site_label
 _atom_site_symmetry_multiplicity
 _atom_site_fract_x
 _atom_site_fract_y
 _atom_site_fract_z
 _atom_site_occupancy
  Ca  Ca0  1  0.250000  0.250000  0.250000  1
  Yb  Yb1  1  0.000000  0.000000  0.000000  1
  Si  Si2  1  0.730308  0.269692  0.269692  1
  Si  Si3  1  0.269692  0.730308  0.730308  1
  Si  Si4  1  0.269692  0.730308  0.269692  1
  Si  Si5  1  0.730308  0.269692  0.730308  1
  Si  Si6  1  0.269692  0.269692  0.730308  1
  Si  Si7  1  0.730308  0.730308  0.269692  1
  Pd  Pd8  1  0.386004  0.386004  0.386004  1
  Pd  Pd9  1  0.618105  0.618105  0.618105  1
  Pd  Pd10  1  0.386004  0.386004  0.841990  1
  Pd  Pd11  1  0.386004  0.841990  0.386004  1
  Pd  Pd12  1  0.618105  0.618105  0.145682  1
  Pd  Pd13  1  0.618105  0.145682  0.618105  1
  Pd  Pd14  1  0.841990  0.386004  0.386004  1
  Pd  Pd15  1  0.145682  0.618105  0.618105  1
  Pd  Pd16  1  0.340563  0.001860  0.001860  1
  Pd  Pd17  1  0.655717  0.001860  0.001860  1
  Pd  Pd18  1  0.001860  0.340563  0.655717  1
  Pd  Pd19  1  0.001860  0.655717  0.340563  1
  Pd  Pd20  1  0.001860  0.340563  0.001860  1
  Pd  Pd21  1  0.655717  0.001860  0.340563  1
  Pd  Pd22  1  0.001860  0.655717  0.001860  1
  Pd  Pd23  1  0.340563  0.001860  0.655717  1
  Pd  Pd24  1  0.001860  0.001860  0.340563  1
  Pd  Pd25  1  0.001860  0.001860  0.655717  1
  Pd  Pd26  1  0.655717  0.340563  0.001860  1
  Pd  Pd27  1  0.340563  0.655717  0.001860  1
  Pb  Pb28  1  0.750000  0.750000  0.750000  1
