# generated using pymatgen
data_K7Ba(HfTe3)4
_symmetry_space_group_name_H-M   'P 1'
_cell_length_a   14.22046085
_cell_length_b   6.99480768
_cell_length_c   9.28783106
_cell_angle_alpha   73.32087247
_cell_angle_beta   90.92271010
_cell_angle_gamma   89.62485216
_symmetry_Int_Tables_number   1
_chemical_formula_structural   K7Ba(HfTe3)4
_chemical_formula_sum   'K7 Ba1 Hf4 Te12'
_cell_volume   884.81071062
_cell_formula_units_Z   1
loop_
 _symmetry_equiv_pos_site_id
 _symmetry_equiv_pos_as_xyz
  1  'x, y, z'
loop_
 _atom_site_type_symbol
 _atom_site_label
 _atom_site_symmetry_multiplicity
 _atom_site_fract_x
 _atom_site_fract_y
 _atom_site_fract_z
 _atom_site_occupancy
  K  K0  1  0.466704  0.841958  0.346593  1
  K  K1  1  0.044589  0.332993  0.330975  1
  K  K2  1  0.534103  0.156428  0.657145  1
  K  K3  1  0.858929  0.061933  0.905595  1
  K  K4  1  0.364680  0.435519  0.098917  1
  K  K5  1  0.136556  0.936450  0.097641  1
  K  K6  1  0.632084  0.563461  0.902921  1
  Ba  Ba7  1  0.960889  0.668488  0.653492  1
  Hf  Hf8  1  0.751512  0.675718  0.293585  1
  Hf  Hf9  1  0.248520  0.825796  0.706320  1
  Hf  Hf10  1  0.247773  0.322198  0.706067  1
  Hf  Hf11  1  0.753356  0.177206  0.293997  1
  Te  Te12  1  0.918499  0.925623  0.277453  1
  Te  Te13  1  0.411612  0.570298  0.718942  1
  Te  Te14  1  0.079700  0.076035  0.719731  1
  Te  Te15  1  0.587720  0.427616  0.283694  1
  Te  Te16  1  0.825704  0.332769  0.529467  1
  Te  Te17  1  0.307645  0.167448  0.465582  1
  Te  Te18  1  0.174839  0.667911  0.471301  1
  Te  Te19  1  0.699392  0.831884  0.539982  1
  Te  Te20  1  0.848253  0.505874  0.074621  1
  Te  Te21  1  0.346920  0.993348  0.922815  1
  Te  Te22  1  0.149535  0.497241  0.919767  1
  Te  Te23  1  0.650486  0.005804  0.083400  1
