# generated using pymatgen
data_LaPa2(AlPt)3
_symmetry_space_group_name_H-M   'P 1'
_cell_length_a   7.19628281
_cell_length_b   7.17192726
_cell_length_c   4.16436400
_cell_angle_alpha   90.00000000
_cell_angle_beta   90.00000000
_cell_angle_gamma   119.88811800
_symmetry_Int_Tables_number   1
_chemical_formula_structural   LaPa2(AlPt)3
_chemical_formula_sum   'La1 Pa2 Al3 Pt3'
_cell_volume   186.34250645
_cell_formula_units_Z   1
loop_
 _symmetry_equiv_pos_site_id
 _symmetry_equiv_pos_as_xyz
  1  'x, y, z'
loop_
 _atom_site_type_symbol
 _atom_site_label
 _atom_site_symmetry_multiplicity
 _atom_site_fract_x
 _atom_site_fract_y
 _atom_site_fract_z
 _atom_site_occupancy
  La  La0  1  0.000000  0.578154  0.500000  1
  Pa  Pa1  1  0.422294  0.420159  0.500000  1
  Pa  Pa2  1  0.577706  0.997864  0.500000  1
  Al  Al3  1  0.764018  0.764310  0.000000  1
  Al  Al4  1  0.235982  0.000293  0.000000  1
  Al  Al5  1  0.000000  0.235871  0.000000  1
  Pt  Pt6  1  0.644667  0.315891  0.000000  1
  Pt  Pt7  1  0.355333  0.671225  0.000000  1
  Pt  Pt8  1  0.000000  0.016234  0.500000  1
