# generated using pymatgen
data_Dy4MoOs6W
_symmetry_space_group_name_H-M   'P 1'
_cell_length_a   5.24558142
_cell_length_b   5.24558176
_cell_length_c   8.99254800
_cell_angle_alpha   90.00000000
_cell_angle_beta   90.00000000
_cell_angle_gamma   115.83112195
_symmetry_Int_Tables_number   1
_chemical_formula_structural   Dy4MoOs6W
_chemical_formula_sum   'Dy4 Mo1 Os6 W1'
_cell_volume   222.71642411
_cell_formula_units_Z   1
loop_
 _symmetry_equiv_pos_site_id
 _symmetry_equiv_pos_as_xyz
  1  'x, y, z'
loop_
 _atom_site_type_symbol
 _atom_site_label
 _atom_site_symmetry_multiplicity
 _atom_site_fract_x
 _atom_site_fract_y
 _atom_site_fract_z
 _atom_site_occupancy
  Dy  Dy0  1  0.328949  0.671051  0.435621  1
  Dy  Dy1  1  0.668432  0.331568  0.563969  1
  Dy  Dy2  1  0.668432  0.331568  0.936031  1
  Dy  Dy3  1  0.328949  0.671051  0.064379  1
  Mo  Mo4  1  0.169150  0.830850  0.750000  1
  Os  Os5  1  0.997697  0.002303  0.500911  1
  Os  Os6  1  0.997697  0.002303  0.999089  1
  Os  Os7  1  0.826269  0.650387  0.250000  1
  Os  Os8  1  0.349613  0.173731  0.250000  1
  Os  Os9  1  0.172811  0.344706  0.750000  1
  Os  Os10  1  0.655294  0.827189  0.750000  1
  W  W11  1  0.836707  0.163293  0.250000  1
