# generated using pymatgen
data_U3TiBi4Sb
_symmetry_space_group_name_H-M   'P 1'
_cell_length_a   9.34724541
_cell_length_b   9.38468369
_cell_length_c   6.34940400
_cell_angle_alpha   90.00000000
_cell_angle_beta   90.00000000
_cell_angle_gamma   120.13259867
_symmetry_Int_Tables_number   1
_chemical_formula_structural   U3TiBi4Sb
_chemical_formula_sum   'U6 Ti2 Bi8 Sb2'
_cell_volume   481.70931186
_cell_formula_units_Z   2
loop_
 _symmetry_equiv_pos_site_id
 _symmetry_equiv_pos_as_xyz
  1  'x, y, z'
loop_
 _atom_site_type_symbol
 _atom_site_label
 _atom_site_symmetry_multiplicity
 _atom_site_fract_x
 _atom_site_fract_y
 _atom_site_fract_z
 _atom_site_occupancy
  U  U0  1  0.382286  0.004595  0.750000  1
  U  U1  1  0.382286  0.377692  0.250000  1
  U  U2  1  0.003411  0.620077  0.250000  1
  U  U3  1  0.003411  0.383334  0.750000  1
  U  U4  1  0.606400  0.607284  0.750000  1
  U  U5  1  0.606400  0.999116  0.250000  1
  Ti  Ti6  1  0.009656  0.004828  0.500000  1
  Ti  Ti7  1  0.009656  0.004828  0.000000  1
  Bi  Bi8  1  0.332532  0.666267  0.500000  1
  Bi  Bi9  1  0.668328  0.334164  0.000000  1
  Bi  Bi10  1  0.668328  0.334164  0.500000  1
  Bi  Bi11  1  0.332532  0.666267  0.000000  1
  Bi  Bi12  1  0.738249  0.997485  0.750000  1
  Bi  Bi13  1  0.738249  0.740764  0.250000  1
  Bi  Bi14  1  0.997427  0.261843  0.250000  1
  Bi  Bi15  1  0.997427  0.735584  0.750000  1
  Sb  Sb16  1  0.261712  0.999625  0.250000  1
  Sb  Sb17  1  0.261712  0.262087  0.750000  1
