# generated using pymatgen
data_RbCu(PO3)4
_symmetry_space_group_name_H-M   'P 1'
_cell_length_a   13.95228400
_cell_length_b   5.34366547
_cell_length_c   7.30106656
_cell_angle_alpha   77.03789656
_cell_angle_beta   90.00000000
_cell_angle_gamma   90.00000000
_symmetry_Int_Tables_number   1
_chemical_formula_structural   RbCu(PO3)4
_chemical_formula_sum   'Rb2 Cu2 P8 O24'
_cell_volume   530.47024353
_cell_formula_units_Z   2
loop_
 _symmetry_equiv_pos_site_id
 _symmetry_equiv_pos_as_xyz
  1  'x, y, z'
loop_
 _atom_site_type_symbol
 _atom_site_label
 _atom_site_symmetry_multiplicity
 _atom_site_fract_x
 _atom_site_fract_y
 _atom_site_fract_z
 _atom_site_occupancy
  Rb  Rb0  1  0.008063  0.388241  0.826964  1
  Rb  Rb1  1  0.508063  0.611759  0.173036  1
  Cu  Cu2  1  0.236248  0.509261  0.489564  1
  Cu  Cu3  1  0.736248  0.490739  0.510436  1
  P  P4  1  0.880030  0.960793  0.454313  1
  P  P5  1  0.820328  0.781252  0.127831  1
  P  P6  1  0.380030  0.039207  0.545687  1
  P  P7  1  0.175096  0.860297  0.098916  1
  P  P8  1  0.092322  0.978882  0.438582  1
  P  P9  1  0.592322  0.021118  0.561418  1
  P  P10  1  0.675096  0.139703  0.901084  1
  P  P11  1  0.320328  0.218748  0.872169  1
  O  O12  1  0.162600  0.776063  0.542523  1
  O  O13  1  0.092691  0.225296  0.499056  1
  O  O14  1  0.609844  0.976419  0.784851  1
  O  O15  1  0.988094  0.841651  0.466278  1
  O  O16  1  0.877150  0.203216  0.520736  1
  O  O17  1  0.855587  0.004669  0.234526  1
  O  O18  1  0.109844  0.023581  0.215149  1
  O  O19  1  0.622565  0.171843  0.069888  1
  O  O20  1  0.122565  0.828157  0.930112  1
  O  O21  1  0.240372  0.371257  0.750627  1
  O  O22  1  0.377150  0.796784  0.479264  1
  O  O23  1  0.592691  0.774704  0.500944  1
  O  O24  1  0.662600  0.223937  0.457477  1
  O  O25  1  0.488094  0.158349  0.533722  1
  O  O26  1  0.267533  0.046109  0.052827  1
  O  O27  1  0.902346  0.648279  0.065099  1
  O  O28  1  0.710210  0.387630  0.769036  1
  O  O29  1  0.767533  0.953891  0.947173  1
  O  O30  1  0.402346  0.351721  0.934901  1
  O  O31  1  0.818685  0.741124  0.567512  1
  O  O32  1  0.318685  0.258876  0.432488  1
  O  O33  1  0.355587  0.995331  0.765474  1
  O  O34  1  0.740372  0.628743  0.249373  1
  O  O35  1  0.210210  0.612370  0.230964  1
