# generated using pymatgen
data_Ta6Ga4Co2BN
_symmetry_space_group_name_H-M   'P 1'
_cell_length_a   8.19834996
_cell_length_b   8.22240834
_cell_length_c   8.19828100
_cell_angle_alpha   59.89731035
_cell_angle_beta   59.87541178
_cell_angle_gamma   59.89762292
_symmetry_Int_Tables_number   1
_chemical_formula_structural   Ta6Ga4Co2BN
_chemical_formula_sum   'Ta12 Ga8 Co4 B2 N2'
_cell_volume   389.80658187
_cell_formula_units_Z   2
loop_
 _symmetry_equiv_pos_site_id
 _symmetry_equiv_pos_as_xyz
  1  'x, y, z'
loop_
 _atom_site_type_symbol
 _atom_site_label
 _atom_site_symmetry_multiplicity
 _atom_site_fract_x
 _atom_site_fract_y
 _atom_site_fract_z
 _atom_site_occupancy
  Ta  Ta0  1  0.556050  0.943982  0.556004  1
  Ta  Ta1  1  0.303615  0.690739  0.694880  1
  Ta  Ta2  1  0.694925  0.310730  0.303571  1
  Ta  Ta3  1  0.309756  0.690282  0.309760  1
  Ta  Ta4  1  0.694863  0.690764  0.303610  1
  Ta  Ta5  1  0.303572  0.310729  0.694942  1
  Ta  Ta6  1  0.555135  0.559236  0.946379  1
  Ta  Ta7  1  0.946391  0.559258  0.555118  1
  Ta  Ta8  1  0.555070  0.939279  0.946430  1
  Ta  Ta9  1  0.946425  0.939277  0.555056  1
  Ta  Ta10  1  0.693949  0.306008  0.693997  1
  Ta  Ta11  1  0.940249  0.559715  0.940244  1
  Ga  Ga12  1  0.915212  0.917721  0.915125  1
  Ga  Ga13  1  0.999859  0.332917  0.334211  1
  Ga  Ga14  1  0.334740  0.998086  0.334829  1
  Ga  Ga15  1  0.334169  0.332949  0.999831  1
  Ga  Ga16  1  0.915258  0.251921  0.915169  1
  Ga  Ga17  1  0.915833  0.917048  0.250169  1
  Ga  Ga18  1  0.250142  0.917082  0.915788  1
  Ga  Ga19  1  0.334782  0.332282  0.334872  1
  Co  Co20  1  0.124997  0.125002  0.125000  1
  Co  Co21  1  0.624997  0.125002  0.125002  1
  Co  Co22  1  0.124998  0.625001  0.124995  1
  Co  Co23  1  0.125001  0.125001  0.624997  1
  B  B24  1  0.624998  0.625001  0.625011  1
  B  B25  1  0.625007  0.124996  0.625006  1
  N  N26  1  0.125001  0.624998  0.625004  1
  N  N27  1  0.625002  0.624999  0.125005  1
