# generated using pymatgen
data_Ta3CrCo2N
_symmetry_space_group_name_H-M   'P 1'
_cell_length_a   8.00218655
_cell_length_b   8.00218637
_cell_length_c   8.00218700
_cell_angle_alpha   60.00000151
_cell_angle_beta   60.00000228
_cell_angle_gamma   60.00000314
_symmetry_Int_Tables_number   1
_chemical_formula_structural   Ta3CrCo2N
_chemical_formula_sum   'Ta12 Cr4 Co8 N4'
_cell_volume   362.33564015
_cell_formula_units_Z   4
loop_
 _symmetry_equiv_pos_site_id
 _symmetry_equiv_pos_as_xyz
  1  'x, y, z'
loop_
 _atom_site_type_symbol
 _atom_site_label
 _atom_site_symmetry_multiplicity
 _atom_site_fract_x
 _atom_site_fract_y
 _atom_site_fract_z
 _atom_site_occupancy
  Ta  Ta0  1  0.803547  0.803547  0.196453  1
  Ta  Ta1  1  0.196453  0.196453  0.803547  1
  Ta  Ta2  1  0.803547  0.196453  0.803547  1
  Ta  Ta3  1  0.196453  0.803547  0.196453  1
  Ta  Ta4  1  0.196453  0.803547  0.803547  1
  Ta  Ta5  1  0.803547  0.196453  0.196453  1
  Ta  Ta6  1  0.446453  0.446453  0.053547  1
  Ta  Ta7  1  0.053547  0.053547  0.446453  1
  Ta  Ta8  1  0.446453  0.053547  0.446453  1
  Ta  Ta9  1  0.053547  0.446453  0.053547  1
  Ta  Ta10  1  0.053547  0.446453  0.446453  1
  Ta  Ta11  1  0.446453  0.053547  0.053547  1
  Cr  Cr12  1  0.125000  0.625000  0.625000  1
  Cr  Cr13  1  0.625000  0.125000  0.625000  1
  Cr  Cr14  1  0.625000  0.625000  0.125000  1
  Cr  Cr15  1  0.625000  0.625000  0.625000  1
  Co  Co16  1  0.728422  0.423859  0.423859  1
  Co  Co17  1  0.423859  0.728422  0.423859  1
  Co  Co18  1  0.423859  0.423859  0.728422  1
  Co  Co19  1  0.423859  0.423859  0.423859  1
  Co  Co20  1  0.521578  0.826141  0.826141  1
  Co  Co21  1  0.826141  0.521578  0.826141  1
  Co  Co22  1  0.826141  0.826141  0.521578  1
  Co  Co23  1  0.826141  0.826141  0.826141  1
  N  N24  1  0.625000  0.125000  0.125000  1
  N  N25  1  0.125000  0.625000  0.125000  1
  N  N26  1  0.125000  0.125000  0.625000  1
  N  N27  1  0.125000  0.125000  0.125000  1
