# generated using pymatgen
data_HgBrNO3
_symmetry_space_group_name_H-M   'P 1'
_cell_length_a   5.42380700
_cell_length_b   7.41136600
_cell_length_c   12.49970600
_cell_angle_alpha   90.00000000
_cell_angle_beta   90.00000000
_cell_angle_gamma   90.00000000
_symmetry_Int_Tables_number   1
_chemical_formula_structural   HgBrNO3
_chemical_formula_sum   'Hg4 Br4 N4 O12'
_cell_volume   502.46091672
_cell_formula_units_Z   4
loop_
 _symmetry_equiv_pos_site_id
 _symmetry_equiv_pos_as_xyz
  1  'x, y, z'
loop_
 _atom_site_type_symbol
 _atom_site_label
 _atom_site_symmetry_multiplicity
 _atom_site_fract_x
 _atom_site_fract_y
 _atom_site_fract_z
 _atom_site_occupancy
  Hg  Hg0  1  0.750000  0.080472  0.786011  1
  Hg  Hg1  1  0.250000  0.419528  0.286011  1
  Hg  Hg2  1  0.250000  0.919528  0.213989  1
  Hg  Hg3  1  0.750000  0.580472  0.713989  1
  Br  Br4  1  0.750000  0.384489  0.886957  1
  Br  Br5  1  0.250000  0.115511  0.386957  1
  Br  Br6  1  0.750000  0.884489  0.613043  1
  Br  Br7  1  0.250000  0.615511  0.113043  1
  N  N8  1  0.250000  0.937732  0.856637  1
  N  N9  1  0.250000  0.437732  0.643363  1
  N  N10  1  0.750000  0.562268  0.356637  1
  N  N11  1  0.750000  0.062268  0.143363  1
  O  O12  1  0.046861  0.870892  0.887847  1
  O  O13  1  0.546861  0.129108  0.112153  1
  O  O14  1  0.953139  0.629108  0.387847  1
  O  O15  1  0.750000  0.926860  0.206548  1
  O  O16  1  0.453139  0.370892  0.612153  1
  O  O17  1  0.953139  0.129108  0.112153  1
  O  O18  1  0.546861  0.629108  0.387847  1
  O  O19  1  0.250000  0.573140  0.706548  1
  O  O20  1  0.046861  0.370892  0.612153  1
  O  O21  1  0.453139  0.870892  0.887847  1
  O  O22  1  0.750000  0.426860  0.293452  1
  O  O23  1  0.250000  0.073140  0.793452  1
