# generated using pymatgen
data_Ho5In4PdRh
_symmetry_space_group_name_H-M   'P 1'
_cell_length_a   3.59992300
_cell_length_b   8.10190434
_cell_length_c   18.25177578
_cell_angle_alpha   90.03339877
_cell_angle_beta   90.00000000
_cell_angle_gamma   90.00000000
_symmetry_Int_Tables_number   1
_chemical_formula_structural   Ho5In4PdRh
_chemical_formula_sum   'Ho10 In8 Pd2 Rh2'
_cell_volume   532.33543244
_cell_formula_units_Z   2
loop_
 _symmetry_equiv_pos_site_id
 _symmetry_equiv_pos_as_xyz
  1  'x, y, z'
loop_
 _atom_site_type_symbol
 _atom_site_label
 _atom_site_symmetry_multiplicity
 _atom_site_fract_x
 _atom_site_fract_y
 _atom_site_fract_z
 _atom_site_occupancy
  Ho  Ho0  1  0.000000  0.500000  0.500000  1
  Ho  Ho1  1  0.000000  0.000000  0.000000  1
  Ho  Ho2  1  0.000000  0.731741  0.277889  1
  Ho  Ho3  1  0.000000  0.268259  0.722111  1
  Ho  Ho4  1  0.000000  0.748587  0.780104  1
  Ho  Ho5  1  0.000000  0.251413  0.219896  1
  Ho  Ho6  1  0.000000  0.613428  0.086801  1
  Ho  Ho7  1  0.000000  0.386572  0.913199  1
  Ho  Ho8  1  0.000000  0.884207  0.583853  1
  Ho  Ho9  1  0.000000  0.115793  0.416147  1
  In  In10  1  0.500000  0.710100  0.931402  1
  In  In11  1  0.500000  0.289900  0.068598  1
  In  In12  1  0.500000  0.789984  0.431700  1
  In  In13  1  0.500000  0.210016  0.568300  1
  In  In14  1  0.500000  0.578251  0.649517  1
  In  In15  1  0.500000  0.421749  0.350483  1
  In  In16  1  0.500000  0.920354  0.149642  1
  In  In17  1  0.500000  0.079646  0.850358  1
  Pd  Pd18  1  0.500000  0.978162  0.695994  1
  Pd  Pd19  1  0.500000  0.021838  0.304006  1
  Rh  Rh20  1  0.500000  0.521319  0.195066  1
  Rh  Rh21  1  0.500000  0.478681  0.804934  1
