# generated using pymatgen
data_Nb2Ir2Se5S3
_symmetry_space_group_name_H-M   'P 1'
_cell_length_a   3.58770000
_cell_length_b   11.65903000
_cell_length_c   13.55638500
_cell_angle_alpha   90.00000000
_cell_angle_beta   90.00000000
_cell_angle_gamma   90.00000000
_symmetry_Int_Tables_number   1
_chemical_formula_structural   Nb2Ir2Se5S3
_chemical_formula_sum   'Nb4 Ir4 Se10 S6'
_cell_volume   567.05140998
_cell_formula_units_Z   2
loop_
 _symmetry_equiv_pos_site_id
 _symmetry_equiv_pos_as_xyz
  1  'x, y, z'
loop_
 _atom_site_type_symbol
 _atom_site_label
 _atom_site_symmetry_multiplicity
 _atom_site_fract_x
 _atom_site_fract_y
 _atom_site_fract_z
 _atom_site_occupancy
  Nb  Nb0  1  0.000000  0.045864  0.001266  1
  Nb  Nb1  1  0.500000  0.954136  0.501266  1
  Nb  Nb2  1  0.000000  0.263042  0.494757  1
  Nb  Nb3  1  0.500000  0.736958  0.994757  1
  Ir  Ir4  1  0.000000  0.534251  0.003578  1
  Ir  Ir5  1  0.500000  0.465749  0.503578  1
  Ir  Ir6  1  0.000000  0.753286  0.494374  1
  Ir  Ir7  1  0.500000  0.246714  0.994374  1
  Se  Se8  1  0.500000  0.437405  0.904054  1
  Se  Se9  1  0.000000  0.562595  0.404054  1
  Se  Se10  1  0.000000  0.064411  0.389064  1
  Se  Se11  1  0.500000  0.935589  0.889064  1
  Se  Se12  1  0.000000  0.193375  0.869014  1
  Se  Se13  1  0.500000  0.806625  0.369014  1
  Se  Se14  1  0.000000  0.343465  0.094484  1
  Se  Se15  1  0.500000  0.656535  0.594484  1
  Se  Se16  1  0.000000  0.410695  0.628372  1
  Se  Se17  1  0.500000  0.589305  0.128372  1
  S  S18  1  0.500000  0.098739  0.117411  1
  S  S19  1  0.000000  0.901261  0.617411  1
  S  S20  1  0.500000  0.152920  0.587838  1
  S  S21  1  0.000000  0.847080  0.087838  1
  S  S22  1  0.500000  0.320546  0.378848  1
  S  S23  1  0.000000  0.679454  0.878848  1
