# generated using pymatgen
data_HfZr15(TaSi4)4
_symmetry_space_group_name_H-M   'P 1'
_cell_length_a   7.06395620
_cell_length_b   7.06379804
_cell_length_c   12.94365345
_cell_angle_alpha   90.01270775
_cell_angle_beta   90.02737024
_cell_angle_gamma   89.99863582
_symmetry_Int_Tables_number   1
_chemical_formula_structural   HfZr15(TaSi4)4
_chemical_formula_sum   'Hf1 Zr15 Ta4 Si16'
_cell_volume   645.86698977
_cell_formula_units_Z   1
loop_
 _symmetry_equiv_pos_site_id
 _symmetry_equiv_pos_as_xyz
  1  'x, y, z'
loop_
 _atom_site_type_symbol
 _atom_site_label
 _atom_site_symmetry_multiplicity
 _atom_site_fract_x
 _atom_site_fract_y
 _atom_site_fract_z
 _atom_site_occupancy
  Hf  Hf0  1  0.354516  0.503076  0.376191  1
  Zr  Zr1  1  0.854466  0.997373  0.373856  1
  Zr  Zr2  1  0.002854  0.145450  0.126277  1
  Zr  Zr3  1  0.997448  0.854379  0.625995  1
  Zr  Zr4  1  0.645406  0.497421  0.876177  1
  Zr  Zr5  1  0.502314  0.354567  0.623532  1
  Zr  Zr6  1  0.497276  0.645196  0.124082  1
  Zr  Zr7  1  0.145428  0.002604  0.873890  1
  Zr  Zr8  1  0.999392  0.650469  0.033966  1
  Zr  Zr9  1  0.000987  0.349672  0.533706  1
  Zr  Zr10  1  0.650393  0.999309  0.966088  1
  Zr  Zr11  1  0.150548  0.500662  0.783963  1
  Zr  Zr12  1  0.849057  0.499271  0.283900  1
  Zr  Zr13  1  0.500603  0.150854  0.216244  1
  Zr  Zr14  1  0.499294  0.849551  0.715972  1
  Zr  Zr15  1  0.349579  0.000874  0.466124  1
  Ta  Ta16  1  0.675086  0.675301  0.499727  1
  Ta  Ta17  1  0.824456  0.175530  0.749944  1
  Ta  Ta18  1  0.175945  0.823947  0.250292  1
  Ta  Ta19  1  0.324420  0.324444  0.000076  1
  Si  Si20  1  0.049962  0.699492  0.435504  1
  Si  Si21  1  0.950845  0.300152  0.935702  1
  Si  Si22  1  0.699862  0.049058  0.564321  1
  Si  Si23  1  0.200244  0.450949  0.186207  1
  Si  Si24  1  0.800168  0.549119  0.685727  1
  Si  Si25  1  0.450854  0.199859  0.814225  1
  Si  Si26  1  0.548656  0.799345  0.314541  1
  Si  Si27  1  0.300155  0.950877  0.064310  1
  Si  Si28  1  0.852219  0.798251  0.821378  1
  Si  Si29  1  0.148118  0.202694  0.321634  1
  Si  Si30  1  0.798297  0.852236  0.178585  1
  Si  Si31  1  0.298388  0.647515  0.570901  1
  Si  Si32  1  0.701830  0.352202  0.071393  1
  Si  Si33  1  0.646859  0.298841  0.428310  1
  Si  Si34  1  0.352286  0.701754  0.928630  1
  Si  Si35  1  0.201786  0.147706  0.678630  1
