# generated using pymatgen
data_Tb2Er7Tm(In2Ni)4
_symmetry_space_group_name_H-M   'P 1'
_cell_length_a   3.57382400
_cell_length_b   7.97452701
_cell_length_c   17.86478001
_cell_angle_alpha   89.99531532
_cell_angle_beta   90.00000000
_cell_angle_gamma   90.00000000
_symmetry_Int_Tables_number   1
_chemical_formula_structural   Tb2Er7Tm(In2Ni)4
_chemical_formula_sum   'Tb2 Er7 Tm1 In8 Ni4'
_cell_volume   509.13829685
_cell_formula_units_Z   1
loop_
 _symmetry_equiv_pos_site_id
 _symmetry_equiv_pos_as_xyz
  1  'x, y, z'
loop_
 _atom_site_type_symbol
 _atom_site_label
 _atom_site_symmetry_multiplicity
 _atom_site_fract_x
 _atom_site_fract_y
 _atom_site_fract_z
 _atom_site_occupancy
  Tb  Tb0  1  0.000000  0.499984  0.499921  1
  Tb  Tb1  1  0.000000  0.000005  0.000047  1
  Er  Er2  1  0.000000  0.746085  0.278213  1
  Er  Er3  1  0.000000  0.253883  0.721849  1
  Er  Er4  1  0.000000  0.753950  0.778090  1
  Er  Er5  1  0.000000  0.245961  0.221966  1
  Er  Er6  1  0.000000  0.616866  0.088452  1
  Er  Er7  1  0.000000  0.383067  0.911708  1
  Er  Er8  1  0.000000  0.883132  0.588249  1
  Tm  Tm9  1  0.000000  0.116795  0.411327  1
  In  In10  1  0.500000  0.704791  0.930849  1
  In  In11  1  0.500000  0.295189  0.069263  1
  In  In12  1  0.500000  0.796070  0.430938  1
  In  In13  1  0.500000  0.204505  0.568761  1
  In  In14  1  0.500000  0.573557  0.651978  1
  In  In15  1  0.500000  0.425864  0.348019  1
  In  In16  1  0.500000  0.926531  0.152231  1
  In  In17  1  0.500000  0.073378  0.847857  1
  Ni  Ni18  1  0.500000  0.524350  0.195632  1
  Ni  Ni19  1  0.500000  0.475632  0.804379  1
  Ni  Ni20  1  0.500000  0.975670  0.695510  1
  Ni  Ni21  1  0.500000  0.024733  0.304761  1
