# generated using pymatgen
data_NdEr6Sn23Ru6
_symmetry_space_group_name_H-M   'P 1'
_cell_length_a   9.84191600
_cell_length_b   9.84191626
_cell_length_c   10.06966800
_cell_angle_alpha   90.00000000
_cell_angle_beta   90.00000000
_cell_angle_gamma   120.00000585
_symmetry_Int_Tables_number   1
_chemical_formula_structural   NdEr6Sn23Ru6
_chemical_formula_sum   'Nd1 Er6 Sn23 Ru6'
_cell_volume   844.70502473
_cell_formula_units_Z   1
loop_
 _symmetry_equiv_pos_site_id
 _symmetry_equiv_pos_as_xyz
  1  'x, y, z'
loop_
 _atom_site_type_symbol
 _atom_site_label
 _atom_site_symmetry_multiplicity
 _atom_site_fract_x
 _atom_site_fract_y
 _atom_site_fract_z
 _atom_site_occupancy
  Nd  Nd0  1  0.000000  0.000000  0.000000  1
  Er  Er1  1  0.485016  0.514984  0.302672  1
  Er  Er2  1  0.514984  0.485016  0.697328  1
  Er  Er3  1  0.485016  0.970034  0.302672  1
  Er  Er4  1  0.514984  0.029966  0.697328  1
  Er  Er5  1  0.029966  0.514984  0.302672  1
  Er  Er6  1  0.970034  0.485016  0.697328  1
  Sn  Sn7  1  0.119086  0.880914  0.275063  1
  Sn  Sn8  1  0.880914  0.119086  0.724937  1
  Sn  Sn9  1  0.119086  0.238172  0.275063  1
  Sn  Sn10  1  0.880914  0.761828  0.724937  1
  Sn  Sn11  1  0.761828  0.880914  0.275063  1
  Sn  Sn12  1  0.238172  0.119086  0.724937  1
  Sn  Sn13  1  0.779721  0.220279  0.462785  1
  Sn  Sn14  1  0.220279  0.779721  0.537215  1
  Sn  Sn15  1  0.779721  0.559444  0.462785  1
  Sn  Sn16  1  0.220279  0.440556  0.537215  1
  Sn  Sn17  1  0.440556  0.220279  0.462785  1
  Sn  Sn18  1  0.559444  0.779721  0.537215  1
  Sn  Sn19  1  0.349956  0.000000  0.000000  1
  Sn  Sn20  1  0.650044  0.000000  0.000000  1
  Sn  Sn21  1  0.000000  0.349956  0.000000  1
  Sn  Sn22  1  0.000000  0.650044  0.000000  1
  Sn  Sn23  1  0.650044  0.650044  0.000000  1
  Sn  Sn24  1  0.349956  0.349956  0.000000  1
  Sn  Sn25  1  0.333333  0.666667  0.129448  1
  Sn  Sn26  1  0.666667  0.333333  0.870552  1
  Sn  Sn27  1  0.333333  0.666667  0.822800  1
  Sn  Sn28  1  0.666667  0.333333  0.177200  1
  Sn  Sn29  1  0.000000  0.000000  0.500000  1
  Ru  Ru30  1  0.829262  0.170738  0.203031  1
  Ru  Ru31  1  0.170738  0.829262  0.796969  1
  Ru  Ru32  1  0.829262  0.658525  0.203031  1
  Ru  Ru33  1  0.170738  0.341475  0.796969  1
  Ru  Ru34  1  0.341475  0.170738  0.203031  1
  Ru  Ru35  1  0.658525  0.829262  0.796969  1
