# generated using pymatgen
data_HfZr5Co16Ni4P13
_symmetry_space_group_name_H-M   'P 1'
_cell_length_a   12.37540720
_cell_length_b   12.37745193
_cell_length_c   3.60774100
_cell_angle_alpha   90.00000000
_cell_angle_beta   90.00000000
_cell_angle_gamma   119.94413042
_symmetry_Int_Tables_number   1
_chemical_formula_structural   HfZr5Co16Ni4P13
_chemical_formula_sum   'Hf1 Zr5 Co16 Ni4 P13'
_cell_volume   478.85161152
_cell_formula_units_Z   1
loop_
 _symmetry_equiv_pos_site_id
 _symmetry_equiv_pos_as_xyz
  1  'x, y, z'
loop_
 _atom_site_type_symbol
 _atom_site_label
 _atom_site_symmetry_multiplicity
 _atom_site_fract_x
 _atom_site_fract_y
 _atom_site_fract_z
 _atom_site_occupancy
  Hf  Hf0  1  0.194873  0.718180  0.000000  1
  Zr  Zr1  1  0.810930  0.285825  0.500000  1
  Zr  Zr2  1  0.714393  0.525324  0.500000  1
  Zr  Zr3  1  0.474398  0.188937  0.500000  1
  Zr  Zr4  1  0.281400  0.475442  0.000000  1
  Zr  Zr5  1  0.524467  0.806334  0.000000  1
  Co  Co6  1  0.419112  0.979178  0.000000  1
  Co  Co7  1  0.020810  0.440693  0.000000  1
  Co  Co8  1  0.583626  0.017955  0.500000  1
  Co  Co9  1  0.559870  0.580619  0.000000  1
  Co  Co10  1  0.983034  0.566871  0.500000  1
  Co  Co11  1  0.926267  0.076356  0.500000  1
  Co  Co12  1  0.150631  0.073757  0.500000  1
  Co  Co13  1  0.923945  0.849266  0.500000  1
  Co  Co14  1  0.098122  0.895629  0.000000  1
  Co  Co15  1  0.798825  0.902263  0.000000  1
  Co  Co16  1  0.103598  0.201254  0.000000  1
  Co  Co17  1  0.332256  0.667084  0.500000  1
  Co  Co18  1  0.676617  0.745130  0.500000  1
  Co  Co19  1  0.254428  0.930359  0.500000  1
  Co  Co20  1  0.434094  0.416329  0.500000  1
  Co  Co21  1  0.068483  0.323624  0.500000  1
  Ni  Ni22  1  0.666464  0.333293  0.000000  1
  Ni  Ni23  1  0.918853  0.674854  0.000000  1
  Ni  Ni24  1  0.325086  0.244114  0.000000  1
  Ni  Ni25  1  0.756127  0.081208  0.000000  1
  P  P26  1  0.000248  0.999707  0.000000  1
  P  P27  1  0.228158  0.282812  0.500000  1
  P  P28  1  0.717209  0.945399  0.500000  1
  P  P29  1  0.055491  0.771308  0.500000  1
  P  P30  1  0.764841  0.713527  0.000000  1
  P  P31  1  0.286170  0.051340  0.000000  1
  P  P32  1  0.472051  0.612839  0.500000  1
  P  P33  1  0.386811  0.859603  0.500000  1
  P  P34  1  0.861131  0.475306  0.000000  1
  P  P35  1  0.524550  0.386090  0.000000  1
  P  P36  1  0.613749  0.138575  0.000000  1
  P  P37  1  0.948760  0.235367  0.000000  1
  P  P38  1  0.140125  0.528250  0.500000  1
