# generated using pymatgen
data_Sc4Al18Rh5Au
_symmetry_space_group_name_H-M   'P 1'
_cell_length_a   7.50668155
_cell_length_b   7.50668248
_cell_length_c   9.32360301
_cell_angle_alpha   89.98398493
_cell_angle_beta   89.98398808
_cell_angle_gamma   119.81995813
_symmetry_Int_Tables_number   1
_chemical_formula_structural   Sc4Al18Rh5Au
_chemical_formula_sum   'Sc4 Al18 Rh5 Au1'
_cell_volume   455.82215277
_cell_formula_units_Z   1
loop_
 _symmetry_equiv_pos_site_id
 _symmetry_equiv_pos_as_xyz
  1  'x, y, z'
loop_
 _atom_site_type_symbol
 _atom_site_label
 _atom_site_symmetry_multiplicity
 _atom_site_fract_x
 _atom_site_fract_y
 _atom_site_fract_z
 _atom_site_occupancy
  Sc  Sc0  1  0.992987  0.666483  0.251310  1
  Sc  Sc1  1  0.000306  0.328723  0.748965  1
  Sc  Sc2  1  0.671277  0.999694  0.251035  1
  Sc  Sc3  1  0.333517  0.007013  0.748690  1
  Al  Al4  1  0.329510  0.329741  0.556925  1
  Al  Al5  1  0.670259  0.670490  0.443075  1
  Al  Al6  1  0.669070  0.676084  0.065993  1
  Al  Al7  1  0.323916  0.330930  0.934007  1
  Al  Al8  1  0.340056  0.556192  0.251413  1
  Al  Al9  1  0.660872  0.455795  0.742539  1
  Al  Al10  1  0.544205  0.339128  0.257461  1
  Al  Al11  1  0.443808  0.659944  0.748587  1
  Al  Al12  1  0.008178  0.334454  0.079495  1
  Al  Al13  1  0.011963  0.674699  0.918758  1
  Al  Al14  1  0.004754  0.665882  0.576307  1
  Al  Al15  1  0.334118  0.995246  0.423693  1
  Al  Al16  1  0.997983  0.334075  0.423013  1
  Al  Al17  1  0.665925  0.002017  0.576987  1
  Al  Al18  1  0.665546  0.991822  0.920505  1
  Al  Al19  1  0.325301  0.988037  0.081242  1
  Al  Al20  1  0.120462  0.118688  0.251046  1
  Al  Al21  1  0.881312  0.879538  0.748954  1
  Rh  Rh22  1  0.000436  0.999564  0.000000  1
  Rh  Rh23  1  0.000473  0.999527  0.500000  1
  Rh  Rh24  1  0.328768  0.671232  0.000000  1
  Rh  Rh25  1  0.328191  0.671809  0.500000  1
  Rh  Rh26  1  0.673021  0.326979  0.500000  1
  Au  Au27  1  0.673785  0.326215  0.000000  1
