# generated using pymatgen
data_Ba2FeCo3P4
_symmetry_space_group_name_H-M   'P 1'
_cell_length_a   5.36171300
_cell_length_b   6.82578049
_cell_length_c   5.36325926
_cell_angle_alpha   66.82715223
_cell_angle_beta   90.00004274
_cell_angle_gamma   90.00004201
_symmetry_Int_Tables_number   1
_chemical_formula_structural   Ba2FeCo3P4
_chemical_formula_sum   'Ba2 Fe1 Co3 P4'
_cell_volume   180.44808999
_cell_formula_units_Z   1
loop_
 _symmetry_equiv_pos_site_id
 _symmetry_equiv_pos_as_xyz
  1  'x, y, z'
loop_
 _atom_site_type_symbol
 _atom_site_label
 _atom_site_symmetry_multiplicity
 _atom_site_fract_x
 _atom_site_fract_y
 _atom_site_fract_z
 _atom_site_occupancy
  Ba  Ba0  1  0.998792  0.000001  0.999999  1
  Ba  Ba1  1  0.501196  0.999999  0.500000  1
  Fe  Fe2  1  0.249841  0.500000  0.500002  1
  Co  Co3  1  0.250081  0.499999  0.000000  1
  Co  Co4  1  0.750078  0.500001  0.000000  1
  Co  Co5  1  0.750046  0.499999  0.500000  1
  P  P6  1  0.498300  0.682692  0.159937  1
  P  P7  1  0.001680  0.682850  0.657019  1
  P  P8  1  0.001681  0.317149  0.342980  1
  P  P9  1  0.498302  0.317307  0.840063  1
