# generated using pymatgen
data_NdErCoNi7B2
_symmetry_space_group_name_H-M   'P 1'
_cell_length_a   4.98816700
_cell_length_b   5.00671740
_cell_length_c   6.96985900
_cell_angle_alpha   90.00000000
_cell_angle_beta   90.00000000
_cell_angle_gamma   119.87751829
_symmetry_Int_Tables_number   1
_chemical_formula_structural   NdErCoNi7B2
_chemical_formula_sum   'Nd1 Er1 Co1 Ni7 B2'
_cell_volume   150.93271179
_cell_formula_units_Z   1
loop_
 _symmetry_equiv_pos_site_id
 _symmetry_equiv_pos_as_xyz
  1  'x, y, z'
loop_
 _atom_site_type_symbol
 _atom_site_label
 _atom_site_symmetry_multiplicity
 _atom_site_fract_x
 _atom_site_fract_y
 _atom_site_fract_z
 _atom_site_occupancy
  Nd  Nd0  1  0.000000  0.000000  0.001892  1
  Er  Er1  1  0.000000  0.000000  0.498435  1
  Co  Co2  1  0.500000  0.000000  0.298063  1
  Ni  Ni3  1  0.335082  0.670164  0.000537  1
  Ni  Ni4  1  0.664918  0.329836  0.000537  1
  Ni  Ni5  1  0.500000  0.500000  0.294207  1
  Ni  Ni6  1  0.000000  0.500000  0.294207  1
  Ni  Ni7  1  0.500000  0.000000  0.705330  1
  Ni  Ni8  1  0.500000  0.500000  0.704881  1
  Ni  Ni9  1  0.000000  0.500000  0.704881  1
  B  B10  1  0.663978  0.327955  0.498515  1
  B  B11  1  0.336022  0.672045  0.498515  1
