# generated using pymatgen
data_CeEr3Sb10
_symmetry_space_group_name_H-M   'P 1'
_cell_length_a   4.20524300
_cell_length_b   13.18462771
_cell_length_c   14.62209800
_cell_angle_alpha   78.37275795
_cell_angle_beta   90.00000000
_cell_angle_gamma   90.00000000
_symmetry_Int_Tables_number   1
_chemical_formula_structural   CeEr3Sb10
_chemical_formula_sum   'Ce2 Er6 Sb20'
_cell_volume   794.07957224
_cell_formula_units_Z   2
loop_
 _symmetry_equiv_pos_site_id
 _symmetry_equiv_pos_as_xyz
  1  'x, y, z'
loop_
 _atom_site_type_symbol
 _atom_site_label
 _atom_site_symmetry_multiplicity
 _atom_site_fract_x
 _atom_site_fract_y
 _atom_site_fract_z
 _atom_site_occupancy
  Ce  Ce0  1  0.250000  0.952708  0.359320  1
  Ce  Ce1  1  0.750000  0.047292  0.640680  1
  Er  Er2  1  0.250000  0.395375  0.770932  1
  Er  Er3  1  0.750000  0.604625  0.229068  1
  Er  Er4  1  0.250000  0.660882  0.856810  1
  Er  Er5  1  0.750000  0.339118  0.143190  1
  Er  Er6  1  0.250000  0.665497  0.576547  1
  Er  Er7  1  0.750000  0.334503  0.423453  1
  Sb  Sb8  1  0.250000  0.145631  0.780977  1
  Sb  Sb9  1  0.750000  0.854369  0.219023  1
  Sb  Sb10  1  0.250000  0.147154  0.480962  1
  Sb  Sb11  1  0.750000  0.852846  0.519038  1
  Sb  Sb12  1  0.250000  0.153260  0.170426  1
  Sb  Sb13  1  0.750000  0.846740  0.829574  1
  Sb  Sb14  1  0.250000  0.420614  0.975706  1
  Sb  Sb15  1  0.750000  0.579386  0.024294  1
  Sb  Sb16  1  0.750000  0.030221  0.908698  1
  Sb  Sb17  1  0.250000  0.969779  0.091302  1
  Sb  Sb18  1  0.750000  0.145218  0.320038  1
  Sb  Sb19  1  0.250000  0.854782  0.679962  1
  Sb  Sb20  1  0.750000  0.278778  0.936863  1
  Sb  Sb21  1  0.250000  0.721222  0.063137  1
  Sb  Sb22  1  0.750000  0.286884  0.653620  1
  Sb  Sb23  1  0.250000  0.713116  0.346380  1
  Sb  Sb24  1  0.750000  0.576344  0.734270  1
  Sb  Sb25  1  0.250000  0.423656  0.265730  1
  Sb  Sb26  1  0.750000  0.572215  0.447208  1
  Sb  Sb27  1  0.250000  0.427785  0.552792  1
