# generated using pymatgen
data_TbPu9Se10
_symmetry_space_group_name_H-M   'P 1'
_cell_length_a   7.21731500
_cell_length_b   8.30320938
_cell_length_c   9.40648400
_cell_angle_alpha   103.26389631
_cell_angle_beta   96.82648992
_cell_angle_gamma   106.68019739
_symmetry_Int_Tables_number   1
_chemical_formula_structural   TbPu9Se10
_chemical_formula_sum   'Tb1 Pu9 Se10'
_cell_volume   515.15911137
_cell_formula_units_Z   1
loop_
 _symmetry_equiv_pos_site_id
 _symmetry_equiv_pos_as_xyz
  1  'x, y, z'
loop_
 _atom_site_type_symbol
 _atom_site_label
 _atom_site_symmetry_multiplicity
 _atom_site_fract_x
 _atom_site_fract_y
 _atom_site_fract_z
 _atom_site_occupancy
  Tb  Tb0  1  0.000000  0.500000  0.000000  1
  Pu  Pu1  1  0.800352  0.600199  0.600241  1
  Pu  Pu2  1  0.600145  0.199739  0.199073  1
  Pu  Pu3  1  0.399855  0.800261  0.800927  1
  Pu  Pu4  1  0.599381  0.700102  0.199308  1
  Pu  Pu5  1  0.199648  0.399801  0.399759  1
  Pu  Pu6  1  0.400619  0.299898  0.800692  1
  Pu  Pu7  1  0.000000  0.000000  0.000000  1
  Pu  Pu8  1  0.200088  0.900016  0.400270  1
  Pu  Pu9  1  0.799912  0.099984  0.599730  1
  Se  Se10  1  0.703471  0.650959  0.901029  1
  Se  Se11  1  0.500218  0.251091  0.499777  1
  Se  Se12  1  0.703402  0.150748  0.901187  1
  Se  Se13  1  0.296598  0.849252  0.098813  1
  Se  Se14  1  0.499782  0.748909  0.500223  1
  Se  Se15  1  0.100111  0.450551  0.701372  1
  Se  Se16  1  0.296529  0.349041  0.098971  1
  Se  Se17  1  0.900717  0.049821  0.298071  1
  Se  Se18  1  0.099283  0.950179  0.701929  1
  Se  Se19  1  0.899889  0.549449  0.298628  1
