# generated using pymatgen
data_Tb3Y5Hf3Si16W9
_symmetry_space_group_name_H-M   'P 1'
_cell_length_a   6.96729401
_cell_length_b   6.96752945
_cell_length_c   12.92640868
_cell_angle_alpha   89.94935881
_cell_angle_beta   90.05757218
_cell_angle_gamma   89.91236928
_symmetry_Int_Tables_number   1
_chemical_formula_structural   Tb3Y5Hf3Si16W9
_chemical_formula_sum   'Tb3 Y5 Hf3 Si16 W9'
_cell_volume   627.50896597
_cell_formula_units_Z   1
loop_
 _symmetry_equiv_pos_site_id
 _symmetry_equiv_pos_as_xyz
  1  'x, y, z'
loop_
 _atom_site_type_symbol
 _atom_site_label
 _atom_site_symmetry_multiplicity
 _atom_site_fract_x
 _atom_site_fract_y
 _atom_site_fract_z
 _atom_site_occupancy
  Tb  Tb0  1  0.498198  0.162255  0.531373  1
  Tb  Tb1  1  0.336055  0.001206  0.783060  1
  Tb  Tb2  1  0.662936  0.003231  0.279475  1
  Y  Y3  1  0.001253  0.336173  0.216966  1
  Y  Y4  1  0.003118  0.662843  0.720527  1
  Y  Y5  1  0.162216  0.498370  0.468601  1
  Y  Y6  1  0.499516  0.839229  0.030861  1
  Y  Y7  1  0.839208  0.499517  0.969115  1
  Hf  Hf8  1  0.832642  0.832831  0.499988  1
  Hf  Hf9  1  0.331216  0.667590  0.247735  1
  Hf  Hf10  1  0.667375  0.331021  0.752271  1
  Si  Si11  1  0.372667  0.294732  0.317574  1
  Si  Si12  1  0.625789  0.706812  0.817810  1
  Si  Si13  1  0.205135  0.873346  0.568193  1
  Si  Si14  1  0.124516  0.801877  0.933655  1
  Si  Si15  1  0.802036  0.124536  0.066434  1
  Si  Si16  1  0.873974  0.205267  0.431810  1
  Si  Si17  1  0.294506  0.373271  0.682340  1
  Si  Si18  1  0.706802  0.625365  0.182076  1
  Si  Si19  1  0.289218  0.043861  0.184069  1
  Si  Si20  1  0.708239  0.959735  0.688609  1
  Si  Si21  1  0.458503  0.790937  0.437544  1
  Si  Si22  1  0.210125  0.532312  0.059223  1
  Si  Si23  1  0.532300  0.210271  0.940769  1
  Si  Si24  1  0.791378  0.458711  0.562425  1
  Si  Si25  1  0.043868  0.289743  0.815859  1
  Si  Si26  1  0.959861  0.707935  0.311394  1
  W  W27  1  0.166367  0.166411  0.000157  1
  W  W28  1  0.162207  0.994837  0.375104  1
  W  W29  1  0.833450  0.005494  0.877320  1
  W  W30  1  0.506131  0.661686  0.626601  1
  W  W31  1  0.340147  0.497129  0.873891  1
  W  W32  1  0.496812  0.340109  0.126120  1
  W  W33  1  0.661886  0.505889  0.373341  1
  W  W34  1  0.995138  0.162342  0.624898  1
  W  W35  1  0.005215  0.833128  0.122814  1
