# generated using pymatgen
data_Ti(SF6)2
_symmetry_space_group_name_H-M   'P 1'
_cell_length_a   6.20773400
_cell_length_b   7.74546800
_cell_length_c   9.80049400
_cell_angle_alpha   90.00000000
_cell_angle_beta   90.00000000
_cell_angle_gamma   90.00000000
_symmetry_Int_Tables_number   1
_chemical_formula_structural   Ti(SF6)2
_chemical_formula_sum   'Ti2 S4 F24'
_cell_volume   471.22544190
_cell_formula_units_Z   2
loop_
 _symmetry_equiv_pos_site_id
 _symmetry_equiv_pos_as_xyz
  1  'x, y, z'
loop_
 _atom_site_type_symbol
 _atom_site_label
 _atom_site_symmetry_multiplicity
 _atom_site_fract_x
 _atom_site_fract_y
 _atom_site_fract_z
 _atom_site_occupancy
  Ti  Ti0  1  0.000000  0.500000  0.000000  1
  Ti  Ti1  1  0.500000  0.000000  0.500000  1
  S  S2  1  0.500000  0.571661  0.242781  1
  S  S3  1  0.500000  0.428339  0.757219  1
  S  S4  1  0.000000  0.071661  0.257219  1
  S  S5  1  0.000000  0.928339  0.742781  1
  F  F6  1  0.216482  0.369663  0.909867  1
  F  F7  1  0.216482  0.630337  0.090133  1
  F  F8  1  0.283518  0.869663  0.590133  1
  F  F9  1  0.283518  0.130337  0.409867  1
  F  F10  1  0.783518  0.630337  0.090133  1
  F  F11  1  0.783518  0.369663  0.909867  1
  F  F12  1  0.813660  0.970286  0.846233  1
  F  F13  1  0.813660  0.029714  0.153767  1
  F  F14  1  0.686340  0.470286  0.653767  1
  F  F15  1  0.686340  0.529714  0.346233  1
  F  F16  1  0.186340  0.029714  0.153767  1
  F  F17  1  0.186340  0.970286  0.846233  1
  F  F18  1  0.313660  0.529714  0.346233  1
  F  F19  1  0.313660  0.470286  0.653767  1
  F  F20  1  0.000000  0.659251  0.853494  1
  F  F21  1  0.000000  0.340749  0.146506  1
  F  F22  1  0.500000  0.159251  0.646506  1
  F  F23  1  0.500000  0.840749  0.353494  1
  F  F24  1  0.500000  0.612072  0.824879  1
  F  F25  1  0.500000  0.387928  0.175121  1
  F  F26  1  0.000000  0.112072  0.675121  1
  F  F27  1  0.000000  0.887928  0.324879  1
  F  F28  1  0.716482  0.869663  0.590133  1
  F  F29  1  0.716482  0.130337  0.409867  1
