# generated using pymatgen
data_Hf16Co4TcPt3
_symmetry_space_group_name_H-M   'P 1'
_cell_length_a   8.62884226
_cell_length_b   8.59642046
_cell_length_c   8.59642000
_cell_angle_alpha   60.00000178
_cell_angle_beta   60.12421709
_cell_angle_gamma   60.12421111
_symmetry_Int_Tables_number   1
_chemical_formula_structural   Hf16Co4TcPt3
_chemical_formula_sum   'Hf16 Co4 Tc1 Pt3'
_cell_volume   451.73698882
_cell_formula_units_Z   1
loop_
 _symmetry_equiv_pos_site_id
 _symmetry_equiv_pos_as_xyz
  1  'x, y, z'
loop_
 _atom_site_type_symbol
 _atom_site_label
 _atom_site_symmetry_multiplicity
 _atom_site_fract_x
 _atom_site_fract_y
 _atom_site_fract_z
 _atom_site_occupancy
  Hf  Hf0  1  0.074014  0.641996  0.641996  1
  Hf  Hf1  1  0.646325  0.061903  0.645887  1
  Hf  Hf2  1  0.646325  0.645887  0.061903  1
  Hf  Hf3  1  0.646325  0.645887  0.645887  1
  Hf  Hf4  1  0.808468  0.802923  0.194305  1
  Hf  Hf5  1  0.192002  0.192253  0.807872  1
  Hf  Hf6  1  0.808468  0.194305  0.802923  1
  Hf  Hf7  1  0.192002  0.807872  0.192253  1
  Hf  Hf8  1  0.192002  0.807872  0.807872  1
  Hf  Hf9  1  0.808468  0.194305  0.194305  1
  Hf  Hf10  1  0.436595  0.436978  0.063214  1
  Hf  Hf11  1  0.054065  0.070680  0.437627  1
  Hf  Hf12  1  0.436595  0.063214  0.436978  1
  Hf  Hf13  1  0.054065  0.437627  0.070680  1
  Hf  Hf14  1  0.054065  0.437627  0.437627  1
  Hf  Hf15  1  0.436595  0.063214  0.063214  1
  Co  Co16  1  0.427120  0.857627  0.857627  1
  Co  Co17  1  0.861265  0.430598  0.854069  1
  Co  Co18  1  0.861265  0.854069  0.430598  1
  Co  Co19  1  0.861265  0.854069  0.854069  1
  Tc  Tc20  1  0.748200  0.417267  0.417267  1
  Pt  Pt21  1  0.418169  0.760056  0.410888  1
  Pt  Pt22  1  0.418169  0.410888  0.760056  1
  Pt  Pt23  1  0.418169  0.410888  0.410888  1
