# generated using pymatgen
data_Tb2HfAlRh2
_symmetry_space_group_name_H-M   'P 1'
_cell_length_a   4.48972200
_cell_length_b   6.98405305
_cell_length_c   8.02746173
_cell_angle_alpha   87.78975286
_cell_angle_beta   90.00000000
_cell_angle_gamma   90.00000000
_symmetry_Int_Tables_number   1
_chemical_formula_structural   Tb2HfAlRh2
_chemical_formula_sum   'Tb4 Hf2 Al2 Rh4'
_cell_volume   251.52549015
_cell_formula_units_Z   2
loop_
 _symmetry_equiv_pos_site_id
 _symmetry_equiv_pos_as_xyz
  1  'x, y, z'
loop_
 _atom_site_type_symbol
 _atom_site_label
 _atom_site_symmetry_multiplicity
 _atom_site_fract_x
 _atom_site_fract_y
 _atom_site_fract_z
 _atom_site_occupancy
  Tb  Tb0  1  0.250000  0.529890  0.164322  1
  Tb  Tb1  1  0.750000  0.470110  0.835678  1
  Tb  Tb2  1  0.250000  0.023222  0.304329  1
  Tb  Tb3  1  0.750000  0.976778  0.695671  1
  Hf  Hf4  1  0.250000  0.635769  0.576035  1
  Hf  Hf5  1  0.750000  0.364231  0.423965  1
  Al  Al6  1  0.250000  0.148991  0.931880  1
  Al  Al7  1  0.750000  0.851009  0.068120  1
  Rh  Rh8  1  0.750000  0.736388  0.398312  1
  Rh  Rh9  1  0.250000  0.263612  0.601688  1
  Rh  Rh10  1  0.750000  0.219602  0.113220  1
  Rh  Rh11  1  0.250000  0.780398  0.886780  1
