# generated using pymatgen
data_Nd2Er8Tl7InPd4
_symmetry_space_group_name_H-M   'P 1'
_cell_length_a   3.62217900
_cell_length_b   8.24351533
_cell_length_c   18.41180079
_cell_angle_alpha   89.94213372
_cell_angle_beta   90.00000000
_cell_angle_gamma   90.00000000
_symmetry_Int_Tables_number   1
_chemical_formula_structural   Nd2Er8Tl7InPd4
_chemical_formula_sum   'Nd2 Er8 Tl7 In1 Pd4'
_cell_volume   549.76666673
_cell_formula_units_Z   1
loop_
 _symmetry_equiv_pos_site_id
 _symmetry_equiv_pos_as_xyz
  1  'x, y, z'
loop_
 _atom_site_type_symbol
 _atom_site_label
 _atom_site_symmetry_multiplicity
 _atom_site_fract_x
 _atom_site_fract_y
 _atom_site_fract_z
 _atom_site_occupancy
  Nd  Nd0  1  0.000000  0.499751  0.500422  1
  Nd  Nd1  1  0.000000  0.000670  0.998770  1
  Er  Er2  1  0.000000  0.741806  0.283384  1
  Er  Er3  1  0.000000  0.259086  0.716606  1
  Er  Er4  1  0.000000  0.758632  0.783807  1
  Er  Er5  1  0.000000  0.241759  0.216322  1
  Er  Er6  1  0.000000  0.620949  0.087030  1
  Er  Er7  1  0.000000  0.378394  0.913216  1
  Er  Er8  1  0.000000  0.878614  0.588026  1
  Er  Er9  1  0.000000  0.120980  0.412686  1
  Tl  Tl10  1  0.500000  0.697840  0.933647  1
  Tl  Tl11  1  0.500000  0.303726  0.065220  1
  Tl  Tl12  1  0.500000  0.803610  0.435035  1
  Tl  Tl13  1  0.500000  0.195076  0.565171  1
  Tl  Tl14  1  0.500000  0.583778  0.653374  1
  Tl  Tl15  1  0.500000  0.416199  0.347428  1
  Tl  Tl16  1  0.500000  0.916272  0.152264  1
  In  In17  1  0.500000  0.085553  0.845976  1
  Pd  Pd18  1  0.500000  0.528333  0.196649  1
  Pd  Pd19  1  0.500000  0.468177  0.803473  1
  Pd  Pd20  1  0.500000  0.972677  0.698290  1
  Pd  Pd21  1  0.500000  0.028116  0.303205  1
