# generated using pymatgen
data_Ba2PrAg5S6
_symmetry_space_group_name_H-M   'P 1'
_cell_length_a   4.25574200
_cell_length_b   7.39048126
_cell_length_c   11.32899510
_cell_angle_alpha   95.06684573
_cell_angle_beta   90.00000000
_cell_angle_gamma   106.73350788
_symmetry_Int_Tables_number   1
_chemical_formula_structural   Ba2PrAg5S6
_chemical_formula_sum   'Ba2 Pr1 Ag5 S6'
_cell_volume   339.77654176
_cell_formula_units_Z   1
loop_
 _symmetry_equiv_pos_site_id
 _symmetry_equiv_pos_as_xyz
  1  'x, y, z'
loop_
 _atom_site_type_symbol
 _atom_site_label
 _atom_site_symmetry_multiplicity
 _atom_site_fract_x
 _atom_site_fract_y
 _atom_site_fract_z
 _atom_site_occupancy
  Ba  Ba0  1  0.251968  0.503937  0.705308  1
  Ba  Ba1  1  0.748032  0.496063  0.294692  1
  Pr  Pr2  1  0.500000  0.000000  0.500000  1
  Ag  Ag3  1  0.018233  0.036467  0.256028  1
  Ag  Ag4  1  0.981767  0.963533  0.743972  1
  Ag  Ag5  1  0.352255  0.704510  0.037167  1
  Ag  Ag6  1  0.647745  0.295490  0.962833  1
  Ag  Ag7  1  0.000000  0.000000  0.000000  1
  S  S8  1  0.130456  0.260911  0.449889  1
  S  S9  1  0.869544  0.739089  0.550111  1
  S  S10  1  0.156835  0.313670  0.101702  1
  S  S11  1  0.843165  0.686330  0.898298  1
  S  S12  1  0.411747  0.823493  0.259731  1
  S  S13  1  0.588253  0.176507  0.740269  1
