# generated using pymatgen
data_Na(YbB8)3
_symmetry_space_group_name_H-M   'P 1'
_cell_length_a   7.14378546
_cell_length_b   7.14378609
_cell_length_c   5.86870800
_cell_angle_alpha   90.00000000
_cell_angle_beta   90.00000000
_cell_angle_gamma   109.29366099
_symmetry_Int_Tables_number   1
_chemical_formula_structural   Na(YbB8)3
_chemical_formula_sum   'Na1 Yb3 B24'
_cell_volume   282.68097537
_cell_formula_units_Z   1
loop_
 _symmetry_equiv_pos_site_id
 _symmetry_equiv_pos_as_xyz
  1  'x, y, z'
loop_
 _atom_site_type_symbol
 _atom_site_label
 _atom_site_symmetry_multiplicity
 _atom_site_fract_x
 _atom_site_fract_y
 _atom_site_fract_z
 _atom_site_occupancy
  Na  Na0  1  0.000000  0.000000  0.000000  1
  Yb  Yb1  1  0.752036  0.247964  0.500000  1
  Yb  Yb2  1  0.500000  0.500000  0.000000  1
  Yb  Yb3  1  0.247964  0.752036  0.500000  1
  B  B4  1  0.175507  0.325748  0.649403  1
  B  B5  1  0.924177  0.574886  0.148947  1
  B  B6  1  0.674252  0.824493  0.649403  1
  B  B7  1  0.425114  0.075823  0.148947  1
  B  B8  1  0.175507  0.325748  0.350597  1
  B  B9  1  0.924177  0.574886  0.851053  1
  B  B10  1  0.674252  0.824493  0.350597  1
  B  B11  1  0.425114  0.075823  0.851053  1
  B  B12  1  0.400185  0.400185  0.500000  1
  B  B13  1  0.149080  0.650717  0.000000  1
  B  B14  1  0.899560  0.899560  0.500000  1
  B  B15  1  0.650717  0.149080  0.000000  1
  B  B16  1  0.325748  0.175507  0.649403  1
  B  B17  1  0.075823  0.425114  0.148947  1
  B  B18  1  0.824493  0.674252  0.649403  1
  B  B19  1  0.574886  0.924177  0.148947  1
  B  B20  1  0.100440  0.100440  0.500000  1
  B  B21  1  0.850920  0.349283  0.000000  1
  B  B22  1  0.599815  0.599815  0.500000  1
  B  B23  1  0.349283  0.850920  0.000000  1
  B  B24  1  0.325748  0.175507  0.350597  1
  B  B25  1  0.075823  0.425114  0.851053  1
  B  B26  1  0.824493  0.674252  0.350597  1
  B  B27  1  0.574886  0.924177  0.851053  1
