# generated using pymatgen
data_CdCo(AsO2)4
_symmetry_space_group_name_H-M   'P 1'
_cell_length_a   5.37797200
_cell_length_b   4.69696746
_cell_length_c   18.88858155
_cell_angle_alpha   90.04407535
_cell_angle_beta   90.00000000
_cell_angle_gamma   90.00000000
_symmetry_Int_Tables_number   1
_chemical_formula_structural   CdCo(AsO2)4
_chemical_formula_sum   'Cd2 Co2 As8 O16'
_cell_volume   477.12844125
_cell_formula_units_Z   2
loop_
 _symmetry_equiv_pos_site_id
 _symmetry_equiv_pos_as_xyz
  1  'x, y, z'
loop_
 _atom_site_type_symbol
 _atom_site_label
 _atom_site_symmetry_multiplicity
 _atom_site_fract_x
 _atom_site_fract_y
 _atom_site_fract_z
 _atom_site_occupancy
  Cd  Cd0  1  0.995227  0.742537  0.252429  1
  Cd  Cd1  1  0.495227  0.257463  0.247571  1
  Co  Co2  1  0.010889  0.253286  0.747345  1
  Co  Co3  1  0.510889  0.746714  0.752655  1
  As  As4  1  0.286338  0.517126  0.411706  1
  As  As5  1  0.786338  0.482874  0.088294  1
  As  As6  1  0.715174  0.483036  0.603093  1
  As  As7  1  0.215174  0.516964  0.896907  1
  As  As8  1  0.700761  0.015650  0.408876  1
  As  As9  1  0.200761  0.984350  0.091124  1
  As  As10  1  0.297946  0.987019  0.604748  1
  As  As11  1  0.797946  0.012981  0.895252  1
  O  O12  1  0.234188  0.479946  0.318616  1
  O  O13  1  0.734188  0.520054  0.181384  1
  O  O14  1  0.755280  0.501994  0.697642  1
  O  O15  1  0.255280  0.498006  0.802358  1
  O  O16  1  0.733655  0.993543  0.315125  1
  O  O17  1  0.233655  0.006457  0.184875  1
  O  O18  1  0.270022  0.004181  0.699217  1
  O  O19  1  0.770022  0.995819  0.800783  1
  O  O20  1  0.374758  0.894407  0.416403  1
  O  O21  1  0.874758  0.105593  0.083597  1
  O  O22  1  0.622737  0.109053  0.594355  1
  O  O23  1  0.122737  0.890947  0.905645  1
  O  O24  1  0.890905  0.388371  0.900296  1
  O  O25  1  0.390905  0.611629  0.599704  1
  O  O26  1  0.112120  0.606600  0.087408  1
  O  O27  1  0.612120  0.393400  0.412592  1
