# generated using pymatgen
data_Lu2Be2AlRh5
_symmetry_space_group_name_H-M   'P 1'
_cell_length_a   9.55273300
_cell_length_b   9.55273300
_cell_length_c   3.18398400
_cell_angle_alpha   90.00000000
_cell_angle_beta   90.00000000
_cell_angle_gamma   90.00000000
_symmetry_Int_Tables_number   1
_chemical_formula_structural   Lu2Be2AlRh5
_chemical_formula_sum   'Lu4 Be4 Al2 Rh10'
_cell_volume   290.55352946
_cell_formula_units_Z   2
loop_
 _symmetry_equiv_pos_site_id
 _symmetry_equiv_pos_as_xyz
  1  'x, y, z'
loop_
 _atom_site_type_symbol
 _atom_site_label
 _atom_site_symmetry_multiplicity
 _atom_site_fract_x
 _atom_site_fract_y
 _atom_site_fract_z
 _atom_site_occupancy
  Lu  Lu0  1  0.824360  0.324360  0.000000  1
  Lu  Lu1  1  0.324360  0.175640  0.000000  1
  Lu  Lu2  1  0.675640  0.824360  0.000000  1
  Lu  Lu3  1  0.175640  0.675640  0.000000  1
  Be  Be4  1  0.622914  0.122914  0.000000  1
  Be  Be5  1  0.122914  0.377086  0.000000  1
  Be  Be6  1  0.877086  0.622914  0.000000  1
  Be  Be7  1  0.377086  0.877086  0.000000  1
  Al  Al8  1  0.000000  0.000000  0.000000  1
  Al  Al9  1  0.500000  0.500000  0.000000  1
  Rh  Rh10  1  0.067917  0.210198  0.500000  1
  Rh  Rh11  1  0.210198  0.932083  0.500000  1
  Rh  Rh12  1  0.789802  0.067917  0.500000  1
  Rh  Rh13  1  0.932083  0.789802  0.500000  1
  Rh  Rh14  1  0.432083  0.710198  0.500000  1
  Rh  Rh15  1  0.567917  0.289802  0.500000  1
  Rh  Rh16  1  0.710198  0.567917  0.500000  1
  Rh  Rh17  1  0.289802  0.432083  0.500000  1
  Rh  Rh18  1  0.500000  0.000000  0.500000  1
  Rh  Rh19  1  0.000000  0.500000  0.500000  1
