# generated using pymatgen
data_Zr3Sc5P12Ir5Rh11
_symmetry_space_group_name_H-M   'P 1'
_cell_length_a   12.82239443
_cell_length_b   12.83587935
_cell_length_c   3.87398400
_cell_angle_alpha   90.00000000
_cell_angle_beta   90.00000000
_cell_angle_gamma   119.93552760
_symmetry_Int_Tables_number   1
_chemical_formula_structural   Zr3Sc5P12Ir5Rh11
_chemical_formula_sum   'Zr3 Sc5 P12 Ir5 Rh11'
_cell_volume   552.54161525
_cell_formula_units_Z   1
loop_
 _symmetry_equiv_pos_site_id
 _symmetry_equiv_pos_as_xyz
  1  'x, y, z'
loop_
 _atom_site_type_symbol
 _atom_site_label
 _atom_site_symmetry_multiplicity
 _atom_site_fract_x
 _atom_site_fract_y
 _atom_site_fract_z
 _atom_site_occupancy
  Zr  Zr0  1  0.447370  0.999347  0.000000  1
  Zr  Zr1  1  0.999945  0.447566  0.000000  1
  Zr  Zr2  1  0.552020  0.552367  0.000000  1
  Sc  Sc3  1  0.333017  0.666639  0.000000  1
  Sc  Sc4  1  0.665339  0.333544  0.000000  1
  Sc  Sc5  1  0.814404  0.000104  0.500000  1
  Sc  Sc6  1  0.000046  0.814057  0.500000  1
  Sc  Sc7  1  0.184625  0.184562  0.500000  1
  P  P8  1  0.173257  0.999237  0.000000  1
  P  P9  1  0.000230  0.174005  0.000000  1
  P  P10  1  0.825963  0.825913  0.000000  1
  P  P11  1  0.171742  0.484234  0.500000  1
  P  P12  1  0.515954  0.688007  0.500000  1
  P  P13  1  0.312454  0.827953  0.500000  1
  P  P14  1  0.687838  0.516621  0.500000  1
  P  P15  1  0.828156  0.312621  0.500000  1
  P  P16  1  0.484418  0.171148  0.500000  1
  P  P17  1  0.653182  0.000355  0.000000  1
  P  P18  1  0.999893  0.652716  0.000000  1
  P  P19  1  0.348086  0.347434  0.000000  1
  Ir  Ir20  1  0.492405  0.357508  0.500000  1
  Ir  Ir21  1  0.273920  0.999772  0.500000  1
  Ir  Ir22  1  0.000376  0.274295  0.500000  1
  Ir  Ir23  1  0.725916  0.726251  0.500000  1
  Ir  Ir24  1  0.999678  0.999769  0.000000  1
  Rh  Rh25  1  0.357148  0.491020  0.500000  1
  Rh  Rh26  1  0.510134  0.867331  0.500000  1
  Rh  Rh27  1  0.132946  0.642923  0.500000  1
  Rh  Rh28  1  0.866393  0.509642  0.500000  1
  Rh  Rh29  1  0.643008  0.133110  0.500000  1
  Rh  Rh30  1  0.179280  0.371136  0.000000  1
  Rh  Rh31  1  0.628484  0.807296  0.000000  1
  Rh  Rh32  1  0.193298  0.821209  0.000000  1
  Rh  Rh33  1  0.806894  0.628697  0.000000  1
  Rh  Rh34  1  0.821785  0.193416  0.000000  1
  Rh  Rh35  1  0.370396  0.178196  0.000000  1
