# generated using pymatgen
data_Ca9Dy9(HoPb8)2
_symmetry_space_group_name_H-M   'P 1'
_cell_length_a   8.00105613
_cell_length_b   8.52730769
_cell_length_c   16.06643200
_cell_angle_alpha   90.01805421
_cell_angle_beta   89.98977405
_cell_angle_gamma   89.98571843
_symmetry_Int_Tables_number   1
_chemical_formula_structural   Ca9Dy9(HoPb8)2
_chemical_formula_sum   'Ca9 Dy9 Ho2 Pb16'
_cell_volume   1096.17186006
_cell_formula_units_Z   1
loop_
 _symmetry_equiv_pos_site_id
 _symmetry_equiv_pos_as_xyz
  1  'x, y, z'
loop_
 _atom_site_type_symbol
 _atom_site_label
 _atom_site_symmetry_multiplicity
 _atom_site_fract_x
 _atom_site_fract_y
 _atom_site_fract_z
 _atom_site_occupancy
  Ca  Ca0  1  0.496590  0.682022  0.592406  1
  Ca  Ca1  1  0.996481  0.817539  0.907186  1
  Ca  Ca2  1  0.501326  0.315142  0.090849  1
  Ca  Ca3  1  0.001338  0.183645  0.411143  1
  Ca  Ca4  1  0.501152  0.314949  0.409217  1
  Ca  Ca5  1  0.001308  0.183587  0.088928  1
  Ca  Ca6  1  0.496593  0.682165  0.907415  1
  Ca  Ca7  1  0.996650  0.817534  0.592682  1
  Ca  Ca8  1  0.670800  0.011318  0.249992  1
  Dy  Dy9  1  0.672184  0.157876  0.624036  1
  Dy  Dy10  1  0.171282  0.344233  0.876502  1
  Dy  Dy11  1  0.329712  0.842061  0.121492  1
  Dy  Dy12  1  0.830289  0.660384  0.378459  1
  Dy  Dy13  1  0.329683  0.842283  0.378612  1
  Dy  Dy14  1  0.830269  0.660557  0.121556  1
  Dy  Dy15  1  0.832313  0.506780  0.749977  1
  Dy  Dy16  1  0.333194  0.993466  0.750015  1
  Dy  Dy17  1  0.170586  0.491106  0.250075  1
  Ho  Ho18  1  0.672118  0.157924  0.875805  1
  Ho  Ho19  1  0.171336  0.344217  0.623641  1
  Pb  Pb20  1  0.677006  0.958064  0.459589  1
  Pb  Pb21  1  0.178759  0.538937  0.043333  1
  Pb  Pb22  1  0.322069  0.039374  0.954620  1
  Pb  Pb23  1  0.822084  0.460683  0.544937  1
  Pb  Pb24  1  0.321203  0.039621  0.545416  1
  Pb  Pb25  1  0.821032  0.460549  0.955107  1
  Pb  Pb26  1  0.677031  0.958304  0.040126  1
  Pb  Pb27  1  0.178958  0.538897  0.456897  1
  Pb  Pb28  1  0.473282  0.364955  0.749985  1
  Pb  Pb29  1  0.974902  0.132906  0.749985  1
  Pb  Pb30  1  0.528377  0.630572  0.250070  1
  Pb  Pb31  1  0.030301  0.859878  0.250106  1
  Pb  Pb32  1  0.700160  0.855317  0.749952  1
  Pb  Pb33  1  0.200068  0.646370  0.749883  1
  Pb  Pb34  1  0.287833  0.141393  0.250027  1
  Pb  Pb35  1  0.801730  0.365394  0.249978  1
