# generated using pymatgen
data_Ce2ErIn3IrAu2
_symmetry_space_group_name_H-M   'P 1'
_cell_length_a   7.76667033
_cell_length_b   7.74838919
_cell_length_c   4.03971500
_cell_angle_alpha   90.00000000
_cell_angle_beta   90.00000000
_cell_angle_gamma   119.79530941
_symmetry_Int_Tables_number   1
_chemical_formula_structural   Ce2ErIn3IrAu2
_chemical_formula_sum   'Ce2 Er1 In3 Ir1 Au2'
_cell_volume   210.96953278
_cell_formula_units_Z   1
loop_
 _symmetry_equiv_pos_site_id
 _symmetry_equiv_pos_as_xyz
  1  'x, y, z'
loop_
 _atom_site_type_symbol
 _atom_site_label
 _atom_site_symmetry_multiplicity
 _atom_site_fract_x
 _atom_site_fract_y
 _atom_site_fract_z
 _atom_site_occupancy
  Ce  Ce0  1  0.595752  0.020899  0.000000  1
  Ce  Ce1  1  0.979025  0.576628  0.000000  1
  Er  Er2  1  0.417693  0.401670  0.000000  1
  In  In3  1  0.003815  0.259451  0.500000  1
  In  In4  1  0.734952  0.735324  0.500000  1
  In  In5  1  0.262429  0.007757  0.500000  1
  Ir  Ir6  1  0.672724  0.333004  0.500000  1
  Au  Au7  1  0.999392  0.999395  0.000000  1
  Au  Au8  1  0.334219  0.665871  0.500000  1
