# generated using pymatgen
data_YTm3ReB12Ir
_symmetry_space_group_name_H-M   'P 1'
_cell_length_a   3.64116400
_cell_length_b   9.10098076
_cell_length_c   11.49341302
_cell_angle_alpha   90.29181608
_cell_angle_beta   90.00000000
_cell_angle_gamma   90.00000000
_symmetry_Int_Tables_number   1
_chemical_formula_structural   YTm3ReB12Ir
_chemical_formula_sum   'Y2 Tm6 Re2 B24 Ir2'
_cell_volume   380.86565990
_cell_formula_units_Z   2
loop_
 _symmetry_equiv_pos_site_id
 _symmetry_equiv_pos_as_xyz
  1  'x, y, z'
loop_
 _atom_site_type_symbol
 _atom_site_label
 _atom_site_symmetry_multiplicity
 _atom_site_fract_x
 _atom_site_fract_y
 _atom_site_fract_z
 _atom_site_occupancy
  Y  Y0  1  0.000000  0.316700  0.409927  1
  Y  Y1  1  0.000000  0.683300  0.590073  1
  Tm  Tm2  1  0.000000  0.826422  0.081930  1
  Tm  Tm3  1  0.000000  0.173578  0.918070  1
  Tm  Tm4  1  0.000000  0.946264  0.372023  1
  Tm  Tm5  1  0.000000  0.053736  0.627977  1
  Tm  Tm6  1  0.000000  0.441544  0.125338  1
  Tm  Tm7  1  0.000000  0.558456  0.874662  1
  Re  Re8  1  0.000000  0.137680  0.179299  1
  Re  Re9  1  0.000000  0.862320  0.820701  1
  B  B10  1  0.500000  0.554403  0.433634  1
  B  B11  1  0.500000  0.445597  0.566366  1
  B  B12  1  0.500000  0.052895  0.066675  1
  B  B13  1  0.500000  0.947105  0.933325  1
  B  B14  1  0.500000  0.750368  0.420669  1
  B  B15  1  0.500000  0.249632  0.579331  1
  B  B16  1  0.500000  0.248290  0.079995  1
  B  B17  1  0.500000  0.751710  0.920005  1
  B  B18  1  0.500000  0.791717  0.265270  1
  B  B19  1  0.500000  0.208283  0.734730  1
  B  B20  1  0.500000  0.292410  0.233741  1
  B  B21  1  0.500000  0.707590  0.766259  1
  B  B22  1  0.500000  0.631729  0.183172  1
  B  B23  1  0.500000  0.368271  0.816828  1
  B  B24  1  0.500000  0.130729  0.314579  1
  B  B25  1  0.500000  0.869271  0.685421  1
  B  B26  1  0.500000  0.981658  0.212864  1
  B  B27  1  0.500000  0.018342  0.787136  1
  B  B28  1  0.500000  0.482336  0.286459  1
  B  B29  1  0.500000  0.517664  0.713541  1
  B  B30  1  0.500000  0.606206  0.029763  1
  B  B31  1  0.500000  0.393794  0.970237  1
  B  B32  1  0.500000  0.105174  0.471473  1
  B  B33  1  0.500000  0.894826  0.528527  1
  Ir  Ir34  1  0.000000  0.637485  0.321088  1
  Ir  Ir35  1  0.000000  0.362515  0.678912  1
