# generated using pymatgen
data_Dy7Er13(Cd3Ru)2
_symmetry_space_group_name_H-M   'P 1'
_cell_length_a   9.53880523
_cell_length_b   9.53880564
_cell_length_c   9.77464104
_cell_angle_alpha   89.99056751
_cell_angle_beta   90.00943424
_cell_angle_gamma   120.02325548
_symmetry_Int_Tables_number   1
_chemical_formula_structural   Dy7Er13(Cd3Ru)2
_chemical_formula_sum   'Dy7 Er13 Cd6 Ru2'
_cell_volume   770.04765605
_cell_formula_units_Z   1
loop_
 _symmetry_equiv_pos_site_id
 _symmetry_equiv_pos_as_xyz
  1  'x, y, z'
loop_
 _atom_site_type_symbol
 _atom_site_label
 _atom_site_symmetry_multiplicity
 _atom_site_fract_x
 _atom_site_fract_y
 _atom_site_fract_z
 _atom_site_occupancy
  Dy  Dy0  1  0.209813  0.790187  0.440276  1
  Dy  Dy1  1  0.540767  0.459233  0.250030  1
  Dy  Dy2  1  0.541038  0.081836  0.249835  1
  Dy  Dy3  1  0.918164  0.458962  0.249835  1
  Dy  Dy4  1  0.459188  0.540812  0.750047  1
  Dy  Dy5  1  0.459386  0.918512  0.750186  1
  Dy  Dy6  1  0.081488  0.540614  0.750186  1
  Er  Er7  1  0.999903  0.000097  0.500039  1
  Er  Er8  1  0.999964  0.000036  0.000087  1
  Er  Er9  1  0.209923  0.419525  0.440338  1
  Er  Er10  1  0.580475  0.790077  0.440338  1
  Er  Er11  1  0.789995  0.210005  0.559755  1
  Er  Er12  1  0.789846  0.579946  0.559808  1
  Er  Er13  1  0.420054  0.210154  0.559808  1
  Er  Er14  1  0.790035  0.209965  0.940257  1
  Er  Er15  1  0.790076  0.580053  0.940268  1
  Er  Er16  1  0.419947  0.209924  0.940268  1
  Er  Er17  1  0.209854  0.790146  0.059466  1
  Er  Er18  1  0.209973  0.419844  0.059686  1
  Er  Er19  1  0.580156  0.790027  0.059686  1
  Cd  Cd20  1  0.885625  0.114375  0.249976  1
  Cd  Cd21  1  0.885522  0.771234  0.249940  1
  Cd  Cd22  1  0.228766  0.114478  0.249940  1
  Cd  Cd23  1  0.114320  0.885680  0.750149  1
  Cd  Cd24  1  0.114375  0.228763  0.750042  1
  Cd  Cd25  1  0.771237  0.885625  0.750042  1
  Ru  Ru26  1  0.333436  0.666564  0.249752  1
  Ru  Ru27  1  0.666674  0.333326  0.749961  1
