# generated using pymatgen
data_Tb13Dy3Cd4IrRu3
_symmetry_space_group_name_H-M   'P 1'
_cell_length_a   9.64849769
_cell_length_b   9.67565141
_cell_length_c   9.67565100
_cell_angle_alpha   59.99999799
_cell_angle_beta   59.90685810
_cell_angle_gamma   59.90685850
_symmetry_Int_Tables_number   1
_chemical_formula_structural   Tb13Dy3Cd4IrRu3
_chemical_formula_sum   'Tb13 Dy3 Cd4 Ir1 Ru3'
_cell_volume   637.81135855
_cell_formula_units_Z   1
loop_
 _symmetry_equiv_pos_site_id
 _symmetry_equiv_pos_as_xyz
  1  'x, y, z'
loop_
 _atom_site_type_symbol
 _atom_site_label
 _atom_site_symmetry_multiplicity
 _atom_site_fract_x
 _atom_site_fract_y
 _atom_site_fract_z
 _atom_site_occupancy
  Tb  Tb0  1  0.213660  0.595447  0.595447  1
  Tb  Tb1  1  0.061120  0.439444  0.439444  1
  Tb  Tb2  1  0.438933  0.060589  0.060589  1
  Tb  Tb3  1  0.438933  0.060589  0.439888  1
  Tb  Tb4  1  0.061120  0.439444  0.059992  1
  Tb  Tb5  1  0.438933  0.439888  0.060589  1
  Tb  Tb6  1  0.061120  0.059992  0.439444  1
  Tb  Tb7  1  0.186851  0.812501  0.812501  1
  Tb  Tb8  1  0.811145  0.188302  0.188302  1
  Tb  Tb9  1  0.811145  0.188302  0.812252  1
  Tb  Tb10  1  0.186851  0.812501  0.188148  1
  Tb  Tb11  1  0.811145  0.812252  0.188302  1
  Tb  Tb12  1  0.186851  0.188148  0.812501  1
  Dy  Dy13  1  0.595725  0.597983  0.597983  1
  Dy  Dy14  1  0.595725  0.597983  0.208310  1
  Dy  Dy15  1  0.595725  0.208310  0.597983  1
  Cd  Cd16  1  0.830342  0.829635  0.829635  1
  Cd  Cd17  1  0.830342  0.829635  0.510389  1
  Cd  Cd18  1  0.830342  0.510389  0.829635  1
  Cd  Cd19  1  0.508511  0.830496  0.830496  1
  Ir  Ir20  1  0.826046  0.391318  0.391318  1
  Ru  Ru21  1  0.393146  0.387901  0.387901  1
  Ru  Ru22  1  0.393146  0.387901  0.831053  1
  Ru  Ru23  1  0.393146  0.831053  0.387901  1
