# generated using pymatgen
data_Er3ThMgFe
_symmetry_space_group_name_H-M   'P 1'
_cell_length_a   9.56090645
_cell_length_b   9.56090711
_cell_length_c   9.56090700
_cell_angle_alpha   60.00000383
_cell_angle_beta   60.00000156
_cell_angle_gamma   59.99999732
_symmetry_Int_Tables_number   1
_chemical_formula_structural   Er3ThMgFe
_chemical_formula_sum   'Er12 Th4 Mg4 Fe4'
_cell_volume   617.99117352
_cell_formula_units_Z   4
loop_
 _symmetry_equiv_pos_site_id
 _symmetry_equiv_pos_as_xyz
  1  'x, y, z'
loop_
 _atom_site_type_symbol
 _atom_site_label
 _atom_site_symmetry_multiplicity
 _atom_site_fract_x
 _atom_site_fract_y
 _atom_site_fract_z
 _atom_site_occupancy
  Er  Er0  1  0.813884  0.186116  0.186116  1
  Er  Er1  1  0.186116  0.813884  0.813884  1
  Er  Er2  1  0.186116  0.813884  0.186116  1
  Er  Er3  1  0.813884  0.186116  0.813884  1
  Er  Er4  1  0.186116  0.186116  0.813884  1
  Er  Er5  1  0.813884  0.813884  0.186116  1
  Er  Er6  1  0.936586  0.563414  0.563414  1
  Er  Er7  1  0.563414  0.936586  0.936586  1
  Er  Er8  1  0.563414  0.936586  0.563414  1
  Er  Er9  1  0.936586  0.563414  0.936586  1
  Er  Er10  1  0.563414  0.563414  0.936586  1
  Er  Er11  1  0.936586  0.936586  0.563414  1
  Th  Th12  1  0.343225  0.343225  0.343225  1
  Th  Th13  1  0.343225  0.343225  0.970325  1
  Th  Th14  1  0.343225  0.970325  0.343225  1
  Th  Th15  1  0.970325  0.343225  0.343225  1
  Mg  Mg16  1  0.580066  0.580066  0.580066  1
  Mg  Mg17  1  0.580066  0.580066  0.259800  1
  Mg  Mg18  1  0.580066  0.259800  0.580066  1
  Mg  Mg19  1  0.259800  0.580066  0.580066  1
  Fe  Fe20  1  0.144036  0.144036  0.144036  1
  Fe  Fe21  1  0.144036  0.144036  0.567892  1
  Fe  Fe22  1  0.144036  0.567892  0.144036  1
  Fe  Fe23  1  0.567892  0.144036  0.144036  1
