# generated using pymatgen
data_Ho10SnBi3Pt2
_symmetry_space_group_name_H-M   'P 1'
_cell_length_a   7.99501376
_cell_length_b   8.99497598
_cell_length_c   12.32003300
_cell_angle_alpha   90.00000000
_cell_angle_beta   90.00000000
_cell_angle_gamma   90.07598090
_symmetry_Int_Tables_number   1
_chemical_formula_structural   Ho10SnBi3Pt2
_chemical_formula_sum   'Ho20 Sn2 Bi6 Pt4'
_cell_volume   885.99386053
_cell_formula_units_Z   2
loop_
 _symmetry_equiv_pos_site_id
 _symmetry_equiv_pos_as_xyz
  1  'x, y, z'
loop_
 _atom_site_type_symbol
 _atom_site_label
 _atom_site_symmetry_multiplicity
 _atom_site_fract_x
 _atom_site_fract_y
 _atom_site_fract_z
 _atom_site_occupancy
  Ho  Ho0  1  0.162880  0.745570  0.211845  1
  Ho  Ho1  1  0.337120  0.754430  0.711845  1
  Ho  Ho2  1  0.831969  0.245741  0.788553  1
  Ho  Ho3  1  0.668031  0.254259  0.288553  1
  Ho  Ho4  1  0.453262  0.754318  0.998248  1
  Ho  Ho5  1  0.046738  0.745682  0.498248  1
  Ho  Ho6  1  0.548564  0.245474  0.997318  1
  Ho  Ho7  1  0.951436  0.254526  0.497318  1
  Ho  Ho8  1  0.632635  0.746263  0.302195  1
  Ho  Ho9  1  0.867365  0.753737  0.802195  1
  Ho  Ho10  1  0.376145  0.245759  0.700412  1
  Ho  Ho11  1  0.123855  0.254241  0.200412  1
  Ho  Ho12  1  0.823820  0.544485  0.070649  1
  Ho  Ho13  1  0.676180  0.955515  0.570649  1
  Ho  Ho14  1  0.181990  0.044460  0.932844  1
  Ho  Ho15  1  0.318010  0.455540  0.432844  1
  Ho  Ho16  1  0.177552  0.454492  0.933419  1
  Ho  Ho17  1  0.322448  0.045508  0.433419  1
  Ho  Ho18  1  0.819682  0.955245  0.063860  1
  Ho  Ho19  1  0.680318  0.544755  0.563860  1
  Sn  Sn20  1  0.932676  0.509541  0.328440  1
  Sn  Sn21  1  0.567324  0.990459  0.828440  1
  Bi  Bi22  1  0.067935  0.010323  0.670527  1
  Bi  Bi23  1  0.432065  0.489677  0.170527  1
  Bi  Bi24  1  0.068889  0.489899  0.674626  1
  Bi  Bi25  1  0.431111  0.010101  0.174626  1
  Bi  Bi26  1  0.932033  0.989941  0.327355  1
  Bi  Bi27  1  0.567967  0.510059  0.827355  1
  Pt  Pt28  1  0.424699  0.749067  0.488146  1
  Pt  Pt29  1  0.075301  0.750933  0.988146  1
  Pt  Pt30  1  0.576041  0.250087  0.511564  1
  Pt  Pt31  1  0.923959  0.249913  0.011564  1
