# generated using pymatgen
data_MgIn8Hg3Ir4
_symmetry_space_group_name_H-M   'P 1'
_cell_length_a   7.20166324
_cell_length_b   7.17645959
_cell_length_c   7.15731047
_cell_angle_alpha   89.92324366
_cell_angle_beta   89.93858589
_cell_angle_gamma   90.51995073
_symmetry_Int_Tables_number   1
_chemical_formula_structural   MgIn8Hg3Ir4
_chemical_formula_sum   'Mg1 In8 Hg3 Ir4'
_cell_volume   369.89152590
_cell_formula_units_Z   1
loop_
 _symmetry_equiv_pos_site_id
 _symmetry_equiv_pos_as_xyz
  1  'x, y, z'
loop_
 _atom_site_type_symbol
 _atom_site_label
 _atom_site_symmetry_multiplicity
 _atom_site_fract_x
 _atom_site_fract_y
 _atom_site_fract_z
 _atom_site_occupancy
  Mg  Mg0  1  0.335080  0.346016  0.262045  1
  In  In1  1  0.155968  0.839188  0.765608  1
  In  In2  1  0.157813  0.840788  0.234495  1
  In  In3  1  0.845050  0.160510  0.234582  1
  In  In4  1  0.841938  0.159787  0.765565  1
  In  In5  1  0.657291  0.648615  0.261616  1
  In  In6  1  0.663262  0.653572  0.736652  1
  In  In7  1  0.335845  0.345010  0.734639  1
  In  In8  1  0.496864  0.003577  0.495458  1
  Hg  Hg9  1  0.010003  0.500808  0.007445  1
  Hg  Hg10  1  0.500682  0.009600  0.007063  1
  Hg  Hg11  1  0.004498  0.496491  0.494715  1
  Ir  Ir12  1  0.148837  0.149163  0.995714  1
  Ir  Ir13  1  0.648310  0.340991  0.500731  1
  Ir  Ir14  1  0.353514  0.661388  0.502222  1
  Ir  Ir15  1  0.845047  0.844497  0.001450  1
