# generated using pymatgen
data_Ac2SmCu3(Ni5B)2
_symmetry_space_group_name_H-M   'P 1'
_cell_length_a   5.15807800
_cell_length_b   5.15807836
_cell_length_c   11.01970300
_cell_angle_alpha   90.00000000
_cell_angle_beta   90.00000000
_cell_angle_gamma   119.99999768
_symmetry_Int_Tables_number   1
_chemical_formula_structural   Ac2SmCu3(Ni5B)2
_chemical_formula_sum   'Ac2 Sm1 Cu3 Ni10 B2'
_cell_volume   253.90799285
_cell_formula_units_Z   1
loop_
 _symmetry_equiv_pos_site_id
 _symmetry_equiv_pos_as_xyz
  1  'x, y, z'
loop_
 _atom_site_type_symbol
 _atom_site_label
 _atom_site_symmetry_multiplicity
 _atom_site_fract_x
 _atom_site_fract_y
 _atom_site_fract_z
 _atom_site_occupancy
  Ac  Ac0  1  0.000000  0.000000  0.330486  1
  Ac  Ac1  1  0.000000  0.000000  0.672023  1
  Sm  Sm2  1  0.000000  0.000000  0.999454  1
  Cu  Cu3  1  0.333333  0.666667  0.315053  1
  Cu  Cu4  1  0.666667  0.333333  0.314881  1
  Cu  Cu5  1  0.666667  0.333333  0.685521  1
  Ni  Ni6  1  0.499540  0.999079  0.500473  1
  Ni  Ni7  1  0.499540  0.500460  0.500473  1
  Ni  Ni8  1  0.000921  0.500460  0.500473  1
  Ni  Ni9  1  0.333333  0.666667  0.683732  1
  Ni  Ni10  1  0.500049  0.000098  0.125891  1
  Ni  Ni11  1  0.500049  0.499951  0.125891  1
  Ni  Ni12  1  0.999902  0.499951  0.125891  1
  Ni  Ni13  1  0.498887  0.997775  0.873435  1
  Ni  Ni14  1  0.498887  0.501113  0.873435  1
  Ni  Ni15  1  0.002225  0.501113  0.873435  1
  B  B16  1  0.333333  0.666667  0.000080  1
  B  B17  1  0.666667  0.333333  0.999376  1
