# generated using pymatgen
data_La2SmHo(Mo2O7)2
_symmetry_space_group_name_H-M   'P 1'
_cell_length_a   7.58372960
_cell_length_b   7.47945544
_cell_length_c   7.50811769
_cell_angle_alpha   59.30776920
_cell_angle_beta   59.66630880
_cell_angle_gamma   59.53774060
_symmetry_Int_Tables_number   1
_chemical_formula_structural   La2SmHo(Mo2O7)2
_chemical_formula_sum   'La2 Sm1 Ho1 Mo4 O14'
_cell_volume   297.73693265
_cell_formula_units_Z   1
loop_
 _symmetry_equiv_pos_site_id
 _symmetry_equiv_pos_as_xyz
  1  'x, y, z'
loop_
 _atom_site_type_symbol
 _atom_site_label
 _atom_site_symmetry_multiplicity
 _atom_site_fract_x
 _atom_site_fract_y
 _atom_site_fract_z
 _atom_site_occupancy
  La  La0  1  0.125000  0.125000  0.125000  1
  La  La1  1  0.625000  0.125000  0.125000  1
  Sm  Sm2  1  0.125000  0.125000  0.625000  1
  Ho  Ho3  1  0.125000  0.625000  0.125000  1
  Mo  Mo4  1  0.625000  0.625000  0.625000  1
  Mo  Mo5  1  0.125000  0.625000  0.625000  1
  Mo  Mo6  1  0.625000  0.125000  0.625000  1
  Mo  Mo7  1  0.625000  0.625000  0.125000  1
  O  O8  1  0.290780  0.291277  0.702913  1
  O  O9  1  0.290903  0.700726  0.290012  1
  O  O10  1  0.959097  0.549274  0.959988  1
  O  O11  1  0.706678  0.292654  0.293990  1
  O  O12  1  0.004208  0.990479  0.001106  1
  O  O13  1  0.531641  0.549274  0.959988  1
  O  O14  1  0.284900  0.709904  0.720296  1
  O  O15  1  0.534970  0.958723  0.547087  1
  O  O16  1  0.543322  0.957346  0.956010  1
  O  O17  1  0.718359  0.700726  0.290012  1
  O  O18  1  0.245792  0.259521  0.248894  1
  O  O19  1  0.959220  0.958723  0.547087  1
  O  O20  1  0.965100  0.540096  0.529704  1
  O  O21  1  0.715030  0.291277  0.702913  1
