# generated using pymatgen
data_CaLa4Nd5Sn8
_symmetry_space_group_name_H-M   'P 1'
_cell_length_a   8.29695300
_cell_length_b   8.45912800
_cell_length_c   16.01696500
_cell_angle_alpha   90.00000000
_cell_angle_beta   90.00000000
_cell_angle_gamma   90.00000000
_symmetry_Int_Tables_number   1
_chemical_formula_structural   CaLa4Nd5Sn8
_chemical_formula_sum   'Ca2 La8 Nd10 Sn16'
_cell_volume   1124.15048730
_cell_formula_units_Z   2
loop_
 _symmetry_equiv_pos_site_id
 _symmetry_equiv_pos_as_xyz
  1  'x, y, z'
loop_
 _atom_site_type_symbol
 _atom_site_label
 _atom_site_symmetry_multiplicity
 _atom_site_fract_x
 _atom_site_fract_y
 _atom_site_fract_z
 _atom_site_occupancy
  Ca  Ca0  1  0.805499  0.498895  0.250000  1
  Ca  Ca1  1  0.305499  0.001105  0.250000  1
  La  La2  1  0.514029  0.318985  0.902934  1
  La  La3  1  0.014029  0.181015  0.597066  1
  La  La4  1  0.486716  0.681906  0.402945  1
  La  La5  1  0.986716  0.818094  0.097055  1
  La  La6  1  0.486716  0.681906  0.097055  1
  La  La7  1  0.986716  0.818094  0.402945  1
  La  La8  1  0.514029  0.318985  0.597066  1
  La  La9  1  0.014029  0.181015  0.902934  1
  Nd  Nd10  1  0.362416  0.835671  0.878982  1
  Nd  Nd11  1  0.862416  0.664329  0.621018  1
  Nd  Nd12  1  0.636506  0.163955  0.378453  1
  Nd  Nd13  1  0.136506  0.336045  0.121547  1
  Nd  Nd14  1  0.636506  0.163955  0.121547  1
  Nd  Nd15  1  0.136506  0.336045  0.378453  1
  Nd  Nd16  1  0.362416  0.835671  0.621018  1
  Nd  Nd17  1  0.862416  0.664329  0.878982  1
  Nd  Nd18  1  0.194108  0.501667  0.750000  1
  Nd  Nd19  1  0.694108  0.998333  0.750000  1
  Sn  Sn20  1  0.299398  0.038759  0.041646  1
  Sn  Sn21  1  0.799398  0.461241  0.458354  1
  Sn  Sn22  1  0.699921  0.961674  0.541221  1
  Sn  Sn23  1  0.199921  0.538326  0.958779  1
  Sn  Sn24  1  0.699921  0.961674  0.958779  1
  Sn  Sn25  1  0.199921  0.538326  0.541221  1
  Sn  Sn26  1  0.299398  0.038759  0.458354  1
  Sn  Sn27  1  0.799398  0.461241  0.041646  1
  Sn  Sn28  1  0.562569  0.617313  0.750000  1
  Sn  Sn29  1  0.062569  0.882687  0.750000  1
  Sn  Sn30  1  0.437078  0.387657  0.250000  1
  Sn  Sn31  1  0.937078  0.112343  0.250000  1
  Sn  Sn32  1  0.318880  0.141493  0.750000  1
  Sn  Sn33  1  0.818880  0.358507  0.750000  1
  Sn  Sn34  1  0.683894  0.861375  0.250000  1
  Sn  Sn35  1  0.183894  0.638625  0.250000  1
