# generated using pymatgen
data_LaHo4(CoB3)2
_symmetry_space_group_name_H-M   'P 1'
_cell_length_a   8.26637087
_cell_length_b   8.26637087
_cell_length_c   8.26636979
_cell_angle_alpha   38.33377764
_cell_angle_beta   38.33377946
_cell_angle_gamma   38.33376741
_symmetry_Int_Tables_number   1
_chemical_formula_structural   LaHo4(CoB3)2
_chemical_formula_sum   'La1 Ho4 Co2 B6'
_cell_volume   195.18139450
_cell_formula_units_Z   1
loop_
 _symmetry_equiv_pos_site_id
 _symmetry_equiv_pos_as_xyz
  1  'x, y, z'
loop_
 _atom_site_type_symbol
 _atom_site_label
 _atom_site_symmetry_multiplicity
 _atom_site_fract_x
 _atom_site_fract_y
 _atom_site_fract_z
 _atom_site_occupancy
  La  La0  1  0.000000  0.000000  0.000000  1
  Ho  Ho1  1  0.583726  0.583726  0.583726  1
  Ho  Ho2  1  0.416274  0.416274  0.416274  1
  Ho  Ho3  1  0.748600  0.748600  0.748600  1
  Ho  Ho4  1  0.251400  0.251400  0.251400  1
  Co  Co5  1  0.882164  0.882164  0.882164  1
  Co  Co6  1  0.117836  0.117836  0.117836  1
  B  B7  1  0.500000  0.831228  0.168772  1
  B  B8  1  0.168772  0.500000  0.831228  1
  B  B9  1  0.831228  0.168772  0.500000  1
  B  B10  1  0.500000  0.168772  0.831228  1
  B  B11  1  0.831228  0.500000  0.168772  1
  B  B12  1  0.168772  0.831228  0.500000  1
