# generated using pymatgen
data_Ti12Al8Au4CN3
_symmetry_space_group_name_H-M   'P 1'
_cell_length_a   8.29343009
_cell_length_b   8.27498810
_cell_length_c   8.27462201
_cell_angle_alpha   60.00158532
_cell_angle_beta   60.07515248
_cell_angle_gamma   60.07694922
_symmetry_Int_Tables_number   1
_chemical_formula_structural   Ti12Al8Au4CN3
_chemical_formula_sum   'Ti12 Al8 Au4 C1 N3'
_cell_volume   402.01125927
_cell_formula_units_Z   1
loop_
 _symmetry_equiv_pos_site_id
 _symmetry_equiv_pos_as_xyz
  1  'x, y, z'
loop_
 _atom_site_type_symbol
 _atom_site_label
 _atom_site_symmetry_multiplicity
 _atom_site_fract_x
 _atom_site_fract_y
 _atom_site_fract_z
 _atom_site_occupancy
  Ti  Ti0  1  0.927076  0.931243  0.570837  1
  Ti  Ti1  1  0.678393  0.321886  0.321842  1
  Ti  Ti2  1  0.322991  0.679156  0.679080  1
  Ti  Ti3  1  0.678384  0.677928  0.321851  1
  Ti  Ti4  1  0.678424  0.321873  0.677890  1
  Ti  Ti5  1  0.323013  0.679142  0.318760  1
  Ti  Ti6  1  0.571623  0.928083  0.572135  1
  Ti  Ti7  1  0.571569  0.928143  0.928195  1
  Ti  Ti8  1  0.927016  0.570849  0.570863  1
  Ti  Ti9  1  0.926969  0.570896  0.931221  1
  Ti  Ti10  1  0.322948  0.318730  0.679153  1
  Ti  Ti11  1  0.571595  0.572098  0.928151  1
  Al  Al12  1  0.913543  0.260047  0.913194  1
  Al  Al13  1  0.336440  0.336807  0.989985  1
  Al  Al14  1  0.990680  0.336466  0.336446  1
  Al  Al15  1  0.336399  0.336854  0.336764  1
  Al  Al16  1  0.259332  0.913513  0.913597  1
  Al  Al17  1  0.913572  0.913203  0.913220  1
  Al  Al18  1  0.913599  0.913162  0.260039  1
  Al  Al19  1  0.336439  0.989939  0.336787  1
  Au  Au20  1  0.125012  0.625003  0.124972  1
  Au  Au21  1  0.125002  0.124969  0.625008  1
  Au  Au22  1  0.624998  0.125003  0.125001  1
  Au  Au23  1  0.124987  0.124999  0.125011  1
  C  C24  1  0.125013  0.625006  0.624956  1
  N  N25  1  0.625019  0.124978  0.625048  1
  N  N26  1  0.624974  0.625053  0.124978  1
  N  N27  1  0.624993  0.624970  0.625015  1
