# generated using pymatgen
data_CrFe2BO5
_symmetry_space_group_name_H-M   'P 1'
_cell_length_a   3.10566000
_cell_length_b   9.64348600
_cell_length_c   12.36957800
_cell_angle_alpha   90.00000000
_cell_angle_beta   90.00000000
_cell_angle_gamma   90.00000000
_symmetry_Int_Tables_number   1
_chemical_formula_structural   CrFe2BO5
_chemical_formula_sum   'Cr4 Fe8 B4 O20'
_cell_volume   370.46129996
_cell_formula_units_Z   4
loop_
 _symmetry_equiv_pos_site_id
 _symmetry_equiv_pos_as_xyz
  1  'x, y, z'
loop_
 _atom_site_type_symbol
 _atom_site_label
 _atom_site_symmetry_multiplicity
 _atom_site_fract_x
 _atom_site_fract_y
 _atom_site_fract_z
 _atom_site_occupancy
  Cr  Cr0  1  0.000000  0.744207  0.385241  1
  Cr  Cr1  1  0.000000  0.255793  0.614759  1
  Cr  Cr2  1  0.000000  0.244207  0.114759  1
  Cr  Cr3  1  0.000000  0.755793  0.885241  1
  Fe  Fe4  1  0.500000  0.498891  0.224199  1
  Fe  Fe5  1  0.500000  0.501109  0.775801  1
  Fe  Fe6  1  0.500000  0.998891  0.275801  1
  Fe  Fe7  1  0.500000  0.001109  0.724199  1
  Fe  Fe8  1  0.500000  0.500000  0.500000  1
  Fe  Fe9  1  0.500000  0.000000  0.000000  1
  Fe  Fe10  1  0.000000  0.000000  0.500000  1
  Fe  Fe11  1  0.000000  0.500000  0.000000  1
  B  B12  1  0.000000  0.765856  0.136632  1
  B  B13  1  0.000000  0.234144  0.863368  1
  B  B14  1  0.000000  0.265856  0.363368  1
  B  B15  1  0.000000  0.734144  0.636632  1
  O  O16  1  0.000000  0.840639  0.039879  1
  O  O17  1  0.000000  0.159361  0.960121  1
  O  O18  1  0.000000  0.340639  0.460121  1
  O  O19  1  0.000000  0.659361  0.539879  1
  O  O20  1  0.500000  0.613262  0.358589  1
  O  O21  1  0.500000  0.386738  0.641411  1
  O  O22  1  0.500000  0.113262  0.141411  1
  O  O23  1  0.500000  0.886738  0.858589  1
  O  O24  1  0.000000  0.622680  0.137598  1
  O  O25  1  0.000000  0.377320  0.862402  1
  O  O26  1  0.000000  0.122680  0.362402  1
  O  O27  1  0.000000  0.877320  0.637598  1
  O  O28  1  0.500000  0.879275  0.416306  1
  O  O29  1  0.500000  0.120725  0.583694  1
  O  O30  1  0.500000  0.379275  0.083694  1
  O  O31  1  0.500000  0.620725  0.916306  1
  O  O32  1  0.000000  0.837884  0.234234  1
  O  O33  1  0.000000  0.162116  0.765766  1
  O  O34  1  0.000000  0.337884  0.265766  1
  O  O35  1  0.000000  0.662116  0.734234  1
