# generated using pymatgen
data_YHo5B14OsW
_symmetry_space_group_name_H-M   'P 1'
_cell_length_a   8.09860205
_cell_length_b   8.09860086
_cell_length_c   9.38192700
_cell_angle_alpha   90.00000000
_cell_angle_beta   90.00000000
_cell_angle_gamma   155.08875554
_symmetry_Int_Tables_number   1
_chemical_formula_structural   YHo5B14OsW
_chemical_formula_sum   'Y1 Ho5 B14 Os1 W1'
_cell_volume   259.18789290
_cell_formula_units_Z   1
loop_
 _symmetry_equiv_pos_site_id
 _symmetry_equiv_pos_as_xyz
  1  'x, y, z'
loop_
 _atom_site_type_symbol
 _atom_site_label
 _atom_site_symmetry_multiplicity
 _atom_site_fract_x
 _atom_site_fract_y
 _atom_site_fract_z
 _atom_site_occupancy
  Y  Y0  1  0.754479  0.245521  0.250000  1
  Ho  Ho1  1  0.894058  0.105942  0.937482  1
  Ho  Ho2  1  0.106968  0.893032  0.058514  1
  Ho  Ho3  1  0.243461  0.756539  0.750000  1
  Ho  Ho4  1  0.894058  0.105942  0.562518  1
  Ho  Ho5  1  0.106968  0.893032  0.441486  1
  B  B6  1  0.545640  0.454360  0.250000  1
  B  B7  1  0.457894  0.542106  0.750000  1
  B  B8  1  0.521220  0.478780  0.903900  1
  B  B9  1  0.480341  0.519659  0.090520  1
  B  B10  1  0.480341  0.519659  0.409480  1
  B  B11  1  0.521220  0.478780  0.596100  1
  B  B12  1  0.632073  0.367927  0.849149  1
  B  B13  1  0.365267  0.634733  0.146667  1
  B  B14  1  0.726676  0.273324  0.964713  1
  B  B15  1  0.271787  0.728213  0.031589  1
  B  B16  1  0.271787  0.728213  0.468411  1
  B  B17  1  0.726676  0.273324  0.535287  1
  B  B18  1  0.632073  0.367927  0.650851  1
  B  B19  1  0.365267  0.634733  0.353333  1
  Os  Os20  1  0.054309  0.945691  0.750000  1
  W  W21  1  0.947437  0.052563  0.250000  1
