# generated using pymatgen
data_Li2Dy2TmAgPb3
_symmetry_space_group_name_H-M   'P 1'
_cell_length_a   7.38036187
_cell_length_b   7.38331145
_cell_length_c   4.64415000
_cell_angle_alpha   90.00000000
_cell_angle_beta   90.00000000
_cell_angle_gamma   120.25164475
_symmetry_Int_Tables_number   1
_chemical_formula_structural   Li2Dy2TmAgPb3
_chemical_formula_sum   'Li2 Dy2 Tm1 Ag1 Pb3'
_cell_volume   218.60438193
_cell_formula_units_Z   1
loop_
 _symmetry_equiv_pos_site_id
 _symmetry_equiv_pos_as_xyz
  1  'x, y, z'
loop_
 _atom_site_type_symbol
 _atom_site_label
 _atom_site_symmetry_multiplicity
 _atom_site_fract_x
 _atom_site_fract_y
 _atom_site_fract_z
 _atom_site_occupancy
  Li  Li0  1  0.771861  0.767624  0.000000  1
  Li  Li1  1  0.004144  0.232369  0.000000  1
  Dy  Dy2  1  0.550678  0.999982  0.500000  1
  Dy  Dy3  1  0.433960  0.429873  0.500000  1
  Tm  Tm4  1  0.004078  0.570996  0.500000  1
  Ag  Ag5  1  0.236312  0.000084  0.000000  1
  Pb  Pb6  1  0.984655  0.998041  0.500000  1
  Pb  Pb7  1  0.333949  0.657526  0.000000  1
  Pb  Pb8  1  0.680363  0.343505  0.000000  1
