# generated using pymatgen
data_MgSb2Cl2O3
_symmetry_space_group_name_H-M   'P 1'
_cell_length_a   8.22281891
_cell_length_b   8.97831940
_cell_length_c   10.35704887
_cell_angle_alpha   66.72598020
_cell_angle_beta   83.14521443
_cell_angle_gamma   92.60455468
_symmetry_Int_Tables_number   1
_chemical_formula_structural   MgSb2Cl2O3
_chemical_formula_sum   'Mg4 Sb8 Cl8 O12'
_cell_volume   693.78469723
_cell_formula_units_Z   4
loop_
 _symmetry_equiv_pos_site_id
 _symmetry_equiv_pos_as_xyz
  1  'x, y, z'
loop_
 _atom_site_type_symbol
 _atom_site_label
 _atom_site_symmetry_multiplicity
 _atom_site_fract_x
 _atom_site_fract_y
 _atom_site_fract_z
 _atom_site_occupancy
  Mg  Mg0  1  0.510991  0.609678  0.096790  1
  Mg  Mg1  1  0.489021  0.890304  0.403211  1
  Mg  Mg2  1  0.510974  0.109697  0.596789  1
  Mg  Mg3  1  0.489008  0.390326  0.903208  1
  Sb  Sb4  1  0.690771  0.032865  0.934587  1
  Sb  Sb5  1  0.690768  0.532861  0.434589  1
  Sb  Sb6  1  0.309235  0.967137  0.065409  1
  Sb  Sb7  1  0.309226  0.467137  0.565414  1
  Sb  Sb8  1  0.702292  0.787487  0.735257  1
  Sb  Sb9  1  0.702294  0.287485  0.235264  1
  Sb  Sb10  1  0.297714  0.212509  0.264742  1
  Sb  Sb11  1  0.297706  0.712519  0.764735  1
  Cl  Cl12  1  0.773317  0.930809  0.288516  1
  Cl  Cl13  1  0.773310  0.430830  0.788501  1
  Cl  Cl14  1  0.226682  0.069172  0.711503  1
  Cl  Cl15  1  0.226690  0.569188  0.211482  1
  Cl  Cl16  1  0.845556  0.229745  0.462701  1
  Cl  Cl17  1  0.845554  0.729740  0.962701  1
  Cl  Cl18  1  0.154442  0.770258  0.537295  1
  Cl  Cl19  1  0.154442  0.270252  0.037304  1
  O  O20  1  0.483722  0.652458  0.435998  1
  O  O21  1  0.483731  0.152468  0.936000  1
  O  O22  1  0.516268  0.347537  0.564003  1
  O  O23  1  0.516279  0.847537  0.064000  1
  O  O24  1  0.359373  0.006079  0.237505  1
  O  O25  1  0.359363  0.506085  0.737506  1
  O  O26  1  0.640632  0.993918  0.762494  1
  O  O27  1  0.640633  0.493916  0.262494  1
  O  O28  1  0.509057  0.145209  0.383037  1
  O  O29  1  0.509055  0.645210  0.883031  1
  O  O30  1  0.490945  0.854791  0.616963  1
  O  O31  1  0.490945  0.354791  0.116967  1
