# generated using pymatgen
data_Ce3Al11SiTc4
_symmetry_space_group_name_H-M   'P 1'
_cell_length_a   8.89759800
_cell_length_b   8.89759859
_cell_length_c   9.70242600
_cell_angle_alpha   90.00000000
_cell_angle_beta   90.00000000
_cell_angle_gamma   120.00000526
_symmetry_Int_Tables_number   1
_chemical_formula_structural   Ce3Al11SiTc4
_chemical_formula_sum   'Ce6 Al22 Si2 Tc8'
_cell_volume   665.20658021
_cell_formula_units_Z   2
loop_
 _symmetry_equiv_pos_site_id
 _symmetry_equiv_pos_as_xyz
  1  'x, y, z'
loop_
 _atom_site_type_symbol
 _atom_site_label
 _atom_site_symmetry_multiplicity
 _atom_site_fract_x
 _atom_site_fract_y
 _atom_site_fract_z
 _atom_site_occupancy
  Ce  Ce0  1  0.195775  0.391548  0.246784  1
  Ce  Ce1  1  0.804225  0.608452  0.753216  1
  Ce  Ce2  1  0.608452  0.804225  0.246784  1
  Ce  Ce3  1  0.391548  0.195775  0.753216  1
  Ce  Ce4  1  0.195775  0.804225  0.246784  1
  Ce  Ce5  1  0.804225  0.195775  0.753216  1
  Al  Al6  1  0.666667  0.333333  0.503210  1
  Al  Al7  1  0.333333  0.666667  0.496790  1
  Al  Al8  1  0.161478  0.322956  0.577852  1
  Al  Al9  1  0.838522  0.677044  0.422148  1
  Al  Al10  1  0.677044  0.838522  0.577852  1
  Al  Al11  1  0.836574  0.673149  0.077674  1
  Al  Al12  1  0.322956  0.161478  0.422148  1
  Al  Al13  1  0.163426  0.326851  0.922326  1
  Al  Al14  1  0.161478  0.838522  0.577852  1
  Al  Al15  1  0.326851  0.163426  0.077674  1
  Al  Al16  1  0.838522  0.161478  0.422148  1
  Al  Al17  1  0.673149  0.836574  0.922326  1
  Al  Al18  1  0.836574  0.163426  0.077674  1
  Al  Al19  1  0.163426  0.836574  0.922326  1
  Al  Al20  1  0.563436  0.126872  0.249852  1
  Al  Al21  1  0.436564  0.873128  0.750148  1
  Al  Al22  1  0.873128  0.436564  0.249852  1
  Al  Al23  1  0.126872  0.563436  0.750148  1
  Al  Al24  1  0.563436  0.436564  0.249852  1
  Al  Al25  1  0.436564  0.563436  0.750148  1
  Al  Al26  1  0.000000  0.000000  0.249965  1
  Al  Al27  1  0.000000  0.000000  0.750035  1
  Si  Si28  1  0.333333  0.666667  0.026412  1
  Si  Si29  1  0.666667  0.333333  0.973588  1
  Tc  Tc30  1  0.500000  0.000000  0.000000  1
  Tc  Tc31  1  0.000000  0.500000  0.000000  1
  Tc  Tc32  1  0.500000  0.000000  0.500000  1
  Tc  Tc33  1  0.500000  0.500000  0.000000  1
  Tc  Tc34  1  0.000000  0.500000  0.500000  1
  Tc  Tc35  1  0.500000  0.500000  0.500000  1
  Tc  Tc36  1  0.000000  0.000000  0.000000  1
  Tc  Tc37  1  0.000000  0.000000  0.500000  1
