# generated using pymatgen
data_SmTh3(PdPt5)2
_symmetry_space_group_name_H-M   'P 1'
_cell_length_a   5.96386320
_cell_length_b   5.96386218
_cell_length_c   9.80284706
_cell_angle_alpha   90.04597084
_cell_angle_beta   89.95403038
_cell_angle_gamma   120.15870197
_symmetry_Int_Tables_number   1
_chemical_formula_structural   SmTh3(PdPt5)2
_chemical_formula_sum   'Sm1 Th3 Pd2 Pt10'
_cell_volume   301.46798814
_cell_formula_units_Z   1
loop_
 _symmetry_equiv_pos_site_id
 _symmetry_equiv_pos_as_xyz
  1  'x, y, z'
loop_
 _atom_site_type_symbol
 _atom_site_label
 _atom_site_symmetry_multiplicity
 _atom_site_fract_x
 _atom_site_fract_y
 _atom_site_fract_z
 _atom_site_occupancy
  Sm  Sm0  1  0.999863  0.000137  0.499831  1
  Th  Th1  1  0.999890  0.000110  0.000058  1
  Th  Th2  1  0.333189  0.666811  0.252936  1
  Th  Th3  1  0.667154  0.332846  0.747022  1
  Pd  Pd4  1  0.499983  0.500017  0.999489  1
  Pd  Pd5  1  0.175318  0.824682  0.751219  1
  Pt  Pt6  1  0.499975  0.500025  0.500787  1
  Pt  Pt7  1  0.500229  0.000070  0.500363  1
  Pt  Pt8  1  0.999930  0.499771  0.500363  1
  Pt  Pt9  1  0.500046  0.000103  0.999594  1
  Pt  Pt10  1  0.999897  0.499954  0.999594  1
  Pt  Pt11  1  0.824525  0.649496  0.249015  1
  Pt  Pt12  1  0.350504  0.175475  0.249015  1
  Pt  Pt13  1  0.825074  0.174926  0.248658  1
  Pt  Pt14  1  0.175664  0.351242  0.751028  1
  Pt  Pt15  1  0.648758  0.824336  0.751028  1
