# generated using pymatgen
data_Y9Lu3Co4AgSn
_symmetry_space_group_name_H-M   'P 1'
_cell_length_a   8.31933300
_cell_length_b   8.33088639
_cell_length_c   8.31933304
_cell_angle_alpha   111.35122692
_cell_angle_beta   110.07102201
_cell_angle_gamma   106.96696975
_symmetry_Int_Tables_number   1
_chemical_formula_structural   Y9Lu3Co4AgSn
_chemical_formula_sum   'Y9 Lu3 Co4 Ag1 Sn1'
_cell_volume   443.48212573
_cell_formula_units_Z   1
loop_
 _symmetry_equiv_pos_site_id
 _symmetry_equiv_pos_as_xyz
  1  'x, y, z'
loop_
 _atom_site_type_symbol
 _atom_site_label
 _atom_site_symmetry_multiplicity
 _atom_site_fract_x
 _atom_site_fract_y
 _atom_site_fract_z
 _atom_site_occupancy
  Y  Y0  1  0.428877  0.221070  0.205392  1
  Y  Y1  1  0.573923  0.778799  0.796611  1
  Y  Y2  1  0.015678  0.221070  0.792194  1
  Y  Y3  1  0.982188  0.778799  0.204876  1
  Y  Y4  1  0.187401  0.288629  0.478375  1
  Y  Y5  1  0.814301  0.710086  0.522978  1
  Y  Y6  1  0.187107  0.710086  0.895784  1
  Y  Y7  1  0.810254  0.288629  0.101229  1
  Y  Y8  1  0.314238  0.618427  0.304190  1
  Lu  Lu9  1  0.685043  0.378250  0.693207  1
  Lu  Lu10  1  0.315229  0.007384  0.692156  1
  Lu  Lu11  1  0.684557  0.992014  0.307457  1
  Co  Co12  1  0.381983  0.004644  0.383581  1
  Co  Co13  1  0.621063  0.004644  0.622661  1
  Co  Co14  1  0.110276  0.611240  0.500964  1
  Co  Co15  1  0.885192  0.384108  0.498916  1
  Ag  Ag16  1  0.001523  0.002392  0.000869  1
  Sn  Sn17  1  0.501167  0.499730  0.998562  1
