# generated using pymatgen
data_Hf6Al7Cu16
_symmetry_space_group_name_H-M   'P 1'
_cell_length_a   8.40010807
_cell_length_b   8.40010753
_cell_length_c   8.40010800
_cell_angle_alpha   59.99999817
_cell_angle_beta   60.00000026
_cell_angle_gamma   60.00000035
_symmetry_Int_Tables_number   1
_chemical_formula_structural   Hf6Al7Cu16
_chemical_formula_sum   'Hf6 Al7 Cu16'
_cell_volume   419.12115959
_cell_formula_units_Z   1
loop_
 _symmetry_equiv_pos_site_id
 _symmetry_equiv_pos_as_xyz
  1  'x, y, z'
loop_
 _atom_site_type_symbol
 _atom_site_label
 _atom_site_symmetry_multiplicity
 _atom_site_fract_x
 _atom_site_fract_y
 _atom_site_fract_z
 _atom_site_occupancy
  Hf  Hf0  1  0.702996  0.297004  0.297004  1
  Hf  Hf1  1  0.702996  0.297004  0.702996  1
  Hf  Hf2  1  0.702996  0.702996  0.297004  1
  Hf  Hf3  1  0.297004  0.702996  0.702996  1
  Hf  Hf4  1  0.297004  0.702996  0.297004  1
  Hf  Hf5  1  0.297004  0.297004  0.702996  1
  Al  Al6  1  0.000000  0.000000  0.000000  1
  Al  Al7  1  0.500000  0.000000  0.000000  1
  Al  Al8  1  0.500000  0.000000  0.500000  1
  Al  Al9  1  0.500000  0.500000  0.000000  1
  Al  Al10  1  0.000000  0.500000  0.500000  1
  Al  Al11  1  0.000000  0.500000  0.000000  1
  Al  Al12  1  0.000000  0.000000  0.500000  1
  Cu  Cu13  1  0.643382  0.118873  0.118873  1
  Cu  Cu14  1  0.118873  0.643382  0.118873  1
  Cu  Cu15  1  0.118873  0.118873  0.643382  1
  Cu  Cu16  1  0.118873  0.118873  0.118873  1
  Cu  Cu17  1  0.356618  0.881127  0.881127  1
  Cu  Cu18  1  0.881127  0.356618  0.881127  1
  Cu  Cu19  1  0.881127  0.881127  0.356618  1
  Cu  Cu20  1  0.881127  0.881127  0.881127  1
  Cu  Cu21  1  0.007934  0.330689  0.330689  1
  Cu  Cu22  1  0.330689  0.007934  0.330689  1
  Cu  Cu23  1  0.330689  0.330689  0.007934  1
  Cu  Cu24  1  0.330689  0.330689  0.330689  1
  Cu  Cu25  1  0.992066  0.669311  0.669311  1
  Cu  Cu26  1  0.669311  0.992066  0.669311  1
  Cu  Cu27  1  0.669311  0.669311  0.992066  1
  Cu  Cu28  1  0.669311  0.669311  0.669311  1
