# generated using pymatgen
data_Ho9Lu11(Sn3Bi)4
_symmetry_space_group_name_H-M   'P 1'
_cell_length_a   8.08811220
_cell_length_b   8.09447249
_cell_length_c   15.28890000
_cell_angle_alpha   90.00157140
_cell_angle_beta   90.07643584
_cell_angle_gamma   90.04494560
_symmetry_Int_Tables_number   1
_chemical_formula_structural   Ho9Lu11(Sn3Bi)4
_chemical_formula_sum   'Ho9 Lu11 Sn12 Bi4'
_cell_volume   1000.94782113
_cell_formula_units_Z   1
loop_
 _symmetry_equiv_pos_site_id
 _symmetry_equiv_pos_as_xyz
  1  'x, y, z'
loop_
 _atom_site_type_symbol
 _atom_site_label
 _atom_site_symmetry_multiplicity
 _atom_site_fract_x
 _atom_site_fract_y
 _atom_site_fract_z
 _atom_site_occupancy
  Ho  Ho0  1  0.870364  0.662514  0.877549  1
  Ho  Ho1  1  0.546741  0.325273  0.896051  1
  Ho  Ho2  1  0.046240  0.174768  0.603404  1
  Ho  Ho3  1  0.453679  0.674057  0.396230  1
  Ho  Ho4  1  0.952416  0.827224  0.105469  1
  Ho  Ho5  1  0.473165  0.673158  0.102174  1
  Ho  Ho6  1  0.972888  0.826259  0.397780  1
  Ho  Ho7  1  0.526395  0.326101  0.601542  1
  Ho  Ho8  1  0.027677  0.173079  0.897270  1
  Lu  Lu9  1  0.378410  0.840121  0.873736  1
  Lu  Lu10  1  0.877874  0.659507  0.625311  1
  Lu  Lu11  1  0.621540  0.159505  0.374010  1
  Lu  Lu12  1  0.121456  0.340654  0.125654  1
  Lu  Lu13  1  0.630545  0.161419  0.125031  1
  Lu  Lu14  1  0.132277  0.338331  0.376204  1
  Lu  Lu15  1  0.368661  0.838581  0.623479  1
  Lu  Lu16  1  0.204196  0.502407  0.746133  1
  Lu  Lu17  1  0.703607  0.998043  0.752801  1
  Lu  Lu18  1  0.796162  0.497155  0.247403  1
  Lu  Lu19  1  0.295701  0.002347  0.253164  1
  Sn  Sn20  1  0.712100  0.968711  0.957972  1
  Sn  Sn21  1  0.212730  0.534471  0.542260  1
  Sn  Sn22  1  0.286935  0.034069  0.457299  1
  Sn  Sn23  1  0.786363  0.464774  0.043962  1
  Sn  Sn24  1  0.569115  0.624515  0.747498  1
  Sn  Sn25  1  0.069449  0.876235  0.750783  1
  Sn  Sn26  1  0.430652  0.376107  0.248414  1
  Sn  Sn27  1  0.930916  0.124808  0.252296  1
  Sn  Sn28  1  0.344207  0.149220  0.751063  1
  Sn  Sn29  1  0.843584  0.350680  0.747944  1
  Sn  Sn30  1  0.655102  0.850160  0.251829  1
  Sn  Sn31  1  0.155861  0.649059  0.248756  1
  Bi  Bi32  1  0.282373  0.030597  0.043304  1
  Bi  Bi33  1  0.783335  0.468088  0.456749  1
  Bi  Bi34  1  0.716808  0.968490  0.542878  1
  Bi  Bi35  1  0.220479  0.529510  0.956596  1
