# generated using pymatgen
data_Sc4MnV2Os5
_symmetry_space_group_name_H-M   'P 1'
_cell_length_a   5.06481698
_cell_length_b   5.18520373
_cell_length_c   8.61691100
_cell_angle_alpha   90.00000000
_cell_angle_beta   90.00000000
_cell_angle_gamma   119.75397698
_symmetry_Int_Tables_number   1
_chemical_formula_structural   Sc4MnV2Os5
_chemical_formula_sum   'Sc4 Mn1 V2 Os5'
_cell_volume   196.46407401
_cell_formula_units_Z   1
loop_
 _symmetry_equiv_pos_site_id
 _symmetry_equiv_pos_as_xyz
  1  'x, y, z'
loop_
 _atom_site_type_symbol
 _atom_site_label
 _atom_site_symmetry_multiplicity
 _atom_site_fract_x
 _atom_site_fract_y
 _atom_site_fract_z
 _atom_site_occupancy
  Sc  Sc0  1  0.336241  0.669307  0.436473  1
  Sc  Sc1  1  0.661994  0.329368  0.561527  1
  Sc  Sc2  1  0.661994  0.329368  0.938473  1
  Sc  Sc3  1  0.336241  0.669307  0.063527  1
  Mn  Mn4  1  0.171597  0.343810  0.750000  1
  V  V5  1  0.171525  0.827855  0.750000  1
  V  V6  1  0.339387  0.170516  0.250000  1
  Os  Os7  1  0.829968  0.657812  0.250000  1
  Os  Os8  1  0.647437  0.823745  0.750000  1
  Os  Os9  1  0.006183  0.002457  0.993680  1
  Os  Os10  1  0.831250  0.173997  0.250000  1
  Os  Os11  1  0.006183  0.002457  0.506320  1
