# generated using pymatgen
data_Ca4TbPa5O18
_symmetry_space_group_name_H-M   'P 1'
_cell_length_a   6.79811051
_cell_length_b   7.65514414
_cell_length_c   8.58627900
_cell_angle_alpha   101.28881104
_cell_angle_beta   98.12241443
_cell_angle_gamma   107.29993214
_symmetry_Int_Tables_number   1
_chemical_formula_structural   Ca4TbPa5O18
_chemical_formula_sum   'Ca4 Tb1 Pa5 O18'
_cell_volume   408.75873360
_cell_formula_units_Z   1
loop_
 _symmetry_equiv_pos_site_id
 _symmetry_equiv_pos_as_xyz
  1  'x, y, z'
loop_
 _atom_site_type_symbol
 _atom_site_label
 _atom_site_symmetry_multiplicity
 _atom_site_fract_x
 _atom_site_fract_y
 _atom_site_fract_z
 _atom_site_occupancy
  Ca  Ca0  1  0.593217  0.699893  0.195462  1
  Ca  Ca1  1  0.407194  0.303210  0.802368  1
  Ca  Ca2  1  0.209396  0.895880  0.415274  1
  Ca  Ca3  1  0.002447  0.506592  0.004931  1
  Tb  Tb4  1  0.800223  0.109587  0.581955  1
  Pa  Pa5  1  0.998473  0.997711  0.000852  1
  Pa  Pa6  1  0.788516  0.579698  0.586824  1
  Pa  Pa7  1  0.631757  0.202785  0.190219  1
  Pa  Pa8  1  0.368276  0.797541  0.806644  1
  Pa  Pa9  1  0.212096  0.423789  0.413342  1
  O  O10  1  0.810432  0.807103  0.479733  1
  O  O11  1  0.990191  0.250799  0.169565  1
  O  O12  1  0.669601  0.413772  0.065955  1
  O  O13  1  0.479006  0.998598  0.677139  1
  O  O14  1  0.862395  0.337045  0.434978  1
  O  O15  1  0.513009  0.403336  0.350236  1
  O  O16  1  0.257366  0.616374  0.273959  1
  O  O17  1  0.986023  0.832241  0.164355  1
  O  O18  1  0.657663  0.932270  0.005291  1
  O  O19  1  0.339419  0.065681  0.993786  1
  O  O20  1  0.004503  0.157857  0.829436  1
  O  O21  1  0.745252  0.377154  0.721727  1
  O  O22  1  0.486509  0.591178  0.652501  1
  O  O23  1  0.136620  0.664362  0.566257  1
  O  O24  1  0.546038  0.003852  0.325204  1
  O  O25  1  0.327731  0.585909  0.931599  1
  O  O26  1  0.006081  0.746179  0.830570  1
  O  O27  1  0.170569  0.199606  0.529843  1
