# generated using pymatgen
data_CePr(ThOs4)2
_symmetry_space_group_name_H-M   'P 1'
_cell_length_a   5.39753800
_cell_length_b   5.39753798
_cell_length_c   9.06661400
_cell_angle_alpha   90.00000000
_cell_angle_beta   90.00000000
_cell_angle_gamma   120.00000014
_symmetry_Int_Tables_number   1
_chemical_formula_structural   CePr(ThOs4)2
_chemical_formula_sum   'Ce1 Pr1 Th2 Os8'
_cell_volume   228.75319731
_cell_formula_units_Z   1
loop_
 _symmetry_equiv_pos_site_id
 _symmetry_equiv_pos_as_xyz
  1  'x, y, z'
loop_
 _atom_site_type_symbol
 _atom_site_label
 _atom_site_symmetry_multiplicity
 _atom_site_fract_x
 _atom_site_fract_y
 _atom_site_fract_z
 _atom_site_occupancy
  Ce  Ce0  1  0.333333  0.666667  0.071648  1
  Pr  Pr1  1  0.333333  0.666667  0.431509  1
  Th  Th2  1  0.666667  0.333333  0.567137  1
  Th  Th3  1  0.666667  0.333333  0.933974  1
  Os  Os4  1  0.000000  0.000000  0.497963  1
  Os  Os5  1  0.000000  0.000000  0.000529  1
  Os  Os6  1  0.829744  0.170256  0.247798  1
  Os  Os7  1  0.829744  0.659487  0.247798  1
  Os  Os8  1  0.340513  0.170256  0.247798  1
  Os  Os9  1  0.170565  0.829435  0.751282  1
  Os  Os10  1  0.170565  0.341132  0.751282  1
  Os  Os11  1  0.658868  0.829435  0.751282  1
