# generated using pymatgen
data_TbHo(PdO2)4
_symmetry_space_group_name_H-M   'P 1'
_cell_length_a   6.51054825
_cell_length_b   6.51054853
_cell_length_c   6.51054801
_cell_angle_alpha   126.93217169
_cell_angle_beta   126.93217545
_cell_angle_gamma   78.36137387
_symmetry_Int_Tables_number   1
_chemical_formula_structural   TbHo(PdO2)4
_chemical_formula_sum   'Tb1 Ho1 Pd4 O8'
_cell_volume   170.76068680
_cell_formula_units_Z   1
loop_
 _symmetry_equiv_pos_site_id
 _symmetry_equiv_pos_as_xyz
  1  'x, y, z'
loop_
 _atom_site_type_symbol
 _atom_site_label
 _atom_site_symmetry_multiplicity
 _atom_site_fract_x
 _atom_site_fract_y
 _atom_site_fract_z
 _atom_site_occupancy
  Tb  Tb0  1  0.250000  0.750000  0.500000  1
  Ho  Ho1  1  0.500000  0.500000  0.000000  1
  Pd  Pd2  1  0.874090  0.126912  0.751232  1
  Pd  Pd3  1  0.873088  0.624319  0.747178  1
  Pd  Pd4  1  0.877141  0.125910  0.252822  1
  Pd  Pd5  1  0.375681  0.122859  0.248768  1
  O  O6  1  0.491248  0.456444  0.341920  1
  O  O7  1  0.212531  0.362618  0.469928  1
  O  O8  1  0.892691  0.742603  0.530072  1
  O  O9  1  0.114525  0.149329  0.658080  1
  O  O10  1  0.257397  0.787469  0.150087  1
  O  O11  1  0.543556  0.885475  0.034803  1
  O  O12  1  0.637382  0.107309  0.849913  1
  O  O13  1  0.850671  0.508752  0.965197  1
