# generated using pymatgen
data_Pr15Y5(IrPt2)4
_symmetry_space_group_name_H-M   'P 1'
_cell_length_a   11.44778445
_cell_length_b   11.43310382
_cell_length_c   6.52202233
_cell_angle_alpha   90.03311285
_cell_angle_beta   90.01579392
_cell_angle_gamma   90.02807355
_symmetry_Int_Tables_number   1
_chemical_formula_structural   Pr15Y5(IrPt2)4
_chemical_formula_sum   'Pr15 Y5 Ir4 Pt8'
_cell_volume   853.62619029
_cell_formula_units_Z   1
loop_
 _symmetry_equiv_pos_site_id
 _symmetry_equiv_pos_as_xyz
  1  'x, y, z'
loop_
 _atom_site_type_symbol
 _atom_site_label
 _atom_site_symmetry_multiplicity
 _atom_site_fract_x
 _atom_site_fract_y
 _atom_site_fract_z
 _atom_site_occupancy
  Pr  Pr0  1  0.290538  0.089532  0.374280  1
  Pr  Pr1  1  0.291937  0.912138  0.875299  1
  Pr  Pr2  1  0.708376  0.088164  0.875460  1
  Pr  Pr3  1  0.708337  0.912110  0.375245  1
  Pr  Pr4  1  0.587207  0.791778  0.874960  1
  Pr  Pr5  1  0.587598  0.207893  0.375385  1
  Pr  Pr6  1  0.412057  0.792049  0.375158  1
  Pr  Pr7  1  0.411696  0.208347  0.876374  1
  Pr  Pr8  1  0.207532  0.410137  0.624466  1
  Pr  Pr9  1  0.208100  0.585403  0.125047  1
  Pr  Pr10  1  0.793333  0.410982  0.124448  1
  Pr  Pr11  1  0.791961  0.587650  0.624288  1
  Pr  Pr12  1  0.912795  0.707854  0.125011  1
  Pr  Pr13  1  0.914120  0.291728  0.624119  1
  Pr  Pr14  1  0.087495  0.707544  0.625285  1
  Y  Y15  1  0.086221  0.295032  0.121308  1
  Y  Y16  1  0.000356  0.000634  0.500427  1
  Y  Y17  1  0.001054  0.002040  0.001141  1
  Y  Y18  1  0.500273  0.499623  0.000748  1
  Y  Y19  1  0.499177  0.499530  0.500095  1
  Ir  Ir20  1  0.499709  0.000182  0.114666  1
  Ir  Ir21  1  0.499818  0.000352  0.614636  1
  Ir  Ir22  1  0.001158  0.497754  0.886138  1
  Ir  Ir23  1  0.000603  0.498020  0.382692  1
  Pt  Pt24  1  0.854845  0.149854  0.247867  1
  Pt  Pt25  1  0.852479  0.852042  0.750253  1
  Pt  Pt26  1  0.146965  0.150842  0.755940  1
  Pt  Pt27  1  0.147669  0.851500  0.250437  1
  Pt  Pt28  1  0.648183  0.352063  0.749350  1
  Pt  Pt29  1  0.648161  0.648257  0.250806  1
  Pt  Pt30  1  0.348451  0.350977  0.248396  1
  Pt  Pt31  1  0.351794  0.647991  0.750271  1
