# generated using pymatgen
data_TbYb3SnSb3O14
_symmetry_space_group_name_H-M   'P 1'
_cell_length_a   7.37399498
_cell_length_b   7.36847697
_cell_length_c   7.40214000
_cell_angle_alpha   59.84875919
_cell_angle_beta   59.87366093
_cell_angle_gamma   59.79326299
_symmetry_Int_Tables_number   1
_chemical_formula_structural   TbYb3SnSb3O14
_chemical_formula_sum   'Tb1 Yb3 Sn1 Sb3 O14'
_cell_volume   283.35329704
_cell_formula_units_Z   1
loop_
 _symmetry_equiv_pos_site_id
 _symmetry_equiv_pos_as_xyz
  1  'x, y, z'
loop_
 _atom_site_type_symbol
 _atom_site_label
 _atom_site_symmetry_multiplicity
 _atom_site_fract_x
 _atom_site_fract_y
 _atom_site_fract_z
 _atom_site_occupancy
  Tb  Tb0  1  0.125000  0.625000  0.625000  1
  Yb  Yb1  1  0.625000  0.625000  0.125000  1
  Yb  Yb2  1  0.625000  0.125000  0.625000  1
  Yb  Yb3  1  0.625000  0.625000  0.625000  1
  Sn  Sn4  1  0.125000  0.625000  0.125000  1
  Sb  Sb5  1  0.125000  0.125000  0.625000  1
  Sb  Sb6  1  0.625000  0.125000  0.125000  1
  Sb  Sb7  1  0.125000  0.125000  0.125000  1
  O  O8  1  0.758557  0.748777  0.746333  1
  O  O9  1  0.491443  0.501223  0.503667  1
  O  O10  1  0.044901  0.450989  0.040667  1
  O  O11  1  0.799486  0.197123  0.798748  1
  O  O12  1  0.046327  0.050534  0.451570  1
  O  O13  1  0.450514  0.052877  0.045357  1
  O  O14  1  0.044901  0.450989  0.463442  1
  O  O15  1  0.462264  0.449972  0.043881  1
  O  O16  1  0.450514  0.052877  0.451252  1
  O  O17  1  0.205099  0.799011  0.786558  1
  O  O18  1  0.799486  0.197123  0.204643  1
  O  O19  1  0.205099  0.799011  0.209333  1
  O  O20  1  0.787736  0.800028  0.206119  1
  O  O21  1  0.203673  0.199466  0.798430  1
