# generated using pymatgen
data_NaHfTa2N5
_symmetry_space_group_name_H-M   'P 1'
_cell_length_a   5.61430403
_cell_length_b   5.61430361
_cell_length_c   10.44632000
_cell_angle_alpha   90.00000000
_cell_angle_beta   90.00000000
_cell_angle_gamma   137.52949707
_symmetry_Int_Tables_number   1
_chemical_formula_structural   NaHfTa2N5
_chemical_formula_sum   'Na2 Hf2 Ta4 N10'
_cell_volume   222.32810592
_cell_formula_units_Z   2
loop_
 _symmetry_equiv_pos_site_id
 _symmetry_equiv_pos_as_xyz
  1  'x, y, z'
loop_
 _atom_site_type_symbol
 _atom_site_label
 _atom_site_symmetry_multiplicity
 _atom_site_fract_x
 _atom_site_fract_y
 _atom_site_fract_z
 _atom_site_occupancy
  Na  Na0  1  0.501154  0.498847  0.750074  1
  Na  Na1  1  0.498847  0.501153  0.250074  1
  Hf  Hf2  1  0.142312  0.857688  0.554386  1
  Hf  Hf3  1  0.857688  0.142312  0.054386  1
  Ta  Ta4  1  0.795815  0.204185  0.747112  1
  Ta  Ta5  1  0.866638  0.133362  0.447043  1
  Ta  Ta6  1  0.204185  0.795815  0.247112  1
  Ta  Ta7  1  0.133362  0.866638  0.947043  1
  N  N8  1  0.308067  0.691933  0.079147  1
  N  N9  1  0.959298  0.040702  0.875880  1
  N  N10  1  0.949726  0.050274  0.619507  1
  N  N11  1  0.040702  0.959298  0.375880  1
  N  N12  1  0.314516  0.685484  0.422470  1
  N  N13  1  0.250710  0.749290  0.754382  1
  N  N14  1  0.691933  0.308067  0.579147  1
  N  N15  1  0.749290  0.250710  0.254382  1
  N  N16  1  0.050274  0.949726  0.119507  1
  N  N17  1  0.685484  0.314516  0.922470  1
