# generated using pymatgen
data_Dy2Fe3P7Ru8Pt
_symmetry_space_group_name_H-M   'P 1'
_cell_length_a   9.35436136
_cell_length_b   9.29132745
_cell_length_c   3.86060800
_cell_angle_alpha   90.00000000
_cell_angle_beta   90.00000000
_cell_angle_gamma   119.55765300
_symmetry_Int_Tables_number   1
_chemical_formula_structural   Dy2Fe3P7Ru8Pt
_chemical_formula_sum   'Dy2 Fe3 P7 Ru8 Pt1'
_cell_volume   291.87497238
_cell_formula_units_Z   1
loop_
 _symmetry_equiv_pos_site_id
 _symmetry_equiv_pos_as_xyz
  1  'x, y, z'
loop_
 _atom_site_type_symbol
 _atom_site_label
 _atom_site_symmetry_multiplicity
 _atom_site_fract_x
 _atom_site_fract_y
 _atom_site_fract_z
 _atom_site_occupancy
  Dy  Dy0  1  0.332959  0.666170  0.000000  1
  Dy  Dy1  1  0.002565  0.002589  0.500000  1
  Fe  Fe2  1  0.931243  0.489279  0.000000  1
  Fe  Fe3  1  0.507309  0.445244  0.000000  1
  Fe  Fe4  1  0.556247  0.064268  0.000000  1
  P  P5  1  0.981544  0.746048  0.000000  1
  P  P6  1  0.255132  0.224825  0.000000  1
  P  P7  1  0.775848  0.040316  0.000000  1
  P  P8  1  0.062377  0.447939  0.500000  1
  P  P9  1  0.537156  0.604316  0.500000  1
  P  P10  1  0.386042  0.934759  0.500000  1
  P  P11  1  0.665063  0.333498  0.000000  1
  Ru  Ru12  1  0.245709  0.972458  0.000000  1
  Ru  Ru13  1  0.027918  0.271329  0.000000  1
  Ru  Ru14  1  0.104793  0.717796  0.500000  1
  Ru  Ru15  1  0.275919  0.381340  0.500000  1
  Ru  Ru16  1  0.614985  0.892015  0.500000  1
  Ru  Ru17  1  0.752255  0.542754  0.500000  1
  Ru  Ru18  1  0.462210  0.214874  0.500000  1
  Ru  Ru19  1  0.784378  0.245096  0.500000  1
  Pt  Pt20  1  0.738347  0.763086  0.000000  1
