# generated using pymatgen
data_Lu12Fe3SnAu
_symmetry_space_group_name_H-M   'P 1'
_cell_length_a   8.12141353
_cell_length_b   8.11936173
_cell_length_c   8.12141434
_cell_angle_alpha   110.39108600
_cell_angle_beta   107.45386971
_cell_angle_gamma   110.59823372
_symmetry_Int_Tables_number   1
_chemical_formula_structural   Lu12Fe3SnAu
_chemical_formula_sum   'Lu12 Fe3 Sn1 Au1'
_cell_volume   411.81342282
_cell_formula_units_Z   1
loop_
 _symmetry_equiv_pos_site_id
 _symmetry_equiv_pos_as_xyz
  1  'x, y, z'
loop_
 _atom_site_type_symbol
 _atom_site_label
 _atom_site_symmetry_multiplicity
 _atom_site_fract_x
 _atom_site_fract_y
 _atom_site_fract_z
 _atom_site_occupancy
  Lu  Lu0  1  0.305524  0.311155  0.616519  1
  Lu  Lu1  1  0.694476  0.688845  0.383481  1
  Lu  Lu2  1  0.694636  0.311155  0.005631  1
  Lu  Lu3  1  0.305364  0.688845  0.994369  1
  Lu  Lu4  1  0.193388  0.449994  0.256606  1
  Lu  Lu5  1  0.806612  0.550006  0.743394  1
  Lu  Lu6  1  0.193325  0.936788  0.743463  1
  Lu  Lu7  1  0.964436  0.188940  0.775506  1
  Lu  Lu8  1  0.806675  0.063212  0.256537  1
  Lu  Lu9  1  0.035564  0.811060  0.224494  1
  Lu  Lu10  1  0.413434  0.188940  0.224502  1
  Lu  Lu11  1  0.586566  0.811060  0.775498  1
  Fe  Fe12  1  0.382822  0.383901  0.001079  1
  Fe  Fe13  1  0.617178  0.616099  0.998921  1
  Fe  Fe14  1  0.000000  0.000000  0.000000  1
  Sn  Sn15  1  0.500000  0.000000  0.500000  1
  Au  Au16  1  0.000000  0.500000  0.500000  1
