# generated using pymatgen
data_Pa10Sn5Ge3
_symmetry_space_group_name_H-M   'P 1'
_cell_length_a   9.22607500
_cell_length_b   9.22870199
_cell_length_c   6.20622600
_cell_angle_alpha   90.00000000
_cell_angle_beta   90.00000000
_cell_angle_gamma   120.00942758
_symmetry_Int_Tables_number   1
_chemical_formula_structural   Pa10Sn5Ge3
_chemical_formula_sum   'Pa10 Sn5 Ge3'
_cell_volume   457.58792497
_cell_formula_units_Z   1
loop_
 _symmetry_equiv_pos_site_id
 _symmetry_equiv_pos_as_xyz
  1  'x, y, z'
loop_
 _atom_site_type_symbol
 _atom_site_label
 _atom_site_symmetry_multiplicity
 _atom_site_fract_x
 _atom_site_fract_y
 _atom_site_fract_z
 _atom_site_occupancy
  Pa  Pa0  1  0.676142  0.336167  0.003296  1
  Pa  Pa1  1  0.323858  0.660026  0.003296  1
  Pa  Pa2  1  0.323858  0.660026  0.496704  1
  Pa  Pa3  1  0.676142  0.336167  0.496704  1
  Pa  Pa4  1  0.731008  0.730401  0.750000  1
  Pa  Pa5  1  0.268992  0.999393  0.750000  1
  Pa  Pa6  1  0.000000  0.271450  0.750000  1
  Pa  Pa7  1  0.261122  0.272307  0.250000  1
  Pa  Pa8  1  0.738878  0.011186  0.250000  1
  Pa  Pa9  1  0.000000  0.723379  0.250000  1
  Sn  Sn10  1  0.384948  0.382264  0.750000  1
  Sn  Sn11  1  0.615052  0.997316  0.750000  1
  Sn  Sn12  1  0.000000  0.618899  0.750000  1
  Sn  Sn13  1  0.617673  0.620598  0.250000  1
  Sn  Sn14  1  0.382327  0.002925  0.250000  1
  Ge  Ge15  1  0.000000  0.997733  0.999853  1
  Ge  Ge16  1  0.000000  0.997733  0.500147  1
  Ge  Ge17  1  0.000000  0.382033  0.250000  1
