# generated using pymatgen
data_Rb6NdInBi4
_symmetry_space_group_name_H-M   'P 1'
_cell_length_a   10.46918859
_cell_length_b   10.46918814
_cell_length_c   10.46918986
_cell_angle_alpha   128.95171660
_cell_angle_beta   68.49974150
_cell_angle_gamma   137.54775405
_symmetry_Int_Tables_number   1
_chemical_formula_structural   Rb6NdInBi4
_chemical_formula_sum   'Rb6 Nd1 In1 Bi4'
_cell_volume   591.86907669
_cell_formula_units_Z   1
loop_
 _symmetry_equiv_pos_site_id
 _symmetry_equiv_pos_as_xyz
  1  'x, y, z'
loop_
 _atom_site_type_symbol
 _atom_site_label
 _atom_site_symmetry_multiplicity
 _atom_site_fract_x
 _atom_site_fract_y
 _atom_site_fract_z
 _atom_site_occupancy
  Rb  Rb0  1  0.250000  0.250000  0.000000  1
  Rb  Rb1  1  0.750000  0.750000  0.000000  1
  Rb  Rb2  1  0.828419  0.316366  0.122471  1
  Rb  Rb3  1  0.671580  0.794054  0.487948  1
  Rb  Rb4  1  0.306105  0.183634  0.512052  1
  Rb  Rb5  1  0.193894  0.705947  0.877529  1
  Nd  Nd6  1  0.750000  0.250000  0.500000  1
  In  In7  1  0.250000  0.750000  0.500000  1
  Bi  Bi8  1  0.386271  0.793290  0.200156  1
  Bi  Bi9  1  0.113729  0.313885  0.407020  1
  Bi  Bi10  1  0.906866  0.706710  0.592981  1
  Bi  Bi11  1  0.593134  0.186115  0.799844  1
