# generated using pymatgen
data_ErLu2In3RhAu2
_symmetry_space_group_name_H-M   'P 1'
_cell_length_a   7.68895500
_cell_length_b   7.72822416
_cell_length_c   3.83842900
_cell_angle_alpha   90.00000000
_cell_angle_beta   90.00000000
_cell_angle_gamma   119.83204214
_symmetry_Int_Tables_number   1
_chemical_formula_structural   ErLu2In3RhAu2
_chemical_formula_sum   'Er1 Lu2 In3 Rh1 Au2'
_cell_volume   197.86259999
_cell_formula_units_Z   1
loop_
 _symmetry_equiv_pos_site_id
 _symmetry_equiv_pos_as_xyz
  1  'x, y, z'
loop_
 _atom_site_type_symbol
 _atom_site_label
 _atom_site_symmetry_multiplicity
 _atom_site_fract_x
 _atom_site_fract_y
 _atom_site_fract_z
 _atom_site_occupancy
  Er  Er0  1  0.398251  0.000000  0.500000  1
  Lu  Lu1  1  0.999757  0.397404  0.500000  1
  Lu  Lu2  1  0.602352  0.602596  0.500000  1
  In  In3  1  0.742724  0.000000  0.000000  1
  In  In4  1  0.999113  0.741854  0.000000  1
  In  In5  1  0.257260  0.258146  0.000000  1
  Rh  Rh6  1  0.999574  0.000000  0.500000  1
  Au  Au7  1  0.332594  0.664219  0.000000  1
  Au  Au8  1  0.668376  0.335781  0.000000  1
