# generated using pymatgen
data_TmZr4Sn3S
_symmetry_space_group_name_H-M   'P 1'
_cell_length_a   8.66664897
_cell_length_b   8.65653456
_cell_length_c   6.07143500
_cell_angle_alpha   90.00000000
_cell_angle_beta   90.00000000
_cell_angle_gamma   119.96139585
_symmetry_Int_Tables_number   1
_chemical_formula_structural   TmZr4Sn3S
_chemical_formula_sum   'Tm2 Zr8 Sn6 S2'
_cell_volume   394.62633558
_cell_formula_units_Z   2
loop_
 _symmetry_equiv_pos_site_id
 _symmetry_equiv_pos_as_xyz
  1  'x, y, z'
loop_
 _atom_site_type_symbol
 _atom_site_label
 _atom_site_symmetry_multiplicity
 _atom_site_fract_x
 _atom_site_fract_y
 _atom_site_fract_z
 _atom_site_occupancy
  Tm  Tm0  1  0.748423  0.748450  0.750000  1
  Tm  Tm1  1  0.251577  0.000027  0.750000  1
  Zr  Zr2  1  0.667859  0.333082  0.000959  1
  Zr  Zr3  1  0.332141  0.665224  0.000959  1
  Zr  Zr4  1  0.332141  0.665224  0.499041  1
  Zr  Zr5  1  0.667859  0.333082  0.499041  1
  Zr  Zr6  1  0.000000  0.251289  0.750000  1
  Zr  Zr7  1  0.252076  0.252273  0.250000  1
  Zr  Zr8  1  0.747924  0.000197  0.250000  1
  Zr  Zr9  1  0.000000  0.746891  0.250000  1
  Sn  Sn10  1  0.397108  0.398616  0.750000  1
  Sn  Sn11  1  0.602892  0.001508  0.750000  1
  Sn  Sn12  1  0.000000  0.596565  0.750000  1
  Sn  Sn13  1  0.601117  0.601261  0.250000  1
  Sn  Sn14  1  0.398883  0.000144  0.250000  1
  Sn  Sn15  1  0.000000  0.398858  0.250000  1
  S  S16  1  0.000000  0.003654  0.005124  1
  S  S17  1  0.000000  0.003654  0.494876  1
