# generated using pymatgen
data_Tm3NbCo8As5P
_symmetry_space_group_name_H-M   'P 1'
_cell_length_a   3.76454700
_cell_length_b   10.93722000
_cell_length_c   12.66428600
_cell_angle_alpha   90.00000000
_cell_angle_beta   90.00000000
_cell_angle_gamma   90.00000000
_symmetry_Int_Tables_number   1
_chemical_formula_structural   Tm3NbCo8As5P
_chemical_formula_sum   'Tm6 Nb2 Co16 As10 P2'
_cell_volume   521.43524323
_cell_formula_units_Z   2
loop_
 _symmetry_equiv_pos_site_id
 _symmetry_equiv_pos_as_xyz
  1  'x, y, z'
loop_
 _atom_site_type_symbol
 _atom_site_label
 _atom_site_symmetry_multiplicity
 _atom_site_fract_x
 _atom_site_fract_y
 _atom_site_fract_z
 _atom_site_occupancy
  Tm  Tm0  1  0.000000  0.500000  0.529361  1
  Tm  Tm1  1  0.500000  0.000000  0.468692  1
  Tm  Tm2  1  0.500000  0.815740  0.201863  1
  Tm  Tm3  1  0.500000  0.184260  0.201863  1
  Tm  Tm4  1  0.000000  0.677572  0.794816  1
  Tm  Tm5  1  0.000000  0.322428  0.794816  1
  Nb  Nb6  1  0.500000  0.500000  0.154844  1
  Nb  Nb7  1  0.000000  0.000000  0.845336  1
  Co  Co8  1  0.500000  0.500000  0.702933  1
  Co  Co9  1  0.000000  0.000000  0.299428  1
  Co  Co10  1  0.000000  0.500000  0.994281  1
  Co  Co11  1  0.500000  0.000000  0.013468  1
  Co  Co12  1  0.500000  0.334364  0.001339  1
  Co  Co13  1  0.500000  0.665636  0.001339  1
  Co  Co14  1  0.000000  0.171632  0.011402  1
  Co  Co15  1  0.000000  0.828368  0.011402  1
  Co  Co16  1  0.500000  0.298187  0.430711  1
  Co  Co17  1  0.500000  0.701813  0.430711  1
  Co  Co18  1  0.000000  0.203521  0.566849  1
  Co  Co19  1  0.000000  0.796479  0.566849  1
  Co  Co20  1  0.500000  0.877483  0.705181  1
  Co  Co21  1  0.500000  0.122517  0.705181  1
  Co  Co22  1  0.000000  0.623235  0.285579  1
  Co  Co23  1  0.000000  0.376765  0.285579  1
  As  As24  1  0.500000  0.500000  0.882597  1
  As  As25  1  0.000000  0.000000  0.121471  1
  As  As26  1  0.500000  0.500000  0.358360  1
  As  As27  1  0.000000  0.000000  0.640487  1
  As  As28  1  0.500000  0.314095  0.616180  1
  As  As29  1  0.500000  0.685905  0.616180  1
  As  As30  1  0.000000  0.187679  0.381092  1
  As  As31  1  0.000000  0.812321  0.381092  1
  As  As32  1  0.500000  0.837007  0.891518  1
  As  As33  1  0.500000  0.162993  0.891518  1
  P  P34  1  0.000000  0.658456  0.107841  1
  P  P35  1  0.000000  0.341544  0.107841  1
