# generated using pymatgen
data_Li2Eu4In2Pd3Pt
_symmetry_space_group_name_H-M   'P 1'
_cell_length_a   4.37620100
_cell_length_b   7.34259842
_cell_length_c   8.63475522
_cell_angle_alpha   89.67415790
_cell_angle_beta   90.00000000
_cell_angle_gamma   90.00000000
_symmetry_Int_Tables_number   1
_chemical_formula_structural   Li2Eu4In2Pd3Pt
_chemical_formula_sum   'Li2 Eu4 In2 Pd3 Pt1'
_cell_volume   277.45339614
_cell_formula_units_Z   1
loop_
 _symmetry_equiv_pos_site_id
 _symmetry_equiv_pos_as_xyz
  1  'x, y, z'
loop_
 _atom_site_type_symbol
 _atom_site_label
 _atom_site_symmetry_multiplicity
 _atom_site_fract_x
 _atom_site_fract_y
 _atom_site_fract_z
 _atom_site_occupancy
  Li  Li0  1  0.250000  0.129257  0.946955  1
  Li  Li1  1  0.750000  0.373047  0.440430  1
  Eu  Eu2  1  0.250000  0.532175  0.178768  1
  Eu  Eu3  1  0.750000  0.457592  0.822915  1
  Eu  Eu4  1  0.250000  0.043859  0.317335  1
  Eu  Eu5  1  0.750000  0.962758  0.678038  1
  In  In6  1  0.250000  0.633794  0.560588  1
  In  In7  1  0.750000  0.864899  0.060525  1
  Pd  Pd8  1  0.250000  0.259506  0.622474  1
  Pd  Pd9  1  0.750000  0.738236  0.373580  1
  Pd  Pd10  1  0.250000  0.763825  0.873290  1
  Pt  Pt11  1  0.750000  0.241051  0.125101  1
