# generated using pymatgen
data_LiReF6
_symmetry_space_group_name_H-M   'P 1'
_cell_length_a   5.49735003
_cell_length_b   5.49735106
_cell_length_c   5.49735103
_cell_angle_alpha   58.16795992
_cell_angle_beta   58.16796044
_cell_angle_gamma   58.16795865
_symmetry_Int_Tables_number   1
_chemical_formula_structural   LiReF6
_chemical_formula_sum   'Li1 Re1 F6'
_cell_volume   112.54258979
_cell_formula_units_Z   1
loop_
 _symmetry_equiv_pos_site_id
 _symmetry_equiv_pos_as_xyz
  1  'x, y, z'
loop_
 _atom_site_type_symbol
 _atom_site_label
 _atom_site_symmetry_multiplicity
 _atom_site_fract_x
 _atom_site_fract_y
 _atom_site_fract_z
 _atom_site_occupancy
  Li  Li0  1  0.500000  0.500000  0.500000  1
  Re  Re1  1  0.000000  0.000000  0.000000  1
  F  F2  1  0.843698  0.670836  0.241829  1
  F  F3  1  0.670836  0.241829  0.843698  1
  F  F4  1  0.241829  0.843698  0.670836  1
  F  F5  1  0.156302  0.329164  0.758171  1
  F  F6  1  0.329164  0.758171  0.156302  1
  F  F7  1  0.758171  0.156302  0.329164  1
