# generated using pymatgen
data_Er2Lu3Ru2
_symmetry_space_group_name_H-M   'P 1'
_cell_length_a   6.20443903
_cell_length_b   7.20143718
_cell_length_c   8.32375805
_cell_angle_alpha   97.01157767
_cell_angle_beta   111.88189744
_cell_angle_gamma   89.99999679
_symmetry_Int_Tables_number   1
_chemical_formula_structural   Er2Lu3Ru2
_chemical_formula_sum   'Er4 Lu6 Ru4'
_cell_volume   342.11889209
_cell_formula_units_Z   2
loop_
 _symmetry_equiv_pos_site_id
 _symmetry_equiv_pos_as_xyz
  1  'x, y, z'
loop_
 _atom_site_type_symbol
 _atom_site_label
 _atom_site_symmetry_multiplicity
 _atom_site_fract_x
 _atom_site_fract_y
 _atom_site_fract_z
 _atom_site_occupancy
  Er  Er0  1  0.522072  0.082683  0.811681  1
  Er  Er1  1  0.477928  0.917317  0.188319  1
  Er  Er2  1  0.710391  0.417317  0.188319  1
  Er  Er3  1  0.289609  0.582683  0.811681  1
  Lu  Lu4  1  0.300580  0.313064  0.433645  1
  Lu  Lu5  1  0.699420  0.686936  0.566355  1
  Lu  Lu6  1  0.866936  0.186936  0.566355  1
  Lu  Lu7  1  0.133064  0.813064  0.433645  1
  Lu  Lu8  1  0.080589  0.250000  0.000000  1
  Lu  Lu9  1  0.919411  0.750000  0.000000  1
  Ru  Ru10  1  0.319972  0.576491  0.221196  1
  Ru  Ru11  1  0.680028  0.423509  0.778804  1
  Ru  Ru12  1  0.098777  0.923509  0.778804  1
  Ru  Ru13  1  0.901223  0.076491  0.221196  1
