# generated using pymatgen
data_Dy6Si11GePt8
_symmetry_space_group_name_H-M   'P 1'
_cell_length_a   4.26496700
_cell_length_b   8.57826607
_cell_length_c   12.94425200
_cell_angle_alpha   80.30505351
_cell_angle_beta   90.00000000
_cell_angle_gamma   90.00000000
_symmetry_Int_Tables_number   1
_chemical_formula_structural   Dy6Si11GePt8
_chemical_formula_sum   'Dy6 Si11 Ge1 Pt8'
_cell_volume   466.81518832
_cell_formula_units_Z   1
loop_
 _symmetry_equiv_pos_site_id
 _symmetry_equiv_pos_as_xyz
  1  'x, y, z'
loop_
 _atom_site_type_symbol
 _atom_site_label
 _atom_site_symmetry_multiplicity
 _atom_site_fract_x
 _atom_site_fract_y
 _atom_site_fract_z
 _atom_site_occupancy
  Dy  Dy0  1  0.250000  0.763622  0.439560  1
  Dy  Dy1  1  0.250000  0.586131  0.183269  1
  Dy  Dy2  1  0.750000  0.234227  0.561792  1
  Dy  Dy3  1  0.750000  0.415642  0.815220  1
  Dy  Dy4  1  0.750000  0.927737  0.816599  1
  Dy  Dy5  1  0.250000  0.073580  0.183336  1
  Si  Si6  1  0.750000  0.587672  0.572952  1
  Si  Si7  1  0.750000  0.127735  0.004258  1
  Si  Si8  1  0.750000  0.871496  0.575993  1
  Si  Si9  1  0.250000  0.698135  0.714676  1
  Si  Si10  1  0.750000  0.305278  0.284727  1
  Si  Si11  1  0.750000  0.807962  0.275558  1
  Si  Si12  1  0.250000  0.873709  0.994960  1
  Si  Si13  1  0.250000  0.194446  0.723847  1
  Si  Si14  1  0.250000  0.378634  0.001268  1
  Si  Si15  1  0.250000  0.114891  0.430346  1
  Si  Si16  1  0.750000  0.622352  0.998003  1
  Ge  Ge17  1  0.250000  0.405012  0.425707  1
  Pt  Pt18  1  0.750000  0.352786  0.098018  1
  Pt  Pt19  1  0.250000  0.971534  0.624292  1
  Pt  Pt20  1  0.750000  0.850922  0.087552  1
  Pt  Pt21  1  0.750000  0.030339  0.374532  1
  Pt  Pt22  1  0.250000  0.648125  0.901712  1
  Pt  Pt23  1  0.250000  0.150654  0.911795  1
  Pt  Pt24  1  0.750000  0.539027  0.372602  1
  Pt  Pt25  1  0.250000  0.468352  0.627424  1
