# generated using pymatgen
data_Y5Zr3(ReB6)4
_symmetry_space_group_name_H-M   'P 1'
_cell_length_a   3.63329400
_cell_length_b   9.08929004
_cell_length_c   11.47799131
_cell_angle_alpha   89.98154543
_cell_angle_beta   90.00000000
_cell_angle_gamma   90.00000000
_symmetry_Int_Tables_number   1
_chemical_formula_structural   Y5Zr3(ReB6)4
_chemical_formula_sum   'Y5 Zr3 Re4 B24'
_cell_volume   379.04988804
_cell_formula_units_Z   1
loop_
 _symmetry_equiv_pos_site_id
 _symmetry_equiv_pos_as_xyz
  1  'x, y, z'
loop_
 _atom_site_type_symbol
 _atom_site_label
 _atom_site_symmetry_multiplicity
 _atom_site_fract_x
 _atom_site_fract_y
 _atom_site_fract_z
 _atom_site_occupancy
  Y  Y0  1  0.000000  0.321701  0.412990  1
  Y  Y1  1  0.000000  0.677977  0.586266  1
  Y  Y2  1  0.000000  0.821355  0.086340  1
  Y  Y3  1  0.000000  0.178847  0.914228  1
  Y  Y4  1  0.000000  0.944218  0.372477  1
  Zr  Zr5  1  0.000000  0.056850  0.630060  1
  Zr  Zr6  1  0.000000  0.443964  0.127029  1
  Zr  Zr7  1  0.000000  0.556093  0.872509  1
  Re  Re8  1  0.000000  0.635331  0.317848  1
  Re  Re9  1  0.000000  0.360615  0.682285  1
  Re  Re10  1  0.000000  0.143087  0.177800  1
  Re  Re11  1  0.000000  0.859979  0.819953  1
  B  B12  1  0.500000  0.552035  0.432874  1
  B  B13  1  0.500000  0.445764  0.567132  1
  B  B14  1  0.500000  0.054475  0.066417  1
  B  B15  1  0.500000  0.946319  0.933145  1
  B  B16  1  0.500000  0.748356  0.417592  1
  B  B17  1  0.500000  0.248173  0.582782  1
  B  B18  1  0.500000  0.252745  0.081105  1
  B  B19  1  0.500000  0.747997  0.918203  1
  B  B20  1  0.500000  0.791604  0.264029  1
  B  B21  1  0.500000  0.206297  0.735927  1
  B  B22  1  0.500000  0.294572  0.234025  1
  B  B23  1  0.500000  0.706017  0.764881  1
  B  B24  1  0.500000  0.629401  0.183507  1
  B  B25  1  0.500000  0.370072  0.816361  1
  B  B26  1  0.500000  0.132583  0.314354  1
  B  B27  1  0.500000  0.869633  0.684387  1
  B  B28  1  0.500000  0.983886  0.211820  1
  B  B29  1  0.500000  0.017684  0.787189  1
  B  B30  1  0.500000  0.480975  0.286054  1
  B  B31  1  0.500000  0.518212  0.713424  1
  B  B32  1  0.500000  0.600306  0.026762  1
  B  B33  1  0.500000  0.400315  0.972409  1
  B  B34  1  0.500000  0.102972  0.475356  1
  B  B35  1  0.500000  0.899591  0.530476  1
