# generated using pymatgen
data_Ho3TmAl4(NiRh)2
_symmetry_space_group_name_H-M   'P 1'
_cell_length_a   4.21348900
_cell_length_b   6.73686864
_cell_length_c   7.79074893
_cell_angle_alpha   89.89956200
_cell_angle_beta   90.00000000
_cell_angle_gamma   90.00000000
_symmetry_Int_Tables_number   1
_chemical_formula_structural   Ho3TmAl4(NiRh)2
_chemical_formula_sum   'Ho3 Tm1 Al4 Ni2 Rh2'
_cell_volume   221.14569289
_cell_formula_units_Z   1
loop_
 _symmetry_equiv_pos_site_id
 _symmetry_equiv_pos_as_xyz
  1  'x, y, z'
loop_
 _atom_site_type_symbol
 _atom_site_label
 _atom_site_symmetry_multiplicity
 _atom_site_fract_x
 _atom_site_fract_y
 _atom_site_fract_z
 _atom_site_occupancy
  Ho  Ho0  1  0.250000  0.967129  0.318803  1
  Ho  Ho1  1  0.750000  0.536616  0.827607  1
  Ho  Ho2  1  0.750000  0.037247  0.672816  1
  Tm  Tm3  1  0.250000  0.466503  0.180792  1
  Al  Al4  1  0.750000  0.632470  0.435759  1
  Al  Al5  1  0.750000  0.133066  0.064087  1
  Al  Al6  1  0.250000  0.360978  0.554159  1
  Al  Al7  1  0.250000  0.859570  0.945510  1
  Ni  Ni8  1  0.750000  0.767099  0.128358  1
  Ni  Ni9  1  0.750000  0.270128  0.370832  1
  Rh  Rh10  1  0.250000  0.234459  0.879806  1
  Rh  Rh11  1  0.250000  0.734735  0.621469  1
