# generated using pymatgen
data_Tb3DyLu4(B6Rh)4
_symmetry_space_group_name_H-M   'P 1'
_cell_length_a   3.63020100
_cell_length_b   9.11272101
_cell_length_c   11.46455701
_cell_angle_alpha   90.00393205
_cell_angle_beta   90.00000000
_cell_angle_gamma   90.00000000
_symmetry_Int_Tables_number   1
_chemical_formula_structural   Tb3DyLu4(B6Rh)4
_chemical_formula_sum   'Tb3 Dy1 Lu4 B24 Rh4'
_cell_volume   379.25911156
_cell_formula_units_Z   1
loop_
 _symmetry_equiv_pos_site_id
 _symmetry_equiv_pos_as_xyz
  1  'x, y, z'
loop_
 _atom_site_type_symbol
 _atom_site_label
 _atom_site_symmetry_multiplicity
 _atom_site_fract_x
 _atom_site_fract_y
 _atom_site_fract_z
 _atom_site_occupancy
  Tb  Tb0  1  0.500000  0.321794  0.413781  1
  Tb  Tb1  1  0.500000  0.678222  0.586216  1
  Tb  Tb2  1  0.500000  0.178188  0.913803  1
  Dy  Dy3  1  0.500000  0.821702  0.086191  1
  Lu  Lu4  1  0.500000  0.444477  0.126684  1
  Lu  Lu5  1  0.500000  0.555681  0.873385  1
  Lu  Lu6  1  0.500000  0.055584  0.626693  1
  Lu  Lu7  1  0.500000  0.944344  0.373269  1
  B  B8  1  0.000000  0.105399  0.471575  1
  B  B9  1  0.000000  0.894581  0.528403  1
  B  B10  1  0.000000  0.394575  0.971577  1
  B  B11  1  0.000000  0.605702  0.028505  1
  B  B12  1  0.000000  0.132059  0.316877  1
  B  B13  1  0.000000  0.867937  0.683121  1
  B  B14  1  0.000000  0.367951  0.816903  1
  B  B15  1  0.000000  0.632246  0.182987  1
  B  B16  1  0.000000  0.054308  0.065923  1
  B  B17  1  0.000000  0.945378  0.934236  1
  B  B18  1  0.000000  0.445497  0.565955  1
  B  B19  1  0.000000  0.554521  0.434028  1
  B  B20  1  0.000000  0.483180  0.285944  1
  B  B21  1  0.000000  0.516871  0.714060  1
  B  B22  1  0.000000  0.016822  0.785959  1
  B  B23  1  0.000000  0.982927  0.213921  1
  B  B24  1  0.000000  0.251297  0.080287  1
  B  B25  1  0.000000  0.748766  0.919929  1
  B  B26  1  0.000000  0.248683  0.580282  1
  B  B27  1  0.000000  0.751305  0.419694  1
  B  B28  1  0.000000  0.294787  0.235542  1
  B  B29  1  0.000000  0.705233  0.764469  1
  B  B30  1  0.000000  0.205209  0.735563  1
  B  B31  1  0.000000  0.794862  0.264243  1
  Rh  Rh32  1  0.500000  0.140344  0.180068  1
  Rh  Rh33  1  0.500000  0.859472  0.819997  1
  Rh  Rh34  1  0.500000  0.359476  0.680151  1
  Rh  Rh35  1  0.500000  0.640621  0.319777  1
