# generated using pymatgen
data_Er8Lu4Ir3I16
_symmetry_space_group_name_H-M   'P 1'
_cell_length_a   9.54930515
_cell_length_b   12.31343567
_cell_length_c   13.02404927
_cell_angle_alpha   116.94569470
_cell_angle_beta   101.30690805
_cell_angle_gamma   100.85764821
_symmetry_Int_Tables_number   1
_chemical_formula_structural   Er8Lu4Ir3I16
_chemical_formula_sum   'Er8 Lu4 Ir3 I16'
_cell_volume   1269.57539616
_cell_formula_units_Z   1
loop_
 _symmetry_equiv_pos_site_id
 _symmetry_equiv_pos_as_xyz
  1  'x, y, z'
loop_
 _atom_site_type_symbol
 _atom_site_label
 _atom_site_symmetry_multiplicity
 _atom_site_fract_x
 _atom_site_fract_y
 _atom_site_fract_z
 _atom_site_occupancy
  Er  Er0  1  0.086241  0.268877  0.357253  1
  Er  Er1  1  0.913759  0.731123  0.642747  1
  Er  Er2  1  0.782269  0.534612  0.329103  1
  Er  Er3  1  0.217731  0.465388  0.670897  1
  Er  Er4  1  0.275006  0.731525  0.642106  1
  Er  Er5  1  0.724994  0.268475  0.357894  1
  Er  Er6  1  0.143039  0.534755  0.328544  1
  Er  Er7  1  0.856961  0.465245  0.671456  1
  Lu  Lu8  1  0.406486  0.359907  0.276015  1
  Lu  Lu9  1  0.593514  0.640093  0.723985  1
  Lu  Lu10  1  0.460068  0.315358  0.520266  1
  Lu  Lu11  1  0.539932  0.684642  0.479734  1
  Ir  Ir12  1  0.000000  0.500000  0.500000  1
  Ir  Ir13  1  0.341219  0.499993  0.499687  1
  Ir  Ir14  1  0.658782  0.500007  0.500313  1
  I  I15  1  0.397692  0.743757  0.889609  1
  I  I16  1  0.602308  0.256243  0.110391  1
  I  I17  1  0.191705  0.972549  0.787959  1
  I  I18  1  0.808295  0.027451  0.212041  1
  I  I19  1  0.335946  0.093295  0.251346  1
  I  I20  1  0.664054  0.906705  0.748654  1
  I  I21  1  0.561358  0.436577  0.800279  1
  I  I22  1  0.438642  0.563423  0.199721  1
  I  I23  1  0.307675  0.831286  0.462028  1
  I  I24  1  0.692325  0.168714  0.537972  1
  I  I25  1  0.164858  0.168822  0.536076  1
  I  I26  1  0.835142  0.831178  0.463924  1
  I  I27  1  0.924572  0.576521  0.153917  1
  I  I28  1  0.075428  0.423479  0.846083  1
  I  I29  1  0.927393  0.742852  0.890164  1
  I  I30  1  0.072607  0.257148  0.109836  1
