# generated using pymatgen
data_Np3Pa3As8
_symmetry_space_group_name_H-M   'P 1'
_cell_length_a   7.42438703
_cell_length_b   7.44684143
_cell_length_c   7.42438721
_cell_angle_alpha   109.67596850
_cell_angle_beta   109.29301555
_cell_angle_gamma   109.32227306
_symmetry_Int_Tables_number   1
_chemical_formula_structural   Np3Pa3As8
_chemical_formula_sum   'Np3 Pa3 As8'
_cell_volume   316.46176798
_cell_formula_units_Z   1
loop_
 _symmetry_equiv_pos_site_id
 _symmetry_equiv_pos_as_xyz
  1  'x, y, z'
loop_
 _atom_site_type_symbol
 _atom_site_label
 _atom_site_symmetry_multiplicity
 _atom_site_fract_x
 _atom_site_fract_y
 _atom_site_fract_z
 _atom_site_occupancy
  Np  Np0  1  0.753044  0.877487  0.127141  1
  Np  Np1  1  0.374778  0.250000  0.624778  1
  Np  Np2  1  0.249654  0.622513  0.375557  1
  Pa  Pa3  1  0.871260  0.124160  0.748427  1
  Pa  Pa4  1  0.624267  0.375840  0.247100  1
  Pa  Pa5  1  0.126812  0.750000  0.876812  1
  As  As6  1  0.660617  0.657637  0.658463  1
  As  As7  1  0.841823  0.501776  0.999945  1
  As  As8  1  0.498169  0.998224  0.840048  1
  As  As9  1  0.341801  0.502288  0.001712  1
  As  As10  1  0.000826  0.842363  0.502981  1
  As  As11  1  0.997772  0.341682  0.501436  1
  As  As12  1  0.499424  0.997712  0.339513  1
  As  As13  1  0.159754  0.158318  0.156091  1
