# generated using pymatgen
data_TmZr5(SnRh)6
_symmetry_space_group_name_H-M   'P 1'
_cell_length_a   7.49561466
_cell_length_b   7.48803260
_cell_length_c   7.23464000
_cell_angle_alpha   90.00000000
_cell_angle_beta   90.00000000
_cell_angle_gamma   119.81456199
_symmetry_Int_Tables_number   1
_chemical_formula_structural   TmZr5(SnRh)6
_chemical_formula_sum   'Tm1 Zr5 Sn6 Rh6'
_cell_volume   352.31491371
_cell_formula_units_Z   1
loop_
 _symmetry_equiv_pos_site_id
 _symmetry_equiv_pos_as_xyz
  1  'x, y, z'
loop_
 _atom_site_type_symbol
 _atom_site_label
 _atom_site_symmetry_multiplicity
 _atom_site_fract_x
 _atom_site_fract_y
 _atom_site_fract_z
 _atom_site_occupancy
  Tm  Tm0  1  0.605460  0.011066  0.250000  1
  Zr  Zr1  1  0.602182  0.990271  0.750000  1
  Zr  Zr2  1  0.388494  0.402787  0.750000  1
  Zr  Zr3  1  0.007581  0.608513  0.750000  1
  Zr  Zr4  1  0.400431  0.391642  0.250000  1
  Zr  Zr5  1  0.993006  0.600315  0.250000  1
  Sn  Sn6  1  0.271014  0.001993  0.992862  1
  Sn  Sn7  1  0.730637  0.728530  0.497922  1
  Sn  Sn8  1  0.998818  0.269332  0.498598  1
  Sn  Sn9  1  0.998818  0.269332  0.001402  1
  Sn  Sn10  1  0.730637  0.728530  0.002078  1
  Sn  Sn11  1  0.271014  0.001993  0.507138  1
  Rh  Rh12  1  0.667711  0.335724  0.969084  1
  Rh  Rh13  1  0.667711  0.335724  0.530916  1
  Rh  Rh14  1  0.330623  0.662631  0.011408  1
  Rh  Rh15  1  0.330623  0.662631  0.488592  1
  Rh  Rh16  1  0.996539  0.999334  0.750000  1
  Rh  Rh17  1  0.008698  0.999655  0.250000  1
