# generated using pymatgen
data_Nd2(LuPb)3
_symmetry_space_group_name_H-M   'P 1'
_cell_length_a   9.17267010
_cell_length_b   9.08416483
_cell_length_c   6.62384401
_cell_angle_alpha   90.00432087
_cell_angle_beta   89.99492825
_cell_angle_gamma   120.33106067
_symmetry_Int_Tables_number   1
_chemical_formula_structural   Nd2(LuPb)3
_chemical_formula_sum   'Nd4 Lu6 Pb6'
_cell_volume   476.39041735
_cell_formula_units_Z   2
loop_
 _symmetry_equiv_pos_site_id
 _symmetry_equiv_pos_as_xyz
  1  'x, y, z'
loop_
 _atom_site_type_symbol
 _atom_site_label
 _atom_site_symmetry_multiplicity
 _atom_site_fract_x
 _atom_site_fract_y
 _atom_site_fract_z
 _atom_site_occupancy
  Nd  Nd0  1  0.999241  0.236353  0.250010  1
  Nd  Nd1  1  0.762936  0.763687  0.250002  1
  Nd  Nd2  1  0.237059  0.236298  0.749990  1
  Nd  Nd3  1  0.000721  0.763629  0.750004  1
  Lu  Lu4  1  0.333322  0.666638  0.999993  1
  Lu  Lu5  1  0.666689  0.333371  0.500014  1
  Lu  Lu6  1  0.666684  0.333369  0.000001  1
  Lu  Lu7  1  0.333327  0.666638  0.499983  1
  Lu  Lu8  1  0.241091  0.000036  0.250013  1
  Lu  Lu9  1  0.758891  0.999958  0.749987  1
  Pb  Pb10  1  0.597638  0.000043  0.250017  1
  Pb  Pb11  1  0.402414  0.000004  0.749995  1
  Pb  Pb12  1  0.003771  0.606747  0.250005  1
  Pb  Pb13  1  0.397126  0.393311  0.250014  1
  Pb  Pb14  1  0.603028  0.606750  0.750007  1
  Pb  Pb15  1  0.996062  0.393167  0.749975  1
