# generated using pymatgen
data_NdLu2Hf3(SnRh)6
_symmetry_space_group_name_H-M   'P 1'
_cell_length_a   7.46065700
_cell_length_b   7.47839476
_cell_length_c   7.52961500
_cell_angle_alpha   90.00000000
_cell_angle_beta   90.00000000
_cell_angle_gamma   119.91873185
_symmetry_Int_Tables_number   1
_chemical_formula_structural   NdLu2Hf3(SnRh)6
_chemical_formula_sum   'Nd1 Lu2 Hf3 Sn6 Rh6'
_cell_volume   364.11949338
_cell_formula_units_Z   1
loop_
 _symmetry_equiv_pos_site_id
 _symmetry_equiv_pos_as_xyz
  1  'x, y, z'
loop_
 _atom_site_type_symbol
 _atom_site_label
 _atom_site_symmetry_multiplicity
 _atom_site_fract_x
 _atom_site_fract_y
 _atom_site_fract_z
 _atom_site_occupancy
  Nd  Nd0  1  0.409496  0.999967  0.750000  1
  Lu  Lu1  1  0.999655  0.404131  0.750000  1
  Lu  Lu2  1  0.595599  0.595831  0.750000  1
  Hf  Hf3  1  0.001489  0.394987  0.250000  1
  Hf  Hf4  1  0.606626  0.604865  0.250000  1
  Hf  Hf5  1  0.391865  0.000150  0.250000  1
  Sn  Sn6  1  0.266139  0.268475  0.495484  1
  Sn  Sn7  1  0.997920  0.731643  0.495454  1
  Sn  Sn8  1  0.997920  0.731643  0.004546  1
  Sn  Sn9  1  0.735114  0.999860  0.488203  1
  Sn  Sn10  1  0.735114  0.999860  0.011797  1
  Sn  Sn11  1  0.266139  0.268475  0.004516  1
  Rh  Rh12  1  0.332546  0.664045  0.460397  1
  Rh  Rh13  1  0.668575  0.336071  0.460627  1
  Rh  Rh14  1  0.332546  0.664045  0.039603  1
  Rh  Rh15  1  0.991249  0.999917  0.750000  1
  Rh  Rh16  1  0.003430  0.999964  0.250000  1
  Rh  Rh17  1  0.668575  0.336071  0.039373  1
