# generated using pymatgen
data_Th6TcPdAu6
_symmetry_space_group_name_H-M   'P 1'
_cell_length_a   8.25882002
_cell_length_b   8.25881994
_cell_length_c   8.25882304
_cell_angle_alpha   114.05861351
_cell_angle_beta   114.05861839
_cell_angle_gamma   114.05859217
_symmetry_Int_Tables_number   1
_chemical_formula_structural   Th6TcPdAu6
_chemical_formula_sum   'Th6 Tc1 Pd1 Au6'
_cell_volume   340.75292665
_cell_formula_units_Z   1
loop_
 _symmetry_equiv_pos_site_id
 _symmetry_equiv_pos_as_xyz
  1  'x, y, z'
loop_
 _atom_site_type_symbol
 _atom_site_label
 _atom_site_symmetry_multiplicity
 _atom_site_fract_x
 _atom_site_fract_y
 _atom_site_fract_z
 _atom_site_occupancy
  Th  Th0  1  0.026588  0.382956  0.272012  1
  Th  Th1  1  0.382956  0.272012  0.026588  1
  Th  Th2  1  0.727988  0.973412  0.617044  1
  Th  Th3  1  0.272012  0.026588  0.382956  1
  Th  Th4  1  0.617044  0.727988  0.973412  1
  Th  Th5  1  0.973412  0.617044  0.727988  1
  Tc  Tc6  1  0.000000  0.000000  0.000000  1
  Pd  Pd7  1  0.500000  0.500000  0.500000  1
  Au  Au8  1  0.422527  0.924078  0.763033  1
  Au  Au9  1  0.924078  0.763033  0.422527  1
  Au  Au10  1  0.236967  0.577473  0.075922  1
  Au  Au11  1  0.763033  0.422527  0.924078  1
  Au  Au12  1  0.075922  0.236967  0.577473  1
  Au  Au13  1  0.577473  0.075922  0.236967  1
