# generated using pymatgen
data_Ba4Tm(OsO6)2
_symmetry_space_group_name_H-M   'P 1'
_cell_length_a   10.07137878
_cell_length_b   10.07137999
_cell_length_c   10.07137985
_cell_angle_alpha   33.89786495
_cell_angle_beta   33.89785554
_cell_angle_gamma   33.89786205
_symmetry_Int_Tables_number   1
_chemical_formula_structural   Ba4Tm(OsO6)2
_chemical_formula_sum   'Ba4 Tm1 Os2 O12'
_cell_volume   283.18969415
_cell_formula_units_Z   1
loop_
 _symmetry_equiv_pos_site_id
 _symmetry_equiv_pos_as_xyz
  1  'x, y, z'
loop_
 _atom_site_type_symbol
 _atom_site_label
 _atom_site_symmetry_multiplicity
 _atom_site_fract_x
 _atom_site_fract_y
 _atom_site_fract_z
 _atom_site_occupancy
  Ba  Ba0  1  0.711368  0.711368  0.711368  1
  Ba  Ba1  1  0.288632  0.288632  0.288632  1
  Ba  Ba2  1  0.866520  0.866520  0.866520  1
  Ba  Ba3  1  0.133480  0.133480  0.133480  1
  Tm  Tm4  1  0.000000  0.000000  0.000000  1
  Os  Os5  1  0.579642  0.579642  0.579642  1
  Os  Os6  1  0.420358  0.420358  0.420358  1
  O  O7  1  0.221367  0.690940  0.221367  1
  O  O8  1  0.221367  0.221367  0.690940  1
  O  O9  1  0.690940  0.221367  0.221367  1
  O  O10  1  0.778633  0.309060  0.778633  1
  O  O11  1  0.778633  0.778633  0.309060  1
  O  O12  1  0.309060  0.778633  0.778633  1
  O  O13  1  0.388309  0.858721  0.388309  1
  O  O14  1  0.388309  0.388309  0.858721  1
  O  O15  1  0.858721  0.388309  0.388309  1
  O  O16  1  0.611691  0.141279  0.611691  1
  O  O17  1  0.611691  0.611691  0.141279  1
  O  O18  1  0.141279  0.611691  0.611691  1
