# generated using pymatgen
data_Dy11Ho(In2Ru)4
_symmetry_space_group_name_H-M   'P 1'
_cell_length_a   3.77225900
_cell_length_b   12.98613792
_cell_length_c   12.98613700
_cell_angle_alpha   112.28606637
_cell_angle_beta   90.00000000
_cell_angle_gamma   90.00000000
_symmetry_Int_Tables_number   1
_chemical_formula_structural   Dy11Ho(In2Ru)4
_chemical_formula_sum   'Dy11 Ho1 In8 Ru4'
_cell_volume   588.63350896
_cell_formula_units_Z   1
loop_
 _symmetry_equiv_pos_site_id
 _symmetry_equiv_pos_as_xyz
  1  'x, y, z'
loop_
 _atom_site_type_symbol
 _atom_site_label
 _atom_site_symmetry_multiplicity
 _atom_site_fract_x
 _atom_site_fract_y
 _atom_site_fract_z
 _atom_site_occupancy
  Dy  Dy0  1  0.000000  0.914198  0.579368  1
  Dy  Dy1  1  0.000000  0.085802  0.420632  1
  Dy  Dy2  1  0.000000  0.579368  0.914198  1
  Dy  Dy3  1  0.000000  0.420632  0.085802  1
  Dy  Dy4  1  0.000000  0.162501  0.837499  1
  Dy  Dy5  1  0.000000  0.837499  0.162501  1
  Dy  Dy6  1  0.000000  0.359992  0.640008  1
  Dy  Dy7  1  0.000000  0.640008  0.359992  1
  Dy  Dy8  1  0.000000  0.705936  0.705936  1
  Dy  Dy9  1  0.000000  0.294064  0.294064  1
  Dy  Dy10  1  0.000000  0.000000  0.000000  1
  Ho  Ho11  1  0.500000  0.500000  0.500000  1
  In  In12  1  0.500000  0.148394  0.631718  1
  In  In13  1  0.500000  0.851606  0.368282  1
  In  In14  1  0.500000  0.631718  0.148394  1
  In  In15  1  0.500000  0.368282  0.851606  1
  In  In16  1  0.500000  0.933630  0.784632  1
  In  In17  1  0.500000  0.066370  0.215368  1
  In  In18  1  0.500000  0.784632  0.933630  1
  In  In19  1  0.500000  0.215368  0.066370  1
  Ru  Ru20  1  0.500000  0.736808  0.548131  1
  Ru  Ru21  1  0.500000  0.263192  0.451869  1
  Ru  Ru22  1  0.500000  0.548131  0.736808  1
  Ru  Ru23  1  0.500000  0.451869  0.263192  1
