# generated using pymatgen
data_Lu4Ga4PtRh3
_symmetry_space_group_name_H-M   'P 1'
_cell_length_a   4.23988200
_cell_length_b   6.74169296
_cell_length_c   7.80116537
_cell_angle_alpha   89.81749446
_cell_angle_beta   90.00000000
_cell_angle_gamma   90.00000000
_symmetry_Int_Tables_number   1
_chemical_formula_structural   Lu4Ga4PtRh3
_chemical_formula_sum   'Lu4 Ga4 Pt1 Rh3'
_cell_volume   222.98724418
_cell_formula_units_Z   1
loop_
 _symmetry_equiv_pos_site_id
 _symmetry_equiv_pos_as_xyz
  1  'x, y, z'
loop_
 _atom_site_type_symbol
 _atom_site_label
 _atom_site_symmetry_multiplicity
 _atom_site_fract_x
 _atom_site_fract_y
 _atom_site_fract_z
 _atom_site_occupancy
  Lu  Lu0  1  0.250000  0.966991  0.315739  1
  Lu  Lu1  1  0.250000  0.470515  0.181560  1
  Lu  Lu2  1  0.750000  0.029211  0.685785  1
  Lu  Lu3  1  0.750000  0.530230  0.817631  1
  Ga  Ga4  1  0.250000  0.356917  0.567594  1
  Ga  Ga5  1  0.250000  0.852896  0.935839  1
  Ga  Ga6  1  0.750000  0.649937  0.435875  1
  Ga  Ga7  1  0.750000  0.143784  0.061375  1
  Pt  Pt8  1  0.750000  0.260872  0.380503  1
  Rh  Rh9  1  0.250000  0.239384  0.882551  1
  Rh  Rh10  1  0.250000  0.740500  0.618188  1
  Rh  Rh11  1  0.750000  0.758761  0.117361  1
