# generated using pymatgen
data_Tb3Dy2U2O12
_symmetry_space_group_name_H-M   'P 1'
_cell_length_a   6.62336320
_cell_length_b   6.63831236
_cell_length_c   6.58542140
_cell_angle_alpha   99.35804756
_cell_angle_beta   98.78345599
_cell_angle_gamma   99.25480904
_symmetry_Int_Tables_number   1
_chemical_formula_structural   Tb3Dy2U2O12
_chemical_formula_sum   'Tb3 Dy2 U2 O12'
_cell_volume   277.17899723
_cell_formula_units_Z   1
loop_
 _symmetry_equiv_pos_site_id
 _symmetry_equiv_pos_as_xyz
  1  'x, y, z'
loop_
 _atom_site_type_symbol
 _atom_site_label
 _atom_site_symmetry_multiplicity
 _atom_site_fract_x
 _atom_site_fract_y
 _atom_site_fract_z
 _atom_site_occupancy
  Tb  Tb0  1  0.309195  0.611619  0.144052  1
  Tb  Tb1  1  0.143538  0.312314  0.607143  1
  Tb  Tb2  1  0.606339  0.133999  0.311505  1
  Dy  Dy3  1  0.860939  0.693788  0.395039  1
  Dy  Dy4  1  0.390168  0.856218  0.684610  1
  U  U5  1  0.689730  0.396848  0.861661  1
  U  U6  1  0.002440  0.003031  0.000192  1
  O  O7  1  0.430202  0.176590  0.586959  1
  O  O8  1  0.589168  0.425631  0.166613  1
  O  O9  1  0.174244  0.583923  0.433485  1
  O  O10  1  0.567828  0.817475  0.412193  1
  O  O11  1  0.423251  0.569549  0.821495  1
  O  O12  1  0.812325  0.416143  0.575846  1
  O  O13  1  0.074880  0.317789  0.943857  1
  O  O14  1  0.686904  0.057749  0.921918  1
  O  O15  1  0.054988  0.924027  0.685997  1
  O  O16  1  0.925351  0.684435  0.056892  1
  O  O17  1  0.314552  0.944222  0.074935  1
  O  O18  1  0.943957  0.074649  0.315609  1
