# generated using pymatgen
data_Er3Tm3(AuO7)2
_symmetry_space_group_name_H-M   'P 1'
_cell_length_a   6.42388839
_cell_length_b   6.42356285
_cell_length_c   7.35961200
_cell_angle_alpha   89.99944916
_cell_angle_beta   90.00051543
_cell_angle_gamma   108.73904296
_symmetry_Int_Tables_number   1
_chemical_formula_structural   Er3Tm3(AuO7)2
_chemical_formula_sum   'Er3 Tm3 Au2 O14'
_cell_volume   287.59080885
_cell_formula_units_Z   1
loop_
 _symmetry_equiv_pos_site_id
 _symmetry_equiv_pos_as_xyz
  1  'x, y, z'
loop_
 _atom_site_type_symbol
 _atom_site_label
 _atom_site_symmetry_multiplicity
 _atom_site_fract_x
 _atom_site_fract_y
 _atom_site_fract_z
 _atom_site_occupancy
  Er  Er0  1  0.471324  0.002129  0.250067  1
  Er  Er1  1  0.500533  0.500573  0.500138  1
  Er  Er2  1  0.500100  0.500117  0.999857  1
  Tm  Tm3  1  0.002037  0.471337  0.749920  1
  Tm  Tm4  1  0.998171  0.528687  0.249929  1
  Tm  Tm5  1  0.528631  0.998171  0.750064  1
  Au  Au6  1  0.999807  0.999863  0.500359  1
  Au  Au7  1  0.000012  0.000142  0.999694  1
  O  O8  1  0.640176  0.360219  0.750002  1
  O  O9  1  0.360000  0.638190  0.250006  1
  O  O10  1  0.917551  0.083111  0.749990  1
  O  O11  1  0.081465  0.916638  0.250003  1
  O  O12  1  0.917618  0.666718  0.524831  1
  O  O13  1  0.082289  0.333132  0.024613  1
  O  O14  1  0.333100  0.084260  0.974400  1
  O  O15  1  0.666702  0.915489  0.476446  1
  O  O16  1  0.366280  0.633672  0.749995  1
  O  O17  1  0.634429  0.367995  0.249992  1
  O  O18  1  0.917848  0.666879  0.975045  1
  O  O19  1  0.082112  0.332948  0.475262  1
  O  O20  1  0.332985  0.084045  0.525718  1
  O  O21  1  0.666831  0.915688  0.023669  1
