# generated using pymatgen
data_Ca2YHoTm4(B6Os)4
_symmetry_space_group_name_H-M   'P 1'
_cell_length_a   3.62788700
_cell_length_b   9.12360170
_cell_length_c   11.52850201
_cell_angle_alpha   89.82714400
_cell_angle_beta   90.00000000
_cell_angle_gamma   90.00000000
_symmetry_Int_Tables_number   1
_chemical_formula_structural   Ca2YHoTm4(B6Os)4
_chemical_formula_sum   'Ca2 Y1 Ho1 Tm4 B24 Os4'
_cell_volume   381.58471662
_cell_formula_units_Z   1
loop_
 _symmetry_equiv_pos_site_id
 _symmetry_equiv_pos_as_xyz
  1  'x, y, z'
loop_
 _atom_site_type_symbol
 _atom_site_label
 _atom_site_symmetry_multiplicity
 _atom_site_fract_x
 _atom_site_fract_y
 _atom_site_fract_z
 _atom_site_occupancy
  Ca  Ca0  1  0.000000  0.323198  0.414680  1
  Ca  Ca1  1  0.000000  0.676798  0.585329  1
  Y  Y2  1  0.000000  0.821625  0.086262  1
  Ho  Ho3  1  0.000000  0.178244  0.913702  1
  Tm  Tm4  1  0.000000  0.942348  0.370238  1
  Tm  Tm5  1  0.000000  0.057712  0.629798  1
  Tm  Tm6  1  0.000000  0.442841  0.129739  1
  Tm  Tm7  1  0.000000  0.556971  0.870195  1
  B  B8  1  0.500000  0.554166  0.431905  1
  B  B9  1  0.500000  0.445795  0.568144  1
  B  B10  1  0.500000  0.053985  0.066500  1
  B  B11  1  0.500000  0.946557  0.933219  1
  B  B12  1  0.500000  0.748904  0.417173  1
  B  B13  1  0.500000  0.251120  0.582914  1
  B  B14  1  0.500000  0.248950  0.080896  1
  B  B15  1  0.500000  0.751048  0.918721  1
  B  B16  1  0.500000  0.791637  0.264489  1
  B  B17  1  0.500000  0.208260  0.735819  1
  B  B18  1  0.500000  0.290336  0.233516  1
  B  B19  1  0.500000  0.709668  0.766424  1
  B  B20  1  0.500000  0.630794  0.184700  1
  B  B21  1  0.500000  0.368881  0.815520  1
  B  B22  1  0.500000  0.130005  0.313562  1
  B  B23  1  0.500000  0.870085  0.686458  1
  B  B24  1  0.500000  0.982840  0.211808  1
  B  B25  1  0.500000  0.017569  0.788328  1
  B  B26  1  0.500000  0.483480  0.287085  1
  B  B27  1  0.500000  0.516402  0.712938  1
  B  B28  1  0.500000  0.602040  0.028025  1
  B  B29  1  0.500000  0.397539  0.971858  1
  B  B30  1  0.500000  0.098371  0.472830  1
  B  B31  1  0.500000  0.901648  0.527182  1
  Os  Os32  1  0.000000  0.640337  0.317810  1
  Os  Os33  1  0.000000  0.359474  0.682407  1
  Os  Os34  1  0.000000  0.136962  0.177686  1
  Os  Os35  1  0.000000  0.863409  0.822140  1
