# generated using pymatgen
data_La7Ho2ErGa2(Si2O)3
_symmetry_space_group_name_H-M   'P 1'
_cell_length_a   10.76187300
_cell_length_b   10.76933283
_cell_length_c   4.53987500
_cell_angle_alpha   90.00000000
_cell_angle_beta   90.00000000
_cell_angle_gamma   119.97709164
_symmetry_Int_Tables_number   1
_chemical_formula_structural   La7Ho2ErGa2(Si2O)3
_chemical_formula_sum   'La7 Ho2 Er1 Ga2 Si6 O3'
_cell_volume   455.77593961
_cell_formula_units_Z   1
loop_
 _symmetry_equiv_pos_site_id
 _symmetry_equiv_pos_as_xyz
  1  'x, y, z'
loop_
 _atom_site_type_symbol
 _atom_site_label
 _atom_site_symmetry_multiplicity
 _atom_site_fract_x
 _atom_site_fract_y
 _atom_site_fract_z
 _atom_site_occupancy
  La  La0  1  0.213371  0.788059  0.000000  1
  La  La1  1  0.575836  0.788046  0.000000  1
  La  La2  1  0.786808  0.574733  0.000000  1
  La  La3  1  0.000000  0.000000  0.000000  1
  La  La4  1  0.213192  0.425267  0.000000  1
  La  La5  1  0.424164  0.211954  0.000000  1
  La  La6  1  0.786629  0.211941  0.000000  1
  Ho  Ho7  1  0.000000  0.500000  0.500000  1
  Ho  Ho8  1  0.500000  0.500000  0.500000  1
  Er  Er9  1  0.500000  0.000000  0.500000  1
  Ga  Ga10  1  0.000079  0.776294  0.500000  1
  Ga  Ga11  1  0.999921  0.223706  0.500000  1
  Si  Si12  1  0.225959  0.223121  0.500000  1
  Si  Si13  1  0.773788  0.997272  0.500000  1
  Si  Si14  1  0.333043  0.666923  0.500000  1
  Si  Si15  1  0.226212  0.002728  0.500000  1
  Si  Si16  1  0.666957  0.333077  0.500000  1
  Si  Si17  1  0.774041  0.776879  0.500000  1
  O  O18  1  0.000000  0.500000  0.000000  1
  O  O19  1  0.500000  0.500000  0.000000  1
  O  O20  1  0.500000  0.000000  0.000000  1
