# generated using pymatgen
data_Li5Zn7Pd12
_symmetry_space_group_name_H-M   'P 1'
_cell_length_a   4.32393201
_cell_length_b   6.04214800
_cell_length_c   12.94681800
_cell_angle_alpha   90.00000000
_cell_angle_beta   89.99699206
_cell_angle_gamma   90.00000000
_symmetry_Int_Tables_number   1
_chemical_formula_structural   Li5Zn7Pd12
_chemical_formula_sum   'Li5 Zn7 Pd12'
_cell_volume   338.24645785
_cell_formula_units_Z   1
loop_
 _symmetry_equiv_pos_site_id
 _symmetry_equiv_pos_as_xyz
  1  'x, y, z'
loop_
 _atom_site_type_symbol
 _atom_site_label
 _atom_site_symmetry_multiplicity
 _atom_site_fract_x
 _atom_site_fract_y
 _atom_site_fract_z
 _atom_site_occupancy
  Li  Li0  1  0.499772  0.500000  0.167934  1
  Li  Li1  1  0.999674  0.000000  0.333703  1
  Li  Li2  1  0.499999  0.500000  0.500000  1
  Li  Li3  1  0.000325  0.000000  0.666297  1
  Li  Li4  1  0.500228  0.499999  0.832066  1
  Zn  Zn5  1  0.000000  0.999997  0.999999  1
  Zn  Zn6  1  0.000000  0.500000  0.000000  1
  Zn  Zn7  1  0.499732  0.000000  0.169067  1
  Zn  Zn8  1  0.999742  0.500000  0.334012  1
  Zn  Zn9  1  0.500000  0.000000  0.500000  1
  Zn  Zn10  1  0.000258  0.500000  0.665988  1
  Zn  Zn11  1  0.500268  0.000000  0.830933  1
  Pd  Pd12  1  0.500000  0.251435  0.000000  1
  Pd  Pd13  1  0.500001  0.748565  0.000000  1
  Pd  Pd14  1  0.999764  0.249947  0.167102  1
  Pd  Pd15  1  0.999765  0.750053  0.167102  1
  Pd  Pd16  1  0.499753  0.250491  0.333903  1
  Pd  Pd17  1  0.499753  0.749510  0.333903  1
  Pd  Pd18  1  0.000000  0.249085  0.500000  1
  Pd  Pd19  1  0.000000  0.750914  0.500000  1
  Pd  Pd20  1  0.500247  0.250491  0.666097  1
  Pd  Pd21  1  0.500247  0.749510  0.666097  1
  Pd  Pd22  1  0.000235  0.249947  0.832898  1
  Pd  Pd23  1  0.000236  0.750052  0.832898  1
