# generated using pymatgen
data_Dy7ErSnHg3Au8
_symmetry_space_group_name_H-M   'P 1'
_cell_length_a   8.01352078
_cell_length_b   8.01354678
_cell_length_c   7.37364300
_cell_angle_alpha   90.00015733
_cell_angle_beta   89.99857842
_cell_angle_gamma   90.15968540
_symmetry_Int_Tables_number   1
_chemical_formula_structural   Dy7ErSnHg3Au8
_chemical_formula_sum   'Dy7 Er1 Sn1 Hg3 Au8'
_cell_volume   473.50935577
_cell_formula_units_Z   1
loop_
 _symmetry_equiv_pos_site_id
 _symmetry_equiv_pos_as_xyz
  1  'x, y, z'
loop_
 _atom_site_type_symbol
 _atom_site_label
 _atom_site_symmetry_multiplicity
 _atom_site_fract_x
 _atom_site_fract_y
 _atom_site_fract_z
 _atom_site_occupancy
  Dy  Dy0  1  0.183952  0.185347  0.000158  1
  Dy  Dy1  1  0.314644  0.684056  0.499779  1
  Dy  Dy2  1  0.685288  0.316049  0.499747  1
  Dy  Dy3  1  0.816533  0.814873  0.000310  1
  Dy  Dy4  1  0.339816  0.659736  0.000759  1
  Dy  Dy5  1  0.659715  0.339824  0.000751  1
  Dy  Dy6  1  0.840382  0.840481  0.499314  1
  Er  Er7  1  0.159417  0.159499  0.498865  1
  Sn  Sn8  1  0.500075  0.999942  0.749970  1
  Hg  Hg9  1  0.000170  0.500093  0.749961  1
  Hg  Hg10  1  0.500037  0.000055  0.250228  1
  Hg  Hg11  1  0.000026  0.500043  0.250068  1
  Au  Au12  1  0.126567  0.873193  0.774957  1
  Au  Au13  1  0.874277  0.128002  0.225523  1
  Au  Au14  1  0.371480  0.372769  0.276807  1
  Au  Au15  1  0.627337  0.625911  0.724577  1
  Au  Au16  1  0.627423  0.626203  0.275246  1
  Au  Au17  1  0.874544  0.127882  0.774769  1
  Au  Au18  1  0.371500  0.372845  0.722759  1
  Au  Au19  1  0.126818  0.873200  0.225450  1
