# generated using pymatgen
data_Lu5Sc11(AgRh)4
_symmetry_space_group_name_H-M   'P 1'
_cell_length_a   9.05085667
_cell_length_b   9.05486270
_cell_length_c   9.05486146
_cell_angle_alpha   60.03021956
_cell_angle_beta   60.01463886
_cell_angle_gamma   60.01463473
_symmetry_Int_Tables_number   1
_chemical_formula_structural   Lu5Sc11(AgRh)4
_chemical_formula_sum   'Lu5 Sc11 Ag4 Rh4'
_cell_volume   524.96886467
_cell_formula_units_Z   1
loop_
 _symmetry_equiv_pos_site_id
 _symmetry_equiv_pos_as_xyz
  1  'x, y, z'
loop_
 _atom_site_type_symbol
 _atom_site_label
 _atom_site_symmetry_multiplicity
 _atom_site_fract_x
 _atom_site_fract_y
 _atom_site_fract_z
 _atom_site_occupancy
  Lu  Lu0  1  0.810001  0.189999  0.189999  1
  Lu  Lu1  1  0.812102  0.187687  0.809832  1
  Lu  Lu2  1  0.190379  0.809832  0.187687  1
  Lu  Lu3  1  0.812102  0.809832  0.187687  1
  Lu  Lu4  1  0.190379  0.187687  0.809832  1
  Sc  Sc5  1  0.601387  0.607940  0.607940  1
  Sc  Sc6  1  0.605813  0.606270  0.182106  1
  Sc  Sc7  1  0.605813  0.182106  0.606270  1
  Sc  Sc8  1  0.182735  0.607940  0.607940  1
  Sc  Sc9  1  0.066223  0.433777  0.433777  1
  Sc  Sc10  1  0.433573  0.066427  0.066427  1
  Sc  Sc11  1  0.432534  0.064408  0.436363  1
  Sc  Sc12  1  0.066695  0.436363  0.064408  1
  Sc  Sc13  1  0.432534  0.436363  0.064408  1
  Sc  Sc14  1  0.066695  0.064408  0.436363  1
  Sc  Sc15  1  0.188098  0.811902  0.811902  1
  Ag  Ag16  1  0.834059  0.831486  0.831486  1
  Ag  Ag17  1  0.832368  0.832155  0.503108  1
  Ag  Ag18  1  0.832368  0.503108  0.832155  1
  Ag  Ag19  1  0.502970  0.831486  0.831486  1
  Rh  Rh20  1  0.394879  0.395494  0.395494  1
  Rh  Rh21  1  0.396080  0.394106  0.813732  1
  Rh  Rh22  1  0.396080  0.813732  0.394106  1
  Rh  Rh23  1  0.814131  0.395494  0.395494  1
