# generated using pymatgen
data_TbPr9GaSi4Ge
_symmetry_space_group_name_H-M   'P 1'
_cell_length_a   7.79764500
_cell_length_b   9.12034917
_cell_length_c   7.79764500
_cell_angle_alpha   115.30812721
_cell_angle_beta   90.00000000
_cell_angle_gamma   115.30812721
_symmetry_Int_Tables_number   1
_chemical_formula_structural   TbPr9GaSi4Ge
_chemical_formula_sum   'Tb1 Pr9 Ga1 Si4 Ge1'
_cell_volume   441.73117848
_cell_formula_units_Z   1
loop_
 _symmetry_equiv_pos_site_id
 _symmetry_equiv_pos_as_xyz
  1  'x, y, z'
loop_
 _atom_site_type_symbol
 _atom_site_label
 _atom_site_symmetry_multiplicity
 _atom_site_fract_x
 _atom_site_fract_y
 _atom_site_fract_z
 _atom_site_occupancy
  Tb  Tb0  1  0.980621  0.961243  0.980621  1
  Pr  Pr1  1  0.529041  0.058081  0.529041  1
  Pr  Pr2  1  0.528048  0.715175  0.673371  1
  Pr  Pr3  1  0.187126  0.715175  0.041804  1
  Pr  Pr4  1  0.673371  0.715175  0.187126  1
  Pr  Pr5  1  0.041804  0.715175  0.528048  1
  Pr  Pr6  1  0.457021  0.282742  0.308164  1
  Pr  Pr7  1  0.825720  0.282742  0.974578  1
  Pr  Pr8  1  0.308164  0.282742  0.825720  1
  Pr  Pr9  1  0.974578  0.282742  0.457021  1
  Ga  Ga10  1  0.754500  0.509001  0.754500  1
  Si  Si11  1  0.883798  0.996736  0.616665  1
  Si  Si12  1  0.112938  0.996736  0.380071  1
  Si  Si13  1  0.616665  0.996736  0.112938  1
  Si  Si14  1  0.380071  0.996736  0.883798  1
  Ge  Ge15  1  0.246531  0.493063  0.246531  1
