# generated using pymatgen
data_Th2Zn3Ag4
_symmetry_space_group_name_H-M   'P 1'
_cell_length_a   5.42641981
_cell_length_b   5.42641918
_cell_length_c   14.32656700
_cell_angle_alpha   90.00000000
_cell_angle_beta   90.00000000
_cell_angle_gamma   119.94406264
_symmetry_Int_Tables_number   1
_chemical_formula_structural   Th2Zn3Ag4
_chemical_formula_sum   'Th4 Zn6 Ag8'
_cell_volume   365.54766581
_cell_formula_units_Z   2
loop_
 _symmetry_equiv_pos_site_id
 _symmetry_equiv_pos_as_xyz
  1  'x, y, z'
loop_
 _atom_site_type_symbol
 _atom_site_label
 _atom_site_symmetry_multiplicity
 _atom_site_fract_x
 _atom_site_fract_y
 _atom_site_fract_z
 _atom_site_occupancy
  Th  Th0  1  0.823121  0.823121  0.117959  1
  Th  Th1  1  0.176879  0.176879  0.882041  1
  Th  Th2  1  0.823121  0.823121  0.382041  1
  Th  Th3  1  0.176879  0.176879  0.617959  1
  Zn  Zn4  1  0.168851  0.672339  0.750000  1
  Zn  Zn5  1  0.672339  0.168851  0.750000  1
  Zn  Zn6  1  0.671420  0.671420  0.750000  1
  Zn  Zn7  1  0.327661  0.831149  0.250000  1
  Zn  Zn8  1  0.831149  0.327661  0.250000  1
  Zn  Zn9  1  0.328580  0.328580  0.250000  1
  Ag  Ag10  1  0.161115  0.490265  0.079852  1
  Ag  Ag11  1  0.509735  0.838885  0.920148  1
  Ag  Ag12  1  0.490265  0.161115  0.079852  1
  Ag  Ag13  1  0.838885  0.509735  0.579852  1
  Ag  Ag14  1  0.490265  0.161115  0.420148  1
  Ag  Ag15  1  0.838885  0.509735  0.920148  1
  Ag  Ag16  1  0.509735  0.838885  0.579852  1
  Ag  Ag17  1  0.161115  0.490265  0.420148  1
