# generated using pymatgen
data_Er3Tm(B4Ru5)2
_symmetry_space_group_name_H-M   'P 1'
_cell_length_a   3.04853100
_cell_length_b   8.79673102
_cell_length_c   10.18056202
_cell_angle_alpha   90.00740244
_cell_angle_beta   90.00000000
_cell_angle_gamma   90.00000000
_symmetry_Int_Tables_number   1
_chemical_formula_structural   Er3Tm(B4Ru5)2
_chemical_formula_sum   'Er3 Tm1 B8 Ru10'
_cell_volume   273.01322088
_cell_formula_units_Z   1
loop_
 _symmetry_equiv_pos_site_id
 _symmetry_equiv_pos_as_xyz
  1  'x, y, z'
loop_
 _atom_site_type_symbol
 _atom_site_label
 _atom_site_symmetry_multiplicity
 _atom_site_fract_x
 _atom_site_fract_y
 _atom_site_fract_z
 _atom_site_occupancy
  Er  Er0  1  0.500000  0.838533  0.181709  1
  Er  Er1  1  0.500000  0.161477  0.818338  1
  Er  Er2  1  0.500000  0.661389  0.681700  1
  Tm  Tm3  1  0.500000  0.338619  0.318291  1
  B  B4  1  0.500000  0.967686  0.587048  1
  B  B5  1  0.500000  0.032379  0.412894  1
  B  B6  1  0.500000  0.854235  0.899153  1
  B  B7  1  0.500000  0.145832  0.100933  1
  B  B8  1  0.500000  0.645736  0.399168  1
  B  B9  1  0.500000  0.354198  0.600746  1
  B  B10  1  0.500000  0.467630  0.912975  1
  B  B11  1  0.500000  0.532314  0.087090  1
  Ru  Ru12  1  0.000000  0.663049  0.952768  1
  Ru  Ru13  1  0.000000  0.336978  0.047356  1
  Ru  Ru14  1  0.000000  0.836966  0.452778  1
  Ru  Ru15  1  0.000000  0.163071  0.547126  1
  Ru  Ru16  1  0.000000  0.000009  0.000007  1
  Ru  Ru17  1  0.000000  0.409120  0.762388  1
  Ru  Ru18  1  0.000000  0.590581  0.237679  1
  Ru  Ru19  1  0.000000  0.499777  0.499777  1
  Ru  Ru20  1  0.000000  0.909129  0.737618  1
  Ru  Ru21  1  0.000000  0.091290  0.262461  1
