# generated using pymatgen
data_Ti5Co16Si7Pt
_symmetry_space_group_name_H-M   'P 1'
_cell_length_a   7.84369824
_cell_length_b   7.83753684
_cell_length_c   7.83753642
_cell_angle_alpha   60.05202783
_cell_angle_beta   59.97398999
_cell_angle_gamma   59.97398799
_symmetry_Int_Tables_number   1
_chemical_formula_structural   Ti5Co16Si7Pt
_chemical_formula_sum   'Ti5 Co16 Si7 Pt1'
_cell_volume   340.69403389
_cell_formula_units_Z   1
loop_
 _symmetry_equiv_pos_site_id
 _symmetry_equiv_pos_as_xyz
  1  'x, y, z'
loop_
 _atom_site_type_symbol
 _atom_site_label
 _atom_site_symmetry_multiplicity
 _atom_site_fract_x
 _atom_site_fract_y
 _atom_site_fract_z
 _atom_site_occupancy
  Ti  Ti0  1  0.800742  0.791899  0.199258  1
  Ti  Ti1  1  0.788979  0.211021  0.211021  1
  Ti  Ti2  1  0.208101  0.199258  0.791899  1
  Ti  Ti3  1  0.800742  0.199258  0.791899  1
  Ti  Ti4  1  0.208101  0.791899  0.199258  1
  Co  Co5  1  0.620577  0.615882  0.142965  1
  Co  Co6  1  0.168836  0.487708  0.174618  1
  Co  Co7  1  0.857035  0.379423  0.379423  1
  Co  Co8  1  0.512292  0.831164  0.831164  1
  Co  Co9  1  0.513650  0.162928  0.162928  1
  Co  Co10  1  0.837072  0.839507  0.486350  1
  Co  Co11  1  0.168836  0.174618  0.487708  1
  Co  Co12  1  0.144277  0.618691  0.618691  1
  Co  Co13  1  0.160493  0.162928  0.162928  1
  Co  Co14  1  0.381309  0.381659  0.855723  1
  Co  Co15  1  0.618341  0.618691  0.618691  1
  Co  Co16  1  0.381309  0.855723  0.381659  1
  Co  Co17  1  0.384118  0.379423  0.379423  1
  Co  Co18  1  0.825382  0.831164  0.831164  1
  Co  Co19  1  0.620577  0.142965  0.615882  1
  Co  Co20  1  0.837072  0.486350  0.839507  1
  Si  Si21  1  0.496668  0.994613  0.503332  1
  Si  Si22  1  0.496668  0.503332  0.994613  1
  Si  Si23  1  0.501528  0.498472  0.498472  1
  Si  Si24  1  0.005387  0.994613  0.503332  1
  Si  Si25  1  0.005387  0.503332  0.994613  1
  Si  Si26  1  0.997146  0.502854  0.502854  1
  Si  Si27  1  0.497146  0.002854  0.002854  1
  Pt  Pt28  1  0.162229  0.837771  0.837771  1
