# generated using pymatgen
data_CaEr(TmB8)2
_symmetry_space_group_name_H-M   'P 1'
_cell_length_a   7.08033627
_cell_length_b   7.08031750
_cell_length_c   4.00552300
_cell_angle_alpha   90.00000000
_cell_angle_beta   90.00000000
_cell_angle_gamma   90.17537565
_symmetry_Int_Tables_number   1
_chemical_formula_structural   CaEr(TmB8)2
_chemical_formula_sum   'Ca1 Er1 Tm2 B16'
_cell_volume   200.80004796
_cell_formula_units_Z   1
loop_
 _symmetry_equiv_pos_site_id
 _symmetry_equiv_pos_as_xyz
  1  'x, y, z'
loop_
 _atom_site_type_symbol
 _atom_site_label
 _atom_site_symmetry_multiplicity
 _atom_site_fract_x
 _atom_site_fract_y
 _atom_site_fract_z
 _atom_site_occupancy
  Ca  Ca0  1  0.180858  0.680865  0.000000  1
  Er  Er1  1  0.318509  0.181681  0.000000  1
  Tm  Tm2  1  0.681618  0.818446  0.000000  1
  Tm  Tm3  1  0.819063  0.319076  0.000000  1
  B  B4  1  0.323955  0.460610  0.500000  1
  B  B5  1  0.677394  0.537862  0.500000  1
  B  B6  1  0.538997  0.323838  0.500000  1
  B  B7  1  0.463285  0.676161  0.500000  1
  B  B8  1  0.999695  0.999637  0.202655  1
  B  B9  1  0.499797  0.499950  0.797348  1
  B  B10  1  0.999695  0.999637  0.797345  1
  B  B11  1  0.499797  0.499950  0.202652  1
  B  B12  1  0.587214  0.086969  0.500000  1
  B  B13  1  0.085821  0.412643  0.500000  1
  B  B14  1  0.912613  0.585868  0.500000  1
  B  B15  1  0.413947  0.913696  0.500000  1
  B  B16  1  0.037656  0.177314  0.500000  1
  B  B17  1  0.175994  0.963106  0.500000  1
  B  B18  1  0.823679  0.038836  0.500000  1
  B  B19  1  0.960412  0.823856  0.500000  1
