# generated using pymatgen
data_EuZn10Ni
_symmetry_space_group_name_H-M   'P 1'
_cell_length_a   8.28501641
_cell_length_b   8.28501650
_cell_length_c   8.28501699
_cell_angle_alpha   99.05289649
_cell_angle_beta   100.30133990
_cell_angle_gamma   131.59251427
_symmetry_Int_Tables_number   1
_chemical_formula_structural   EuZn10Ni
_chemical_formula_sum   'Eu2 Zn20 Ni2'
_cell_volume   387.89838608
_cell_formula_units_Z   2
loop_
 _symmetry_equiv_pos_site_id
 _symmetry_equiv_pos_as_xyz
  1  'x, y, z'
loop_
 _atom_site_type_symbol
 _atom_site_label
 _atom_site_symmetry_multiplicity
 _atom_site_fract_x
 _atom_site_fract_y
 _atom_site_fract_z
 _atom_site_occupancy
  Eu  Eu0  1  0.997541  0.997541  0.000000  1
  Eu  Eu1  1  0.252459  0.752459  0.500000  1
  Zn  Zn2  1  0.766722  0.266722  0.500000  1
  Zn  Zn3  1  0.483278  0.483278  0.000000  1
  Zn  Zn4  1  0.625000  0.875000  0.250000  1
  Zn  Zn5  1  0.625000  0.375000  0.750000  1
  Zn  Zn6  1  0.183437  0.509137  0.075392  1
  Zn  Zn7  1  0.183437  0.108045  0.674300  1
  Zn  Zn8  1  0.769415  0.941988  0.589088  1
  Zn  Zn9  1  0.769415  0.180327  0.827426  1
  Zn  Zn10  1  0.433745  0.509137  0.325700  1
  Zn  Zn11  1  0.433745  0.108045  0.924608  1
  Zn  Zn12  1  0.352899  0.941988  0.172574  1
  Zn  Zn13  1  0.352899  0.180327  0.410912  1
  Zn  Zn14  1  0.066563  0.240863  0.424608  1
  Zn  Zn15  1  0.066563  0.641955  0.825700  1
  Zn  Zn16  1  0.480585  0.808012  0.910912  1
  Zn  Zn17  1  0.480585  0.569673  0.672574  1
  Zn  Zn18  1  0.816255  0.240863  0.174300  1
  Zn  Zn19  1  0.816255  0.641955  0.575392  1
  Zn  Zn20  1  0.897101  0.808012  0.327426  1
  Zn  Zn21  1  0.897101  0.569673  0.089088  1
  Ni  Ni22  1  0.125000  0.375000  0.750000  1
  Ni  Ni23  1  0.625000  0.375000  0.250000  1
