# generated using pymatgen
data_Hf10Ga2Sn4BiSb
_symmetry_space_group_name_H-M   'P 1'
_cell_length_a   8.69063310
_cell_length_b   8.68554030
_cell_length_c   5.80607400
_cell_angle_alpha   90.00000000
_cell_angle_beta   90.00000000
_cell_angle_gamma   119.93698289
_symmetry_Int_Tables_number   1
_chemical_formula_structural   Hf10Ga2Sn4BiSb
_chemical_formula_sum   'Hf10 Ga2 Sn4 Bi1 Sb1'
_cell_volume   379.78419012
_cell_formula_units_Z   1
loop_
 _symmetry_equiv_pos_site_id
 _symmetry_equiv_pos_as_xyz
  1  'x, y, z'
loop_
 _atom_site_type_symbol
 _atom_site_label
 _atom_site_symmetry_multiplicity
 _atom_site_fract_x
 _atom_site_fract_y
 _atom_site_fract_z
 _atom_site_occupancy
  Hf  Hf0  1  0.736098  0.736900  0.750000  1
  Hf  Hf1  1  0.265767  0.994486  0.750000  1
  Hf  Hf2  1  0.993747  0.264447  0.750000  1
  Hf  Hf3  1  0.268281  0.267945  0.250000  1
  Hf  Hf4  1  0.729682  0.000299  0.250000  1
  Hf  Hf5  1  0.000718  0.730965  0.250000  1
  Hf  Hf6  1  0.669114  0.331790  0.002031  1
  Hf  Hf7  1  0.333448  0.669773  0.002108  1
  Hf  Hf8  1  0.333448  0.669773  0.497892  1
  Hf  Hf9  1  0.669114  0.331790  0.497969  1
  Ga  Ga10  1  0.000553  0.000479  0.002896  1
  Ga  Ga11  1  0.000553  0.000479  0.497104  1
  Sn  Sn12  1  0.999588  0.609638  0.750000  1
  Sn  Sn13  1  0.613054  0.612309  0.250000  1
  Sn  Sn14  1  0.387534  0.000675  0.250000  1
  Sn  Sn15  1  0.001498  0.389244  0.250000  1
  Bi  Bi16  1  0.389852  0.389654  0.750000  1
  Sb  Sb17  1  0.607952  0.999357  0.750000  1
