# generated using pymatgen
data_LiHoTm15In3Rh4
_symmetry_space_group_name_H-M   'P 1'
_cell_length_a   9.53999739
_cell_length_b   9.53999604
_cell_length_c   9.53999731
_cell_angle_alpha   59.76374840
_cell_angle_beta   59.76375467
_cell_angle_gamma   59.76375517
_symmetry_Int_Tables_number   1
_chemical_formula_structural   LiHoTm15In3Rh4
_chemical_formula_sum   'Li1 Ho1 Tm15 In3 Rh4'
_cell_volume   610.65199864
_cell_formula_units_Z   1
loop_
 _symmetry_equiv_pos_site_id
 _symmetry_equiv_pos_as_xyz
  1  'x, y, z'
loop_
 _atom_site_type_symbol
 _atom_site_label
 _atom_site_symmetry_multiplicity
 _atom_site_fract_x
 _atom_site_fract_y
 _atom_site_fract_z
 _atom_site_occupancy
  Li  Li0  1  0.822191  0.822191  0.822191  1
  Ho  Ho1  1  0.599876  0.599876  0.599876  1
  Tm  Tm2  1  0.187892  0.187892  0.812668  1
  Tm  Tm3  1  0.600020  0.600020  0.202013  1
  Tm  Tm4  1  0.440761  0.059416  0.440761  1
  Tm  Tm5  1  0.440761  0.440761  0.059416  1
  Tm  Tm6  1  0.813448  0.185583  0.813448  1
  Tm  Tm7  1  0.187892  0.812668  0.187892  1
  Tm  Tm8  1  0.436550  0.063048  0.063048  1
  Tm  Tm9  1  0.185583  0.813448  0.813448  1
  Tm  Tm10  1  0.063048  0.436550  0.063048  1
  Tm  Tm11  1  0.813448  0.813448  0.185583  1
  Tm  Tm12  1  0.202013  0.600020  0.600020  1
  Tm  Tm13  1  0.059416  0.440761  0.440761  1
  Tm  Tm14  1  0.063048  0.063048  0.436550  1
  Tm  Tm15  1  0.812668  0.187892  0.187892  1
  Tm  Tm16  1  0.600020  0.202013  0.600020  1
  In  In17  1  0.833393  0.833393  0.502800  1
  In  In18  1  0.502800  0.833393  0.833393  1
  In  In19  1  0.833393  0.502800  0.833393  1
  Rh  Rh20  1  0.392534  0.823568  0.392534  1
  Rh  Rh21  1  0.393143  0.393143  0.393143  1
  Rh  Rh22  1  0.823568  0.392534  0.392534  1
  Rh  Rh23  1  0.392534  0.392534  0.823568  1
