# generated using pymatgen
data_Ho3Zr2Sb3
_symmetry_space_group_name_H-M   'P 1'
_cell_length_a   8.79248700
_cell_length_b   8.79248766
_cell_length_c   5.99792300
_cell_angle_alpha   90.00000000
_cell_angle_beta   90.00000000
_cell_angle_gamma   120.00000881
_symmetry_Int_Tables_number   1
_chemical_formula_structural   Ho3Zr2Sb3
_chemical_formula_sum   'Ho6 Zr4 Sb6'
_cell_volume   401.56419413
_cell_formula_units_Z   2
loop_
 _symmetry_equiv_pos_site_id
 _symmetry_equiv_pos_as_xyz
  1  'x, y, z'
loop_
 _atom_site_type_symbol
 _atom_site_label
 _atom_site_symmetry_multiplicity
 _atom_site_fract_x
 _atom_site_fract_y
 _atom_site_fract_z
 _atom_site_occupancy
  Ho  Ho0  1  0.748179  0.748179  0.750000  1
  Ho  Ho1  1  0.251821  0.000000  0.750000  1
  Ho  Ho2  1  0.000000  0.251821  0.750000  1
  Ho  Ho3  1  0.251821  0.251821  0.250000  1
  Ho  Ho4  1  0.748179  0.000000  0.250000  1
  Ho  Ho5  1  0.000000  0.748179  0.250000  1
  Zr  Zr6  1  0.666667  0.333333  0.000000  1
  Zr  Zr7  1  0.333333  0.666667  0.000000  1
  Zr  Zr8  1  0.333333  0.666667  0.500000  1
  Zr  Zr9  1  0.666667  0.333333  0.500000  1
  Sb  Sb10  1  0.391910  0.391910  0.750000  1
  Sb  Sb11  1  0.608090  0.000000  0.750000  1
  Sb  Sb12  1  0.000000  0.608090  0.750000  1
  Sb  Sb13  1  0.608090  0.608090  0.250000  1
  Sb  Sb14  1  0.391910  0.000000  0.250000  1
  Sb  Sb15  1  0.000000  0.391910  0.250000  1
