# generated using pymatgen
data_Tb6Ho10CdHg3Pd4
_symmetry_space_group_name_H-M   'P 1'
_cell_length_a   9.66623781
_cell_length_b   9.67387124
_cell_length_c   9.67387200
_cell_angle_alpha   60.00000424
_cell_angle_beta   59.97387773
_cell_angle_gamma   59.97387507
_symmetry_Int_Tables_number   1
_chemical_formula_structural   Tb6Ho10CdHg3Pd4
_chemical_formula_sum   'Tb6 Ho10 Cd1 Hg3 Pd4'
_cell_volume   639.39838242
_cell_formula_units_Z   1
loop_
 _symmetry_equiv_pos_site_id
 _symmetry_equiv_pos_as_xyz
  1  'x, y, z'
loop_
 _atom_site_type_symbol
 _atom_site_label
 _atom_site_symmetry_multiplicity
 _atom_site_fract_x
 _atom_site_fract_y
 _atom_site_fract_z
 _atom_site_occupancy
  Tb  Tb0  1  0.933652  0.565715  0.565715  1
  Tb  Tb1  1  0.564736  0.934933  0.934933  1
  Tb  Tb2  1  0.564736  0.934933  0.565399  1
  Tb  Tb3  1  0.933652  0.565715  0.934918  1
  Tb  Tb4  1  0.564736  0.565399  0.934933  1
  Tb  Tb5  1  0.933652  0.934918  0.565715  1
  Ho  Ho6  1  0.356076  0.354535  0.354535  1
  Ho  Ho7  1  0.356076  0.354535  0.934854  1
  Ho  Ho8  1  0.356076  0.934854  0.354535  1
  Ho  Ho9  1  0.931915  0.356028  0.356028  1
  Ho  Ho10  1  0.810738  0.189003  0.189003  1
  Ho  Ho11  1  0.187711  0.811717  0.811717  1
  Ho  Ho12  1  0.187711  0.811717  0.188855  1
  Ho  Ho13  1  0.810738  0.189003  0.811255  1
  Ho  Ho14  1  0.187711  0.188855  0.811717  1
  Ho  Ho15  1  0.810738  0.811255  0.189003  1
  Cd  Cd16  1  0.254364  0.581878  0.581878  1
  Hg  Hg17  1  0.585188  0.587519  0.587519  1
  Hg  Hg18  1  0.585188  0.587519  0.239773  1
  Hg  Hg19  1  0.585188  0.239773  0.587519  1
  Pd  Pd20  1  0.144536  0.145088  0.145088  1
  Pd  Pd21  1  0.144536  0.145088  0.565287  1
  Pd  Pd22  1  0.144536  0.565287  0.145088  1
  Pd  Pd23  1  0.565805  0.144732  0.144732  1
