# generated using pymatgen
data_Er3GaSiAg3Ge
_symmetry_space_group_name_H-M   'P 1'
_cell_length_a   7.12076700
_cell_length_b   7.12076665
_cell_length_c   4.17465600
_cell_angle_alpha   90.00000000
_cell_angle_beta   90.00000000
_cell_angle_gamma   119.99999698
_symmetry_Int_Tables_number   1
_chemical_formula_structural   Er3GaSiAg3Ge
_chemical_formula_sum   'Er3 Ga1 Si1 Ag3 Ge1'
_cell_volume   183.31789800
_cell_formula_units_Z   1
loop_
 _symmetry_equiv_pos_site_id
 _symmetry_equiv_pos_as_xyz
  1  'x, y, z'
loop_
 _atom_site_type_symbol
 _atom_site_label
 _atom_site_symmetry_multiplicity
 _atom_site_fract_x
 _atom_site_fract_y
 _atom_site_fract_z
 _atom_site_occupancy
  Er  Er0  1  0.423517  0.001458  0.500000  1
  Er  Er1  1  0.998542  0.422059  0.500000  1
  Er  Er2  1  0.577941  0.576483  0.500000  1
  Ga  Ga3  1  0.000000  0.000000  0.500000  1
  Si  Si4  1  0.666667  0.333333  0.000000  1
  Ag  Ag5  1  0.752728  0.007223  0.000000  1
  Ag  Ag6  1  0.992777  0.745504  0.000000  1
  Ag  Ag7  1  0.254496  0.247272  0.000000  1
  Ge  Ge8  1  0.333333  0.666667  0.000000  1
