# generated using pymatgen
data_YEr7Ga12CoAg3
_symmetry_space_group_name_H-M   'P 1'
_cell_length_a   7.01582000
_cell_length_b   8.91883243
_cell_length_c   8.91883200
_cell_angle_alpha   120.00000583
_cell_angle_beta   90.00000000
_cell_angle_gamma   90.00000000
_symmetry_Int_Tables_number   1
_chemical_formula_structural   YEr7Ga12CoAg3
_chemical_formula_sum   'Y1 Er7 Ga12 Co1 Ag3'
_cell_volume   483.30916624
_cell_formula_units_Z   1
loop_
 _symmetry_equiv_pos_site_id
 _symmetry_equiv_pos_as_xyz
  1  'x, y, z'
loop_
 _atom_site_type_symbol
 _atom_site_label
 _atom_site_symmetry_multiplicity
 _atom_site_fract_x
 _atom_site_fract_y
 _atom_site_fract_z
 _atom_site_occupancy
  Y  Y0  1  0.739580  0.000000  0.000000  1
  Er  Er1  1  0.252193  0.000000  0.000000  1
  Er  Er2  1  0.749122  0.488155  0.511845  1
  Er  Er3  1  0.258096  0.522848  0.477152  1
  Er  Er4  1  0.749122  0.023689  0.511845  1
  Er  Er5  1  0.258096  0.954306  0.477152  1
  Er  Er6  1  0.749122  0.488155  0.976311  1
  Er  Er7  1  0.258096  0.522848  0.045694  1
  Ga  Ga8  1  0.964738  0.836413  0.163587  1
  Ga  Ga9  1  0.041354  0.165479  0.834521  1
  Ga  Ga10  1  0.964738  0.327174  0.163587  1
  Ga  Ga11  1  0.462999  0.164434  0.835566  1
  Ga  Ga12  1  0.041354  0.669041  0.834521  1
  Ga  Ga13  1  0.539689  0.825486  0.174514  1
  Ga  Ga14  1  0.964738  0.836413  0.672826  1
  Ga  Ga15  1  0.462999  0.671130  0.835566  1
  Ga  Ga16  1  0.041354  0.165479  0.330959  1
  Ga  Ga17  1  0.539689  0.349029  0.174514  1
  Ga  Ga18  1  0.462999  0.164434  0.328870  1
  Ga  Ga19  1  0.539689  0.825486  0.650971  1
  Co  Co20  1  0.511654  0.666667  0.333333  1
  Ag  Ag21  1  0.942413  0.666667  0.333333  1
  Ag  Ag22  1  0.039179  0.333333  0.666667  1
  Ag  Ag23  1  0.466995  0.333333  0.666667  1
