# generated using pymatgen
data_Mg(TiTc6)4
_symmetry_space_group_name_H-M   'P 1'
_cell_length_a   8.31521627
_cell_length_b   8.31521732
_cell_length_c   8.31521600
_cell_angle_alpha   109.47121985
_cell_angle_beta   109.47122240
_cell_angle_gamma   109.47122665
_symmetry_Int_Tables_number   1
_chemical_formula_structural   Mg(TiTc6)4
_chemical_formula_sum   'Mg1 Ti4 Tc24'
_cell_volume   442.58710915
_cell_formula_units_Z   1
loop_
 _symmetry_equiv_pos_site_id
 _symmetry_equiv_pos_as_xyz
  1  'x, y, z'
loop_
 _atom_site_type_symbol
 _atom_site_label
 _atom_site_symmetry_multiplicity
 _atom_site_fract_x
 _atom_site_fract_y
 _atom_site_fract_z
 _atom_site_occupancy
  Mg  Mg0  1  0.000000  0.000000  0.000000  1
  Ti  Ti1  1  0.631221  0.000000  0.000000  1
  Ti  Ti2  1  0.000000  0.631221  0.000000  1
  Ti  Ti3  1  0.000000  0.000000  0.631221  1
  Ti  Ti4  1  0.368779  0.368779  0.368779  1
  Tc  Tc5  1  0.396750  0.678668  0.000000  1
  Tc  Tc6  1  0.718083  0.321332  0.321332  1
  Tc  Tc7  1  0.396750  0.000000  0.678668  1
  Tc  Tc8  1  0.678668  0.396750  0.000000  1
  Tc  Tc9  1  0.000000  0.396750  0.678668  1
  Tc  Tc10  1  0.321332  0.718083  0.321332  1
  Tc  Tc11  1  0.321332  0.321332  0.718083  1
  Tc  Tc12  1  0.000000  0.678668  0.396750  1
  Tc  Tc13  1  0.678668  0.000000  0.396750  1
  Tc  Tc14  1  0.603250  0.603250  0.281917  1
  Tc  Tc15  1  0.281917  0.603250  0.603250  1
  Tc  Tc16  1  0.603250  0.281917  0.603250  1
  Tc  Tc17  1  0.373997  0.193494  0.000000  1
  Tc  Tc18  1  0.180504  0.806506  0.806506  1
  Tc  Tc19  1  0.373997  0.000000  0.193494  1
  Tc  Tc20  1  0.193494  0.373997  0.000000  1
  Tc  Tc21  1  0.000000  0.373997  0.193494  1
  Tc  Tc22  1  0.806506  0.180504  0.806506  1
  Tc  Tc23  1  0.806506  0.806506  0.180504  1
  Tc  Tc24  1  0.000000  0.193494  0.373997  1
  Tc  Tc25  1  0.193494  0.000000  0.373997  1
  Tc  Tc26  1  0.626003  0.626003  0.819496  1
  Tc  Tc27  1  0.819496  0.626003  0.626003  1
  Tc  Tc28  1  0.626003  0.819496  0.626003  1
