# generated using pymatgen
data_AcNdReC2
_symmetry_space_group_name_H-M   'P 1'
_cell_length_a   5.54406700
_cell_length_b   6.89184100
_cell_length_c   10.39689000
_cell_angle_alpha   90.00000000
_cell_angle_beta   90.00000000
_cell_angle_gamma   90.00000000
_symmetry_Int_Tables_number   1
_chemical_formula_structural   AcNdReC2
_chemical_formula_sum   'Ac4 Nd4 Re4 C8'
_cell_volume   397.25298442
_cell_formula_units_Z   4
loop_
 _symmetry_equiv_pos_site_id
 _symmetry_equiv_pos_as_xyz
  1  'x, y, z'
loop_
 _atom_site_type_symbol
 _atom_site_label
 _atom_site_symmetry_multiplicity
 _atom_site_fract_x
 _atom_site_fract_y
 _atom_site_fract_z
 _atom_site_occupancy
  Ac  Ac0  1  0.250000  0.473270  0.791774  1
  Ac  Ac1  1  0.750000  0.026730  0.291774  1
  Ac  Ac2  1  0.250000  0.973270  0.708226  1
  Ac  Ac3  1  0.750000  0.526730  0.208226  1
  Nd  Nd4  1  0.250000  0.821535  0.052057  1
  Nd  Nd5  1  0.750000  0.678465  0.552057  1
  Nd  Nd6  1  0.250000  0.321535  0.447943  1
  Nd  Nd7  1  0.750000  0.178465  0.947943  1
  Re  Re8  1  0.250000  0.264555  0.147728  1
  Re  Re9  1  0.750000  0.235445  0.647728  1
  Re  Re10  1  0.250000  0.764555  0.352272  1
  Re  Re11  1  0.750000  0.735445  0.852272  1
  C  C12  1  0.250000  0.682102  0.528873  1
  C  C13  1  0.750000  0.817898  0.028873  1
  C  C14  1  0.250000  0.182102  0.971127  1
  C  C15  1  0.750000  0.317898  0.471127  1
  C  C16  1  0.250000  0.029631  0.259725  1
  C  C17  1  0.750000  0.470369  0.759725  1
  C  C18  1  0.250000  0.529631  0.240275  1
  C  C19  1  0.750000  0.970369  0.740275  1
