# generated using pymatgen
data_Tb10Al4IrRu5
_symmetry_space_group_name_H-M   'P 1'
_cell_length_a   8.37295239
_cell_length_b   8.39076188
_cell_length_c   8.39076133
_cell_angle_alpha   109.53873332
_cell_angle_beta   109.68549853
_cell_angle_gamma   109.27574330
_symmetry_Int_Tables_number   1
_chemical_formula_structural   Tb10Al4IrRu5
_chemical_formula_sum   'Tb10 Al4 Ir1 Ru5'
_cell_volume   453.30628375
_cell_formula_units_Z   1
loop_
 _symmetry_equiv_pos_site_id
 _symmetry_equiv_pos_as_xyz
  1  'x, y, z'
loop_
 _atom_site_type_symbol
 _atom_site_label
 _atom_site_symmetry_multiplicity
 _atom_site_fract_x
 _atom_site_fract_y
 _atom_site_fract_z
 _atom_site_occupancy
  Tb  Tb0  1  0.250000  0.680464  0.430464  1
  Tb  Tb1  1  0.750000  0.819474  0.069474  1
  Tb  Tb2  1  0.432956  0.251513  0.679364  1
  Tb  Tb3  1  0.679745  0.430492  0.249677  1
  Tb  Tb4  1  0.067044  0.746408  0.818557  1
  Tb  Tb5  1  0.820255  0.069932  0.750747  1
  Tb  Tb6  1  0.212978  0.214815  0.215358  1
  Tb  Tb7  1  0.500328  0.999598  0.287198  1
  Tb  Tb8  1  0.287022  0.502380  0.001836  1
  Tb  Tb9  1  0.999672  0.286868  0.499270  1
  Al  Al10  1  0.588854  0.589155  0.588669  1
  Al  Al11  1  0.499561  0.998532  0.910029  1
  Al  Al12  1  0.911146  0.499815  0.000301  1
  Al  Al13  1  0.000439  0.910469  0.498970  1
  Ir  Ir14  1  0.250000  0.121583  0.871583  1
  Ru  Ru15  1  0.750000  0.377645  0.627645  1
  Ru  Ru16  1  0.870442  0.249930  0.121114  1
  Ru  Ru17  1  0.122941  0.873146  0.250051  1
  Ru  Ru18  1  0.629557  0.750671  0.379486  1
  Ru  Ru19  1  0.377059  0.627109  0.750205  1
