# generated using pymatgen
data_Er7BeNbPd24
_symmetry_space_group_name_H-M   'P 1'
_cell_length_a   8.26828638
_cell_length_b   8.26828576
_cell_length_c   8.26828600
_cell_angle_alpha   89.96686966
_cell_angle_beta   90.03312341
_cell_angle_gamma   90.03312177
_symmetry_Int_Tables_number   1
_chemical_formula_structural   Er7BeNbPd24
_chemical_formula_sum   'Er7 Be1 Nb1 Pd24'
_cell_volume   565.25740613
_cell_formula_units_Z   1
loop_
 _symmetry_equiv_pos_site_id
 _symmetry_equiv_pos_as_xyz
  1  'x, y, z'
loop_
 _atom_site_type_symbol
 _atom_site_label
 _atom_site_symmetry_multiplicity
 _atom_site_fract_x
 _atom_site_fract_y
 _atom_site_fract_z
 _atom_site_occupancy
  Er  Er0  1  0.250606  0.251707  0.251707  1
  Er  Er1  1  0.748534  0.749096  0.749096  1
  Er  Er2  1  0.748293  0.749394  0.251707  1
  Er  Er3  1  0.748293  0.251707  0.749394  1
  Er  Er4  1  0.250904  0.251466  0.749096  1
  Er  Er5  1  0.250904  0.749096  0.251466  1
  Er  Er6  1  0.252030  0.747970  0.747970  1
  Be  Be7  1  0.003610  0.996390  0.996390  1
  Nb  Nb8  1  0.745212  0.254788  0.254788  1
  Pd  Pd9  1  0.253770  0.497968  0.001378  1
  Pd  Pd10  1  0.745867  0.493905  0.007727  1
  Pd  Pd11  1  0.992273  0.254133  0.493905  1
  Pd  Pd12  1  0.506095  0.254133  0.007727  1
  Pd  Pd13  1  0.998622  0.746230  0.497968  1
  Pd  Pd14  1  0.502032  0.746230  0.001378  1
  Pd  Pd15  1  0.506095  0.007727  0.254133  1
  Pd  Pd16  1  0.253770  0.001378  0.497968  1
  Pd  Pd17  1  0.502032  0.001378  0.746230  1
  Pd  Pd18  1  0.745867  0.007727  0.493905  1
  Pd  Pd19  1  0.992273  0.493905  0.254133  1
  Pd  Pd20  1  0.998622  0.497968  0.746230  1
  Pd  Pd21  1  0.250544  0.498753  0.498753  1
  Pd  Pd22  1  0.748121  0.494375  0.494375  1
  Pd  Pd23  1  0.505625  0.251879  0.494375  1
  Pd  Pd24  1  0.501247  0.749456  0.498753  1
  Pd  Pd25  1  0.505625  0.494375  0.251879  1
  Pd  Pd26  1  0.501247  0.498753  0.749456  1
  Pd  Pd27  1  0.270910  0.000667  0.000667  1
  Pd  Pd28  1  0.735369  0.006529  0.006529  1
  Pd  Pd29  1  0.993471  0.264631  0.006529  1
  Pd  Pd30  1  0.999333  0.729090  0.000667  1
  Pd  Pd31  1  0.993471  0.006529  0.264631  1
  Pd  Pd32  1  0.999333  0.000667  0.729090  1
