# generated using pymatgen
data_KMg2Zn2P3
_symmetry_space_group_name_H-M   'P 1'
_cell_length_a   12.40180744
_cell_length_b   12.40180754
_cell_length_c   12.40180768
_cell_angle_alpha   18.98154522
_cell_angle_beta   18.98154671
_cell_angle_gamma   18.98154196
_symmetry_Int_Tables_number   1
_chemical_formula_structural   KMg2Zn2P3
_chemical_formula_sum   'K1 Mg2 Zn2 P3'
_cell_volume   176.36387799
_cell_formula_units_Z   1
loop_
 _symmetry_equiv_pos_site_id
 _symmetry_equiv_pos_as_xyz
  1  'x, y, z'
loop_
 _atom_site_type_symbol
 _atom_site_label
 _atom_site_symmetry_multiplicity
 _atom_site_fract_x
 _atom_site_fract_y
 _atom_site_fract_z
 _atom_site_occupancy
  K  K0  1  0.500000  0.500000  0.500000  1
  Mg  Mg1  1  0.697937  0.697937  0.697937  1
  Mg  Mg2  1  0.302063  0.302063  0.302063  1
  Zn  Zn3  1  0.909105  0.909105  0.909105  1
  Zn  Zn4  1  0.090895  0.090895  0.090895  1
  P  P5  1  0.767214  0.767214  0.767214  1
  P  P6  1  0.232786  0.232786  0.232786  1
  P  P7  1  0.000000  0.000000  0.000000  1
