# generated using pymatgen
data_Pr5Lu11(ScSb3)4
_symmetry_space_group_name_H-M   'P 1'
_cell_length_a   8.07596801
_cell_length_b   9.31923500
_cell_length_c   11.87700000
_cell_angle_alpha   90.00000000
_cell_angle_beta   89.99666554
_cell_angle_gamma   90.00000000
_symmetry_Int_Tables_number   1
_chemical_formula_structural   Pr5Lu11(ScSb3)4
_chemical_formula_sum   'Pr5 Lu11 Sc4 Sb12'
_cell_volume   893.88491697
_cell_formula_units_Z   1
loop_
 _symmetry_equiv_pos_site_id
 _symmetry_equiv_pos_as_xyz
  1  'x, y, z'
loop_
 _atom_site_type_symbol
 _atom_site_label
 _atom_site_symmetry_multiplicity
 _atom_site_fract_x
 _atom_site_fract_y
 _atom_site_fract_z
 _atom_site_occupancy
  Pr  Pr0  1  0.184413  0.750000  0.723560  1
  Pr  Pr1  1  0.683033  0.750000  0.778852  1
  Pr  Pr2  1  0.816978  0.250000  0.277995  1
  Pr  Pr3  1  0.317964  0.250000  0.221879  1
  Pr  Pr4  1  0.854898  0.750000  0.283807  1
  Lu  Lu5  1  0.196678  0.563097  0.440377  1
  Lu  Lu6  1  0.695911  0.937878  0.058829  1
  Lu  Lu7  1  0.803736  0.062932  0.561229  1
  Lu  Lu8  1  0.303908  0.436890  0.938292  1
  Lu  Lu9  1  0.803736  0.437068  0.561229  1
  Lu  Lu10  1  0.303908  0.063110  0.938292  1
  Lu  Lu11  1  0.196678  0.936903  0.440377  1
  Lu  Lu12  1  0.695911  0.562122  0.058829  1
  Lu  Lu13  1  0.353807  0.750000  0.217757  1
  Lu  Lu14  1  0.145334  0.250000  0.717592  1
  Lu  Lu15  1  0.644609  0.250000  0.782015  1
  Sc  Sc16  1  0.028307  0.750000  0.987368  1
  Sc  Sc17  1  0.527868  0.750000  0.510842  1
  Sc  Sc18  1  0.973092  0.250000  0.009167  1
  Sc  Sc19  1  0.472044  0.250000  0.490406  1
  Sb  Sb20  1  0.934944  0.488539  0.834287  1
  Sb  Sb21  1  0.434738  0.010973  0.666002  1
  Sb  Sb22  1  0.068812  0.993858  0.160828  1
  Sb  Sb23  1  0.560537  0.508134  0.335116  1
  Sb  Sb24  1  0.068812  0.506142  0.160828  1
  Sb  Sb25  1  0.560537  0.991866  0.335116  1
  Sb  Sb26  1  0.934944  0.011461  0.834287  1
  Sb  Sb27  1  0.434738  0.489027  0.666002  1
  Sb  Sb28  1  0.904620  0.750000  0.542079  1
  Sb  Sb29  1  0.403680  0.750000  0.967000  1
  Sb  Sb30  1  0.095304  0.250000  0.466640  1
  Sb  Sb31  1  0.595524  0.250000  0.033124  1
