# generated using pymatgen
data_DyErLu3Pt4
_symmetry_space_group_name_H-M   'P 1'
_cell_length_a   7.39238600
_cell_length_b   7.47225900
_cell_length_c   14.50838100
_cell_angle_alpha   90.00000000
_cell_angle_beta   90.00000000
_cell_angle_gamma   90.00000000
_symmetry_Int_Tables_number   1
_chemical_formula_structural   DyErLu3Pt4
_chemical_formula_sum   'Dy4 Er4 Lu12 Pt16'
_cell_volume   801.41137908
_cell_formula_units_Z   4
loop_
 _symmetry_equiv_pos_site_id
 _symmetry_equiv_pos_as_xyz
  1  'x, y, z'
loop_
 _atom_site_type_symbol
 _atom_site_label
 _atom_site_symmetry_multiplicity
 _atom_site_fract_x
 _atom_site_fract_y
 _atom_site_fract_z
 _atom_site_occupancy
  Dy  Dy0  1  0.500361  0.679195  0.592288  1
  Dy  Dy1  1  0.000361  0.820805  0.907712  1
  Dy  Dy2  1  0.499639  0.320805  0.092288  1
  Dy  Dy3  1  0.999639  0.179195  0.407712  1
  Er  Er4  1  0.499428  0.320590  0.407611  1
  Er  Er5  1  0.999428  0.179410  0.092389  1
  Er  Er6  1  0.500572  0.679410  0.907611  1
  Er  Er7  1  0.000572  0.820590  0.592389  1
  Lu  Lu8  1  0.656727  0.167437  0.622813  1
  Lu  Lu9  1  0.156727  0.332563  0.877187  1
  Lu  Lu10  1  0.343273  0.832563  0.122813  1
  Lu  Lu11  1  0.843273  0.667437  0.377187  1
  Lu  Lu12  1  0.343263  0.832710  0.377064  1
  Lu  Lu13  1  0.843263  0.667290  0.122936  1
  Lu  Lu14  1  0.656737  0.167290  0.877064  1
  Lu  Lu15  1  0.156737  0.332710  0.622936  1
  Lu  Lu16  1  0.819382  0.509788  0.750003  1
  Lu  Lu17  1  0.319382  0.990212  0.749997  1
  Lu  Lu18  1  0.180618  0.490212  0.250003  1
  Lu  Lu19  1  0.680618  0.009788  0.249997  1
  Pt  Pt20  1  0.683025  0.965561  0.458461  1
  Pt  Pt21  1  0.183025  0.534439  0.041539  1
  Pt  Pt22  1  0.316975  0.034439  0.958461  1
  Pt  Pt23  1  0.816975  0.465561  0.541539  1
  Pt  Pt24  1  0.316461  0.034555  0.541591  1
  Pt  Pt25  1  0.816461  0.465445  0.958409  1
  Pt  Pt26  1  0.683539  0.965445  0.041591  1
  Pt  Pt27  1  0.183539  0.534555  0.458409  1
  Pt  Pt28  1  0.454876  0.385090  0.750171  1
  Pt  Pt29  1  0.954876  0.114910  0.749829  1
  Pt  Pt30  1  0.545124  0.614910  0.250171  1
  Pt  Pt31  1  0.045124  0.885090  0.249829  1
  Pt  Pt32  1  0.682049  0.856520  0.750178  1
  Pt  Pt33  1  0.182049  0.643480  0.749822  1
  Pt  Pt34  1  0.317951  0.143480  0.250178  1
  Pt  Pt35  1  0.817951  0.356520  0.249822  1
