# generated using pymatgen
data_NdLu5Bi2Mo
_symmetry_space_group_name_H-M   'P 1'
_cell_length_a   8.15792000
_cell_length_b   8.19016721
_cell_length_c   4.36049400
_cell_angle_alpha   90.00000000
_cell_angle_beta   90.00000000
_cell_angle_gamma   119.86983210
_symmetry_Int_Tables_number   1
_chemical_formula_structural   NdLu5Bi2Mo
_chemical_formula_sum   'Nd1 Lu5 Bi2 Mo1'
_cell_volume   252.64266165
_cell_formula_units_Z   1
loop_
 _symmetry_equiv_pos_site_id
 _symmetry_equiv_pos_as_xyz
  1  'x, y, z'
loop_
 _atom_site_type_symbol
 _atom_site_label
 _atom_site_symmetry_multiplicity
 _atom_site_fract_x
 _atom_site_fract_y
 _atom_site_fract_z
 _atom_site_occupancy
  Nd  Nd0  1  0.604755  0.000000  0.500000  1
  Lu  Lu1  1  0.383870  0.384578  0.500000  1
  Lu  Lu2  1  0.999292  0.615422  0.500000  1
  Lu  Lu3  1  0.002000  0.232252  0.000000  1
  Lu  Lu4  1  0.769748  0.767748  0.000000  1
  Lu  Lu5  1  0.235742  0.000000  0.000000  1
  Bi  Bi6  1  0.669946  0.341982  0.000000  1
  Bi  Bi7  1  0.327963  0.658018  0.000000  1
  Mo  Mo8  1  0.006685  0.000000  0.500000  1
