# generated using pymatgen
data_Dy3Y(ScSb5)4
_symmetry_space_group_name_H-M   'P 1'
_cell_length_a   4.20653500
_cell_length_b   13.06733731
_cell_length_c   14.24234017
_cell_angle_alpha   78.72399173
_cell_angle_beta   90.00000000
_cell_angle_gamma   90.00000000
_symmetry_Int_Tables_number   1
_chemical_formula_structural   Dy3Y(ScSb5)4
_chemical_formula_sum   'Dy3 Y1 Sc4 Sb20'
_cell_volume   767.76381930
_cell_formula_units_Z   1
loop_
 _symmetry_equiv_pos_site_id
 _symmetry_equiv_pos_as_xyz
  1  'x, y, z'
loop_
 _atom_site_type_symbol
 _atom_site_label
 _atom_site_symmetry_multiplicity
 _atom_site_fract_x
 _atom_site_fract_y
 _atom_site_fract_z
 _atom_site_occupancy
  Dy  Dy0  1  0.750000  0.330447  0.423897  1
  Dy  Dy1  1  0.250000  0.953412  0.354556  1
  Dy  Dy2  1  0.750000  0.046656  0.645435  1
  Y  Y3  1  0.250000  0.669592  0.576287  1
  Sc  Sc4  1  0.250000  0.397111  0.772873  1
  Sc  Sc5  1  0.750000  0.602880  0.227129  1
  Sc  Sc6  1  0.250000  0.657083  0.858655  1
  Sc  Sc7  1  0.750000  0.342872  0.141279  1
  Sb  Sb8  1  0.250000  0.148167  0.780620  1
  Sb  Sb9  1  0.750000  0.851851  0.219333  1
  Sb  Sb10  1  0.250000  0.142763  0.482812  1
  Sb  Sb11  1  0.750000  0.857803  0.517016  1
  Sb  Sb12  1  0.250000  0.162998  0.160469  1
  Sb  Sb13  1  0.750000  0.836979  0.839546  1
  Sb  Sb14  1  0.250000  0.422013  0.975009  1
  Sb  Sb15  1  0.750000  0.577942  0.025068  1
  Sb  Sb16  1  0.750000  0.028516  0.913476  1
  Sb  Sb17  1  0.250000  0.971535  0.086518  1
  Sb  Sb18  1  0.750000  0.142850  0.315334  1
  Sb  Sb19  1  0.250000  0.857374  0.684763  1
  Sb  Sb20  1  0.750000  0.280232  0.936525  1
  Sb  Sb21  1  0.250000  0.719763  0.063480  1
  Sb  Sb22  1  0.750000  0.289424  0.659207  1
  Sb  Sb23  1  0.250000  0.710563  0.340592  1
  Sb  Sb24  1  0.750000  0.572904  0.742184  1
  Sb  Sb25  1  0.250000  0.426744  0.258319  1
  Sb  Sb26  1  0.750000  0.570047  0.443376  1
  Sb  Sb27  1  0.250000  0.429479  0.556246  1
