# generated using pymatgen
data_Zr2As3PO14
_symmetry_space_group_name_H-M   'P 1'
_cell_length_a   5.58196782
_cell_length_b   7.15787287
_cell_length_c   8.89067173
_cell_angle_alpha   70.63130900
_cell_angle_beta   89.14472768
_cell_angle_gamma   89.04151861
_symmetry_Int_Tables_number   1
_chemical_formula_structural   Zr2As3PO14
_chemical_formula_sum   'Zr2 As3 P1 O14'
_cell_volume   335.05906209
_cell_formula_units_Z   1
loop_
 _symmetry_equiv_pos_site_id
 _symmetry_equiv_pos_as_xyz
  1  'x, y, z'
loop_
 _atom_site_type_symbol
 _atom_site_label
 _atom_site_symmetry_multiplicity
 _atom_site_fract_x
 _atom_site_fract_y
 _atom_site_fract_z
 _atom_site_occupancy
  Zr  Zr0  1  0.234606  0.195236  0.730555  1
  Zr  Zr1  1  0.762845  0.797858  0.265065  1
  As  As2  1  0.247303  0.113332  0.163392  1
  As  As3  1  0.283065  0.456777  0.311923  1
  As  As4  1  0.726066  0.548517  0.686645  1
  P  P5  1  0.741962  0.883679  0.839763  1
  O  O6  1  0.201417  0.272200  0.480122  1
  O  O7  1  0.986712  0.962664  0.767804  1
  O  O8  1  0.082551  0.646042  0.251795  1
  O  O9  1  0.293837  0.362373  0.150685  1
  O  O10  1  0.282597  0.125852  0.972059  1
  O  O11  1  0.459960  0.967399  0.281468  1
  O  O12  1  0.451942  0.450372  0.687066  1
  O  O13  1  0.565139  0.536720  0.316979  1
  O  O14  1  0.535135  0.008583  0.742790  1
  O  O15  1  0.723524  0.858933  0.017456  1
  O  O16  1  0.714838  0.660558  0.838541  1
  O  O17  1  0.941001  0.371632  0.750378  1
  O  O18  1  0.964596  0.054536  0.232053  1
  O  O19  1  0.800906  0.726740  0.513460  1
