# generated using pymatgen
data_Bi4F15
_symmetry_space_group_name_H-M   'P 1'
_cell_length_a   8.65654538
_cell_length_b   8.65654581
_cell_length_c   8.65708887
_cell_angle_alpha   79.68638131
_cell_angle_beta   79.68638336
_cell_angle_gamma   100.28007588
_symmetry_Int_Tables_number   1
_chemical_formula_structural   Bi4F15
_chemical_formula_sum   'Bi8 F30'
_cell_volume   612.90111439
_cell_formula_units_Z   2
loop_
 _symmetry_equiv_pos_site_id
 _symmetry_equiv_pos_as_xyz
  1  'x, y, z'
loop_
 _atom_site_type_symbol
 _atom_site_label
 _atom_site_symmetry_multiplicity
 _atom_site_fract_x
 _atom_site_fract_y
 _atom_site_fract_z
 _atom_site_occupancy
  Bi  Bi0  1  0.750217  0.249783  0.250000  1
  Bi  Bi1  1  0.249783  0.750217  0.750000  1
  Bi  Bi2  1  0.749611  0.672360  0.672421  1
  Bi  Bi3  1  0.327640  0.250389  0.827579  1
  Bi  Bi4  1  0.250389  0.327640  0.327579  1
  Bi  Bi5  1  0.672360  0.749611  0.172421  1
  Bi  Bi6  1  0.172497  0.827503  0.250000  1
  Bi  Bi7  1  0.827503  0.172497  0.750000  1
  F  F8  1  0.473131  0.526869  0.250000  1
  F  F9  1  0.750602  0.972482  0.972112  1
  F  F10  1  0.027518  0.249398  0.527888  1
  F  F11  1  0.249398  0.027518  0.027888  1
  F  F12  1  0.972482  0.750602  0.472112  1
  F  F13  1  0.526869  0.473131  0.750000  1
  F  F14  1  0.211560  0.503991  0.772250  1
  F  F15  1  0.229347  0.712861  0.995895  1
  F  F16  1  0.003932  0.728831  0.787275  1
  F  F17  1  0.728831  0.003932  0.287275  1
  F  F18  1  0.712861  0.229347  0.495895  1
  F  F19  1  0.503991  0.211560  0.272250  1
  F  F20  1  0.788441  0.496009  0.227750  1
  F  F21  1  0.770653  0.287139  0.004105  1
  F  F22  1  0.996068  0.271169  0.212725  1
  F  F23  1  0.271169  0.996068  0.712725  1
  F  F24  1  0.287139  0.770653  0.504105  1
  F  F25  1  0.496009  0.788440  0.727750  1
  F  F26  1  0.554289  0.155026  0.809710  1
  F  F27  1  0.191292  0.053571  0.346349  1
  F  F28  1  0.653882  0.689083  0.446105  1
  F  F29  1  0.689083  0.653882  0.946105  1
  F  F30  1  0.053571  0.191292  0.846349  1
  F  F31  1  0.155026  0.554289  0.309710  1
  F  F32  1  0.445711  0.844974  0.190290  1
  F  F33  1  0.808708  0.946429  0.653651  1
  F  F34  1  0.346118  0.310917  0.553895  1
  F  F35  1  0.310917  0.346118  0.053895  1
  F  F36  1  0.946429  0.808708  0.153651  1
  F  F37  1  0.844974  0.445711  0.690290  1
