# generated using pymatgen
data_Nd6Cd21Ag2As
_symmetry_space_group_name_H-M   'P 1'
_cell_length_a   10.04649758
_cell_length_b   10.04335575
_cell_length_c   10.04335549
_cell_angle_alpha   60.02069072
_cell_angle_beta   59.98965110
_cell_angle_gamma   59.98965052
_symmetry_Int_Tables_number   1
_chemical_formula_structural   Nd6Cd21Ag2As
_chemical_formula_sum   'Nd6 Cd21 Ag2 As1'
_cell_volume   716.56774858
_cell_formula_units_Z   1
loop_
 _symmetry_equiv_pos_site_id
 _symmetry_equiv_pos_as_xyz
  1  'x, y, z'
loop_
 _atom_site_type_symbol
 _atom_site_label
 _atom_site_symmetry_multiplicity
 _atom_site_fract_x
 _atom_site_fract_y
 _atom_site_fract_z
 _atom_site_occupancy
  Nd  Nd0  1  0.791733  0.791733  0.208267  1
  Nd  Nd1  1  0.208267  0.791733  0.208267  1
  Nd  Nd2  1  0.791298  0.208702  0.208702  1
  Nd  Nd3  1  0.208267  0.208267  0.791733  1
  Nd  Nd4  1  0.791733  0.208267  0.791733  1
  Nd  Nd5  1  0.208702  0.791298  0.791298  1
  Cd  Cd6  1  0.835946  0.829621  0.498488  1
  Cd  Cd7  1  0.835946  0.498488  0.829621  1
  Cd  Cd8  1  0.498488  0.835946  0.835946  1
  Cd  Cd9  1  0.829621  0.835946  0.835946  1
  Cd  Cd10  1  0.164054  0.170379  0.501512  1
  Cd  Cd11  1  0.164054  0.501512  0.170379  1
  Cd  Cd12  1  0.501512  0.164054  0.164054  1
  Cd  Cd13  1  0.170379  0.164054  0.164054  1
  Cd  Cd14  1  0.619600  0.626550  0.134251  1
  Cd  Cd15  1  0.619600  0.134251  0.626550  1
  Cd  Cd16  1  0.134251  0.619600  0.619600  1
  Cd  Cd17  1  0.626550  0.619600  0.619600  1
  Cd  Cd18  1  0.380400  0.373450  0.865749  1
  Cd  Cd19  1  0.380400  0.865749  0.373450  1
  Cd  Cd20  1  0.865749  0.380400  0.380400  1
  Cd  Cd21  1  0.373450  0.380400  0.380400  1
  Cd  Cd22  1  0.000000  0.000000  0.500000  1
  Cd  Cd23  1  0.500000  0.000000  0.500000  1
  Cd  Cd24  1  0.500000  0.500000  0.000000  1
  Cd  Cd25  1  0.000000  0.500000  0.000000  1
  Cd  Cd26  1  0.500000  0.500000  0.500000  1
  Ag  Ag27  1  0.000000  0.500000  0.500000  1
  Ag  Ag28  1  0.500000  0.000000  0.000000  1
  As  As29  1  0.000000  0.000000  0.000000  1
