# generated using pymatgen
data_LiTb6Ho10Cd3Pd4
_symmetry_space_group_name_H-M   'P 1'
_cell_length_a   9.68801471
_cell_length_b   9.68801413
_cell_length_c   9.68801454
_cell_angle_alpha   59.90836145
_cell_angle_beta   59.90836230
_cell_angle_gamma   59.90836126
_symmetry_Int_Tables_number   1
_chemical_formula_structural   LiTb6Ho10Cd3Pd4
_chemical_formula_sum   'Li1 Tb6 Ho10 Cd3 Pd4'
_cell_volume   641.63132464
_cell_formula_units_Z   1
loop_
 _symmetry_equiv_pos_site_id
 _symmetry_equiv_pos_as_xyz
  1  'x, y, z'
loop_
 _atom_site_type_symbol
 _atom_site_label
 _atom_site_symmetry_multiplicity
 _atom_site_fract_x
 _atom_site_fract_y
 _atom_site_fract_z
 _atom_site_occupancy
  Li  Li0  1  0.572808  0.572808  0.572808  1
  Tb  Tb1  1  0.934322  0.566239  0.566239  1
  Tb  Tb2  1  0.564565  0.935290  0.935290  1
  Tb  Tb3  1  0.566239  0.934322  0.566239  1
  Tb  Tb4  1  0.935290  0.564565  0.935290  1
  Tb  Tb5  1  0.566239  0.566239  0.934322  1
  Tb  Tb6  1  0.935290  0.935290  0.564565  1
  Ho  Ho7  1  0.351549  0.351549  0.351549  1
  Ho  Ho8  1  0.353470  0.353470  0.940804  1
  Ho  Ho9  1  0.353470  0.940804  0.353470  1
  Ho  Ho10  1  0.940804  0.353470  0.353470  1
  Ho  Ho11  1  0.810718  0.191241  0.191241  1
  Ho  Ho12  1  0.187155  0.813651  0.813651  1
  Ho  Ho13  1  0.191241  0.810718  0.191241  1
  Ho  Ho14  1  0.813651  0.187155  0.813651  1
  Ho  Ho15  1  0.191241  0.191241  0.810718  1
  Ho  Ho16  1  0.813651  0.813651  0.187155  1
  Cd  Cd17  1  0.581850  0.581850  0.254216  1
  Cd  Cd18  1  0.581850  0.254216  0.581850  1
  Cd  Cd19  1  0.254216  0.581850  0.581850  1
  Pd  Pd20  1  0.144964  0.144964  0.144964  1
  Pd  Pd21  1  0.143559  0.143559  0.568300  1
  Pd  Pd22  1  0.143559  0.568300  0.143559  1
  Pd  Pd23  1  0.568300  0.143559  0.143559  1
