# generated using pymatgen
data_TbEr9(GaSb)3
_symmetry_space_group_name_H-M   'P 1'
_cell_length_a   8.71003502
_cell_length_b   8.72037489
_cell_length_c   6.42902000
_cell_angle_alpha   90.00000000
_cell_angle_beta   90.00000000
_cell_angle_gamma   120.01608451
_symmetry_Int_Tables_number   1
_chemical_formula_structural   TbEr9(GaSb)3
_chemical_formula_sum   'Tb1 Er9 Ga3 Sb3'
_cell_volume   422.82441097
_cell_formula_units_Z   1
loop_
 _symmetry_equiv_pos_site_id
 _symmetry_equiv_pos_as_xyz
  1  'x, y, z'
loop_
 _atom_site_type_symbol
 _atom_site_label
 _atom_site_symmetry_multiplicity
 _atom_site_fract_x
 _atom_site_fract_y
 _atom_site_fract_z
 _atom_site_occupancy
  Tb  Tb0  1  0.241918  0.230610  0.750000  1
  Er  Er1  1  0.011523  0.768765  0.750000  1
  Er  Er2  1  0.012442  0.248403  0.250000  1
  Er  Er3  1  0.764800  0.752009  0.250000  1
  Er  Er4  1  0.754901  0.000054  0.750000  1
  Er  Er5  1  0.234955  0.999581  0.250000  1
  Er  Er6  1  0.326951  0.667046  0.496792  1
  Er  Er7  1  0.660255  0.333305  0.003368  1
  Er  Er8  1  0.660255  0.333305  0.496632  1
  Er  Er9  1  0.326951  0.667046  0.003208  1
  Ga  Ga10  1  0.398362  0.999258  0.750000  1
  Ga  Ga11  1  0.395756  0.396846  0.250000  1
  Ga  Ga12  1  0.998575  0.602914  0.250000  1
  Sb  Sb13  1  0.996580  0.392808  0.750000  1
  Sb  Sb14  1  0.605520  0.608073  0.750000  1
  Sb  Sb15  1  0.610256  0.999977  0.250000  1
