# generated using pymatgen
data_Zr2Tc5(PRh)7
_symmetry_space_group_name_H-M   'P 1'
_cell_length_a   3.90056018
_cell_length_b   9.42041438
_cell_length_c   9.43120570
_cell_angle_alpha   119.50982819
_cell_angle_beta   90.00796561
_cell_angle_gamma   90.12806546
_symmetry_Int_Tables_number   1
_chemical_formula_structural   Zr2Tc5(PRh)7
_chemical_formula_sum   'Zr2 Tc5 P7 Rh7'
_cell_volume   301.59025241
_cell_formula_units_Z   1
loop_
 _symmetry_equiv_pos_site_id
 _symmetry_equiv_pos_as_xyz
  1  'x, y, z'
loop_
 _atom_site_type_symbol
 _atom_site_label
 _atom_site_symmetry_multiplicity
 _atom_site_fract_x
 _atom_site_fract_y
 _atom_site_fract_z
 _atom_site_occupancy
  Zr  Zr0  1  0.261909  0.671251  0.335446  1
  Zr  Zr1  1  0.761891  0.332240  0.667328  1
  Tc  Tc2  1  0.761878  0.094977  0.864952  1
  Tc  Tc3  1  0.761876  0.131995  0.231194  1
  Tc  Tc4  1  0.761888  0.770880  0.900440  1
  Tc  Tc5  1  0.261898  0.882554  0.159837  1
  Tc  Tc6  1  0.261899  0.840290  0.722102  1
  P  P7  1  0.261987  0.997698  0.997234  1
  P  P8  1  0.761884  0.878112  0.595719  1
  P  P9  1  0.761840  0.404580  0.285922  1
  P  P10  1  0.761911  0.717763  0.121414  1
  P  P11  1  0.261924  0.118471  0.408903  1
  P  P12  1  0.261783  0.589447  0.707449  1
  P  P13  1  0.261839  0.291630  0.880856  1
  Rh  Rh14  1  0.261994  0.275662  0.117527  1
  Rh  Rh15  1  0.761957  0.609874  0.550173  1
  Rh  Rh16  1  0.761890  0.449593  0.061784  1
  Rh  Rh17  1  0.761900  0.940165  0.390550  1
  Rh  Rh18  1  0.262067  0.373279  0.445179  1
  Rh  Rh19  1  0.261911  0.555125  0.927317  1
  Rh  Rh20  1  0.261875  0.074412  0.628674  1
