# generated using pymatgen
data_Hf3ZrCo4Si3Ge
_symmetry_space_group_name_H-M   'P 1'
_cell_length_a   3.85440100
_cell_length_b   6.42956630
_cell_length_c   7.12573306
_cell_angle_alpha   90.20118112
_cell_angle_beta   90.00000000
_cell_angle_gamma   90.00000000
_symmetry_Int_Tables_number   1
_chemical_formula_structural   Hf3ZrCo4Si3Ge
_chemical_formula_sum   'Hf3 Zr1 Co4 Si3 Ge1'
_cell_volume   176.58973126
_cell_formula_units_Z   1
loop_
 _symmetry_equiv_pos_site_id
 _symmetry_equiv_pos_as_xyz
  1  'x, y, z'
loop_
 _atom_site_type_symbol
 _atom_site_label
 _atom_site_symmetry_multiplicity
 _atom_site_fract_x
 _atom_site_fract_y
 _atom_site_fract_z
 _atom_site_occupancy
  Hf  Hf0  1  0.250000  0.006812  0.303750  1
  Hf  Hf1  1  0.250000  0.507790  0.192997  1
  Hf  Hf2  1  0.750000  0.494701  0.806500  1
  Zr  Zr3  1  0.750000  0.986588  0.694784  1
  Co  Co4  1  0.250000  0.143325  0.941366  1
  Co  Co5  1  0.250000  0.650590  0.567414  1
  Co  Co6  1  0.750000  0.854944  0.070362  1
  Co  Co7  1  0.750000  0.359278  0.421809  1
  Si  Si8  1  0.250000  0.779527  0.896747  1
  Si  Si9  1  0.750000  0.719569  0.391632  1
  Si  Si10  1  0.750000  0.219620  0.105781  1
  Ge  Ge11  1  0.250000  0.277256  0.606859  1
