# generated using pymatgen
data_LaTh2Sb3
_symmetry_space_group_name_H-M   'P 1'
_cell_length_a   4.54667100
_cell_length_b   4.54667111
_cell_length_c   11.10969900
_cell_angle_alpha   90.00000000
_cell_angle_beta   90.00000000
_cell_angle_gamma   119.99999195
_symmetry_Int_Tables_number   1
_chemical_formula_structural   LaTh2Sb3
_chemical_formula_sum   'La1 Th2 Sb3'
_cell_volume   198.89324281
_cell_formula_units_Z   1
loop_
 _symmetry_equiv_pos_site_id
 _symmetry_equiv_pos_as_xyz
  1  'x, y, z'
loop_
 _atom_site_type_symbol
 _atom_site_label
 _atom_site_symmetry_multiplicity
 _atom_site_fract_x
 _atom_site_fract_y
 _atom_site_fract_z
 _atom_site_occupancy
  La  La0  1  0.000000  0.000000  0.000000  1
  Th  Th1  1  0.333333  0.666667  0.664506  1
  Th  Th2  1  0.666667  0.333333  0.335494  1
  Sb  Sb3  1  0.333333  0.666667  0.171243  1
  Sb  Sb4  1  0.666667  0.333333  0.828757  1
  Sb  Sb5  1  0.000000  0.000000  0.500000  1
