# generated using pymatgen
data_Mg4P6IrOsRh5
_symmetry_space_group_name_H-M   'P 1'
_cell_length_a   6.83112899
_cell_length_b   6.83112815
_cell_length_c   6.83112824
_cell_angle_alpha   109.35031806
_cell_angle_beta   109.35031209
_cell_angle_gamma   109.71330761
_symmetry_Int_Tables_number   1
_chemical_formula_structural   Mg4P6IrOsRh5
_chemical_formula_sum   'Mg4 P6 Ir1 Os1 Rh5'
_cell_volume   245.38591235
_cell_formula_units_Z   1
loop_
 _symmetry_equiv_pos_site_id
 _symmetry_equiv_pos_as_xyz
  1  'x, y, z'
loop_
 _atom_site_type_symbol
 _atom_site_label
 _atom_site_symmetry_multiplicity
 _atom_site_fract_x
 _atom_site_fract_y
 _atom_site_fract_z
 _atom_site_occupancy
  Mg  Mg0  1  0.500333  0.499667  0.500000  1
  Mg  Mg1  1  0.999667  0.000333  0.500000  1
  Mg  Mg2  1  0.500333  0.000333  0.000666  1
  Mg  Mg3  1  0.999667  0.499667  0.999334  1
  P  P4  1  0.314545  0.999826  0.314719  1
  P  P5  1  0.685108  0.999826  0.685281  1
  P  P6  1  0.000174  0.685455  0.685281  1
  P  P7  1  0.000174  0.314892  0.314719  1
  P  P8  1  0.685003  0.685003  0.000000  1
  P  P9  1  0.314997  0.314997  0.000000  1
  Ir  Ir10  1  0.250000  0.750000  0.500000  1
  Os  Os11  1  0.000000  0.000000  0.000000  1
  Rh  Rh12  1  0.250638  0.499558  0.751080  1
  Rh  Rh13  1  0.500442  0.749362  0.248920  1
  Rh  Rh14  1  0.500442  0.251522  0.751080  1
  Rh  Rh15  1  0.750000  0.250000  0.500000  1
  Rh  Rh16  1  0.748478  0.499558  0.248920  1
