# generated using pymatgen
data_CeHo20Bi11
_symmetry_space_group_name_H-M   'P 1'
_cell_length_a   8.21172229
_cell_length_b   9.49189800
_cell_length_c   11.98710400
_cell_angle_alpha   90.00000000
_cell_angle_beta   90.03207472
_cell_angle_gamma   90.00000000
_symmetry_Int_Tables_number   1
_chemical_formula_structural   CeHo20Bi11
_chemical_formula_sum   'Ce1 Ho20 Bi11'
_cell_volume   934.33264126
_cell_formula_units_Z   1
loop_
 _symmetry_equiv_pos_site_id
 _symmetry_equiv_pos_as_xyz
  1  'x, y, z'
loop_
 _atom_site_type_symbol
 _atom_site_label
 _atom_site_symmetry_multiplicity
 _atom_site_fract_x
 _atom_site_fract_y
 _atom_site_fract_z
 _atom_site_occupancy
  Ce  Ce0  1  0.418639  0.750000  0.936913  1
  Ho  Ho1  1  0.357563  0.750000  0.203038  1
  Ho  Ho2  1  0.846702  0.750000  0.281696  1
  Ho  Ho3  1  0.645918  0.250000  0.786924  1
  Ho  Ho4  1  0.149869  0.250000  0.718720  1
  Ho  Ho5  1  0.687694  0.564407  0.055253  1
  Ho  Ho6  1  0.194475  0.936727  0.436283  1
  Ho  Ho7  1  0.303637  0.050642  0.948770  1
  Ho  Ho8  1  0.806809  0.436444  0.560530  1
  Ho  Ho9  1  0.303637  0.449358  0.948770  1
  Ho  Ho10  1  0.806809  0.063556  0.560530  1
  Ho  Ho11  1  0.687694  0.935593  0.055253  1
  Ho  Ho12  1  0.194475  0.563273  0.436283  1
  Ho  Ho13  1  0.476001  0.250000  0.495563  1
  Ho  Ho14  1  0.977627  0.250000  0.011689  1
  Ho  Ho15  1  0.523954  0.750000  0.509423  1
  Ho  Ho16  1  0.031099  0.750000  0.988212  1
  Ho  Ho17  1  0.314058  0.250000  0.223464  1
  Ho  Ho18  1  0.812185  0.250000  0.284662  1
  Ho  Ho19  1  0.699252  0.750000  0.776686  1
  Ho  Ho20  1  0.176257  0.750000  0.716238  1
  Bi  Bi21  1  0.908012  0.750000  0.536824  1
  Bi  Bi22  1  0.591524  0.250000  0.045340  1
  Bi  Bi23  1  0.093454  0.250000  0.459725  1
  Bi  Bi24  1  0.565716  0.997797  0.328189  1
  Bi  Bi25  1  0.063114  0.502425  0.176554  1
  Bi  Bi26  1  0.433807  0.502462  0.682486  1
  Bi  Bi27  1  0.933695  0.008679  0.824377  1
  Bi  Bi28  1  0.433807  0.997538  0.682486  1
  Bi  Bi29  1  0.933695  0.491321  0.824377  1
  Bi  Bi30  1  0.565716  0.502203  0.328189  1
  Bi  Bi31  1  0.063114  0.997575  0.176554  1
