# generated using pymatgen
data_Tm2Ni3P6Rh7
_symmetry_space_group_name_H-M   'P 1'
_cell_length_a   3.82260700
_cell_length_b   10.75682000
_cell_length_c   12.33400900
_cell_angle_alpha   90.00000000
_cell_angle_beta   90.00000000
_cell_angle_gamma   90.00000000
_symmetry_Int_Tables_number   1
_chemical_formula_structural   Tm2Ni3P6Rh7
_chemical_formula_sum   'Tm4 Ni6 P12 Rh14'
_cell_volume   507.16329310
_cell_formula_units_Z   2
loop_
 _symmetry_equiv_pos_site_id
 _symmetry_equiv_pos_as_xyz
  1  'x, y, z'
loop_
 _atom_site_type_symbol
 _atom_site_label
 _atom_site_symmetry_multiplicity
 _atom_site_fract_x
 _atom_site_fract_y
 _atom_site_fract_z
 _atom_site_occupancy
  Tm  Tm0  1  0.250000  0.585936  0.708068  1
  Tm  Tm1  1  0.250000  0.914064  0.208068  1
  Tm  Tm2  1  0.750000  0.413707  0.293667  1
  Tm  Tm3  1  0.750000  0.086293  0.793667  1
  Ni  Ni4  1  0.750000  0.109613  0.303068  1
  Ni  Ni5  1  0.750000  0.390387  0.803068  1
  Ni  Ni6  1  0.250000  0.461979  0.931970  1
  Ni  Ni7  1  0.250000  0.038021  0.431970  1
  Ni  Ni8  1  0.750000  0.532000  0.063233  1
  Ni  Ni9  1  0.750000  0.968000  0.563233  1
  P  P10  1  0.250000  0.415278  0.108766  1
  P  P11  1  0.250000  0.084722  0.608766  1
  P  P12  1  0.750000  0.575684  0.887126  1
  P  P13  1  0.750000  0.924316  0.387126  1
  P  P14  1  0.250000  0.268800  0.874096  1
  P  P15  1  0.250000  0.231200  0.374096  1
  P  P16  1  0.750000  0.727408  0.126674  1
  P  P17  1  0.750000  0.772592  0.626674  1
  P  P18  1  0.250000  0.598376  0.387044  1
  P  P19  1  0.250000  0.901624  0.887044  1
  P  P20  1  0.750000  0.403513  0.617932  1
  P  P21  1  0.750000  0.096487  0.117932  1
  Rh  Rh22  1  0.250000  0.710595  0.981670  1
  Rh  Rh23  1  0.250000  0.789405  0.481670  1
  Rh  Rh24  1  0.750000  0.284564  0.012733  1
  Rh  Rh25  1  0.750000  0.215436  0.512733  1
  Rh  Rh26  1  0.250000  0.409806  0.481676  1
  Rh  Rh27  1  0.250000  0.090194  0.981676  1
  Rh  Rh28  1  0.750000  0.593332  0.521556  1
  Rh  Rh29  1  0.750000  0.906668  0.021556  1
  Rh  Rh30  1  0.250000  0.222109  0.185150  1
  Rh  Rh31  1  0.250000  0.277891  0.685150  1
  Rh  Rh32  1  0.750000  0.771588  0.818391  1
  Rh  Rh33  1  0.750000  0.728412  0.318391  1
  Rh  Rh34  1  0.250000  0.892639  0.697178  1
  Rh  Rh35  1  0.250000  0.607361  0.197178  1
