# generated using pymatgen
data_GdHo4Tm3(MoO6)4
_symmetry_space_group_name_H-M   'P 1'
_cell_length_a   5.39146600
_cell_length_b   7.71248583
_cell_length_c   11.45369100
_cell_angle_alpha   75.54219370
_cell_angle_beta   90.00000000
_cell_angle_gamma   90.00000000
_symmetry_Int_Tables_number   1
_chemical_formula_structural   GdHo4Tm3(MoO6)4
_chemical_formula_sum   'Gd1 Ho4 Tm3 Mo4 O24'
_cell_volume   461.18045135
_cell_formula_units_Z   1
loop_
 _symmetry_equiv_pos_site_id
 _symmetry_equiv_pos_as_xyz
  1  'x, y, z'
loop_
 _atom_site_type_symbol
 _atom_site_label
 _atom_site_symmetry_multiplicity
 _atom_site_fract_x
 _atom_site_fract_y
 _atom_site_fract_z
 _atom_site_occupancy
  Gd  Gd0  1  0.681905  0.500000  0.750000  1
  Ho  Ho1  1  0.184820  0.799381  0.578089  1
  Ho  Ho2  1  0.815969  0.797747  0.079505  1
  Ho  Ho3  1  0.184820  0.200619  0.921911  1
  Ho  Ho4  1  0.815969  0.202253  0.420495  1
  Tm  Tm5  1  0.738245  0.000000  0.750000  1
  Tm  Tm6  1  0.262982  0.000000  0.250000  1
  Tm  Tm7  1  0.319930  0.500000  0.250000  1
  Mo  Mo8  1  0.254077  0.722938  0.887291  1
  Mo  Mo9  1  0.745682  0.721656  0.385428  1
  Mo  Mo10  1  0.254077  0.277062  0.612709  1
  Mo  Mo11  1  0.745682  0.278344  0.114572  1
  O  O12  1  0.034334  0.938834  0.896748  1
  O  O13  1  0.529622  0.847710  0.929282  1
  O  O14  1  0.965022  0.939715  0.394774  1
  O  O15  1  0.464760  0.790616  0.725411  1
  O  O16  1  0.472424  0.848256  0.428969  1
  O  O17  1  0.986452  0.715665  0.769182  1
  O  O18  1  0.532325  0.787254  0.225407  1
  O  O19  1  0.849037  0.635206  0.546151  1
  O  O20  1  0.351077  0.491355  0.887088  1
  O  O21  1  0.017091  0.710260  0.269841  1
  O  O22  1  0.351077  0.508645  0.612912  1
  O  O23  1  0.849037  0.364794  0.953849  1
  O  O24  1  0.154457  0.635910  0.049465  1
  O  O25  1  0.641318  0.491242  0.384885  1
  O  O26  1  0.986452  0.284335  0.730818  1
  O  O27  1  0.641318  0.508758  0.115115  1
  O  O28  1  0.154457  0.364090  0.450535  1
  O  O29  1  0.464760  0.209384  0.774589  1
  O  O30  1  0.017091  0.289740  0.230159  1
  O  O31  1  0.529622  0.152290  0.570718  1
  O  O32  1  0.532325  0.212746  0.274593  1
  O  O33  1  0.034334  0.061166  0.603252  1
  O  O34  1  0.472424  0.151744  0.071031  1
  O  O35  1  0.965022  0.060285  0.105226  1
