# generated using pymatgen
data_Sr2Zr2(Al8Pt3)3
_symmetry_space_group_name_H-M   'P 1'
_cell_length_a   7.53502496
_cell_length_b   7.55168943
_cell_length_c   13.21485691
_cell_angle_alpha   84.56099026
_cell_angle_beta   79.13317039
_cell_angle_gamma   60.00598704
_symmetry_Int_Tables_number   1
_chemical_formula_structural   Sr2Zr2(Al8Pt3)3
_chemical_formula_sum   'Sr2 Zr2 Al24 Pt9'
_cell_volume   639.57222128
_cell_formula_units_Z   1
loop_
 _symmetry_equiv_pos_site_id
 _symmetry_equiv_pos_as_xyz
  1  'x, y, z'
loop_
 _atom_site_type_symbol
 _atom_site_label
 _atom_site_symmetry_multiplicity
 _atom_site_fract_x
 _atom_site_fract_y
 _atom_site_fract_z
 _atom_site_occupancy
  Sr  Sr0  1  0.392980  0.167246  0.809453  1
  Sr  Sr1  1  0.607020  0.832754  0.190547  1
  Zr  Zr2  1  0.732962  0.499260  0.808805  1
  Zr  Zr3  1  0.267038  0.500740  0.191195  1
  Al  Al4  1  0.686301  0.829711  0.944405  1
  Al  Al5  1  0.313699  0.170289  0.055595  1
  Al  Al6  1  0.145805  0.832763  0.561644  1
  Al  Al7  1  0.854195  0.167237  0.438356  1
  Al  Al8  1  0.479396  0.167440  0.558805  1
  Al  Al9  1  0.520604  0.832560  0.441195  1
  Al  Al10  1  0.218322  0.166769  0.329822  1
  Al  Al11  1  0.781678  0.833231  0.670178  1
  Al  Al12  1  0.440298  0.505817  0.669651  1
  Al  Al13  1  0.559702  0.494183  0.330349  1
  Al  Al14  1  0.107355  0.162965  0.668706  1
  Al  Al15  1  0.892645  0.837035  0.331294  1
  Al  Al16  1  0.355413  0.499461  0.946076  1
  Al  Al17  1  0.644587  0.500539  0.053924  1
  Al  Al18  1  0.011170  0.170376  0.954688  1
  Al  Al19  1  0.988830  0.829624  0.045312  1
  Al  Al20  1  0.187851  0.499074  0.440256  1
  Al  Al21  1  0.812149  0.500926  0.559744  1
  Al  Al22  1  0.726764  0.178285  0.184085  1
  Al  Al23  1  0.273236  0.821715  0.815915  1
  Al  Al24  1  0.049335  0.635354  0.814891  1
  Al  Al25  1  0.950665  0.364646  0.185109  1
  Al  Al26  1  0.860075  0.050474  0.815598  1
  Al  Al27  1  0.139925  0.949526  0.184403  1
  Pt  Pt28  1  0.118187  0.494630  0.637239  1
  Pt  Pt29  1  0.881813  0.505370  0.362761  1
  Pt  Pt30  1  0.658787  0.170891  0.000019  1
  Pt  Pt31  1  0.341213  0.829109  0.999981  1
  Pt  Pt32  1  0.538551  0.168054  0.362619  1
  Pt  Pt33  1  0.461449  0.831946  0.637381  1
  Pt  Pt34  1  0.781230  0.175019  0.635812  1
  Pt  Pt35  1  0.218770  0.824981  0.364188  1
  Pt  Pt36  1  0.000000  0.500000  0.000000  1
