# generated using pymatgen
data_Ba4CaSbO7F
_symmetry_space_group_name_H-M   'P 1'
_cell_length_a   7.45836904
_cell_length_b   7.45836807
_cell_length_c   6.06086500
_cell_angle_alpha   90.00000000
_cell_angle_beta   90.00000000
_cell_angle_gamma   132.33593137
_symmetry_Int_Tables_number   1
_chemical_formula_structural   Ba4CaSbO7F
_chemical_formula_sum   'Ba4 Ca1 Sb1 O7 F1'
_cell_volume   249.22377634
_cell_formula_units_Z   1
loop_
 _symmetry_equiv_pos_site_id
 _symmetry_equiv_pos_as_xyz
  1  'x, y, z'
loop_
 _atom_site_type_symbol
 _atom_site_label
 _atom_site_symmetry_multiplicity
 _atom_site_fract_x
 _atom_site_fract_y
 _atom_site_fract_z
 _atom_site_occupancy
  Ba  Ba0  1  0.364035  0.635965  0.000000  1
  Ba  Ba1  1  0.853065  0.146935  0.500000  1
  Ba  Ba2  1  0.141643  0.858357  0.500000  1
  Ba  Ba3  1  0.642271  0.357729  0.000000  1
  Ca  Ca4  1  0.989133  0.010867  0.000000  1
  Sb  Sb5  1  0.501628  0.498372  0.500000  1
  O  O6  1  0.265804  0.260179  0.733175  1
  O  O7  1  0.739821  0.734196  0.266825  1
  O  O8  1  0.739821  0.734196  0.733175  1
  O  O9  1  0.265804  0.260179  0.266825  1
  O  O10  1  0.653286  0.346714  0.500000  1
  O  O11  1  0.348768  0.651232  0.500000  1
  O  O12  1  0.825582  0.174418  0.000000  1
  F  F13  1  0.169338  0.830662  0.000000  1
