# generated using pymatgen
data_TbHo(ZnFe2)2
_symmetry_space_group_name_H-M   'P 1'
_cell_length_a   4.99512000
_cell_length_b   3.95167900
_cell_length_c   6.88805900
_cell_angle_alpha   90.00000000
_cell_angle_beta   90.00000000
_cell_angle_gamma   90.00000000
_symmetry_Int_Tables_number   1
_chemical_formula_structural   TbHo(ZnFe2)2
_chemical_formula_sum   'Tb1 Ho1 Zn2 Fe4'
_cell_volume   135.96415984
_cell_formula_units_Z   1
loop_
 _symmetry_equiv_pos_site_id
 _symmetry_equiv_pos_as_xyz
  1  'x, y, z'
loop_
 _atom_site_type_symbol
 _atom_site_label
 _atom_site_symmetry_multiplicity
 _atom_site_fract_x
 _atom_site_fract_y
 _atom_site_fract_z
 _atom_site_occupancy
  Tb  Tb0  1  0.750001  0.000000  0.187866  1
  Ho  Ho1  1  0.250000  0.000000  0.809857  1
  Zn  Zn2  1  0.250000  0.500001  0.165764  1
  Zn  Zn3  1  0.750001  0.500001  0.833579  1
  Fe  Fe4  1  0.250000  0.000000  0.411204  1
  Fe  Fe5  1  0.000690  0.500001  0.500687  1
  Fe  Fe6  1  0.499309  0.500001  0.500687  1
  Fe  Fe7  1  0.750001  0.000000  0.590357  1
