# generated using pymatgen
data_Ga5Ni7(Mo3N)4
_symmetry_space_group_name_H-M   'P 1'
_cell_length_a   7.91212250
_cell_length_b   7.92831161
_cell_length_c   7.92831100
_cell_angle_alpha   59.99999838
_cell_angle_beta   59.93229031
_cell_angle_gamma   59.93229025
_symmetry_Int_Tables_number   1
_chemical_formula_structural   Ga5Ni7(Mo3N)4
_chemical_formula_sum   'Ga5 Ni7 Mo12 N4'
_cell_volume   351.31294943
_cell_formula_units_Z   1
loop_
 _symmetry_equiv_pos_site_id
 _symmetry_equiv_pos_as_xyz
  1  'x, y, z'
loop_
 _atom_site_type_symbol
 _atom_site_label
 _atom_site_symmetry_multiplicity
 _atom_site_fract_x
 _atom_site_fract_y
 _atom_site_fract_z
 _atom_site_occupancy
  Ga  Ga0  1  0.008368  0.330544  0.330544  1
  Ga  Ga1  1  0.130359  0.116078  0.637485  1
  Ga  Ga2  1  0.130359  0.116078  0.116078  1
  Ga  Ga3  1  0.622571  0.125810  0.125810  1
  Ga  Ga4  1  0.130359  0.637485  0.116078  1
  Ni  Ni5  1  0.913330  0.915916  0.915916  1
  Ni  Ni6  1  0.327892  0.335308  0.001492  1
  Ni  Ni7  1  0.913330  0.915916  0.254839  1
  Ni  Ni8  1  0.262949  0.912350  0.912350  1
  Ni  Ni9  1  0.327892  0.001492  0.335308  1
  Ni  Ni10  1  0.913330  0.254839  0.915916  1
  Ni  Ni11  1  0.327892  0.335308  0.335308  1
  Mo  Mo12  1  0.311953  0.687848  0.687848  1
  Mo  Mo13  1  0.556074  0.555299  0.944313  1
  Mo  Mo14  1  0.311953  0.687848  0.312352  1
  Mo  Mo15  1  0.311953  0.312352  0.687848  1
  Mo  Mo16  1  0.688108  0.310167  0.310167  1
  Mo  Mo17  1  0.940760  0.942461  0.558390  1
  Mo  Mo18  1  0.940760  0.558390  0.942461  1
  Mo  Mo19  1  0.940760  0.558390  0.558390  1
  Mo  Mo20  1  0.556074  0.944313  0.944313  1
  Mo  Mo21  1  0.688108  0.691558  0.310167  1
  Mo  Mo22  1  0.688108  0.310167  0.691558  1
  Mo  Mo23  1  0.556074  0.944313  0.555299  1
  N  N24  1  0.625262  0.123122  0.625808  1
  N  N25  1  0.625262  0.625808  0.123122  1
  N  N26  1  0.124896  0.625035  0.625035  1
  N  N27  1  0.625262  0.625808  0.625808  1
