# generated using pymatgen
data_Sm2ErFe2Co7P6
_symmetry_space_group_name_H-M   'P 1'
_cell_length_a   3.72807600
_cell_length_b   10.60088400
_cell_length_c   12.18885200
_cell_angle_alpha   90.00000000
_cell_angle_beta   90.00000000
_cell_angle_gamma   90.00000000
_symmetry_Int_Tables_number   1
_chemical_formula_structural   Sm2ErFe2Co7P6
_chemical_formula_sum   'Sm4 Er2 Fe4 Co14 P12'
_cell_volume   481.71441587
_cell_formula_units_Z   2
loop_
 _symmetry_equiv_pos_site_id
 _symmetry_equiv_pos_as_xyz
  1  'x, y, z'
loop_
 _atom_site_type_symbol
 _atom_site_label
 _atom_site_symmetry_multiplicity
 _atom_site_fract_x
 _atom_site_fract_y
 _atom_site_fract_z
 _atom_site_occupancy
  Sm  Sm0  1  0.750000  0.250000  0.477420  1
  Sm  Sm1  1  0.250000  0.750000  0.521335  1
  Sm  Sm2  1  0.250000  0.931253  0.796127  1
  Sm  Sm3  1  0.250000  0.568747  0.796127  1
  Er  Er4  1  0.750000  0.069762  0.203586  1
  Er  Er5  1  0.750000  0.430238  0.203586  1
  Fe  Fe6  1  0.250000  0.250000  0.846726  1
  Fe  Fe7  1  0.750000  0.750000  0.154842  1
  Fe  Fe8  1  0.750000  0.250000  0.013544  1
  Fe  Fe9  1  0.250000  0.750000  0.991377  1
  Co  Co10  1  0.250000  0.250000  0.296526  1
  Co  Co11  1  0.750000  0.750000  0.701766  1
  Co  Co12  1  0.250000  0.417420  0.007270  1
  Co  Co13  1  0.250000  0.082580  0.007270  1
  Co  Co14  1  0.750000  0.580848  0.997211  1
  Co  Co15  1  0.750000  0.919152  0.997211  1
  Co  Co16  1  0.250000  0.453542  0.567994  1
  Co  Co17  1  0.250000  0.046458  0.567994  1
  Co  Co18  1  0.750000  0.545470  0.427620  1
  Co  Co19  1  0.750000  0.954530  0.427620  1
  Co  Co20  1  0.250000  0.871290  0.288658  1
  Co  Co21  1  0.250000  0.628710  0.288658  1
  Co  Co22  1  0.750000  0.130232  0.709716  1
  Co  Co23  1  0.750000  0.369768  0.709716  1
  P  P24  1  0.250000  0.250000  0.116158  1
  P  P25  1  0.750000  0.750000  0.888574  1
  P  P26  1  0.250000  0.250000  0.661009  1
  P  P27  1  0.750000  0.750000  0.338790  1
  P  P28  1  0.250000  0.441432  0.380996  1
  P  P29  1  0.250000  0.058568  0.380996  1
  P  P30  1  0.750000  0.557011  0.614198  1
  P  P31  1  0.750000  0.942989  0.614198  1
  P  P32  1  0.250000  0.904199  0.106884  1
  P  P33  1  0.250000  0.595801  0.106884  1
  P  P34  1  0.750000  0.098880  0.895705  1
  P  P35  1  0.750000  0.401120  0.895705  1
