# generated using pymatgen
data_Dy4Tm8Ni4PbAu
_symmetry_space_group_name_H-M   'P 1'
_cell_length_a   8.29325189
_cell_length_b   8.29325209
_cell_length_c   8.29325200
_cell_angle_alpha   112.44568953
_cell_angle_beta   108.99863574
_cell_angle_gamma   107.01648786
_symmetry_Int_Tables_number   1
_chemical_formula_structural   Dy4Tm8Ni4PbAu
_chemical_formula_sum   'Dy4 Tm8 Ni4 Pb1 Au1'
_cell_volume   438.07236812
_cell_formula_units_Z   1
loop_
 _symmetry_equiv_pos_site_id
 _symmetry_equiv_pos_as_xyz
  1  'x, y, z'
loop_
 _atom_site_type_symbol
 _atom_site_label
 _atom_site_symmetry_multiplicity
 _atom_site_fract_x
 _atom_site_fract_y
 _atom_site_fract_z
 _atom_site_occupancy
  Dy  Dy0  1  0.180970  0.204774  0.385745  1
  Dy  Dy1  1  0.819030  0.204774  0.023802  1
  Dy  Dy2  1  0.180970  0.795226  0.976198  1
  Dy  Dy3  1  0.819030  0.795226  0.614255  1
  Tm  Tm4  1  0.018849  0.718927  0.299921  1
  Tm  Tm5  1  0.981151  0.281073  0.700079  1
  Tm  Tm6  1  0.580993  0.281073  0.299921  1
  Tm  Tm7  1  0.419007  0.718927  0.700079  1
  Tm  Tm8  1  0.675875  0.868794  0.192919  1
  Tm  Tm9  1  0.324125  0.517043  0.192919  1
  Tm  Tm10  1  0.324125  0.131206  0.807081  1
  Tm  Tm11  1  0.675875  0.482957  0.807081  1
  Ni  Ni12  1  0.635114  0.500000  0.135114  1
  Ni  Ni13  1  0.364886  0.500000  0.864886  1
  Ni  Ni14  1  0.871500  0.871500  0.000000  1
  Ni  Ni15  1  0.128500  0.128500  0.000000  1
  Pb  Pb16  1  0.500000  0.000000  0.500000  1
  Au  Au17  1  0.000000  0.500000  0.500000  1
