# generated using pymatgen
data_Cs2LiAlBi2
_symmetry_space_group_name_H-M   'P 1'
_cell_length_a   10.27931072
_cell_length_b   10.27930978
_cell_length_c   10.27931146
_cell_angle_alpha   139.03792382
_cell_angle_beta   59.16477522
_cell_angle_gamma   139.23790663
_symmetry_Int_Tables_number   1
_chemical_formula_structural   Cs2LiAlBi2
_chemical_formula_sum   'Cs4 Li2 Al2 Bi4'
_cell_volume   460.40663404
_cell_formula_units_Z   2
loop_
 _symmetry_equiv_pos_site_id
 _symmetry_equiv_pos_as_xyz
  1  'x, y, z'
loop_
 _atom_site_type_symbol
 _atom_site_label
 _atom_site_symmetry_multiplicity
 _atom_site_fract_x
 _atom_site_fract_y
 _atom_site_fract_z
 _atom_site_occupancy
  Cs  Cs0  1  0.832323  0.266136  0.098457  1
  Cs  Cs1  1  0.667679  0.766135  0.433813  1
  Cs  Cs2  1  0.332322  0.233865  0.566186  1
  Cs  Cs3  1  0.167678  0.733864  0.901542  1
  Li  Li4  1  0.750001  0.250000  0.500000  1
  Li  Li5  1  0.250000  0.750000  0.499999  1
  Al  Al6  1  0.250000  0.250000  0.000000  1
  Al  Al7  1  0.750000  0.750000  0.000000  1
  Bi  Bi8  1  0.414756  0.727480  0.142235  1
  Bi  Bi9  1  0.085245  0.227480  0.312724  1
  Bi  Bi10  1  0.914756  0.772520  0.687275  1
  Bi  Bi11  1  0.585245  0.272520  0.857765  1
