# generated using pymatgen
data_Ca3La13(CdTc)4
_symmetry_space_group_name_H-M   'P 1'
_cell_length_a   10.09705377
_cell_length_b   10.09061514
_cell_length_c   10.09705400
_cell_angle_alpha   59.97888945
_cell_angle_beta   59.99999924
_cell_angle_gamma   59.97889160
_symmetry_Int_Tables_number   1
_chemical_formula_structural   Ca3La13(CdTc)4
_chemical_formula_sum   'Ca3 La13 Cd4 Tc4'
_cell_volume   727.19912231
_cell_formula_units_Z   1
loop_
 _symmetry_equiv_pos_site_id
 _symmetry_equiv_pos_as_xyz
  1  'x, y, z'
loop_
 _atom_site_type_symbol
 _atom_site_label
 _atom_site_symmetry_multiplicity
 _atom_site_fract_x
 _atom_site_fract_y
 _atom_site_fract_z
 _atom_site_occupancy
  Ca  Ca0  1  0.941904  0.938769  0.559664  1
  Ca  Ca1  1  0.559664  0.938769  0.559664  1
  Ca  Ca2  1  0.559664  0.938769  0.941904  1
  La  La3  1  0.687099  0.690923  0.310989  1
  La  La4  1  0.154971  0.153881  0.536175  1
  La  La5  1  0.310989  0.690923  0.687099  1
  La  La6  1  0.154971  0.153881  0.154971  1
  La  La7  1  0.536175  0.153881  0.154971  1
  La  La8  1  0.310989  0.690923  0.310989  1
  La  La9  1  0.309948  0.308365  0.690843  1
  La  La10  1  0.690843  0.308365  0.690843  1
  La  La11  1  0.943028  0.558712  0.555232  1
  La  La12  1  0.555232  0.558712  0.943028  1
  La  La13  1  0.155221  0.534335  0.155221  1
  La  La14  1  0.690843  0.308365  0.309948  1
  La  La15  1  0.943028  0.558712  0.943028  1
  Cd  Cd16  1  0.235464  0.921714  0.921411  1
  Cd  Cd17  1  0.921411  0.921714  0.921411  1
  Cd  Cd18  1  0.921411  0.921714  0.235464  1
  Cd  Cd19  1  0.921261  0.236215  0.921261  1
  Tc  Tc20  1  0.891559  0.372936  0.367752  1
  Tc  Tc21  1  0.367752  0.372936  0.891559  1
  Tc  Tc22  1  0.368818  0.893545  0.368818  1
  Tc  Tc23  1  0.367752  0.372936  0.367752  1
