# generated using pymatgen
data_Dy8In2IrPt
_symmetry_space_group_name_H-M   'P 1'
_cell_length_a   9.66941800
_cell_length_b   9.69430769
_cell_length_c   9.69435152
_cell_angle_alpha   60.23787592
_cell_angle_beta   60.08581734
_cell_angle_gamma   60.08603276
_symmetry_Int_Tables_number   1
_chemical_formula_structural   Dy8In2IrPt
_chemical_formula_sum   'Dy16 In4 Ir2 Pt2'
_cell_volume   644.55566237
_cell_formula_units_Z   2
loop_
 _symmetry_equiv_pos_site_id
 _symmetry_equiv_pos_as_xyz
  1  'x, y, z'
loop_
 _atom_site_type_symbol
 _atom_site_label
 _atom_site_symmetry_multiplicity
 _atom_site_fract_x
 _atom_site_fract_y
 _atom_site_fract_z
 _atom_site_occupancy
  Dy  Dy0  1  0.441133  0.436440  0.060949  1
  Dy  Dy1  1  0.650510  0.645409  0.053571  1
  Dy  Dy2  1  0.187627  0.808183  0.194392  1
  Dy  Dy3  1  0.061485  0.436437  0.060947  1
  Dy  Dy4  1  0.191692  0.808308  0.808308  1
  Dy  Dy5  1  0.061784  0.438217  0.438219  1
  Dy  Dy6  1  0.809662  0.190339  0.190343  1
  Dy  Dy7  1  0.654290  0.649604  0.649600  1
  Dy  Dy8  1  0.809796  0.194391  0.808183  1
  Dy  Dy9  1  0.187629  0.194390  0.808184  1
  Dy  Dy10  1  0.046502  0.649604  0.649601  1
  Dy  Dy11  1  0.439232  0.060769  0.060765  1
  Dy  Dy12  1  0.061486  0.060946  0.436439  1
  Dy  Dy13  1  0.650513  0.053568  0.645406  1
  Dy  Dy14  1  0.809796  0.808183  0.194393  1
  Dy  Dy15  1  0.441131  0.060948  0.436441  1
  In  In16  1  0.416598  0.416930  0.416931  1
  In  In17  1  0.416703  0.417460  0.749133  1
  In  In18  1  0.416694  0.749135  0.417457  1
  In  In19  1  0.749546  0.416926  0.416926  1
  Ir  Ir20  1  0.857070  0.425657  0.860208  1
  Ir  Ir21  1  0.857071  0.860207  0.425656  1
  Pt  Pt22  1  0.426850  0.858976  0.858977  1
  Pt  Pt23  1  0.855197  0.858975  0.858975  1
