# generated using pymatgen
data_Hf6Si6Mo3WN2
_symmetry_space_group_name_H-M   'P 1'
_cell_length_a   7.64898500
_cell_length_b   7.64898497
_cell_length_c   5.30649200
_cell_angle_alpha   90.00000000
_cell_angle_beta   90.00000000
_cell_angle_gamma   120.00000445
_symmetry_Int_Tables_number   1
_chemical_formula_structural   Hf6Si6Mo3WN2
_chemical_formula_sum   'Hf6 Si6 Mo3 W1 N2'
_cell_volume   268.87210225
_cell_formula_units_Z   1
loop_
 _symmetry_equiv_pos_site_id
 _symmetry_equiv_pos_as_xyz
  1  'x, y, z'
loop_
 _atom_site_type_symbol
 _atom_site_label
 _atom_site_symmetry_multiplicity
 _atom_site_fract_x
 _atom_site_fract_y
 _atom_site_fract_z
 _atom_site_occupancy
  Hf  Hf0  1  0.235874  0.999443  0.249967  1
  Hf  Hf1  1  0.763569  0.999443  0.750033  1
  Hf  Hf2  1  0.000557  0.236431  0.249967  1
  Hf  Hf3  1  0.000557  0.764126  0.750033  1
  Hf  Hf4  1  0.763569  0.764126  0.249967  1
  Hf  Hf5  1  0.235874  0.236431  0.750033  1
  Si  Si6  1  0.590433  0.000478  0.249985  1
  Si  Si7  1  0.410044  0.000478  0.750015  1
  Si  Si8  1  0.999522  0.589956  0.249985  1
  Si  Si9  1  0.999522  0.409567  0.750015  1
  Si  Si10  1  0.410044  0.409567  0.249985  1
  Si  Si11  1  0.590433  0.589956  0.750015  1
  Mo  Mo12  1  0.666667  0.333333  0.000000  1
  Mo  Mo13  1  0.666667  0.333333  0.500000  1
  Mo  Mo14  1  0.333333  0.666667  0.500000  1
  W  W15  1  0.333333  0.666667  0.000000  1
  N  N16  1  0.000000  0.000000  0.000000  1
  N  N17  1  0.000000  0.000000  0.500000  1
