# generated using pymatgen
data_Sn16OsPd3
_symmetry_space_group_name_H-M   'P 1'
_cell_length_a   12.78525976
_cell_length_b   12.78525983
_cell_length_c   12.77552697
_cell_angle_alpha   150.94341636
_cell_angle_beta   150.94342044
_cell_angle_gamma   41.67312374
_symmetry_Int_Tables_number   1
_chemical_formula_structural   Sn16OsPd3
_chemical_formula_sum   'Sn16 Os1 Pd3'
_cell_volume   491.28351839
_cell_formula_units_Z   1
loop_
 _symmetry_equiv_pos_site_id
 _symmetry_equiv_pos_as_xyz
  1  'x, y, z'
loop_
 _atom_site_type_symbol
 _atom_site_label
 _atom_site_symmetry_multiplicity
 _atom_site_fract_x
 _atom_site_fract_y
 _atom_site_fract_z
 _atom_site_occupancy
  Sn  Sn0  1  0.766524  0.115982  0.008896  1
  Sn  Sn1  1  0.742372  0.392913  0.008896  1
  Sn  Sn2  1  0.509830  0.009812  0.148446  1
  Sn  Sn3  1  0.138616  0.638634  0.148446  1
  Sn  Sn4  1  0.234621  0.242098  0.350496  1
  Sn  Sn5  1  0.615875  0.608398  0.350496  1
  Sn  Sn6  1  0.989394  0.139205  0.500571  1
  Sn  Sn7  1  0.011178  0.861367  0.500571  1
  Sn  Sn8  1  0.638634  0.488822  0.499429  1
  Sn  Sn9  1  0.360795  0.510607  0.499429  1
  Sn  Sn10  1  0.257902  0.265379  0.649505  1
  Sn  Sn11  1  0.891602  0.884125  0.649505  1
  Sn  Sn12  1  0.861365  0.361385  0.851553  1
  Sn  Sn13  1  0.490188  0.990169  0.851553  1
  Sn  Sn14  1  0.384018  0.733476  0.991105  1
  Sn  Sn15  1  0.107087  0.757628  0.991105  1
  Os  Os16  1  0.000000  0.500000  0.500000  1
  Pd  Pd17  1  0.250000  0.250000  0.000000  1
  Pd  Pd18  1  0.750000  0.750000  0.000000  1
  Pd  Pd19  1  0.500000  0.000000  0.500000  1
