# generated using pymatgen
data_Tm4Lu(SiHg)2
_symmetry_space_group_name_H-M   'P 1'
_cell_length_a   8.65085373
_cell_length_b   8.65085423
_cell_length_c   7.44035500
_cell_angle_alpha   90.00000000
_cell_angle_beta   90.00000000
_cell_angle_gamma   129.18575861
_symmetry_Int_Tables_number   1
_chemical_formula_structural   Tm4Lu(SiHg)2
_chemical_formula_sum   'Tm8 Lu2 Si4 Hg4'
_cell_volume   431.58886624
_cell_formula_units_Z   2
loop_
 _symmetry_equiv_pos_site_id
 _symmetry_equiv_pos_as_xyz
  1  'x, y, z'
loop_
 _atom_site_type_symbol
 _atom_site_label
 _atom_site_symmetry_multiplicity
 _atom_site_fract_x
 _atom_site_fract_y
 _atom_site_fract_z
 _atom_site_occupancy
  Tm  Tm0  1  0.552317  0.806916  0.174543  1
  Tm  Tm1  1  0.306916  0.052317  0.325457  1
  Tm  Tm2  1  0.193084  0.447683  0.825457  1
  Tm  Tm3  1  0.947683  0.693084  0.674543  1
  Tm  Tm4  1  0.693084  0.947683  0.674543  1
  Tm  Tm5  1  0.447683  0.193084  0.825457  1
  Tm  Tm6  1  0.806916  0.552317  0.174543  1
  Tm  Tm7  1  0.052317  0.306916  0.325457  1
  Lu  Lu8  1  0.500000  0.500000  0.500000  1
  Lu  Lu9  1  0.000000  0.000000  0.000000  1
  Si  Si10  1  0.622079  0.622079  0.874795  1
  Si  Si11  1  0.122079  0.122079  0.625205  1
  Si  Si12  1  0.877921  0.877921  0.374795  1
  Si  Si13  1  0.377921  0.377921  0.125205  1
  Hg  Hg14  1  0.283165  0.716835  0.500000  1
  Hg  Hg15  1  0.216835  0.783165  0.000000  1
  Hg  Hg16  1  0.716835  0.283165  0.500000  1
  Hg  Hg17  1  0.783165  0.216835  0.000000  1
