# generated using pymatgen
data_Dy2Ga2Co2C
_symmetry_space_group_name_H-M   'P 1'
_cell_length_a   5.74515095
_cell_length_b   5.74515053
_cell_length_c   6.95045393
_cell_angle_alpha   125.87084559
_cell_angle_beta   125.87084441
_cell_angle_gamma   40.13149177
_symmetry_Int_Tables_number   1
_chemical_formula_structural   Dy2Ga2Co2C
_chemical_formula_sum   'Dy2 Ga2 Co2 C1'
_cell_volume   115.56661983
_cell_formula_units_Z   1
loop_
 _symmetry_equiv_pos_site_id
 _symmetry_equiv_pos_as_xyz
  1  'x, y, z'
loop_
 _atom_site_type_symbol
 _atom_site_label
 _atom_site_symmetry_multiplicity
 _atom_site_fract_x
 _atom_site_fract_y
 _atom_site_fract_z
 _atom_site_occupancy
  Dy  Dy0  1  0.554339  0.554339  0.283308  1
  Dy  Dy1  1  0.445661  0.445661  0.716693  1
  Ga  Ga2  1  0.839010  0.839010  0.293403  1
  Ga  Ga3  1  0.160989  0.160989  0.706596  1
  Co  Co4  1  0.192610  0.192610  0.085652  1
  Co  Co5  1  0.807391  0.807391  0.914348  1
  C  C6  1  0.000000  0.000000  0.000000  1
