# generated using pymatgen
data_LaDyCu9Ni
_symmetry_space_group_name_H-M   'P 1'
_cell_length_a   4.08330800
_cell_length_b   5.05386600
_cell_length_c   8.80874200
_cell_angle_alpha   90.00000000
_cell_angle_beta   90.00000000
_cell_angle_gamma   90.00000000
_symmetry_Int_Tables_number   1
_chemical_formula_structural   LaDyCu9Ni
_chemical_formula_sum   'La1 Dy1 Cu9 Ni1'
_cell_volume   181.78152913
_cell_formula_units_Z   1
loop_
 _symmetry_equiv_pos_site_id
 _symmetry_equiv_pos_as_xyz
  1  'x, y, z'
loop_
 _atom_site_type_symbol
 _atom_site_label
 _atom_site_symmetry_multiplicity
 _atom_site_fract_x
 _atom_site_fract_y
 _atom_site_fract_z
 _atom_site_occupancy
  La  La0  1  0.000000  0.000000  0.005899  1
  Dy  Dy1  1  0.000000  0.500000  0.494320  1
  Cu  Cu2  1  0.000000  0.000000  0.339539  1
  Cu  Cu3  1  0.000000  0.500000  0.827438  1
  Cu  Cu4  1  0.000000  0.000000  0.662194  1
  Cu  Cu5  1  0.500000  0.500000  0.001233  1
  Cu  Cu6  1  0.500000  0.000000  0.500208  1
  Cu  Cu7  1  0.500000  0.254490  0.255603  1
  Cu  Cu8  1  0.500000  0.747769  0.744364  1
  Cu  Cu9  1  0.500000  0.745510  0.255603  1
  Cu  Cu10  1  0.500000  0.252231  0.744364  1
  Ni  Ni11  1  0.000000  0.500000  0.169236  1
