# generated using pymatgen
data_Zr4NbSn3As
_symmetry_space_group_name_H-M   'P 1'
_cell_length_a   8.65277500
_cell_length_b   8.65277305
_cell_length_c   5.87764600
_cell_angle_alpha   90.00000000
_cell_angle_beta   90.00000000
_cell_angle_gamma   120.00000363
_symmetry_Int_Tables_number   1
_chemical_formula_structural   Zr4NbSn3As
_chemical_formula_sum   'Zr8 Nb2 Sn6 As2'
_cell_volume   381.10510411
_cell_formula_units_Z   2
loop_
 _symmetry_equiv_pos_site_id
 _symmetry_equiv_pos_as_xyz
  1  'x, y, z'
loop_
 _atom_site_type_symbol
 _atom_site_label
 _atom_site_symmetry_multiplicity
 _atom_site_fract_x
 _atom_site_fract_y
 _atom_site_fract_z
 _atom_site_occupancy
  Zr  Zr0  1  0.333333  0.666667  0.500000  1
  Zr  Zr1  1  0.666667  0.333333  0.500000  1
  Zr  Zr2  1  0.737198  0.737198  0.749339  1
  Zr  Zr3  1  0.262802  0.000000  0.749339  1
  Zr  Zr4  1  0.000000  0.262802  0.749339  1
  Zr  Zr5  1  0.262802  0.262802  0.250661  1
  Zr  Zr6  1  0.737198  0.000000  0.250661  1
  Zr  Zr7  1  0.000000  0.737198  0.250661  1
  Nb  Nb8  1  0.666667  0.333333  0.000000  1
  Nb  Nb9  1  0.333333  0.666667  0.000000  1
  Sn  Sn10  1  0.396813  0.396813  0.756325  1
  Sn  Sn11  1  0.603187  0.000000  0.756325  1
  Sn  Sn12  1  0.000000  0.603187  0.756325  1
  Sn  Sn13  1  0.603187  0.603187  0.243675  1
  Sn  Sn14  1  0.396813  0.000000  0.243675  1
  Sn  Sn15  1  0.000000  0.396813  0.243675  1
  As  As16  1  0.000000  0.000000  0.000000  1
  As  As17  1  0.000000  0.000000  0.500000  1
