# generated using pymatgen
data_CaCdC4(NO)4
_symmetry_space_group_name_H-M   'P 1'
_cell_length_a   7.82248429
_cell_length_b   7.82248515
_cell_length_c   7.82248319
_cell_angle_alpha   94.78128992
_cell_angle_beta   94.78129074
_cell_angle_gamma   94.78129250
_symmetry_Int_Tables_number   1
_chemical_formula_structural   CaCdC4(NO)4
_chemical_formula_sum   'Ca3 Cd3 C12 N12 O12'
_cell_volume   473.37276694
_cell_formula_units_Z   3
loop_
 _symmetry_equiv_pos_site_id
 _symmetry_equiv_pos_as_xyz
  1  'x, y, z'
loop_
 _atom_site_type_symbol
 _atom_site_label
 _atom_site_symmetry_multiplicity
 _atom_site_fract_x
 _atom_site_fract_y
 _atom_site_fract_z
 _atom_site_occupancy
  Ca  Ca0  1  0.883935  0.530900  0.252452  1
  Ca  Ca1  1  0.252452  0.883935  0.530900  1
  Ca  Ca2  1  0.530900  0.252452  0.883935  1
  Cd  Cd3  1  0.753083  0.032729  0.389482  1
  Cd  Cd4  1  0.389482  0.753083  0.032729  1
  Cd  Cd5  1  0.032729  0.389482  0.753083  1
  C  C6  1  0.548572  0.594626  0.375062  1
  C  C7  1  0.375062  0.548572  0.594626  1
  C  C8  1  0.594626  0.375062  0.548572  1
  C  C9  1  0.883664  0.108359  0.053935  1
  C  C10  1  0.053935  0.883664  0.108359  1
  C  C11  1  0.108359  0.053935  0.883664  1
  C  C12  1  0.860619  0.751188  0.626968  1
  C  C13  1  0.626968  0.860619  0.751188  1
  C  C14  1  0.751188  0.626968  0.860619  1
  C  C15  1  0.129257  0.270615  0.358432  1
  C  C16  1  0.358432  0.129257  0.270615  1
  C  C17  1  0.270615  0.358432  0.129257  1
  N  N18  1  0.415038  0.641103  0.461405  1
  N  N19  1  0.461405  0.415038  0.641103  1
  N  N20  1  0.641103  0.461405  0.415038  1
  N  N21  1  0.974871  0.149391  0.919568  1
  N  N22  1  0.919568  0.974871  0.149391  1
  N  N23  1  0.149391  0.919568  0.974871  1
  N  N24  1  0.742536  0.869858  0.630827  1
  N  N25  1  0.630827  0.742536  0.869858  1
  N  N26  1  0.869858  0.630827  0.742536  1
  N  N27  1  0.144450  0.380576  0.234226  1
  N  N28  1  0.234226  0.144450  0.380576  1
  N  N29  1  0.380576  0.234226  0.144450  1
  O  O30  1  0.598703  0.679026  0.249612  1
  O  O31  1  0.249612  0.598703  0.679026  1
  O  O32  1  0.679026  0.249612  0.598703  1
  O  O33  1  0.760788  0.196097  0.099195  1
  O  O34  1  0.099195  0.760788  0.196097  1
  O  O35  1  0.196097  0.099195  0.760788  1
  O  O36  1  0.961014  0.754575  0.505263  1
  O  O37  1  0.505263  0.961014  0.754575  1
  O  O38  1  0.754575  0.505263  0.961014  1
  O  O39  1  0.000589  0.288652  0.452529  1
  O  O40  1  0.452529  0.000589  0.288652  1
  O  O41  1  0.288652  0.452529  0.000589  1
