# generated using pymatgen
data_Tb3Pr16EuSi16
_symmetry_space_group_name_H-M   'P 1'
_cell_length_a   7.84630004
_cell_length_b   7.84630028
_cell_length_c   15.38190900
_cell_angle_alpha   89.99445028
_cell_angle_beta   90.00554972
_cell_angle_gamma   90.01438600
_symmetry_Int_Tables_number   1
_chemical_formula_structural   Tb3Pr16EuSi16
_chemical_formula_sum   'Tb3 Pr16 Eu1 Si16'
_cell_volume   946.97836284
_cell_formula_units_Z   1
loop_
 _symmetry_equiv_pos_site_id
 _symmetry_equiv_pos_as_xyz
  1  'x, y, z'
loop_
 _atom_site_type_symbol
 _atom_site_label
 _atom_site_symmetry_multiplicity
 _atom_site_fract_x
 _atom_site_fract_y
 _atom_site_fract_z
 _atom_site_occupancy
  Tb  Tb0  1  0.308591  0.308591  0.000000  1
  Tb  Tb1  1  0.190604  0.808035  0.248856  1
  Tb  Tb2  1  0.808035  0.190604  0.751144  1
  Pr  Pr3  1  0.379592  0.011504  0.444866  1
  Pr  Pr4  1  0.485956  0.882041  0.695371  1
  Pr  Pr5  1  0.512966  0.121459  0.195051  1
  Pr  Pr6  1  0.882041  0.485956  0.304629  1
  Pr  Pr7  1  0.121459  0.512966  0.804949  1
  Pr  Pr8  1  0.620323  0.986164  0.945113  1
  Pr  Pr9  1  0.011504  0.379592  0.555134  1
  Pr  Pr10  1  0.986164  0.620323  0.054887  1
  Pr  Pr11  1  0.125506  0.976558  0.878760  1
  Pr  Pr12  1  0.523686  0.623639  0.127567  1
  Pr  Pr13  1  0.477673  0.376873  0.628708  1
  Pr  Pr14  1  0.623639  0.523686  0.872433  1
  Pr  Pr15  1  0.376873  0.477673  0.371292  1
  Pr  Pr16  1  0.876236  0.021834  0.377827  1
  Pr  Pr17  1  0.976558  0.125506  0.121240  1
  Pr  Pr18  1  0.021834  0.876236  0.622173  1
  Eu  Eu19  1  0.694621  0.694621  0.500000  1
  Si  Si20  1  0.188043  0.172448  0.708277  1
  Si  Si21  1  0.327100  0.687671  0.958401  1
  Si  Si22  1  0.669336  0.304295  0.456543  1
  Si  Si23  1  0.687671  0.327100  0.041599  1
  Si  Si24  1  0.304295  0.669336  0.543457  1
  Si  Si25  1  0.812551  0.826944  0.207459  1
  Si  Si26  1  0.172448  0.188043  0.291723  1
  Si  Si27  1  0.826944  0.812551  0.792541  1
  Si  Si28  1  0.286106  0.920211  0.063018  1
  Si  Si29  1  0.575870  0.789421  0.308624  1
  Si  Si30  1  0.420268  0.213798  0.812983  1
  Si  Si31  1  0.789421  0.575870  0.691376  1
  Si  Si32  1  0.213798  0.420268  0.187017  1
  Si  Si33  1  0.715734  0.086340  0.564802  1
  Si  Si34  1  0.920211  0.286106  0.936982  1
  Si  Si35  1  0.086340  0.715734  0.435198  1
