# generated using pymatgen
data_Ho6TmP12Rh17
_symmetry_space_group_name_H-M   'P 1'
_cell_length_a   3.94196700
_cell_length_b   11.23658400
_cell_length_c   12.85343300
_cell_angle_alpha   90.00000000
_cell_angle_beta   90.00000000
_cell_angle_gamma   90.00000000
_symmetry_Int_Tables_number   1
_chemical_formula_structural   Ho6TmP12Rh17
_chemical_formula_sum   'Ho6 Tm1 P12 Rh17'
_cell_volume   569.33308881
_cell_formula_units_Z   1
loop_
 _symmetry_equiv_pos_site_id
 _symmetry_equiv_pos_as_xyz
  1  'x, y, z'
loop_
 _atom_site_type_symbol
 _atom_site_label
 _atom_site_symmetry_multiplicity
 _atom_site_fract_x
 _atom_site_fract_y
 _atom_site_fract_z
 _atom_site_occupancy
  Ho  Ho0  1  0.000000  0.500000  0.522925  1
  Ho  Ho1  1  0.500000  0.000000  0.477862  1
  Ho  Ho2  1  0.500000  0.818098  0.206631  1
  Ho  Ho3  1  0.500000  0.181902  0.206631  1
  Ho  Ho4  1  0.000000  0.683195  0.796543  1
  Ho  Ho5  1  0.000000  0.316805  0.796543  1
  Tm  Tm6  1  0.500000  0.500000  0.156436  1
  P  P7  1  0.500000  0.314524  0.619636  1
  P  P8  1  0.500000  0.685476  0.619636  1
  P  P9  1  0.000000  0.185355  0.384230  1
  P  P10  1  0.000000  0.814645  0.384230  1
  P  P11  1  0.500000  0.500000  0.877189  1
  P  P12  1  0.000000  0.000000  0.122074  1
  P  P13  1  0.500000  0.851173  0.888236  1
  P  P14  1  0.500000  0.148827  0.888236  1
  P  P15  1  0.000000  0.664413  0.105369  1
  P  P16  1  0.000000  0.335587  0.105369  1
  P  P17  1  0.500000  0.500000  0.365096  1
  P  P18  1  0.000000  0.000000  0.647260  1
  Rh  Rh19  1  0.000000  0.500000  0.980611  1
  Rh  Rh20  1  0.500000  0.000000  0.022268  1
  Rh  Rh21  1  0.500000  0.288980  0.435153  1
  Rh  Rh22  1  0.500000  0.711020  0.435153  1
  Rh  Rh23  1  0.000000  0.203288  0.571517  1
  Rh  Rh24  1  0.000000  0.796712  0.571517  1
  Rh  Rh25  1  0.500000  0.874656  0.709015  1
  Rh  Rh26  1  0.500000  0.125344  0.709015  1
  Rh  Rh27  1  0.000000  0.628923  0.292894  1
  Rh  Rh28  1  0.000000  0.371077  0.292894  1
  Rh  Rh29  1  0.500000  0.327755  0.986422  1
  Rh  Rh30  1  0.500000  0.672245  0.986422  1
  Rh  Rh31  1  0.000000  0.162350  0.004280  1
  Rh  Rh32  1  0.000000  0.837650  0.004280  1
  Rh  Rh33  1  0.000000  0.000000  0.828355  1
  Rh  Rh34  1  0.500000  0.500000  0.700594  1
  Rh  Rh35  1  0.000000  0.000000  0.299475  1
