# generated using pymatgen
data_Eu7HoP6
_symmetry_space_group_name_H-M   'P 1'
_cell_length_a   7.71427511
_cell_length_b   7.71427550
_cell_length_c   7.63937500
_cell_angle_alpha   109.27466153
_cell_angle_beta   109.27466255
_cell_angle_gamma   109.66706416
_symmetry_Int_Tables_number   1
_chemical_formula_structural   Eu7HoP6
_chemical_formula_sum   'Eu7 Ho1 P6'
_cell_volume   350.81161092
_cell_formula_units_Z   1
loop_
 _symmetry_equiv_pos_site_id
 _symmetry_equiv_pos_as_xyz
  1  'x, y, z'
loop_
 _atom_site_type_symbol
 _atom_site_label
 _atom_site_symmetry_multiplicity
 _atom_site_fract_x
 _atom_site_fract_y
 _atom_site_fract_z
 _atom_site_occupancy
  Eu  Eu0  1  0.633206  0.633748  0.632752  1
  Eu  Eu1  1  0.003274  0.370599  0.500817  1
  Eu  Eu2  1  0.367326  0.496726  0.997543  1
  Eu  Eu3  1  0.000542  0.866794  0.499544  1
  Eu  Eu4  1  0.866252  0.499458  0.999004  1
  Eu  Eu5  1  0.500000  0.000000  0.868497  1
  Eu  Eu6  1  0.129401  0.132674  0.130217  1
  Ho  Ho7  1  0.500000  0.000000  0.372956  1
  P  P8  1  0.863593  0.122099  0.737502  1
  P  P9  1  0.377901  0.241493  0.615403  1
  P  P10  1  0.133534  0.755818  0.887069  1
  P  P11  1  0.744182  0.877716  0.131251  1
  P  P12  1  0.258507  0.636407  0.373909  1
  P  P13  1  0.622284  0.366466  0.253535  1
