# generated using pymatgen
data_Sr2HoSi4(AsPd10)2
_symmetry_space_group_name_H-M   'P 1'
_cell_length_a   8.77626350
_cell_length_b   8.87979340
_cell_length_c   8.87979261
_cell_angle_alpha   59.23012820
_cell_angle_beta   60.38492897
_cell_angle_gamma   60.38493701
_symmetry_Int_Tables_number   1
_chemical_formula_structural   Sr2HoSi4(AsPd10)2
_chemical_formula_sum   'Sr2 Ho1 Si4 As2 Pd20'
_cell_volume   489.19678279
_cell_formula_units_Z   1
loop_
 _symmetry_equiv_pos_site_id
 _symmetry_equiv_pos_as_xyz
  1  'x, y, z'
loop_
 _atom_site_type_symbol
 _atom_site_label
 _atom_site_symmetry_multiplicity
 _atom_site_fract_x
 _atom_site_fract_y
 _atom_site_fract_z
 _atom_site_occupancy
  Sr  Sr0  1  0.250000  0.250000  0.250000  1
  Sr  Sr1  1  0.750000  0.750000  0.750000  1
  Ho  Ho2  1  0.000000  0.000000  0.000000  1
  Si  Si3  1  0.267065  0.732935  0.267065  1
  Si  Si4  1  0.732935  0.267065  0.732935  1
  Si  Si5  1  0.267065  0.267065  0.732935  1
  Si  Si6  1  0.732935  0.732935  0.267065  1
  As  As7  1  0.734840  0.265160  0.265160  1
  As  As8  1  0.265160  0.734840  0.734840  1
  Pd  Pd9  1  0.381540  0.389503  0.389503  1
  Pd  Pd10  1  0.618460  0.610497  0.610497  1
  Pd  Pd11  1  0.389503  0.381540  0.839456  1
  Pd  Pd12  1  0.389503  0.839456  0.381540  1
  Pd  Pd13  1  0.610497  0.618460  0.160544  1
  Pd  Pd14  1  0.610497  0.160544  0.618460  1
  Pd  Pd15  1  0.839456  0.389503  0.389503  1
  Pd  Pd16  1  0.160544  0.610497  0.610497  1
  Pd  Pd17  1  0.344059  0.000000  0.000000  1
  Pd  Pd18  1  0.655941  0.000000  0.000000  1
  Pd  Pd19  1  0.000000  0.344059  0.655941  1
  Pd  Pd20  1  0.000000  0.655941  0.344059  1
  Pd  Pd21  1  0.008001  0.344525  0.991999  1
  Pd  Pd22  1  0.655475  0.991999  0.344525  1
  Pd  Pd23  1  0.991999  0.655475  0.008001  1
  Pd  Pd24  1  0.344525  0.008001  0.655475  1
  Pd  Pd25  1  0.008001  0.991999  0.344525  1
  Pd  Pd26  1  0.991999  0.008001  0.655475  1
  Pd  Pd27  1  0.655475  0.344525  0.991999  1
  Pd  Pd28  1  0.344525  0.655475  0.008001  1
