# generated using pymatgen
data_Nd2U2Ga12Pd
_symmetry_space_group_name_H-M   'P 1'
_cell_length_a   7.56435712
_cell_length_b   7.55433908
_cell_length_c   7.55458394
_cell_angle_alpha   109.60286902
_cell_angle_beta   109.38660310
_cell_angle_gamma   109.39707519
_symmetry_Int_Tables_number   1
_chemical_formula_structural   Nd2U2Ga12Pd
_chemical_formula_sum   'Nd2 U2 Ga12 Pd1'
_cell_volume   332.43054804
_cell_formula_units_Z   1
loop_
 _symmetry_equiv_pos_site_id
 _symmetry_equiv_pos_as_xyz
  1  'x, y, z'
loop_
 _atom_site_type_symbol
 _atom_site_label
 _atom_site_symmetry_multiplicity
 _atom_site_fract_x
 _atom_site_fract_y
 _atom_site_fract_z
 _atom_site_occupancy
  Nd  Nd0  1  0.000000  0.500000  0.000000  1
  Nd  Nd1  1  0.000000  0.000000  0.500000  1
  U  U2  1  0.500000  0.000000  0.000000  1
  U  U3  1  0.500000  0.500000  0.500000  1
  Ga  Ga4  1  0.254685  0.505147  0.749770  1
  Ga  Ga5  1  0.000243  0.704106  0.704030  1
  Ga  Ga6  1  0.302125  0.295213  0.006633  1
  Ga  Ga7  1  0.499941  0.749976  0.249802  1
  Ga  Ga8  1  0.745472  0.250322  0.494930  1
  Ga  Ga9  1  0.745315  0.494853  0.250230  1
  Ga  Ga10  1  0.254528  0.749678  0.505070  1
  Ga  Ga11  1  0.697943  0.993347  0.704759  1
  Ga  Ga12  1  0.500059  0.250024  0.750198  1
  Ga  Ga13  1  0.999757  0.295894  0.295970  1
  Ga  Ga14  1  0.302057  0.006653  0.295241  1
  Ga  Ga15  1  0.697875  0.704787  0.993367  1
  Pd  Pd16  1  0.000000  0.000000  0.000000  1
