# generated using pymatgen
data_Dy2Lu8(SnSb)3
_symmetry_space_group_name_H-M   'P 1'
_cell_length_a   8.81620060
_cell_length_b   8.83752152
_cell_length_c   6.31766600
_cell_angle_alpha   90.00000000
_cell_angle_beta   90.00000000
_cell_angle_gamma   120.08002953
_symmetry_Int_Tables_number   1
_chemical_formula_structural   Dy2Lu8(SnSb)3
_chemical_formula_sum   'Dy2 Lu8 Sn3 Sb3'
_cell_volume   425.94002076
_cell_formula_units_Z   1
loop_
 _symmetry_equiv_pos_site_id
 _symmetry_equiv_pos_as_xyz
  1  'x, y, z'
loop_
 _atom_site_type_symbol
 _atom_site_label
 _atom_site_symmetry_multiplicity
 _atom_site_fract_x
 _atom_site_fract_y
 _atom_site_fract_z
 _atom_site_occupancy
  Dy  Dy0  1  0.759196  0.759402  0.750000  1
  Dy  Dy1  1  0.240804  0.000205  0.750000  1
  Lu  Lu2  1  0.666551  0.333259  0.999536  1
  Lu  Lu3  1  0.333449  0.666709  0.999536  1
  Lu  Lu4  1  0.333449  0.666709  0.500464  1
  Lu  Lu5  1  0.666551  0.333259  0.500464  1
  Lu  Lu6  1  0.000000  0.240624  0.750000  1
  Lu  Lu7  1  0.239163  0.239361  0.250000  1
  Lu  Lu8  1  0.760837  0.000198  0.250000  1
  Lu  Lu9  1  0.000000  0.760369  0.250000  1
  Sn  Sn10  1  0.607013  0.606863  0.250000  1
  Sn  Sn11  1  0.392987  0.999850  0.250000  1
  Sn  Sn12  1  0.000000  0.393361  0.250000  1
  Sb  Sb13  1  0.391164  0.392693  0.750000  1
  Sb  Sb14  1  0.608836  0.001528  0.750000  1
  Sb  Sb15  1  0.000000  0.605611  0.750000  1
