# generated using pymatgen
data_Mn3Cu5(PO5)4
_symmetry_space_group_name_H-M   'P 1'
_cell_length_a   5.88655000
_cell_length_b   8.18245278
_cell_length_c   8.62717513
_cell_angle_alpha   89.73503558
_cell_angle_beta   90.00000000
_cell_angle_gamma   90.00000000
_symmetry_Int_Tables_number   1
_chemical_formula_structural   Mn3Cu5(PO5)4
_chemical_formula_sum   'Mn3 Cu5 P4 O20'
_cell_volume   415.53567486
_cell_formula_units_Z   1
loop_
 _symmetry_equiv_pos_site_id
 _symmetry_equiv_pos_as_xyz
  1  'x, y, z'
loop_
 _atom_site_type_symbol
 _atom_site_label
 _atom_site_symmetry_multiplicity
 _atom_site_fract_x
 _atom_site_fract_y
 _atom_site_fract_z
 _atom_site_occupancy
  Mn  Mn0  1  0.500000  0.154642  0.380552  1
  Mn  Mn1  1  0.500000  0.845521  0.618915  1
  Mn  Mn2  1  0.000000  0.348619  0.884914  1
  Cu  Cu3  1  0.753945  0.998138  0.001160  1
  Cu  Cu4  1  0.246055  0.998138  0.001160  1
  Cu  Cu5  1  0.000000  0.656363  0.121591  1
  Cu  Cu6  1  0.748219  0.502660  0.495642  1
  Cu  Cu7  1  0.251781  0.502660  0.495642  1
  P  P8  1  0.000000  0.275407  0.255985  1
  P  P9  1  0.500000  0.772384  0.243776  1
  P  P10  1  0.500000  0.225606  0.758573  1
  P  P11  1  0.000000  0.724637  0.741766  1
  O  O12  1  0.500000  0.872873  0.086070  1
  O  O13  1  0.000000  0.876432  0.076048  1
  O  O14  1  0.000000  0.403584  0.119677  1
  O  O15  1  0.784594  0.170048  0.250599  1
  O  O16  1  0.215406  0.170048  0.250599  1
  O  O17  1  0.716709  0.669616  0.251312  1
  O  O18  1  0.283291  0.669616  0.251312  1
  O  O19  1  0.500000  0.902787  0.379905  1
  O  O20  1  0.500000  0.380146  0.420797  1
  O  O21  1  0.000000  0.373363  0.413839  1
  O  O22  1  0.000000  0.629612  0.581884  1
  O  O23  1  0.500000  0.620340  0.576983  1
  O  O24  1  0.500000  0.098724  0.621065  1
  O  O25  1  0.716474  0.329070  0.753078  1
  O  O26  1  0.283526  0.329070  0.753078  1
  O  O27  1  0.784691  0.830106  0.748768  1
  O  O28  1  0.215309  0.830106  0.748768  1
  O  O29  1  0.000000  0.595109  0.876056  1
  O  O30  1  0.000000  0.120023  0.924788  1
  O  O31  1  0.500000  0.124555  0.915697  1
