# generated using pymatgen
data_Tb4Er2Al24Os7Pd
_symmetry_space_group_name_H-M   'P 1'
_cell_length_a   8.80952776
_cell_length_b   8.82264457
_cell_length_c   9.59903402
_cell_angle_alpha   89.69600773
_cell_angle_beta   90.31150054
_cell_angle_gamma   119.51677062
_symmetry_Int_Tables_number   1
_chemical_formula_structural   Tb4Er2Al24Os7Pd
_chemical_formula_sum   'Tb4 Er2 Al24 Os7 Pd1'
_cell_volume   649.22521079
_cell_formula_units_Z   1
loop_
 _symmetry_equiv_pos_site_id
 _symmetry_equiv_pos_as_xyz
  1  'x, y, z'
loop_
 _atom_site_type_symbol
 _atom_site_label
 _atom_site_symmetry_multiplicity
 _atom_site_fract_x
 _atom_site_fract_y
 _atom_site_fract_z
 _atom_site_occupancy
  Tb  Tb0  1  0.614547  0.811778  0.251602  1
  Tb  Tb1  1  0.385453  0.188222  0.748398  1
  Tb  Tb2  1  0.193517  0.806385  0.251299  1
  Tb  Tb3  1  0.806483  0.193615  0.748701  1
  Er  Er4  1  0.189656  0.389605  0.252415  1
  Er  Er5  1  0.810344  0.610395  0.747585  1
  Al  Al6  1  0.330858  0.669111  0.024866  1
  Al  Al7  1  0.669142  0.330889  0.975134  1
  Al  Al8  1  0.666635  0.333080  0.521302  1
  Al  Al9  1  0.333365  0.666920  0.478698  1
  Al  Al10  1  0.165187  0.327587  0.574498  1
  Al  Al11  1  0.834813  0.672413  0.425502  1
  Al  Al12  1  0.672819  0.834629  0.575361  1
  Al  Al13  1  0.841689  0.675108  0.076691  1
  Al  Al14  1  0.327181  0.165371  0.424639  1
  Al  Al15  1  0.158311  0.324892  0.923309  1
  Al  Al16  1  0.164049  0.835342  0.574125  1
  Al  Al17  1  0.324584  0.158387  0.077707  1
  Al  Al18  1  0.835951  0.164658  0.425875  1
  Al  Al19  1  0.675416  0.841613  0.922293  1
  Al  Al20  1  0.836005  0.164872  0.074320  1
  Al  Al21  1  0.163995  0.835128  0.925680  1
  Al  Al22  1  0.561340  0.124861  0.249316  1
  Al  Al23  1  0.438660  0.875139  0.750684  1
  Al  Al24  1  0.875724  0.438687  0.249283  1
  Al  Al25  1  0.124276  0.561313  0.750717  1
  Al  Al26  1  0.561516  0.438009  0.252323  1
  Al  Al27  1  0.438484  0.561991  0.747677  1
  Al  Al28  1  0.000619  0.003872  0.250136  1
  Al  Al29  1  0.999381  0.996128  0.749864  1
  Os  Os30  1  0.500000  0.000000  0.000000  1
  Os  Os31  1  0.000000  0.500000  0.000000  1
  Os  Os32  1  0.500000  0.000000  0.500000  1
  Os  Os33  1  0.000000  0.500000  0.500000  1
  Os  Os34  1  0.500000  0.500000  0.500000  1
  Os  Os35  1  0.000000  0.000000  0.000000  1
  Os  Os36  1  0.000000  0.000000  0.500000  1
  Pd  Pd37  1  0.500000  0.500000  0.000000  1
