# generated using pymatgen
data_DyTh7IrSe17
_symmetry_space_group_name_H-M   'P 1'
_cell_length_a   8.45211930
_cell_length_b   8.44281518
_cell_length_c   11.20033600
_cell_angle_alpha   80.55196897
_cell_angle_beta   80.55579188
_cell_angle_gamma   64.87417164
_symmetry_Int_Tables_number   1
_chemical_formula_structural   DyTh7IrSe17
_chemical_formula_sum   'Dy1 Th7 Ir1 Se17'
_cell_volume   709.81153330
_cell_formula_units_Z   1
loop_
 _symmetry_equiv_pos_site_id
 _symmetry_equiv_pos_as_xyz
  1  'x, y, z'
loop_
 _atom_site_type_symbol
 _atom_site_label
 _atom_site_symmetry_multiplicity
 _atom_site_fract_x
 _atom_site_fract_y
 _atom_site_fract_z
 _atom_site_occupancy
  Dy  Dy0  1  0.814860  0.305555  0.298614  1
  Th  Th1  1  0.300496  0.816269  0.294162  1
  Th  Th2  1  0.183320  0.698250  0.703172  1
  Th  Th3  1  0.698267  0.185582  0.701706  1
  Th  Th4  1  0.205141  0.203897  0.542604  1
  Th  Th5  1  0.795237  0.797455  0.452468  1
  Th  Th6  1  0.680825  0.673702  0.981887  1
  Th  Th7  1  0.321058  0.321437  0.022752  1
  Ir  Ir8  1  0.001133  0.999921  0.000319  1
  Se  Se9  1  0.823697  0.430523  0.531154  1
  Se  Se10  1  0.432647  0.820480  0.531657  1
  Se  Se11  1  0.177800  0.567629  0.466446  1
  Se  Se12  1  0.569946  0.178419  0.467675  1
  Se  Se13  1  0.949209  0.314131  0.028600  1
  Se  Se14  1  0.317758  0.949904  0.023610  1
  Se  Se15  1  0.050197  0.683172  0.975158  1
  Se  Se16  1  0.684489  0.050588  0.974113  1
  Se  Se17  1  0.209317  0.209121  0.278635  1
  Se  Se18  1  0.789155  0.789024  0.721951  1
  Se  Se19  1  0.054844  0.054585  0.775800  1
  Se  Se20  1  0.941383  0.955493  0.225309  1
  Se  Se21  1  0.302938  0.303175  0.755721  1
  Se  Se22  1  0.695870  0.695339  0.244218  1
  Se  Se23  1  0.519743  0.521103  0.831779  1
  Se  Se24  1  0.478453  0.480099  0.166800  1
  Se  Se25  1  0.002217  0.995149  0.503691  1
