# generated using pymatgen
data_Ho9TmOs3Rh
_symmetry_space_group_name_H-M   'P 1'
_cell_length_a   6.36722009
_cell_length_b   7.32123215
_cell_length_c   8.35457600
_cell_angle_alpha   96.71789886
_cell_angle_beta   112.28187311
_cell_angle_gamma   90.02351929
_symmetry_Int_Tables_number   1
_chemical_formula_structural   Ho9TmOs3Rh
_chemical_formula_sum   'Ho9 Tm1 Os3 Rh1'
_cell_volume   357.47609657
_cell_formula_units_Z   1
loop_
 _symmetry_equiv_pos_site_id
 _symmetry_equiv_pos_as_xyz
  1  'x, y, z'
loop_
 _atom_site_type_symbol
 _atom_site_label
 _atom_site_symmetry_multiplicity
 _atom_site_fract_x
 _atom_site_fract_y
 _atom_site_fract_z
 _atom_site_occupancy
  Ho  Ho0  1  0.970506  0.915382  0.179833  1
  Ho  Ho1  1  0.789758  0.581610  0.817598  1
  Ho  Ho2  1  0.024018  0.083704  0.813717  1
  Ho  Ho3  1  0.207821  0.418971  0.180292  1
  Ho  Ho4  1  0.649264  0.816428  0.439202  1
  Ho  Ho5  1  0.210299  0.681926  0.562521  1
  Ho  Ho6  1  0.351866  0.182319  0.565185  1
  Ho  Ho7  1  0.794399  0.319840  0.438787  1
  Ho  Ho8  1  0.421714  0.748392  0.998957  1
  Tm  Tm9  1  0.577667  0.250817  0.999041  1
  Os  Os10  1  0.822548  0.575673  0.217303  1
  Os  Os11  1  0.607060  0.925172  0.782821  1
  Os  Os12  1  0.177271  0.422639  0.783852  1
  Rh  Rh13  1  0.395810  0.077127  0.220892  1
