# generated using pymatgen
data_Ti8Zn3Pd
_symmetry_space_group_name_H-M   'P 1'
_cell_length_a   4.21627800
_cell_length_b   11.03229000
_cell_length_c   4.21620700
_cell_angle_alpha   90.00000000
_cell_angle_beta   90.00000000
_cell_angle_gamma   90.00000000
_symmetry_Int_Tables_number   1
_chemical_formula_structural   Ti8Zn3Pd
_chemical_formula_sum   'Ti8 Zn3 Pd1'
_cell_volume   196.11771866
_cell_formula_units_Z   1
loop_
 _symmetry_equiv_pos_site_id
 _symmetry_equiv_pos_as_xyz
  1  'x, y, z'
loop_
 _atom_site_type_symbol
 _atom_site_label
 _atom_site_symmetry_multiplicity
 _atom_site_fract_x
 _atom_site_fract_y
 _atom_site_fract_z
 _atom_site_occupancy
  Ti  Ti0  1  0.416873  0.167601  0.000000  1
  Ti  Ti1  1  0.916452  0.336765  0.000000  1
  Ti  Ti2  1  0.916452  0.663235  0.000000  1
  Ti  Ti3  1  0.416873  0.832399  0.000000  1
  Ti  Ti4  1  0.916689  0.167335  0.499997  1
  Ti  Ti5  1  0.416663  0.336774  0.499997  1
  Ti  Ti6  1  0.416663  0.663226  0.499997  1
  Ti  Ti7  1  0.916689  0.832666  0.499997  1
  Zn  Zn8  1  0.416835  0.499999  0.000000  1
  Zn  Zn9  1  0.416587  0.000000  0.499997  1
  Zn  Zn10  1  0.916517  0.499999  0.499997  1
  Pd  Pd11  1  0.916653  0.000000  0.000000  1
