# generated using pymatgen
data_Y3ScZn2Pt3
_symmetry_space_group_name_H-M   'P 1'
_cell_length_a   7.25602900
_cell_length_b   7.35507095
_cell_length_c   4.04135900
_cell_angle_alpha   90.00000000
_cell_angle_beta   90.00000000
_cell_angle_gamma   119.55554108
_symmetry_Int_Tables_number   1
_chemical_formula_structural   Y3ScZn2Pt3
_chemical_formula_sum   'Y3 Sc1 Zn2 Pt3'
_cell_volume   187.61675796
_cell_formula_units_Z   1
loop_
 _symmetry_equiv_pos_site_id
 _symmetry_equiv_pos_as_xyz
  1  'x, y, z'
loop_
 _atom_site_type_symbol
 _atom_site_label
 _atom_site_symmetry_multiplicity
 _atom_site_fract_x
 _atom_site_fract_y
 _atom_site_fract_z
 _atom_site_occupancy
  Y  Y0  1  0.382575  0.000000  0.500000  1
  Y  Y1  1  0.017414  0.431574  0.500000  1
  Y  Y2  1  0.585841  0.568426  0.500000  1
  Sc  Sc3  1  0.762987  0.000000  0.000000  1
  Zn  Zn4  1  0.249887  0.254453  0.000000  1
  Zn  Zn5  1  0.995434  0.745547  0.000000  1
  Pt  Pt6  1  0.993285  0.000000  0.500000  1
  Pt  Pt7  1  0.667087  0.321596  0.000000  1
  Pt  Pt8  1  0.345490  0.678404  0.000000  1
