# generated using pymatgen
data_Er8Ti8VSi16W3
_symmetry_space_group_name_H-M   'P 1'
_cell_length_a   6.95481928
_cell_length_b   6.95481985
_cell_length_c   12.77929730
_cell_angle_alpha   89.97138429
_cell_angle_beta   90.02861924
_cell_angle_gamma   89.98624393
_symmetry_Int_Tables_number   1
_chemical_formula_structural   Er8Ti8VSi16W3
_chemical_formula_sum   'Er8 Ti8 V1 Si16 W3'
_cell_volume   618.12824343
_cell_formula_units_Z   1
loop_
 _symmetry_equiv_pos_site_id
 _symmetry_equiv_pos_as_xyz
  1  'x, y, z'
loop_
 _atom_site_type_symbol
 _atom_site_label
 _atom_site_symmetry_multiplicity
 _atom_site_fract_x
 _atom_site_fract_y
 _atom_site_fract_z
 _atom_site_occupancy
  Er  Er0  1  0.341347  0.000365  0.467089  1
  Er  Er1  1  0.499452  0.841295  0.717288  1
  Er  Er2  1  0.500249  0.158131  0.217077  1
  Er  Er3  1  0.841295  0.499452  0.282712  1
  Er  Er4  1  0.158131  0.500249  0.782923  1
  Er  Er5  1  0.659145  0.999698  0.967219  1
  Er  Er6  1  0.000365  0.341347  0.532911  1
  Er  Er7  1  0.999698  0.659145  0.032781  1
  Ti  Ti8  1  0.152172  0.008571  0.875724  1
  Ti  Ti9  1  0.491689  0.652648  0.125345  1
  Ti  Ti10  1  0.507951  0.347991  0.625729  1
  Ti  Ti11  1  0.652648  0.491689  0.874655  1
  Ti  Ti12  1  0.347991  0.507951  0.374271  1
  Ti  Ti13  1  0.847770  0.990956  0.375748  1
  Ti  Ti14  1  0.008571  0.152172  0.124276  1
  Ti  Ti15  1  0.990956  0.847770  0.624252  1
  V  V16  1  0.673217  0.673217  0.500000  1
  Si  Si17  1  0.201544  0.131029  0.683721  1
  Si  Si18  1  0.368692  0.701387  0.933681  1
  Si  Si19  1  0.631711  0.299064  0.434410  1
  Si  Si20  1  0.701387  0.368692  0.066319  1
  Si  Si21  1  0.299064  0.631711  0.565590  1
  Si  Si22  1  0.798397  0.868405  0.184082  1
  Si  Si23  1  0.131029  0.201544  0.316279  1
  Si  Si24  1  0.868405  0.798397  0.815918  1
  Si  Si25  1  0.292480  0.953107  0.065007  1
  Si  Si26  1  0.547781  0.791193  0.316400  1
  Si  Si27  1  0.453173  0.207950  0.815211  1
  Si  Si28  1  0.791193  0.547781  0.683600  1
  Si  Si29  1  0.207950  0.453173  0.184789  1
  Si  Si30  1  0.707511  0.046262  0.565047  1
  Si  Si31  1  0.953107  0.292480  0.934993  1
  Si  Si32  1  0.046262  0.707511  0.434953  1
  W  W33  1  0.326927  0.326927  0.000000  1
  W  W34  1  0.173674  0.827069  0.249582  1
  W  W35  1  0.827069  0.173674  0.750418  1
