# generated using pymatgen
data_Li8Ho7Er(Sn3Bi)2
_symmetry_space_group_name_H-M   'P 1'
_cell_length_a   9.41311308
_cell_length_b   9.41295817
_cell_length_c   7.22069900
_cell_angle_alpha   89.99932256
_cell_angle_beta   90.10203474
_cell_angle_gamma   120.00143130
_symmetry_Int_Tables_number   1
_chemical_formula_structural   Li8Ho7Er(Sn3Bi)2
_chemical_formula_sum   'Li8 Ho7 Er1 Sn6 Bi2'
_cell_volume   554.06676714
_cell_formula_units_Z   1
loop_
 _symmetry_equiv_pos_site_id
 _symmetry_equiv_pos_as_xyz
  1  'x, y, z'
loop_
 _atom_site_type_symbol
 _atom_site_label
 _atom_site_symmetry_multiplicity
 _atom_site_fract_x
 _atom_site_fract_y
 _atom_site_fract_z
 _atom_site_occupancy
  Li  Li0  1  0.167722  0.334005  0.282723  1
  Li  Li1  1  0.167823  0.833748  0.282845  1
  Li  Li2  1  0.664954  0.832538  0.286456  1
  Li  Li3  1  0.829008  0.664368  0.787148  1
  Li  Li4  1  0.829010  0.164599  0.787150  1
  Li  Li5  1  0.338056  0.168991  0.791372  1
  Li  Li6  1  0.338028  0.669130  0.669479  1
  Li  Li7  1  0.665447  0.332712  0.173785  1
  Ho  Ho8  1  0.516627  0.490371  0.490968  1
  Ho  Ho9  1  0.972364  0.486135  0.488701  1
  Ho  Ho10  1  0.493260  0.978583  0.997232  1
  Ho  Ho11  1  0.493258  0.514535  0.997225  1
  Ho  Ho12  1  0.017377  0.508716  0.999684  1
  Ho  Ho13  1  0.994696  0.997334  0.494777  1
  Ho  Ho14  1  0.995252  0.997537  0.005274  1
  Er  Er15  1  0.517036  0.026671  0.490866  1
  Sn  Sn16  1  0.666770  0.833690  0.732248  1
  Sn  Sn17  1  0.833875  0.666687  0.232161  1
  Sn  Sn18  1  0.833670  0.166898  0.232458  1
  Sn  Sn19  1  0.333224  0.166485  0.231911  1
  Sn  Sn20  1  0.332251  0.666316  0.260017  1
  Sn  Sn21  1  0.667675  0.333663  0.759902  1
  Bi  Bi22  1  0.166169  0.333363  0.734001  1
  Bi  Bi23  1  0.166449  0.832924  0.733587  1
