# generated using pymatgen
data_Ho8Ti8Re3Si16Ag
_symmetry_space_group_name_H-M   'P 1'
_cell_length_a   6.96904647
_cell_length_b   6.96904710
_cell_length_c   12.76571045
_cell_angle_alpha   89.98210306
_cell_angle_beta   90.01789858
_cell_angle_gamma   89.72054292
_symmetry_Int_Tables_number   1
_chemical_formula_structural   Ho8Ti8Re3Si16Ag
_chemical_formula_sum   'Ho8 Ti8 Re3 Si16 Ag1'
_cell_volume   619.99265058
_cell_formula_units_Z   1
loop_
 _symmetry_equiv_pos_site_id
 _symmetry_equiv_pos_as_xyz
  1  'x, y, z'
loop_
 _atom_site_type_symbol
 _atom_site_label
 _atom_site_symmetry_multiplicity
 _atom_site_fract_x
 _atom_site_fract_y
 _atom_site_fract_z
 _atom_site_occupancy
  Ho  Ho0  1  0.341479  0.999999  0.468527  1
  Ho  Ho1  1  0.499629  0.840766  0.717751  1
  Ho  Ho2  1  0.501408  0.158907  0.218415  1
  Ho  Ho3  1  0.840766  0.499629  0.282249  1
  Ho  Ho4  1  0.158907  0.501408  0.781585  1
  Ho  Ho5  1  0.657191  0.001521  0.969247  1
  Ho  Ho6  1  0.999999  0.341479  0.531473  1
  Ho  Ho7  1  0.001521  0.657191  0.030753  1
  Ti  Ti8  1  0.149138  0.007671  0.877585  1
  Ti  Ti9  1  0.500062  0.648589  0.125082  1
  Ti  Ti10  1  0.504859  0.349511  0.623278  1
  Ti  Ti11  1  0.648589  0.500062  0.874918  1
  Ti  Ti12  1  0.349511  0.504859  0.376722  1
  Ti  Ti13  1  0.849201  0.994139  0.375293  1
  Ti  Ti14  1  0.007671  0.149138  0.122415  1
  Ti  Ti15  1  0.994139  0.849201  0.624707  1
  Re  Re16  1  0.168015  0.825952  0.252560  1
  Re  Re17  1  0.825952  0.168015  0.747440  1
  Re  Re18  1  0.670477  0.670477  0.500000  1
  Si  Si19  1  0.200561  0.130999  0.683756  1
  Si  Si20  1  0.372918  0.718916  0.929891  1
  Si  Si21  1  0.631107  0.296416  0.431479  1
  Si  Si22  1  0.718916  0.372918  0.070109  1
  Si  Si23  1  0.296416  0.631107  0.568521  1
  Si  Si24  1  0.800651  0.869085  0.182179  1
  Si  Si25  1  0.130999  0.200561  0.316244  1
  Si  Si26  1  0.869085  0.800651  0.817821  1
  Si  Si27  1  0.288331  0.935846  0.070482  1
  Si  Si28  1  0.546053  0.789820  0.315920  1
  Si  Si29  1  0.459370  0.207808  0.809272  1
  Si  Si30  1  0.789820  0.546053  0.684080  1
  Si  Si31  1  0.207808  0.459370  0.190728  1
  Si  Si32  1  0.708896  0.046254  0.565345  1
  Si  Si33  1  0.935846  0.288331  0.929518  1
  Si  Si34  1  0.046254  0.708896  0.434655  1
  Ag  Ag35  1  0.328455  0.328455  0.000000  1
