# generated using pymatgen
data_YbEr2Lu(Ga2Ag)4
_symmetry_space_group_name_H-M   'P 1'
_cell_length_a   4.33496200
_cell_length_b   6.93565529
_cell_length_c   10.25303937
_cell_angle_alpha   90.39323706
_cell_angle_beta   90.00000000
_cell_angle_gamma   90.00000000
_symmetry_Int_Tables_number   1
_chemical_formula_structural   YbEr2Lu(Ga2Ag)4
_chemical_formula_sum   'Yb1 Er2 Lu1 Ga8 Ag4'
_cell_volume   308.25859250
_cell_formula_units_Z   1
loop_
 _symmetry_equiv_pos_site_id
 _symmetry_equiv_pos_as_xyz
  1  'x, y, z'
loop_
 _atom_site_type_symbol
 _atom_site_label
 _atom_site_symmetry_multiplicity
 _atom_site_fract_x
 _atom_site_fract_y
 _atom_site_fract_z
 _atom_site_occupancy
  Yb  Yb0  1  0.250000  0.274959  0.672511  1
  Er  Er1  1  0.250000  0.777584  0.827007  1
  Er  Er2  1  0.750000  0.225215  0.173298  1
  Lu  Lu3  1  0.750000  0.723482  0.327934  1
  Ga  Ga4  1  0.250000  0.704891  0.535644  1
  Ga  Ga5  1  0.750000  0.299193  0.463691  1
  Ga  Ga6  1  0.750000  0.793883  0.038103  1
  Ga  Ga7  1  0.250000  0.198851  0.964951  1
  Ga  Ga8  1  0.250000  0.927458  0.156167  1
  Ga  Ga9  1  0.750000  0.069226  0.847870  1
  Ga  Ga10  1  0.750000  0.571678  0.651791  1
  Ga  Ga11  1  0.250000  0.431594  0.344054  1
  Ag  Ag12  1  0.250000  0.544049  0.096705  1
  Ag  Ag13  1  0.750000  0.455133  0.901873  1
  Ag  Ag14  1  0.750000  0.957622  0.596507  1
  Ag  Ag15  1  0.250000  0.045180  0.401896  1
