# generated using pymatgen
data_Gd2Mg(ScSn2)2
_symmetry_space_group_name_H-M   'P 1'
_cell_length_a   7.65824900
_cell_length_b   8.07565600
_cell_length_c   14.98938900
_cell_angle_alpha   90.00000000
_cell_angle_beta   90.00000000
_cell_angle_gamma   90.00000000
_symmetry_Int_Tables_number   1
_chemical_formula_structural   Gd2Mg(ScSn2)2
_chemical_formula_sum   'Gd8 Mg4 Sc8 Sn16'
_cell_volume   927.02452592
_cell_formula_units_Z   4
loop_
 _symmetry_equiv_pos_site_id
 _symmetry_equiv_pos_as_xyz
  1  'x, y, z'
loop_
 _atom_site_type_symbol
 _atom_site_label
 _atom_site_symmetry_multiplicity
 _atom_site_fract_x
 _atom_site_fract_y
 _atom_site_fract_z
 _atom_site_occupancy
  Gd  Gd0  1  0.504904  0.321585  0.906252  1
  Gd  Gd1  1  0.004904  0.178415  0.593748  1
  Gd  Gd2  1  0.495096  0.678415  0.406252  1
  Gd  Gd3  1  0.995096  0.821585  0.093748  1
  Gd  Gd4  1  0.495096  0.678415  0.093748  1
  Gd  Gd5  1  0.995096  0.821585  0.406252  1
  Gd  Gd6  1  0.504904  0.321585  0.593748  1
  Gd  Gd7  1  0.004904  0.178415  0.906252  1
  Mg  Mg8  1  0.171224  0.500018  0.750000  1
  Mg  Mg9  1  0.671224  0.999982  0.750000  1
  Mg  Mg10  1  0.828776  0.499982  0.250000  1
  Mg  Mg11  1  0.328776  0.000018  0.250000  1
  Sc  Sc12  1  0.341538  0.830840  0.874298  1
  Sc  Sc13  1  0.841538  0.669160  0.625702  1
  Sc  Sc14  1  0.658462  0.169160  0.374298  1
  Sc  Sc15  1  0.158462  0.330840  0.125702  1
  Sc  Sc16  1  0.658462  0.169160  0.125702  1
  Sc  Sc17  1  0.158462  0.330840  0.374298  1
  Sc  Sc18  1  0.341538  0.830840  0.625702  1
  Sc  Sc19  1  0.841538  0.669160  0.874298  1
  Sn  Sn20  1  0.319052  0.041820  0.038521  1
  Sn  Sn21  1  0.819052  0.458180  0.461479  1
  Sn  Sn22  1  0.680948  0.958180  0.538521  1
  Sn  Sn23  1  0.180948  0.541820  0.961479  1
  Sn  Sn24  1  0.680948  0.958180  0.961479  1
  Sn  Sn25  1  0.180948  0.541820  0.538521  1
  Sn  Sn26  1  0.319052  0.041820  0.461479  1
  Sn  Sn27  1  0.819052  0.458180  0.038521  1
  Sn  Sn28  1  0.537384  0.619660  0.750000  1
  Sn  Sn29  1  0.037384  0.880340  0.750000  1
  Sn  Sn30  1  0.462616  0.380340  0.250000  1
  Sn  Sn31  1  0.962616  0.119660  0.250000  1
  Sn  Sn32  1  0.308189  0.137631  0.750000  1
  Sn  Sn33  1  0.808189  0.362369  0.750000  1
  Sn  Sn34  1  0.691811  0.862369  0.250000  1
  Sn  Sn35  1  0.191811  0.637631  0.250000  1
