# generated using pymatgen
data_Rb4Sr(GeO3)3
_symmetry_space_group_name_H-M   'P 1'
_cell_length_a   7.62223183
_cell_length_b   7.62223198
_cell_length_c   11.76662200
_cell_angle_alpha   90.00000000
_cell_angle_beta   90.00000000
_cell_angle_gamma   113.28358432
_symmetry_Int_Tables_number   1
_chemical_formula_structural   Rb4Sr(GeO3)3
_chemical_formula_sum   'Rb8 Sr2 Ge6 O18'
_cell_volume   627.94772574
_cell_formula_units_Z   2
loop_
 _symmetry_equiv_pos_site_id
 _symmetry_equiv_pos_as_xyz
  1  'x, y, z'
loop_
 _atom_site_type_symbol
 _atom_site_label
 _atom_site_symmetry_multiplicity
 _atom_site_fract_x
 _atom_site_fract_y
 _atom_site_fract_z
 _atom_site_occupancy
  Rb  Rb0  1  0.336023  0.762799  0.750000  1
  Rb  Rb1  1  0.935893  0.064107  0.000000  1
  Rb  Rb2  1  0.506686  0.493314  0.000000  1
  Rb  Rb3  1  0.237201  0.663977  0.250000  1
  Rb  Rb4  1  0.217232  0.219486  0.750000  1
  Rb  Rb5  1  0.506686  0.493314  0.500000  1
  Rb  Rb6  1  0.780514  0.782768  0.250000  1
  Rb  Rb7  1  0.935893  0.064107  0.500000  1
  Sr  Sr8  1  0.723509  0.247541  0.750000  1
  Sr  Sr9  1  0.752459  0.276491  0.250000  1
  Ge  Ge10  1  0.410865  0.983545  0.031105  1
  Ge  Ge11  1  0.016455  0.589135  0.968895  1
  Ge  Ge12  1  0.016455  0.589135  0.531105  1
  Ge  Ge13  1  0.261043  0.187617  0.250000  1
  Ge  Ge14  1  0.812383  0.738957  0.750000  1
  Ge  Ge15  1  0.410865  0.983545  0.468895  1
  O  O16  1  0.958059  0.753760  0.876426  1
  O  O17  1  0.009855  0.397282  0.613797  1
  O  O18  1  0.883152  0.542672  0.094330  1
  O  O19  1  0.246240  0.041941  0.123574  1
  O  O20  1  0.246240  0.041941  0.376426  1
  O  O21  1  0.271331  0.728669  0.000000  1
  O  O22  1  0.457328  0.116848  0.594330  1
  O  O23  1  0.457328  0.116848  0.905670  1
  O  O24  1  0.607101  0.526726  0.750000  1
  O  O25  1  0.271331  0.728669  0.500000  1
  O  O26  1  0.602718  0.990145  0.113797  1
  O  O27  1  0.044998  0.215695  0.250000  1
  O  O28  1  0.784305  0.955002  0.750000  1
  O  O29  1  0.473274  0.392899  0.250000  1
  O  O30  1  0.883152  0.542672  0.405670  1
  O  O31  1  0.009855  0.397282  0.886203  1
  O  O32  1  0.602718  0.990145  0.386203  1
  O  O33  1  0.958059  0.753760  0.623574  1
