# generated using pymatgen
data_Rb4ScReCl12
_symmetry_space_group_name_H-M   'P 1'
_cell_length_a   7.37451209
_cell_length_b   7.37451209
_cell_length_c   10.47776800
_cell_angle_alpha   90.00000000
_cell_angle_beta   90.00000000
_cell_angle_gamma   90.19877328
_symmetry_Int_Tables_number   1
_chemical_formula_structural   Rb4ScReCl12
_chemical_formula_sum   'Rb4 Sc1 Re1 Cl12'
_cell_volume   569.81351921
_cell_formula_units_Z   1
loop_
 _symmetry_equiv_pos_site_id
 _symmetry_equiv_pos_as_xyz
  1  'x, y, z'
loop_
 _atom_site_type_symbol
 _atom_site_label
 _atom_site_symmetry_multiplicity
 _atom_site_fract_x
 _atom_site_fract_y
 _atom_site_fract_z
 _atom_site_occupancy
  Rb  Rb0  1  0.500000  0.000000  0.784447  1
  Rb  Rb1  1  0.000000  0.500000  0.215553  1
  Rb  Rb2  1  0.500000  0.000000  0.215553  1
  Rb  Rb3  1  0.000000  0.500000  0.784447  1
  Sc  Sc4  1  0.000000  0.000000  0.000000  1
  Re  Re5  1  0.500000  0.500000  0.500000  1
  Cl  Cl6  1  0.000000  0.000000  0.760030  1
  Cl  Cl7  1  0.500000  0.500000  0.276104  1
  Cl  Cl8  1  0.724562  0.724562  0.500000  1
  Cl  Cl9  1  0.241008  0.241008  0.000000  1
  Cl  Cl10  1  0.722997  0.277003  0.500000  1
  Cl  Cl11  1  0.239672  0.760328  0.000000  1
  Cl  Cl12  1  0.000000  0.000000  0.239970  1
  Cl  Cl13  1  0.500000  0.500000  0.723896  1
  Cl  Cl14  1  0.275438  0.275438  0.500000  1
  Cl  Cl15  1  0.758992  0.758992  0.000000  1
  Cl  Cl16  1  0.277003  0.722997  0.500000  1
  Cl  Cl17  1  0.760328  0.239672  0.000000  1
