# generated using pymatgen
data_PrHo5Er4(In2Pt)4
_symmetry_space_group_name_H-M   'P 1'
_cell_length_a   3.61758100
_cell_length_b   8.16441421
_cell_length_c   18.28399139
_cell_angle_alpha   89.66851891
_cell_angle_beta   90.00000000
_cell_angle_gamma   90.00000000
_symmetry_Int_Tables_number   1
_chemical_formula_structural   PrHo5Er4(In2Pt)4
_chemical_formula_sum   'Pr1 Ho5 Er4 In8 Pt4'
_cell_volume   540.01650494
_cell_formula_units_Z   1
loop_
 _symmetry_equiv_pos_site_id
 _symmetry_equiv_pos_as_xyz
  1  'x, y, z'
loop_
 _atom_site_type_symbol
 _atom_site_label
 _atom_site_symmetry_multiplicity
 _atom_site_fract_x
 _atom_site_fract_y
 _atom_site_fract_z
 _atom_site_occupancy
  Pr  Pr0  1  0.000000  0.000000  0.000000  1
  Ho  Ho1  1  0.000000  0.242426  0.220846  1
  Ho  Ho2  1  0.000000  0.757574  0.779154  1
  Ho  Ho3  1  0.000000  0.258449  0.718538  1
  Ho  Ho4  1  0.000000  0.741551  0.281462  1
  Ho  Ho5  1  0.000000  0.500000  0.500000  1
  Er  Er6  1  0.000000  0.116545  0.414962  1
  Er  Er7  1  0.000000  0.883455  0.585038  1
  Er  Er8  1  0.000000  0.380152  0.913522  1
  Er  Er9  1  0.000000  0.619848  0.086478  1
  In  In10  1  0.500000  0.421934  0.351642  1
  In  In11  1  0.500000  0.578066  0.648358  1
  In  In12  1  0.500000  0.079696  0.847459  1
  In  In13  1  0.500000  0.920304  0.152541  1
  In  In14  1  0.500000  0.300879  0.067993  1
  In  In15  1  0.500000  0.699121  0.932007  1
  In  In16  1  0.500000  0.206626  0.566070  1
  In  In17  1  0.500000  0.793374  0.433930  1
  Pt  Pt18  1  0.500000  0.025039  0.305150  1
  Pt  Pt19  1  0.500000  0.974961  0.694850  1
  Pt  Pt20  1  0.500000  0.474359  0.802680  1
  Pt  Pt21  1  0.500000  0.525641  0.197320  1
