# generated using pymatgen
data_TiTl2Cu3F12
_symmetry_space_group_name_H-M   'P 1'
_cell_length_a   6.90758600
_cell_length_b   7.82883848
_cell_length_c   12.02574100
_cell_angle_alpha   58.81752794
_cell_angle_beta   90.00000000
_cell_angle_gamma   90.00000000
_symmetry_Int_Tables_number   1
_chemical_formula_structural   TiTl2Cu3F12
_chemical_formula_sum   'Ti2 Tl4 Cu6 F24'
_cell_volume   556.37424119
_cell_formula_units_Z   2
loop_
 _symmetry_equiv_pos_site_id
 _symmetry_equiv_pos_as_xyz
  1  'x, y, z'
loop_
 _atom_site_type_symbol
 _atom_site_label
 _atom_site_symmetry_multiplicity
 _atom_site_fract_x
 _atom_site_fract_y
 _atom_site_fract_z
 _atom_site_occupancy
  Ti  Ti0  1  0.500000  0.500000  0.000000  1
  Ti  Ti1  1  0.000000  0.500000  0.500000  1
  Tl  Tl2  1  0.510658  0.330914  0.391274  1
  Tl  Tl3  1  0.989342  0.330914  0.891274  1
  Tl  Tl4  1  0.489342  0.669086  0.608726  1
  Tl  Tl5  1  0.010658  0.669086  0.108726  1
  Cu  Cu6  1  0.500000  0.000000  0.000000  1
  Cu  Cu7  1  0.000000  0.000000  0.500000  1
  Cu  Cu8  1  0.711338  0.979857  0.262745  1
  Cu  Cu9  1  0.788662  0.979857  0.762745  1
  Cu  Cu10  1  0.288662  0.020143  0.737255  1
  Cu  Cu11  1  0.211338  0.020143  0.237255  1
  F  F12  1  0.662527  0.874541  0.152325  1
  F  F13  1  0.837473  0.874541  0.652325  1
  F  F14  1  0.337473  0.125459  0.847675  1
  F  F15  1  0.162527  0.125459  0.347675  1
  F  F16  1  0.233788  0.969208  0.599018  1
  F  F17  1  0.266212  0.969208  0.099018  1
  F  F18  1  0.766212  0.030792  0.400982  1
  F  F19  1  0.733788  0.030792  0.900982  1
  F  F20  1  0.449730  0.913450  0.330055  1
  F  F21  1  0.050270  0.913450  0.830055  1
  F  F22  1  0.550270  0.086550  0.669945  1
  F  F23  1  0.949730  0.086550  0.169945  1
  F  F24  1  0.889264  0.329102  0.665093  1
  F  F25  1  0.610736  0.329102  0.165093  1
  F  F26  1  0.110736  0.670898  0.334907  1
  F  F27  1  0.389264  0.670898  0.834907  1
  F  F28  1  0.261772  0.362852  0.059982  1
  F  F29  1  0.238228  0.362852  0.559982  1
  F  F30  1  0.738228  0.637148  0.940018  1
  F  F31  1  0.761772  0.637148  0.440018  1
  F  F32  1  0.582765  0.324180  0.945324  1
  F  F33  1  0.917235  0.324180  0.445324  1
  F  F34  1  0.417235  0.675820  0.054676  1
  F  F35  1  0.082765  0.675820  0.554676  1
