# generated using pymatgen
data_Tb4Dy2LuRh3
_symmetry_space_group_name_H-M   'P 1'
_cell_length_a   9.80599204
_cell_length_b   9.80599246
_cell_length_c   6.16327803
_cell_angle_alpha   90.01031070
_cell_angle_beta   89.98969049
_cell_angle_gamma   120.00150240
_symmetry_Int_Tables_number   1
_chemical_formula_structural   Tb4Dy2LuRh3
_chemical_formula_sum   'Tb8 Dy4 Lu2 Rh6'
_cell_volume   513.23811149
_cell_formula_units_Z   2
loop_
 _symmetry_equiv_pos_site_id
 _symmetry_equiv_pos_as_xyz
  1  'x, y, z'
loop_
 _atom_site_type_symbol
 _atom_site_label
 _atom_site_symmetry_multiplicity
 _atom_site_fract_x
 _atom_site_fract_y
 _atom_site_fract_z
 _atom_site_occupancy
  Tb  Tb0  1  0.876014  0.752067  0.741300  1
  Tb  Tb1  1  0.247933  0.123986  0.741300  1
  Tb  Tb2  1  0.876039  0.123961  0.741296  1
  Tb  Tb3  1  0.123969  0.247927  0.241268  1
  Tb  Tb4  1  0.752073  0.876031  0.241268  1
  Tb  Tb5  1  0.123955  0.876045  0.241271  1
  Tb  Tb6  1  0.459046  0.918044  0.547016  1
  Tb  Tb7  1  0.081956  0.540954  0.547016  1
  Dy  Dy8  1  0.459024  0.540976  0.547104  1
  Dy  Dy9  1  0.541038  0.082088  0.047132  1
  Dy  Dy10  1  0.917912  0.458962  0.047132  1
  Dy  Dy11  1  0.541035  0.458965  0.047117  1
  Lu  Lu12  1  0.666645  0.333355  0.533356  1
  Lu  Lu13  1  0.333348  0.666652  0.033419  1
  Rh  Rh14  1  0.190954  0.381792  0.814105  1
  Rh  Rh15  1  0.618208  0.809046  0.814105  1
  Rh  Rh16  1  0.190874  0.809126  0.814182  1
  Rh  Rh17  1  0.809048  0.618163  0.314018  1
  Rh  Rh18  1  0.381837  0.190952  0.314018  1
  Rh  Rh19  1  0.809091  0.190909  0.314014  1
