# generated using pymatgen
data_Tm5Lu4ThPt8
_symmetry_space_group_name_H-M   'P 1'
_cell_length_a   7.36947600
_cell_length_b   7.45121765
_cell_length_c   14.59993700
_cell_angle_alpha   89.93601606
_cell_angle_beta   90.00000000
_cell_angle_gamma   90.00000000
_symmetry_Int_Tables_number   1
_chemical_formula_structural   Tm5Lu4ThPt8
_chemical_formula_sum   'Tm10 Lu8 Th2 Pt16'
_cell_volume   801.70495704
_cell_formula_units_Z   2
loop_
 _symmetry_equiv_pos_site_id
 _symmetry_equiv_pos_as_xyz
  1  'x, y, z'
loop_
 _atom_site_type_symbol
 _atom_site_label
 _atom_site_symmetry_multiplicity
 _atom_site_fract_x
 _atom_site_fract_y
 _atom_site_fract_z
 _atom_site_occupancy
  Tm  Tm0  1  0.493192  0.674703  0.593898  1
  Tm  Tm1  1  0.993192  0.825297  0.906102  1
  Tm  Tm2  1  0.507565  0.319740  0.094337  1
  Tm  Tm3  1  0.007565  0.180260  0.405663  1
  Tm  Tm4  1  0.507002  0.323464  0.406779  1
  Tm  Tm5  1  0.007002  0.176536  0.093221  1
  Tm  Tm6  1  0.812155  0.506180  0.749161  1
  Tm  Tm7  1  0.312155  0.993820  0.750839  1
  Tm  Tm8  1  0.189057  0.491646  0.250210  1
  Tm  Tm9  1  0.689057  0.008354  0.249790  1
  Lu  Lu10  1  0.645642  0.167785  0.621864  1
  Lu  Lu11  1  0.145642  0.332215  0.878136  1
  Lu  Lu12  1  0.345667  0.837001  0.125520  1
  Lu  Lu13  1  0.845667  0.662999  0.374480  1
  Lu  Lu14  1  0.353667  0.832407  0.377807  1
  Lu  Lu15  1  0.853667  0.667593  0.122193  1
  Lu  Lu16  1  0.649799  0.166616  0.879261  1
  Lu  Lu17  1  0.149799  0.333384  0.620739  1
  Th  Th18  1  0.490475  0.679266  0.909988  1
  Th  Th19  1  0.990475  0.820734  0.590012  1
  Pt  Pt20  1  0.693572  0.968855  0.457706  1
  Pt  Pt21  1  0.193572  0.531145  0.042294  1
  Pt  Pt22  1  0.309750  0.037109  0.961810  1
  Pt  Pt23  1  0.809750  0.462891  0.538190  1
  Pt  Pt24  1  0.311113  0.035923  0.538663  1
  Pt  Pt25  1  0.811113  0.464077  0.961337  1
  Pt  Pt26  1  0.689342  0.965874  0.041591  1
  Pt  Pt27  1  0.189342  0.534126  0.458409  1
  Pt  Pt28  1  0.444490  0.379928  0.750431  1
  Pt  Pt29  1  0.944490  0.120072  0.749569  1
  Pt  Pt30  1  0.555000  0.615597  0.248696  1
  Pt  Pt31  1  0.055000  0.884403  0.251304  1
  Pt  Pt32  1  0.673853  0.855599  0.751251  1
  Pt  Pt33  1  0.173853  0.644401  0.748749  1
  Pt  Pt34  1  0.328659  0.144882  0.250656  1
  Pt  Pt35  1  0.828659  0.355118  0.249344  1
