# generated using pymatgen
data_DyTmLu14(In3Ir)2
_symmetry_space_group_name_H-M   'P 1'
_cell_length_a   10.21721200
_cell_length_b   10.22091142
_cell_length_c   6.95022403
_cell_angle_alpha   90.00947389
_cell_angle_beta   90.00000000
_cell_angle_gamma   119.98803410
_symmetry_Int_Tables_number   1
_chemical_formula_structural   DyTmLu14(In3Ir)2
_chemical_formula_sum   'Dy1 Tm1 Lu14 In6 Ir2'
_cell_volume   628.64260337
_cell_formula_units_Z   1
loop_
 _symmetry_equiv_pos_site_id
 _symmetry_equiv_pos_as_xyz
  1  'x, y, z'
loop_
 _atom_site_type_symbol
 _atom_site_label
 _atom_site_symmetry_multiplicity
 _atom_site_fract_x
 _atom_site_fract_y
 _atom_site_fract_z
 _atom_site_occupancy
  Dy  Dy0  1  0.000002  0.000003  0.999888  1
  Tm  Tm1  1  0.532537  0.065073  0.514110  1
  Lu  Lu2  1  0.934190  0.467116  0.514233  1
  Lu  Lu3  1  0.532926  0.467116  0.514233  1
  Lu  Lu4  1  0.466791  0.933582  0.014408  1
  Lu  Lu5  1  0.066150  0.533087  0.014472  1
  Lu  Lu6  1  0.466937  0.533087  0.014472  1
  Lu  Lu7  1  0.177529  0.355059  0.718968  1
  Lu  Lu8  1  0.645221  0.822234  0.719270  1
  Lu  Lu9  1  0.177012  0.822234  0.719270  1
  Lu  Lu10  1  0.822681  0.645362  0.220264  1
  Lu  Lu11  1  0.354804  0.177665  0.219801  1
  Lu  Lu12  1  0.822860  0.177665  0.219801  1
  Lu  Lu13  1  0.666830  0.333660  0.894866  1
  Lu  Lu14  1  0.333140  0.666281  0.396232  1
  Lu  Lu15  1  0.000003  0.000004  0.499499  1
  In  In16  1  0.837248  0.674496  0.759536  1
  In  In17  1  0.324989  0.162468  0.759552  1
  In  In18  1  0.837479  0.162468  0.759552  1
  In  In19  1  0.162813  0.325627  0.263601  1
  In  In20  1  0.674276  0.837379  0.263429  1
  In  In21  1  0.163104  0.837379  0.263429  1
  Ir  Ir22  1  0.667102  0.334201  0.289472  1
  Ir  Ir23  1  0.333378  0.666756  0.791842  1
