# generated using pymatgen
data_Ho15Th(ZnRh)4
_symmetry_space_group_name_H-M   'P 1'
_cell_length_a   9.43493354
_cell_length_b   9.49982548
_cell_length_c   9.49982600
_cell_angle_alpha   59.99999817
_cell_angle_beta   59.77221913
_cell_angle_gamma   59.77222030
_symmetry_Int_Tables_number   1
_chemical_formula_structural   Ho15Th(ZnRh)4
_chemical_formula_sum   'Ho15 Th1 Zn4 Rh4'
_cell_volume   600.00003537
_cell_formula_units_Z   1
loop_
 _symmetry_equiv_pos_site_id
 _symmetry_equiv_pos_as_xyz
  1  'x, y, z'
loop_
 _atom_site_type_symbol
 _atom_site_label
 _atom_site_symmetry_multiplicity
 _atom_site_fract_x
 _atom_site_fract_y
 _atom_site_fract_z
 _atom_site_occupancy
  Ho  Ho0  1  0.686451  0.313876  0.685798  1
  Ho  Ho1  1  0.316899  0.683643  0.315815  1
  Ho  Ho2  1  0.059370  0.440544  0.440544  1
  Ho  Ho3  1  0.686451  0.313876  0.313876  1
  Ho  Ho4  1  0.439939  0.061111  0.437840  1
  Ho  Ho5  1  0.439939  0.061111  0.061111  1
  Ho  Ho6  1  0.894156  0.894521  0.894521  1
  Ho  Ho7  1  0.059370  0.440544  0.059542  1
  Ho  Ho8  1  0.894156  0.316804  0.894521  1
  Ho  Ho9  1  0.316899  0.683643  0.683643  1
  Ho  Ho10  1  0.894156  0.894521  0.316804  1
  Ho  Ho11  1  0.439939  0.437840  0.061111  1
  Ho  Ho12  1  0.316899  0.315815  0.683643  1
  Ho  Ho13  1  0.686451  0.685798  0.313876  1
  Ho  Ho14  1  0.059370  0.059542  0.440544  1
  Th  Th15  1  0.306764  0.897746  0.897746  1
  Zn  Zn16  1  0.985108  0.671630  0.671630  1
  Zn  Zn17  1  0.672342  0.988930  0.669364  1
  Zn  Zn18  1  0.672342  0.669364  0.988930  1
  Zn  Zn19  1  0.672342  0.669364  0.669364  1
  Rh  Rh20  1  0.105243  0.106454  0.681850  1
  Rh  Rh21  1  0.105243  0.681850  0.106454  1
  Rh  Rh22  1  0.105243  0.106454  0.106454  1
  Rh  Rh23  1  0.684933  0.105023  0.105023  1
