# generated using pymatgen
data_TbHoGa2IrPd
_symmetry_space_group_name_H-M   'P 1'
_cell_length_a   4.42933800
_cell_length_b   6.87594400
_cell_length_c   7.71572900
_cell_angle_alpha   90.00000000
_cell_angle_beta   90.00000000
_cell_angle_gamma   90.00000000
_symmetry_Int_Tables_number   1
_chemical_formula_structural   TbHoGa2IrPd
_chemical_formula_sum   'Tb2 Ho2 Ga4 Ir2 Pd2'
_cell_volume   234.98931688
_cell_formula_units_Z   2
loop_
 _symmetry_equiv_pos_site_id
 _symmetry_equiv_pos_as_xyz
  1  'x, y, z'
loop_
 _atom_site_type_symbol
 _atom_site_label
 _atom_site_symmetry_multiplicity
 _atom_site_fract_x
 _atom_site_fract_y
 _atom_site_fract_z
 _atom_site_occupancy
  Tb  Tb0  1  0.250000  0.025199  0.812929  1
  Tb  Tb1  1  0.250000  0.525199  0.687071  1
  Ho  Ho2  1  0.750000  0.985112  0.196592  1
  Ho  Ho3  1  0.750000  0.485112  0.303408  1
  Ga  Ga4  1  0.250000  0.161068  0.426263  1
  Ga  Ga5  1  0.250000  0.661068  0.073737  1
  Ga  Ga6  1  0.750000  0.833135  0.569065  1
  Ga  Ga7  1  0.750000  0.333135  0.930935  1
  Ir  Ir8  1  0.250000  0.772679  0.393977  1
  Ir  Ir9  1  0.250000  0.272679  0.106023  1
  Pd  Pd10  1  0.750000  0.222807  0.603541  1
  Pd  Pd11  1  0.750000  0.722807  0.896459  1
