# generated using pymatgen
data_Hf9CoMoW3
_symmetry_space_group_name_H-M   'P 1'
_cell_length_a   8.68365900
_cell_length_b   8.69407143
_cell_length_c   8.46934100
_cell_angle_alpha   90.00000000
_cell_angle_beta   90.00000000
_cell_angle_gamma   119.96037863
_symmetry_Int_Tables_number   1
_chemical_formula_structural   Hf9CoMoW3
_chemical_formula_sum   'Hf18 Co2 Mo2 W6'
_cell_volume   553.96135636
_cell_formula_units_Z   2
loop_
 _symmetry_equiv_pos_site_id
 _symmetry_equiv_pos_as_xyz
  1  'x, y, z'
loop_
 _atom_site_type_symbol
 _atom_site_label
 _atom_site_symmetry_multiplicity
 _atom_site_fract_x
 _atom_site_fract_y
 _atom_site_fract_z
 _atom_site_occupancy
  Hf  Hf0  1  0.201352  0.799039  0.059583  1
  Hf  Hf1  1  0.597687  0.799039  0.059583  1
  Hf  Hf2  1  0.798269  0.596538  0.558722  1
  Hf  Hf3  1  0.201165  0.402330  0.059206  1
  Hf  Hf4  1  0.798876  0.201828  0.559035  1
  Hf  Hf5  1  0.402952  0.201828  0.559035  1
  Hf  Hf6  1  0.798269  0.596538  0.941278  1
  Hf  Hf7  1  0.798876  0.201828  0.940965  1
  Hf  Hf8  1  0.402952  0.201828  0.940965  1
  Hf  Hf9  1  0.597687  0.799039  0.440417  1
  Hf  Hf10  1  0.201352  0.799039  0.440417  1
  Hf  Hf11  1  0.201165  0.402330  0.440794  1
  Hf  Hf12  1  0.542037  0.084074  0.250000  1
  Hf  Hf13  1  0.457683  0.915364  0.750000  1
  Hf  Hf14  1  0.916019  0.457996  0.250000  1
  Hf  Hf15  1  0.541976  0.457996  0.250000  1
  Hf  Hf16  1  0.456809  0.541436  0.750000  1
  Hf  Hf17  1  0.084629  0.541436  0.750000  1
  Co  Co18  1  0.666695  0.333388  0.750000  1
  Co  Co19  1  0.333483  0.666967  0.250000  1
  Mo  Mo20  1  0.112924  0.887775  0.750000  1
  Mo  Mo21  1  0.774851  0.887775  0.750000  1
  W  W22  1  0.999962  0.999925  0.998877  1
  W  W23  1  0.999962  0.999925  0.501123  1
  W  W24  1  0.887772  0.775544  0.250000  1
  W  W25  1  0.112795  0.225590  0.750000  1
  W  W26  1  0.224076  0.111801  0.250000  1
  W  W27  1  0.887724  0.111801  0.250000  1
