# generated using pymatgen
data_Er8Ge(Pd7Pt5)2
_symmetry_space_group_name_H-M   'P 1'
_cell_length_a   8.31726507
_cell_length_b   8.32434254
_cell_length_c   8.32262400
_cell_angle_alpha   90.02380114
_cell_angle_beta   90.00731588
_cell_angle_gamma   89.97449574
_symmetry_Int_Tables_number   1
_chemical_formula_structural   Er8Ge(Pd7Pt5)2
_chemical_formula_sum   'Er8 Ge1 Pd14 Pt10'
_cell_volume   576.22311500
_cell_formula_units_Z   1
loop_
 _symmetry_equiv_pos_site_id
 _symmetry_equiv_pos_as_xyz
  1  'x, y, z'
loop_
 _atom_site_type_symbol
 _atom_site_label
 _atom_site_symmetry_multiplicity
 _atom_site_fract_x
 _atom_site_fract_y
 _atom_site_fract_z
 _atom_site_occupancy
  Er  Er0  1  0.252989  0.253302  0.746342  1
  Er  Er1  1  0.253827  0.747031  0.254232  1
  Er  Er2  1  0.746475  0.253597  0.253472  1
  Er  Er3  1  0.746882  0.745906  0.746242  1
  Er  Er4  1  0.746048  0.746237  0.253880  1
  Er  Er5  1  0.747048  0.253975  0.746657  1
  Er  Er6  1  0.253021  0.746638  0.745806  1
  Er  Er7  1  0.253543  0.252905  0.253716  1
  Ge  Ge8  1  0.000424  0.000619  0.999591  1
  Pd  Pd9  1  0.999378  0.999448  0.711680  1
  Pd  Pd10  1  0.000042  0.288785  0.000521  1
  Pd  Pd11  1  0.288916  0.999513  0.999992  1
  Pd  Pd12  1  0.999365  0.999443  0.287809  1
  Pd  Pd13  1  0.999937  0.712210  0.000512  1
  Pd  Pd14  1  0.711679  0.999415  0.000020  1
  Pd  Pd15  1  0.500347  0.000156  0.741122  1
  Pd  Pd16  1  0.258912  0.500478  0.999816  1
  Pd  Pd17  1  0.999950  0.500417  0.258864  1
  Pd  Pd18  1  0.500062  0.740616  0.000068  1
  Pd  Pd19  1  0.000132  0.741215  0.499628  1
  Pd  Pd20  1  0.500382  0.000089  0.258733  1
  Pd  Pd21  1  0.740710  0.000154  0.499933  1
  Pd  Pd22  1  0.741216  0.500478  0.999869  1
  Pt  Pt23  1  0.500030  0.499918  0.748039  1
  Pt  Pt24  1  0.499861  0.252099  0.499941  1
  Pt  Pt25  1  0.252202  0.499932  0.500032  1
  Pt  Pt26  1  0.499988  0.499849  0.252152  1
  Pt  Pt27  1  0.499801  0.747479  0.500049  1
  Pt  Pt28  1  0.747570  0.499847  0.500062  1
  Pt  Pt29  1  0.999977  0.500302  0.741527  1
  Pt  Pt30  1  0.500099  0.259168  0.000002  1
  Pt  Pt31  1  0.259036  0.000139  0.499914  1
  Pt  Pt32  1  0.000151  0.258642  0.499778  1
