# generated using pymatgen
data_VFe2P2Ru
_symmetry_space_group_name_H-M   'P 1'
_cell_length_a   3.63206200
_cell_length_b   5.86208300
_cell_length_c   6.56183900
_cell_angle_alpha   89.99767559
_cell_angle_beta   90.00000000
_cell_angle_gamma   90.00000000
_symmetry_Int_Tables_number   1
_chemical_formula_structural   VFe2P2Ru
_chemical_formula_sum   'V2 Fe4 P4 Ru2'
_cell_volume   139.71105973
_cell_formula_units_Z   2
loop_
 _symmetry_equiv_pos_site_id
 _symmetry_equiv_pos_as_xyz
  1  'x, y, z'
loop_
 _atom_site_type_symbol
 _atom_site_label
 _atom_site_symmetry_multiplicity
 _atom_site_fract_x
 _atom_site_fract_y
 _atom_site_fract_z
 _atom_site_occupancy
  V  V0  1  0.250000  0.525069  0.329409  1
  V  V1  1  0.250000  0.025123  0.170546  1
  Fe  Fe2  1  0.750000  0.357093  0.061816  1
  Fe  Fe3  1  0.750000  0.857036  0.438219  1
  Fe  Fe4  1  0.250000  0.644320  0.936936  1
  Fe  Fe5  1  0.250000  0.144412  0.563104  1
  P  P6  1  0.750000  0.730305  0.122732  1
  P  P7  1  0.750000  0.230504  0.377162  1
  P  P8  1  0.250000  0.271548  0.878746  1
  P  P9  1  0.250000  0.771467  0.621319  1
  Ru  Ru10  1  0.750000  0.471578  0.662328  1
  Ru  Ru11  1  0.750000  0.971546  0.837684  1
