# generated using pymatgen
data_PaTi5Mo2
_symmetry_space_group_name_H-M   'P 1'
_cell_length_a   6.58400538
_cell_length_b   5.61424264
_cell_length_c   4.55956900
_cell_angle_alpha   90.00000000
_cell_angle_beta   90.00000000
_cell_angle_gamma   124.62213356
_symmetry_Int_Tables_number   1
_chemical_formula_structural   PaTi5Mo2
_chemical_formula_sum   'Pa1 Ti5 Mo2'
_cell_volume   138.69511156
_cell_formula_units_Z   1
loop_
 _symmetry_equiv_pos_site_id
 _symmetry_equiv_pos_as_xyz
  1  'x, y, z'
loop_
 _atom_site_type_symbol
 _atom_site_label
 _atom_site_symmetry_multiplicity
 _atom_site_fract_x
 _atom_site_fract_y
 _atom_site_fract_z
 _atom_site_occupancy
  Pa  Pa0  1  0.028398  0.075550  0.000000  1
  Ti  Ti1  1  0.547637  0.077860  0.000000  1
  Ti  Ti2  1  0.520084  0.546780  0.000000  1
  Ti  Ti3  1  0.312179  0.117632  0.500000  1
  Ti  Ti4  1  0.281958  0.600517  0.500000  1
  Ti  Ti5  1  0.798081  0.572780  0.500000  1
  Mo  Mo6  1  0.050274  0.601187  0.000000  1
  Mo  Mo7  1  0.794790  0.074298  0.500000  1
