# generated using pymatgen
data_Y9Er(SiHg)4
_symmetry_space_group_name_H-M   'P 1'
_cell_length_a   8.80476608
_cell_length_b   8.80476691
_cell_length_c   7.57925605
_cell_angle_alpha   89.99458122
_cell_angle_beta   89.99457551
_cell_angle_gamma   129.14009125
_symmetry_Int_Tables_number   1
_chemical_formula_structural   Y9Er(SiHg)4
_chemical_formula_sum   'Y9 Er1 Si4 Hg4'
_cell_volume   455.72495212
_cell_formula_units_Z   1
loop_
 _symmetry_equiv_pos_site_id
 _symmetry_equiv_pos_as_xyz
  1  'x, y, z'
loop_
 _atom_site_type_symbol
 _atom_site_label
 _atom_site_symmetry_multiplicity
 _atom_site_fract_x
 _atom_site_fract_y
 _atom_site_fract_z
 _atom_site_occupancy
  Y  Y0  1  0.054848  0.309672  0.323735  1
  Y  Y1  1  0.945152  0.690328  0.676265  1
  Y  Y2  1  0.444463  0.189691  0.824327  1
  Y  Y3  1  0.810309  0.555537  0.175673  1
  Y  Y4  1  0.555537  0.810309  0.175673  1
  Y  Y5  1  0.189691  0.444463  0.824327  1
  Y  Y6  1  0.690328  0.945152  0.676265  1
  Y  Y7  1  0.309672  0.054848  0.323735  1
  Y  Y8  1  0.500000  0.500000  0.500000  1
  Er  Er9  1  0.000000  0.000000  0.000000  1
  Si  Si10  1  0.380515  0.380515  0.121867  1
  Si  Si11  1  0.619485  0.619485  0.878133  1
  Si  Si12  1  0.118675  0.118675  0.622750  1
  Si  Si13  1  0.881325  0.881325  0.377250  1
  Hg  Hg14  1  0.781948  0.218052  0.000000  1
  Hg  Hg15  1  0.218052  0.781948  0.000000  1
  Hg  Hg16  1  0.718063  0.281937  0.500000  1
  Hg  Hg17  1  0.281937  0.718063  0.500000  1
