# generated using pymatgen
data_Ba2TaIO4
_symmetry_space_group_name_H-M   'P 1'
_cell_length_a   7.21450400
_cell_length_b   8.07917500
_cell_length_c   12.76472400
_cell_angle_alpha   90.00000000
_cell_angle_beta   90.00000000
_cell_angle_gamma   90.00000000
_symmetry_Int_Tables_number   1
_chemical_formula_structural   Ba2TaIO4
_chemical_formula_sum   'Ba8 Ta4 I4 O16'
_cell_volume   744.02053584
_cell_formula_units_Z   4
loop_
 _symmetry_equiv_pos_site_id
 _symmetry_equiv_pos_as_xyz
  1  'x, y, z'
loop_
 _atom_site_type_symbol
 _atom_site_label
 _atom_site_symmetry_multiplicity
 _atom_site_fract_x
 _atom_site_fract_y
 _atom_site_fract_z
 _atom_site_occupancy
  Ba  Ba0  1  0.618769  0.250000  0.000000  1
  Ba  Ba1  1  0.381231  0.750000  0.000000  1
  Ba  Ba2  1  0.381231  0.750000  0.500000  1
  Ba  Ba3  1  0.618769  0.250000  0.500000  1
  Ba  Ba4  1  0.105032  0.028187  0.250000  1
  Ba  Ba5  1  0.894968  0.971813  0.750000  1
  Ba  Ba6  1  0.894968  0.528187  0.250000  1
  Ba  Ba7  1  0.105032  0.471813  0.750000  1
  Ta  Ta8  1  0.119707  0.250000  0.000000  1
  Ta  Ta9  1  0.880293  0.750000  0.000000  1
  Ta  Ta10  1  0.880293  0.750000  0.500000  1
  Ta  Ta11  1  0.119707  0.250000  0.500000  1
  I  I12  1  0.411082  0.410905  0.250000  1
  I  I13  1  0.588918  0.589095  0.750000  1
  I  I14  1  0.588918  0.910905  0.250000  1
  I  I15  1  0.411082  0.089095  0.750000  1
  O  O16  1  0.038177  0.773159  0.116479  1
  O  O17  1  0.961823  0.226841  0.883521  1
  O  O18  1  0.961823  0.226841  0.616479  1
  O  O19  1  0.961823  0.273159  0.383521  1
  O  O20  1  0.038177  0.773159  0.383521  1
  O  O21  1  0.038177  0.726841  0.616479  1
  O  O22  1  0.038177  0.726841  0.883521  1
  O  O23  1  0.961823  0.273159  0.116479  1
  O  O24  1  0.274977  0.072179  0.031736  1
  O  O25  1  0.725023  0.927821  0.968264  1
  O  O26  1  0.725023  0.927821  0.531736  1
  O  O27  1  0.725023  0.572179  0.468264  1
  O  O28  1  0.274977  0.072179  0.468264  1
  O  O29  1  0.274977  0.427821  0.531736  1
  O  O30  1  0.274977  0.427821  0.968264  1
  O  O31  1  0.725023  0.572179  0.031736  1
