# generated using pymatgen
data_Tb4YCoSb2
_symmetry_space_group_name_H-M   'P 1'
_cell_length_a   7.94173500
_cell_length_b   8.75442800
_cell_length_c   12.26326300
_cell_angle_alpha   90.00000000
_cell_angle_beta   90.00000000
_cell_angle_gamma   90.00000000
_symmetry_Int_Tables_number   1
_chemical_formula_structural   Tb4YCoSb2
_chemical_formula_sum   'Tb16 Y4 Co4 Sb8'
_cell_volume   852.60761852
_cell_formula_units_Z   4
loop_
 _symmetry_equiv_pos_site_id
 _symmetry_equiv_pos_as_xyz
  1  'x, y, z'
loop_
 _atom_site_type_symbol
 _atom_site_label
 _atom_site_symmetry_multiplicity
 _atom_site_fract_x
 _atom_site_fract_y
 _atom_site_fract_z
 _atom_site_occupancy
  Tb  Tb0  1  0.454476  0.750000  0.998084  1
  Tb  Tb1  1  0.954476  0.250000  0.501916  1
  Tb  Tb2  1  0.545524  0.250000  0.001916  1
  Tb  Tb3  1  0.045524  0.750000  0.498084  1
  Tb  Tb4  1  0.621808  0.750000  0.305621  1
  Tb  Tb5  1  0.121808  0.250000  0.194379  1
  Tb  Tb6  1  0.378192  0.250000  0.694379  1
  Tb  Tb7  1  0.878192  0.750000  0.805621  1
  Tb  Tb8  1  0.820709  0.964423  0.065064  1
  Tb  Tb9  1  0.320709  0.035577  0.434936  1
  Tb  Tb10  1  0.179291  0.464423  0.934936  1
  Tb  Tb11  1  0.679291  0.535577  0.565064  1
  Tb  Tb12  1  0.179291  0.035577  0.934936  1
  Tb  Tb13  1  0.679291  0.964423  0.565064  1
  Tb  Tb14  1  0.820709  0.535577  0.065064  1
  Tb  Tb15  1  0.320709  0.464423  0.434936  1
  Y  Y16  1  0.155466  0.750000  0.204452  1
  Y  Y17  1  0.655466  0.250000  0.295548  1
  Y  Y18  1  0.844534  0.250000  0.795548  1
  Y  Y19  1  0.344534  0.750000  0.704452  1
  Co  Co20  1  0.432748  0.750000  0.489180  1
  Co  Co21  1  0.932748  0.250000  0.010820  1
  Co  Co22  1  0.567252  0.250000  0.510820  1
  Co  Co23  1  0.067252  0.750000  0.989180  1
  Sb  Sb24  1  0.927684  0.991657  0.326637  1
  Sb  Sb25  1  0.427684  0.008343  0.173363  1
  Sb  Sb26  1  0.072316  0.491657  0.673363  1
  Sb  Sb27  1  0.572316  0.508343  0.826637  1
  Sb  Sb28  1  0.072316  0.008343  0.673363  1
  Sb  Sb29  1  0.572316  0.991657  0.826637  1
  Sb  Sb30  1  0.927684  0.508343  0.326637  1
  Sb  Sb31  1  0.427684  0.491657  0.173363  1
