# generated using pymatgen
data_TaCu3SeS3
_symmetry_space_group_name_H-M   'P 1'
_cell_length_a   5.57294962
_cell_length_b   5.57294962
_cell_length_c   5.57294962
_cell_angle_alpha   89.35490824
_cell_angle_beta   89.35490824
_cell_angle_gamma   90.64509176
_symmetry_Int_Tables_number   1
_chemical_formula_structural   TaCu3SeS3
_chemical_formula_sum   'Ta1 Cu3 Se1 S3'
_cell_volume   173.05021345
_cell_formula_units_Z   1
loop_
 _symmetry_equiv_pos_site_id
 _symmetry_equiv_pos_as_xyz
  1  'x, y, z'
loop_
 _atom_site_type_symbol
 _atom_site_label
 _atom_site_symmetry_multiplicity
 _atom_site_fract_x
 _atom_site_fract_y
 _atom_site_fract_z
 _atom_site_occupancy
  Ta  Ta0  1  0.999715  0.999715  0.000285  1
  Cu  Cu1  1  0.006404  0.006404  0.502661  1
  Cu  Cu2  1  0.006404  0.497339  0.993596  1
  Cu  Cu3  1  0.497339  0.006404  0.993596  1
  Se  Se4  1  0.742774  0.742774  0.257226  1
  S  S5  1  0.764475  0.241444  0.758556  1
  S  S6  1  0.241444  0.764475  0.758556  1
  S  S7  1  0.241444  0.241444  0.235525  1
