# generated using pymatgen
data_Ho12InFe2Co2Cu
_symmetry_space_group_name_H-M   'P 1'
_cell_length_a   8.28066923
_cell_length_b   8.28081224
_cell_length_c   8.28066885
_cell_angle_alpha   110.67603979
_cell_angle_beta   110.54867487
_cell_angle_gamma   107.21162891
_symmetry_Int_Tables_number   1
_chemical_formula_structural   Ho12InFe2Co2Cu
_chemical_formula_sum   'Ho12 In1 Fe2 Co2 Cu1'
_cell_volume   436.59703916
_cell_formula_units_Z   1
loop_
 _symmetry_equiv_pos_site_id
 _symmetry_equiv_pos_as_xyz
  1  'x, y, z'
loop_
 _atom_site_type_symbol
 _atom_site_label
 _atom_site_symmetry_multiplicity
 _atom_site_fract_x
 _atom_site_fract_y
 _atom_site_fract_z
 _atom_site_occupancy
  Ho  Ho0  1  0.315496  0.618930  0.303434  1
  Ho  Ho1  1  0.684504  0.381070  0.696566  1
  Ho  Ho2  1  0.315487  0.012052  0.696567  1
  Ho  Ho3  1  0.684513  0.987948  0.303433  1
  Ho  Ho4  1  0.185935  0.289873  0.475813  1
  Ho  Ho5  1  0.814065  0.710127  0.524187  1
  Ho  Ho6  1  0.185940  0.710127  0.896062  1
  Ho  Ho7  1  0.814060  0.289873  0.103938  1
  Ho  Ho8  1  0.417847  0.217961  0.199892  1
  Ho  Ho9  1  0.582153  0.782039  0.800108  1
  Ho  Ho10  1  0.018069  0.217961  0.800114  1
  Ho  Ho11  1  0.981931  0.782039  0.199886  1
  In  In12  1  0.500000  0.500000  0.000000  1
  Fe  Fe13  1  0.109188  0.609186  0.499999  1
  Fe  Fe14  1  0.890812  0.390814  0.500001  1
  Co  Co15  1  0.378317  0.000000  0.378317  1
  Co  Co16  1  0.621683  0.000000  0.621683  1
  Cu  Cu17  1  0.000000  0.000000  0.000000  1
