# generated using pymatgen
data_Ta5NbRe5Si6Os
_symmetry_space_group_name_H-M   'P 1'
_cell_length_a   7.56472162
_cell_length_b   7.53971943
_cell_length_c   7.55461152
_cell_angle_alpha   127.48759517
_cell_angle_beta   124.07472221
_cell_angle_gamma   80.29238032
_symmetry_Int_Tables_number   1
_chemical_formula_structural   Ta5NbRe5Si6Os
_chemical_formula_sum   'Ta5 Nb1 Re5 Si6 Os1'
_cell_volume   273.28726696
_cell_formula_units_Z   1
loop_
 _symmetry_equiv_pos_site_id
 _symmetry_equiv_pos_as_xyz
  1  'x, y, z'
loop_
 _atom_site_type_symbol
 _atom_site_label
 _atom_site_symmetry_multiplicity
 _atom_site_fract_x
 _atom_site_fract_y
 _atom_site_fract_z
 _atom_site_occupancy
  Ta  Ta0  1  0.451064  0.505608  0.550809  1
  Ta  Ta1  1  0.968283  0.498938  0.039219  1
  Ta  Ta2  1  0.031379  0.076103  0.537961  1
  Ta  Ta3  1  0.754662  0.914903  0.666871  1
  Ta  Ta4  1  0.243876  0.896603  0.149136  1
  Nb  Nb5  1  0.555883  0.090419  0.039640  1
  Re  Re6  1  0.029686  0.244484  0.272591  1
  Re  Re7  1  0.150536  0.748631  0.645890  1
  Re  Re8  1  0.837699  0.501223  0.588923  1
  Re  Re9  1  0.604693  0.747528  0.099984  1
  Re  Re10  1  0.410990  0.500399  0.160745  1
  Si  Si11  1  0.765671  0.486127  0.217763  1
  Si  Si12  1  0.222460  0.490797  0.767364  1
  Si  Si13  1  0.334323  0.834673  0.498645  1
  Si  Si14  1  0.659813  0.166981  0.493701  1
  Si  Si15  1  0.835660  0.828846  0.997968  1
  Si  Si16  1  0.175556  0.164252  0.004244  1
  Os  Os17  1  0.467767  0.245685  0.710742  1
