# generated using pymatgen
data_TiCo4Si2Mo5C
_symmetry_space_group_name_H-M   'P 1'
_cell_length_a   7.73763037
_cell_length_b   7.71248629
_cell_length_c   7.74276530
_cell_angle_alpha   60.12948225
_cell_angle_beta   60.02192931
_cell_angle_gamma   59.89209271
_symmetry_Int_Tables_number   1
_chemical_formula_structural   TiCo4Si2Mo5C
_chemical_formula_sum   'Ti2 Co8 Si4 Mo10 C2'
_cell_volume   326.83043993
_cell_formula_units_Z   2
loop_
 _symmetry_equiv_pos_site_id
 _symmetry_equiv_pos_as_xyz
  1  'x, y, z'
loop_
 _atom_site_type_symbol
 _atom_site_label
 _atom_site_symmetry_multiplicity
 _atom_site_fract_x
 _atom_site_fract_y
 _atom_site_fract_z
 _atom_site_occupancy
  Ti  Ti0  1  0.053320  0.052522  0.447922  1
  Ti  Ti1  1  0.446236  0.052522  0.447922  1
  Co  Co2  1  0.418035  0.419332  0.744599  1
  Co  Co3  1  0.410778  0.753410  0.425037  1
  Co  Co4  1  0.748336  0.409875  0.419457  1
  Co  Co5  1  0.422335  0.409875  0.419457  1
  Co  Co6  1  0.829757  0.837913  0.502571  1
  Co  Co7  1  0.832095  0.509226  0.826582  1
  Co  Co8  1  0.505536  0.835959  0.824763  1
  Co  Co9  1  0.833740  0.835959  0.824763  1
  Si  Si10  1  0.623451  0.629028  0.124070  1
  Si  Si11  1  0.624246  0.125063  0.626444  1
  Si  Si12  1  0.125164  0.623989  0.623440  1
  Si  Si13  1  0.627406  0.623989  0.623440  1
  Mo  Mo14  1  0.055487  0.446318  0.442708  1
  Mo  Mo15  1  0.447413  0.447360  0.053473  1
  Mo  Mo16  1  0.051755  0.447360  0.053473  1
  Mo  Mo17  1  0.444922  0.055642  0.054513  1
  Mo  Mo18  1  0.194781  0.197350  0.809039  1
  Mo  Mo19  1  0.798831  0.197350  0.809039  1
  Mo  Mo20  1  0.196216  0.792287  0.815282  1
  Mo  Mo21  1  0.807767  0.798126  0.195242  1
  Mo  Mo22  1  0.198865  0.798126  0.195242  1
  Mo  Mo23  1  0.803797  0.200739  0.191666  1
  C  C24  1  0.249858  0.252685  0.247600  1
  C  C25  1  0.999874  0.997998  0.002255  1
