# generated using pymatgen
data_Sr5Nd3(In4Au3)4
_symmetry_space_group_name_H-M   'P 1'
_cell_length_a   15.40997900
_cell_length_b   15.40997900
_cell_length_c   4.45248900
_cell_angle_alpha   90.00000000
_cell_angle_beta   90.00000000
_cell_angle_gamma   120.00000214
_symmetry_Int_Tables_number   1
_chemical_formula_structural   Sr5Nd3(In4Au3)4
_chemical_formula_sum   'Sr5 Nd3 In16 Au12'
_cell_volume   915.66701805
_cell_formula_units_Z   1
loop_
 _symmetry_equiv_pos_site_id
 _symmetry_equiv_pos_as_xyz
  1  'x, y, z'
loop_
 _atom_site_type_symbol
 _atom_site_label
 _atom_site_symmetry_multiplicity
 _atom_site_fract_x
 _atom_site_fract_y
 _atom_site_fract_z
 _atom_site_occupancy
  Sr  Sr0  1  0.333333  0.666667  0.000000  1
  Sr  Sr1  1  0.666667  0.333333  0.000000  1
  Sr  Sr2  1  0.816761  0.000000  0.500000  1
  Sr  Sr3  1  0.000000  0.816761  0.500000  1
  Sr  Sr4  1  0.183239  0.183239  0.500000  1
  Nd  Nd5  1  0.450019  0.000000  0.000000  1
  Nd  Nd6  1  0.000000  0.450019  0.000000  1
  Nd  Nd7  1  0.549981  0.549981  0.000000  1
  In  In8  1  0.181785  0.376248  0.000000  1
  In  In9  1  0.623752  0.805538  0.000000  1
  In  In10  1  0.376248  0.181785  0.000000  1
  In  In11  1  0.194462  0.818215  0.000000  1
  In  In12  1  0.805538  0.623752  0.000000  1
  In  In13  1  0.818215  0.194462  0.000000  1
  In  In14  1  0.284627  0.000000  0.500000  1
  In  In15  1  0.000000  0.284627  0.500000  1
  In  In16  1  0.715373  0.715373  0.500000  1
  In  In17  1  0.351636  0.477216  0.500000  1
  In  In18  1  0.522784  0.874420  0.500000  1
  In  In19  1  0.477216  0.351636  0.500000  1
  In  In20  1  0.125580  0.648364  0.500000  1
  In  In21  1  0.874420  0.522784  0.500000  1
  In  In22  1  0.648364  0.125580  0.500000  1
  In  In23  1  0.000000  0.000000  0.000000  1
  Au  Au24  1  0.170491  0.490980  0.500000  1
  Au  Au25  1  0.509020  0.679511  0.500000  1
  Au  Au26  1  0.490980  0.170491  0.500000  1
  Au  Au27  1  0.320489  0.829509  0.500000  1
  Au  Au28  1  0.679511  0.509020  0.500000  1
  Au  Au29  1  0.829509  0.320489  0.500000  1
  Au  Au30  1  0.175381  0.000000  0.000000  1
  Au  Au31  1  0.000000  0.175381  0.000000  1
  Au  Au32  1  0.824619  0.824619  0.000000  1
  Au  Au33  1  0.652930  0.000000  0.000000  1
  Au  Au34  1  0.000000  0.652930  0.000000  1
  Au  Au35  1  0.347070  0.347070  0.000000  1
