# generated using pymatgen
data_Sr2Ga5SiPt2
_symmetry_space_group_name_H-M   'P 1'
_cell_length_a   6.15458170
_cell_length_b   6.15458200
_cell_length_c   6.11458900
_cell_angle_alpha   90.00000000
_cell_angle_beta   90.00000000
_cell_angle_gamma   117.42042877
_symmetry_Int_Tables_number   1
_chemical_formula_structural   Sr2Ga5SiPt2
_chemical_formula_sum   'Sr2 Ga5 Si1 Pt2'
_cell_volume   205.59225042
_cell_formula_units_Z   1
loop_
 _symmetry_equiv_pos_site_id
 _symmetry_equiv_pos_as_xyz
  1  'x, y, z'
loop_
 _atom_site_type_symbol
 _atom_site_label
 _atom_site_symmetry_multiplicity
 _atom_site_fract_x
 _atom_site_fract_y
 _atom_site_fract_z
 _atom_site_occupancy
  Sr  Sr0  1  0.238358  0.761642  0.750000  1
  Sr  Sr1  1  0.760797  0.239203  0.250000  1
  Ga  Ga2  1  0.347439  0.652561  0.250000  1
  Ga  Ga3  1  0.735267  0.730898  0.994720  1
  Ga  Ga4  1  0.735267  0.730898  0.505280  1
  Ga  Ga5  1  0.269102  0.264733  0.994720  1
  Ga  Ga6  1  0.269102  0.264733  0.505280  1
  Si  Si7  1  0.654078  0.345922  0.750000  1
  Pt  Pt8  1  0.881061  0.118939  0.750000  1
  Pt  Pt9  1  0.109529  0.890471  0.250000  1
