# generated using pymatgen
data_La2Ho4IrI10
_symmetry_space_group_name_H-M   'P 1'
_cell_length_a   7.80917826
_cell_length_b   9.82791766
_cell_length_c   9.77517100
_cell_angle_alpha   106.71800793
_cell_angle_beta   95.68278601
_cell_angle_gamma   105.47429556
_symmetry_Int_Tables_number   1
_chemical_formula_structural   La2Ho4IrI10
_chemical_formula_sum   'La2 Ho4 Ir1 I10'
_cell_volume   679.79632845
_cell_formula_units_Z   1
loop_
 _symmetry_equiv_pos_site_id
 _symmetry_equiv_pos_as_xyz
  1  'x, y, z'
loop_
 _atom_site_type_symbol
 _atom_site_label
 _atom_site_symmetry_multiplicity
 _atom_site_fract_x
 _atom_site_fract_y
 _atom_site_fract_z
 _atom_site_occupancy
  La  La0  1  0.880894  0.955658  0.238679  1
  La  La1  1  0.119106  0.044342  0.761321  1
  Ho  Ho2  1  0.028790  0.712806  0.913030  1
  Ho  Ho3  1  0.971210  0.287194  0.086970  1
  Ho  Ho4  1  0.651576  0.873985  0.836878  1
  Ho  Ho5  1  0.348424  0.126015  0.163122  1
  Ir  Ir6  1  0.000000  0.000000  0.000000  1
  I  I7  1  0.652250  0.552814  0.731134  1
  I  I8  1  0.347750  0.447186  0.268866  1
  I  I9  1  0.728661  0.910438  0.542840  1
  I  I10  1  0.271339  0.089562  0.457160  1
  I  I11  1  0.082081  0.380839  0.824042  1
  I  I12  1  0.917919  0.619161  0.175958  1
  I  I13  1  0.444089  0.816272  0.088770  1
  I  I14  1  0.555911  0.183728  0.911230  1
  I  I15  1  0.230275  0.736524  0.658605  1
  I  I16  1  0.769725  0.263476  0.341395  1
