# generated using pymatgen
data_Hf4VSn3N
_symmetry_space_group_name_H-M   'P 1'
_cell_length_a   8.25842900
_cell_length_b   8.25842848
_cell_length_c   5.58730600
_cell_angle_alpha   90.00000000
_cell_angle_beta   90.00000000
_cell_angle_gamma   119.99999807
_symmetry_Int_Tables_number   1
_chemical_formula_structural   Hf4VSn3N
_chemical_formula_sum   'Hf8 V2 Sn6 N2'
_cell_volume   330.01064482
_cell_formula_units_Z   2
loop_
 _symmetry_equiv_pos_site_id
 _symmetry_equiv_pos_as_xyz
  1  'x, y, z'
loop_
 _atom_site_type_symbol
 _atom_site_label
 _atom_site_symmetry_multiplicity
 _atom_site_fract_x
 _atom_site_fract_y
 _atom_site_fract_z
 _atom_site_occupancy
  Hf  Hf0  1  0.333333  0.666667  0.500000  1
  Hf  Hf1  1  0.666667  0.333333  0.500000  1
  Hf  Hf2  1  0.777575  0.777575  0.747551  1
  Hf  Hf3  1  0.222425  0.000000  0.747551  1
  Hf  Hf4  1  0.000000  0.222425  0.747551  1
  Hf  Hf5  1  0.222425  0.222425  0.252449  1
  Hf  Hf6  1  0.777575  0.000000  0.252449  1
  Hf  Hf7  1  0.000000  0.777575  0.252449  1
  V  V8  1  0.666667  0.333333  0.000000  1
  V  V9  1  0.333333  0.666667  0.000000  1
  Sn  Sn10  1  0.408780  0.408780  0.764653  1
  Sn  Sn11  1  0.591220  0.000000  0.764653  1
  Sn  Sn12  1  0.000000  0.591220  0.764653  1
  Sn  Sn13  1  0.591220  0.591220  0.235347  1
  Sn  Sn14  1  0.408780  0.000000  0.235347  1
  Sn  Sn15  1  0.000000  0.408780  0.235347  1
  N  N16  1  0.000000  0.000000  0.000000  1
  N  N17  1  0.000000  0.000000  0.500000  1
