# generated using pymatgen
data_Tm3Zr7(Si5Ir2)4
_symmetry_space_group_name_H-M   'P 1'
_cell_length_a   12.47538200
_cell_length_b   12.47538169
_cell_length_c   4.14172000
_cell_angle_alpha   90.00000000
_cell_angle_beta   90.00000000
_cell_angle_gamma   90.13705571
_symmetry_Int_Tables_number   1
_chemical_formula_structural   Tm3Zr7(Si5Ir2)4
_chemical_formula_sum   'Tm3 Zr7 Si20 Ir8'
_cell_volume   644.59537840
_cell_formula_units_Z   1
loop_
 _symmetry_equiv_pos_site_id
 _symmetry_equiv_pos_as_xyz
  1  'x, y, z'
loop_
 _atom_site_type_symbol
 _atom_site_label
 _atom_site_symmetry_multiplicity
 _atom_site_fract_x
 _atom_site_fract_y
 _atom_site_fract_z
 _atom_site_occupancy
  Tm  Tm0  1  0.115359  0.615359  0.500000  1
  Tm  Tm1  1  0.384273  0.116112  0.500000  1
  Tm  Tm2  1  0.616112  0.884273  0.500000  1
  Zr  Zr3  1  0.499598  0.500681  0.000000  1
  Zr  Zr4  1  0.000681  0.999598  0.000000  1
  Zr  Zr5  1  0.677514  0.177514  0.500000  1
  Zr  Zr6  1  0.324974  0.824974  0.500000  1
  Zr  Zr7  1  0.173836  0.324104  0.500000  1
  Zr  Zr8  1  0.824104  0.673836  0.500000  1
  Zr  Zr9  1  0.882206  0.382206  0.500000  1
  Si  Si10  1  0.567618  0.067618  0.000000  1
  Si  Si11  1  0.433801  0.933801  0.000000  1
  Si  Si12  1  0.064798  0.432760  0.000000  1
  Si  Si13  1  0.932760  0.564798  0.000000  1
  Si  Si14  1  0.664899  0.699276  0.000000  1
  Si  Si15  1  0.335170  0.300615  0.000000  1
  Si  Si16  1  0.164985  0.800090  0.000000  1
  Si  Si17  1  0.836546  0.201315  0.000000  1
  Si  Si18  1  0.300090  0.664985  0.000000  1
  Si  Si19  1  0.701315  0.336546  0.000000  1
  Si  Si20  1  0.199276  0.164899  0.000000  1
  Si  Si21  1  0.800615  0.835170  0.000000  1
  Si  Si22  1  0.653524  0.505492  0.500000  1
  Si  Si23  1  0.346551  0.491285  0.500000  1
  Si  Si24  1  0.153454  0.993097  0.500000  1
  Si  Si25  1  0.847364  0.006946  0.500000  1
  Si  Si26  1  0.493097  0.653454  0.500000  1
  Si  Si27  1  0.506946  0.347364  0.500000  1
  Si  Si28  1  0.005492  0.153524  0.500000  1
  Si  Si29  1  0.991285  0.846551  0.500000  1
  Ir  Ir30  1  0.744658  0.520140  0.000000  1
  Ir  Ir31  1  0.254793  0.479636  0.000000  1
  Ir  Ir32  1  0.244282  0.980128  0.000000  1
  Ir  Ir33  1  0.756796  0.021321  0.000000  1
  Ir  Ir34  1  0.480128  0.744282  0.000000  1
  Ir  Ir35  1  0.521321  0.256796  0.000000  1
  Ir  Ir36  1  0.020140  0.244658  0.000000  1
  Ir  Ir37  1  0.979636  0.754793  0.000000  1
