# generated using pymatgen
data_Y5OsRuO12
_symmetry_space_group_name_H-M   'P 1'
_cell_length_a   6.89327408
_cell_length_b   6.89327481
_cell_length_c   7.49191414
_cell_angle_alpha   73.98521933
_cell_angle_beta   73.98521835
_cell_angle_gamma   48.85717923
_symmetry_Int_Tables_number   1
_chemical_formula_structural   Y5OsRuO12
_chemical_formula_sum   'Y5 Os1 Ru1 O12'
_cell_volume   255.48609120
_cell_formula_units_Z   1
loop_
 _symmetry_equiv_pos_site_id
 _symmetry_equiv_pos_as_xyz
  1  'x, y, z'
loop_
 _atom_site_type_symbol
 _atom_site_label
 _atom_site_symmetry_multiplicity
 _atom_site_fract_x
 _atom_site_fract_y
 _atom_site_fract_z
 _atom_site_occupancy
  Y  Y0  1  0.492228  0.507772  0.500000  1
  Y  Y1  1  0.185298  0.191317  0.170388  1
  Y  Y2  1  0.808683  0.814702  0.829612  1
  Y  Y3  1  0.792719  0.811010  0.357933  1
  Y  Y4  1  0.188990  0.207281  0.642067  1
  Os  Os5  1  0.285535  0.714465  0.000000  1
  Ru  Ru6  1  0.729633  0.270367  0.000000  1
  O  O7  1  0.009675  0.988454  0.174893  1
  O  O8  1  0.011546  0.990325  0.825107  1
  O  O9  1  0.501446  0.496888  0.799672  1
  O  O10  1  0.503112  0.498554  0.200328  1
  O  O11  1  0.590543  0.101373  0.574960  1
  O  O12  1  0.898627  0.409457  0.425040  1
  O  O13  1  0.393636  0.908884  0.429400  1
  O  O14  1  0.414135  0.910953  0.915117  1
  O  O15  1  0.089047  0.585865  0.084883  1
  O  O16  1  0.587658  0.073627  0.085282  1
  O  O17  1  0.926373  0.412342  0.914718  1
  O  O18  1  0.091116  0.606364  0.570600  1
