# generated using pymatgen
data_Y4Ho6Be3Si15Ag2
_symmetry_space_group_name_H-M   'P 1'
_cell_length_a   4.02527815
_cell_length_b   4.02908522
_cell_length_c   34.72361565
_cell_angle_alpha   86.66060310
_cell_angle_beta   86.65089319
_cell_angle_gamma   89.99865901
_symmetry_Int_Tables_number   1
_chemical_formula_structural   Y4Ho6Be3Si15Ag2
_chemical_formula_sum   'Y4 Ho6 Be3 Si15 Ag2'
_cell_volume   561.23451689
_cell_formula_units_Z   1
loop_
 _symmetry_equiv_pos_site_id
 _symmetry_equiv_pos_as_xyz
  1  'x, y, z'
loop_
 _atom_site_type_symbol
 _atom_site_label
 _atom_site_symmetry_multiplicity
 _atom_site_fract_x
 _atom_site_fract_y
 _atom_site_fract_z
 _atom_site_occupancy
  Y  Y0  1  0.947771  0.447788  0.103998  1
  Y  Y1  1  0.350746  0.850544  0.298394  1
  Y  Y2  1  0.753808  0.253939  0.492555  1
  Y  Y3  1  0.149130  0.650191  0.700914  1
  Ho  Ho4  1  0.544622  0.044962  0.910267  1
  Ho  Ho5  1  0.997248  0.996809  0.006111  1
  Ho  Ho6  1  0.399872  0.399625  0.200577  1
  Ho  Ho7  1  0.802516  0.802377  0.395321  1
  Ho  Ho8  1  0.205740  0.205272  0.589179  1
  Ho  Ho9  1  0.601449  0.601252  0.797101  1
  Be  Be10  1  0.465078  0.964997  0.069687  1
  Be  Be11  1  0.867528  0.367680  0.264374  1
  Be  Be12  1  0.270373  0.770828  0.458764  1
  Si  Si13  1  0.666731  0.167416  0.665604  1
  Si  Si14  1  0.061616  0.562808  0.874225  1
  Si  Si15  1  0.915592  0.915820  0.168395  1
  Si  Si16  1  0.318348  0.318723  0.362924  1
  Si  Si17  1  0.720686  0.720953  0.558408  1
  Si  Si18  1  0.116343  0.116102  0.767166  1
  Si  Si19  1  0.512890  0.512769  0.974329  1
  Si  Si20  1  0.433376  0.933019  0.133135  1
  Si  Si21  1  0.836076  0.335750  0.327710  1
  Si  Si22  1  0.238934  0.738926  0.522107  1
  Si  Si23  1  0.633861  0.135074  0.731961  1
  Si  Si24  1  0.030234  0.529919  0.940137  1
  Si  Si25  1  0.479468  0.479176  0.041266  1
  Si  Si26  1  0.882263  0.882015  0.235579  1
  Si  Si27  1  0.285325  0.285065  0.430100  1
  Ag  Ag28  1  0.687263  0.686067  0.628285  1
  Ag  Ag29  1  0.082311  0.081340  0.837027  1
