# generated using pymatgen
data_TbErSiPtI2
_symmetry_space_group_name_H-M   'P 1'
_cell_length_a   4.13999000
_cell_length_b   4.13999042
_cell_length_c   11.38419100
_cell_angle_alpha   90.00000000
_cell_angle_beta   90.00000000
_cell_angle_gamma   119.99999662
_symmetry_Int_Tables_number   1
_chemical_formula_structural   TbErSiPtI2
_chemical_formula_sum   'Tb1 Er1 Si1 Pt1 I2'
_cell_volume   168.97849924
_cell_formula_units_Z   1
loop_
 _symmetry_equiv_pos_site_id
 _symmetry_equiv_pos_as_xyz
  1  'x, y, z'
loop_
 _atom_site_type_symbol
 _atom_site_label
 _atom_site_symmetry_multiplicity
 _atom_site_fract_x
 _atom_site_fract_y
 _atom_site_fract_z
 _atom_site_occupancy
  Tb  Tb0  1  0.000000  0.000000  0.166737  1
  Er  Er1  1  0.000000  0.000000  0.835150  1
  Si  Si2  1  0.666667  0.333333  0.009018  1
  Pt  Pt3  1  0.333333  0.666667  0.986681  1
  I  I4  1  0.333333  0.666667  0.347415  1
  I  I5  1  0.666667  0.333333  0.655000  1
