# generated using pymatgen
data_Eu4PSe3
_symmetry_space_group_name_H-M   'P 1'
_cell_length_a   7.45430332
_cell_length_b   7.45430313
_cell_length_c   7.45430292
_cell_angle_alpha   131.94119951
_cell_angle_beta   131.94119521
_cell_angle_gamma   70.32191218
_symmetry_Int_Tables_number   1
_chemical_formula_structural   Eu4PSe3
_chemical_formula_sum   'Eu4 P1 Se3'
_cell_volume   224.60314497
_cell_formula_units_Z   1
loop_
 _symmetry_equiv_pos_site_id
 _symmetry_equiv_pos_as_xyz
  1  'x, y, z'
loop_
 _atom_site_type_symbol
 _atom_site_label
 _atom_site_symmetry_multiplicity
 _atom_site_fract_x
 _atom_site_fract_y
 _atom_site_fract_z
 _atom_site_occupancy
  Eu  Eu0  1  0.241167  0.241167  0.000000  1
  Eu  Eu1  1  0.758833  0.758833  0.000000  1
  Eu  Eu2  1  0.500000  0.000000  0.500000  1
  Eu  Eu3  1  0.000000  0.500000  0.500000  1
  P  P4  1  0.000000  0.000000  0.000000  1
  Se  Se5  1  0.750000  0.250000  0.500000  1
  Se  Se6  1  0.250000  0.750000  0.500000  1
  Se  Se7  1  0.500000  0.500000  0.000000  1
