# generated using pymatgen
data_Tm8B24MoIr3
_symmetry_space_group_name_H-M   'P 1'
_cell_length_a   3.62071200
_cell_length_b   9.12123547
_cell_length_c   11.47087601
_cell_angle_alpha   89.80743694
_cell_angle_beta   90.00000000
_cell_angle_gamma   90.00000000
_symmetry_Int_Tables_number   1
_chemical_formula_structural   Tm8B24MoIr3
_chemical_formula_sum   'Tm8 B24 Mo1 Ir3'
_cell_volume   378.82774709
_cell_formula_units_Z   1
loop_
 _symmetry_equiv_pos_site_id
 _symmetry_equiv_pos_as_xyz
  1  'x, y, z'
loop_
 _atom_site_type_symbol
 _atom_site_label
 _atom_site_symmetry_multiplicity
 _atom_site_fract_x
 _atom_site_fract_y
 _atom_site_fract_z
 _atom_site_occupancy
  Tm  Tm0  1  0.000000  0.323220  0.412491  1
  Tm  Tm1  1  0.000000  0.679570  0.582572  1
  Tm  Tm2  1  0.000000  0.816614  0.090531  1
  Tm  Tm3  1  0.000000  0.179214  0.914782  1
  Tm  Tm4  1  0.000000  0.943756  0.375040  1
  Tm  Tm5  1  0.000000  0.056725  0.626449  1
  Tm  Tm6  1  0.000000  0.445984  0.125585  1
  Tm  Tm7  1  0.000000  0.556239  0.872739  1
  B  B8  1  0.500000  0.551311  0.435896  1
  B  B9  1  0.500000  0.446502  0.566904  1
  B  B10  1  0.500000  0.052434  0.065908  1
  B  B11  1  0.500000  0.946343  0.934504  1
  B  B12  1  0.500000  0.750478  0.422268  1
  B  B13  1  0.500000  0.250959  0.579150  1
  B  B14  1  0.500000  0.249569  0.078484  1
  B  B15  1  0.500000  0.749681  0.920870  1
  B  B16  1  0.500000  0.794898  0.264224  1
  B  B17  1  0.500000  0.206618  0.735724  1
  B  B18  1  0.500000  0.291971  0.233571  1
  B  B19  1  0.500000  0.708102  0.764151  1
  B  B20  1  0.500000  0.631417  0.183061  1
  B  B21  1  0.500000  0.367705  0.816445  1
  B  B22  1  0.500000  0.132182  0.315835  1
  B  B23  1  0.500000  0.868962  0.683704  1
  B  B24  1  0.500000  0.981479  0.212997  1
  B  B25  1  0.500000  0.018959  0.787733  1
  B  B26  1  0.500000  0.479000  0.286091  1
  B  B27  1  0.500000  0.518422  0.713199  1
  B  B28  1  0.500000  0.607966  0.027558  1
  B  B29  1  0.500000  0.391008  0.969301  1
  B  B30  1  0.500000  0.109345  0.470811  1
  B  B31  1  0.500000  0.894224  0.531076  1
  Mo  Mo32  1  0.000000  0.637431  0.321051  1
  Ir  Ir33  1  0.000000  0.361340  0.679668  1
  Ir  Ir34  1  0.000000  0.137397  0.177629  1
  Ir  Ir35  1  0.000000  0.862975  0.821996  1
