# generated using pymatgen
data_Cs2Pr10P2Br17
_symmetry_space_group_name_H-M   'P 1'
_cell_length_a   9.45315276
_cell_length_b   11.17191202
_cell_length_c   11.17223104
_cell_angle_alpha   106.59211851
_cell_angle_beta   94.73118166
_cell_angle_gamma   94.73779277
_symmetry_Int_Tables_number   1
_chemical_formula_structural   Cs2Pr10P2Br17
_chemical_formula_sum   'Cs2 Pr10 P2 Br17'
_cell_volume   1119.93391188
_cell_formula_units_Z   1
loop_
 _symmetry_equiv_pos_site_id
 _symmetry_equiv_pos_as_xyz
  1  'x, y, z'
loop_
 _atom_site_type_symbol
 _atom_site_label
 _atom_site_symmetry_multiplicity
 _atom_site_fract_x
 _atom_site_fract_y
 _atom_site_fract_z
 _atom_site_occupancy
  Cs  Cs0  1  0.999347  0.818395  0.180657  1
  Cs  Cs1  1  0.999338  0.180658  0.818398  1
  Pr  Pr2  1  0.437386  0.162927  0.162918  1
  Pr  Pr3  1  0.573767  0.506604  0.198637  1
  Pr  Pr4  1  0.832857  0.289888  0.289911  1
  Pr  Pr5  1  0.306475  0.435765  0.435768  1
  Pr  Pr6  1  0.426311  0.801721  0.493566  1
  Pr  Pr7  1  0.573705  0.198634  0.506600  1
  Pr  Pr8  1  0.693716  0.564619  0.564612  1
  Pr  Pr9  1  0.167303  0.709908  0.709921  1
  Pr  Pr10  1  0.426338  0.493575  0.801727  1
  Pr  Pr11  1  0.562664  0.837072  0.837070  1
  P  P12  1  0.570549  0.360370  0.360368  1
  P  P13  1  0.429687  0.639666  0.639664  1
  Br  Br14  1  0.584057  0.691094  0.025878  1
  Br  Br15  1  0.711748  0.067829  0.067827  1
  Br  Br16  1  0.858386  0.451816  0.118316  1
  Br  Br17  1  0.135665  0.211220  0.211174  1
  Br  Br18  1  0.286800  0.602178  0.258749  1
  Br  Br19  1  0.416286  0.974354  0.309074  1
  Br  Br20  1  0.713360  0.741545  0.398077  1
  Br  Br21  1  0.858326  0.118279  0.451808  1
  Br  Br22  1  0.000088  0.499860  0.500005  1
  Br  Br23  1  0.141287  0.881268  0.547837  1
  Br  Br24  1  0.286757  0.258750  0.602180  1
  Br  Br25  1  0.583971  0.025880  0.691084  1
  Br  Br26  1  0.713353  0.398064  0.741527  1
  Br  Br27  1  0.864536  0.789008  0.788855  1
  Br  Br28  1  0.141336  0.547836  0.881316  1
  Br  Br29  1  0.288262  0.932106  0.932111  1
  Br  Br30  1  0.416343  0.309110  0.974367  1
