# generated using pymatgen
data_DyTm3(PdPt)2
_symmetry_space_group_name_H-M   'P 1'
_cell_length_a   4.52151000
_cell_length_b   5.55014457
_cell_length_c   6.93541191
_cell_angle_alpha   90.21260594
_cell_angle_beta   90.00000000
_cell_angle_gamma   90.00000000
_symmetry_Int_Tables_number   1
_chemical_formula_structural   DyTm3(PdPt)2
_chemical_formula_sum   'Dy1 Tm3 Pd2 Pt2'
_cell_volume   174.04320081
_cell_formula_units_Z   1
loop_
 _symmetry_equiv_pos_site_id
 _symmetry_equiv_pos_as_xyz
  1  'x, y, z'
loop_
 _atom_site_type_symbol
 _atom_site_label
 _atom_site_symmetry_multiplicity
 _atom_site_fract_x
 _atom_site_fract_y
 _atom_site_fract_z
 _atom_site_occupancy
  Dy  Dy0  1  0.000000  0.895249  0.182521  1
  Tm  Tm1  1  0.000000  0.104579  0.682302  1
  Tm  Tm2  1  0.500000  0.387230  0.318862  1
  Tm  Tm3  1  0.500000  0.612389  0.817780  1
  Pd  Pd4  1  0.000000  0.589564  0.545132  1
  Pd  Pd5  1  0.000000  0.408313  0.041032  1
  Pt  Pt6  1  0.500000  0.901144  0.459718  1
  Pt  Pt7  1  0.500000  0.101532  0.952652  1
