# generated using pymatgen
data_Tb5HoAl24(Os3Rh)2
_symmetry_space_group_name_H-M   'P 1'
_cell_length_a   8.83102400
_cell_length_b   8.83007907
_cell_length_c   9.59216500
_cell_angle_alpha   90.00000000
_cell_angle_beta   90.00000000
_cell_angle_gamma   120.00354000
_symmetry_Int_Tables_number   1
_chemical_formula_structural   Tb5HoAl24(Os3Rh)2
_chemical_formula_sum   'Tb5 Ho1 Al24 Os6 Rh2'
_cell_volume   647.75002321
_cell_formula_units_Z   1
loop_
 _symmetry_equiv_pos_site_id
 _symmetry_equiv_pos_as_xyz
  1  'x, y, z'
loop_
 _atom_site_type_symbol
 _atom_site_label
 _atom_site_symmetry_multiplicity
 _atom_site_fract_x
 _atom_site_fract_y
 _atom_site_fract_z
 _atom_site_occupancy
  Tb  Tb0  1  0.806056  0.612111  0.750000  1
  Tb  Tb1  1  0.616185  0.803802  0.250000  1
  Tb  Tb2  1  0.383806  0.196048  0.750000  1
  Tb  Tb3  1  0.187618  0.803802  0.250000  1
  Tb  Tb4  1  0.812241  0.196048  0.750000  1
  Ho  Ho5  1  0.194671  0.389344  0.250000  1
  Al  Al6  1  0.333191  0.666383  0.021024  1
  Al  Al7  1  0.666712  0.333424  0.979479  1
  Al  Al8  1  0.666712  0.333424  0.520521  1
  Al  Al9  1  0.333191  0.666383  0.478976  1
  Al  Al10  1  0.164141  0.328282  0.575425  1
  Al  Al11  1  0.835791  0.671582  0.423955  1
  Al  Al12  1  0.673034  0.835086  0.576361  1
  Al  Al13  1  0.835791  0.671582  0.076045  1
  Al  Al14  1  0.326629  0.164996  0.423261  1
  Al  Al15  1  0.164141  0.328282  0.924575  1
  Al  Al16  1  0.162053  0.835086  0.576361  1
  Al  Al17  1  0.326629  0.164996  0.076739  1
  Al  Al18  1  0.838366  0.164996  0.423261  1
  Al  Al19  1  0.673034  0.835086  0.923639  1
  Al  Al20  1  0.838366  0.164996  0.076739  1
  Al  Al21  1  0.162053  0.835086  0.923639  1
  Al  Al22  1  0.560110  0.120220  0.250000  1
  Al  Al23  1  0.439865  0.879730  0.750000  1
  Al  Al24  1  0.875319  0.436919  0.250000  1
  Al  Al25  1  0.125101  0.562833  0.750000  1
  Al  Al26  1  0.561598  0.436919  0.250000  1
  Al  Al27  1  0.437732  0.562833  0.750000  1
  Al  Al28  1  0.000205  0.000408  0.250000  1
  Al  Al29  1  0.000411  0.000823  0.750000  1
  Os  Os30  1  0.000231  0.499767  0.000373  1
  Os  Os31  1  0.499536  0.499767  0.000373  1
  Os  Os32  1  0.000231  0.499767  0.499627  1
  Os  Os33  1  0.499536  0.499767  0.499627  1
  Os  Os34  1  0.999957  0.999915  0.000061  1
  Os  Os35  1  0.999957  0.999915  0.499939  1
  Rh  Rh36  1  0.499898  0.999797  0.000106  1
  Rh  Rh37  1  0.499898  0.999797  0.499894  1
