# generated using pymatgen
data_MgMnGa2Ag4F14
_symmetry_space_group_name_H-M   'P 1'
_cell_length_a   7.61641118
_cell_length_b   7.61828384
_cell_length_c   7.52845234
_cell_angle_alpha   120.80714051
_cell_angle_beta   117.29967650
_cell_angle_gamma   92.31166939
_symmetry_Int_Tables_number   1
_chemical_formula_structural   MgMnGa2Ag4F14
_chemical_formula_sum   'Mg1 Mn1 Ga2 Ag4 F14'
_cell_volume   310.97063489
_cell_formula_units_Z   1
loop_
 _symmetry_equiv_pos_site_id
 _symmetry_equiv_pos_as_xyz
  1  'x, y, z'
loop_
 _atom_site_type_symbol
 _atom_site_label
 _atom_site_symmetry_multiplicity
 _atom_site_fract_x
 _atom_site_fract_y
 _atom_site_fract_z
 _atom_site_occupancy
  Mg  Mg0  1  0.000000  0.500000  0.000000  1
  Mn  Mn1  1  0.000000  0.000000  0.500000  1
  Ga  Ga2  1  0.500000  0.000000  0.500000  1
  Ga  Ga3  1  0.000000  0.500000  0.500000  1
  Ag  Ag4  1  0.000000  0.000000  0.000000  1
  Ag  Ag5  1  0.500000  0.500000  0.000000  1
  Ag  Ag6  1  0.500000  0.000000  0.000000  1
  Ag  Ag7  1  0.500000  0.500000  0.500000  1
  F  F8  1  0.372046  0.091609  0.283606  1
  F  F9  1  0.692069  0.411760  0.283706  1
  F  F10  1  0.694567  0.295307  0.757982  1
  F  F11  1  0.953207  0.199053  0.371584  1
  F  F12  1  0.962712  0.563404  0.758027  1
  F  F13  1  0.672566  0.918371  0.371615  1
  F  F14  1  0.327434  0.081629  0.628385  1
  F  F15  1  0.037288  0.436596  0.241973  1
  F  F16  1  0.046793  0.800947  0.628416  1
  F  F17  1  0.305433  0.704693  0.242018  1
  F  F18  1  0.896257  0.739600  0.135881  1
  F  F19  1  0.627954  0.908391  0.716394  1
  F  F20  1  0.307931  0.588240  0.716294  1
  F  F21  1  0.103743  0.260400  0.864119  1
