# generated using pymatgen
data_BaYb3(NO3)8
_symmetry_space_group_name_H-M   'P 1'
_cell_length_a   7.76307046
_cell_length_b   7.76307111
_cell_length_c   7.76306978
_cell_angle_alpha   92.69463933
_cell_angle_beta   92.69463417
_cell_angle_gamma   92.69464667
_symmetry_Int_Tables_number   1
_chemical_formula_structural   BaYb3(NO3)8
_chemical_formula_sum   'Ba1 Yb3 N8 O24'
_cell_volume   466.24106659
_cell_formula_units_Z   1
loop_
 _symmetry_equiv_pos_site_id
 _symmetry_equiv_pos_as_xyz
  1  'x, y, z'
loop_
 _atom_site_type_symbol
 _atom_site_label
 _atom_site_symmetry_multiplicity
 _atom_site_fract_x
 _atom_site_fract_y
 _atom_site_fract_z
 _atom_site_occupancy
  Ba  Ba0  1  0.500000  0.500000  0.500000  1
  Yb  Yb1  1  0.500000  0.000000  0.000000  1
  Yb  Yb2  1  0.000000  0.000000  0.500000  1
  Yb  Yb3  1  0.000000  0.500000  0.000000  1
  N  N4  1  0.658407  0.857471  0.312823  1
  N  N5  1  0.341593  0.142529  0.687177  1
  N  N6  1  0.162504  0.162504  0.162504  1
  N  N7  1  0.857471  0.312823  0.658407  1
  N  N8  1  0.312823  0.658407  0.857471  1
  N  N9  1  0.837496  0.837496  0.837496  1
  N  N10  1  0.142529  0.687177  0.341593  1
  N  N11  1  0.687177  0.341593  0.142529  1
  O  O12  1  0.040682  0.183929  0.262894  1
  O  O13  1  0.808390  0.456244  0.719407  1
  O  O14  1  0.243367  0.731693  0.983032  1
  O  O15  1  0.959318  0.816071  0.737106  1
  O  O16  1  0.191610  0.543756  0.280593  1
  O  O17  1  0.756633  0.268307  0.016968  1
  O  O18  1  0.262894  0.040682  0.183929  1
  O  O19  1  0.781828  0.238641  0.524764  1
  O  O20  1  0.456244  0.719407  0.808390  1
  O  O21  1  0.737106  0.959318  0.816071  1
  O  O22  1  0.218172  0.761359  0.475236  1
  O  O23  1  0.543756  0.280593  0.191610  1
  O  O24  1  0.183929  0.262894  0.040682  1
  O  O25  1  0.983032  0.243367  0.731693  1
  O  O26  1  0.238641  0.524764  0.781828  1
  O  O27  1  0.816071  0.737106  0.959318  1
  O  O28  1  0.016968  0.756633  0.268307  1
  O  O29  1  0.761359  0.475236  0.218172  1
  O  O30  1  0.731693  0.983032  0.243367  1
  O  O31  1  0.719407  0.808390  0.456244  1
  O  O32  1  0.524764  0.781828  0.238641  1
  O  O33  1  0.268307  0.016968  0.756633  1
  O  O34  1  0.280593  0.191610  0.543756  1
  O  O35  1  0.475236  0.218172  0.761359  1
