# generated using pymatgen
data_TbPrEr2(WO6)2
_symmetry_space_group_name_H-M   'P 1'
_cell_length_a   5.46029900
_cell_length_b   7.77473871
_cell_length_c   11.50932708
_cell_angle_alpha   75.78455311
_cell_angle_beta   90.00000000
_cell_angle_gamma   90.00000000
_symmetry_Int_Tables_number   1
_chemical_formula_structural   TbPrEr2(WO6)2
_chemical_formula_sum   'Tb2 Pr2 Er4 W4 O24'
_cell_volume   473.63724598
_cell_formula_units_Z   2
loop_
 _symmetry_equiv_pos_site_id
 _symmetry_equiv_pos_as_xyz
  1  'x, y, z'
loop_
 _atom_site_type_symbol
 _atom_site_label
 _atom_site_symmetry_multiplicity
 _atom_site_fract_x
 _atom_site_fract_y
 _atom_site_fract_z
 _atom_site_occupancy
  Tb  Tb0  1  0.743340  0.000000  0.250000  1
  Tb  Tb1  1  0.256660  0.000000  0.750000  1
  Pr  Pr2  1  0.685481  0.500000  0.250000  1
  Pr  Pr3  1  0.314519  0.500000  0.750000  1
  Er  Er4  1  0.184946  0.203514  0.422977  1
  Er  Er5  1  0.184946  0.796486  0.077023  1
  Er  Er6  1  0.815054  0.796486  0.577023  1
  Er  Er7  1  0.815054  0.203514  0.922977  1
  W  W8  1  0.254176  0.271851  0.115614  1
  W  W9  1  0.254176  0.728149  0.384386  1
  W  W10  1  0.745824  0.728149  0.884386  1
  W  W11  1  0.745824  0.271851  0.615614  1
  O  O12  1  0.452666  0.204961  0.273756  1
  O  O13  1  0.452666  0.795039  0.226244  1
  O  O14  1  0.547334  0.795039  0.726244  1
  O  O15  1  0.547334  0.204961  0.773756  1
  O  O16  1  0.046112  0.058266  0.102647  1
  O  O17  1  0.046112  0.941734  0.397353  1
  O  O18  1  0.953888  0.941734  0.897353  1
  O  O19  1  0.953888  0.058266  0.602647  1
  O  O20  1  0.986969  0.279284  0.230983  1
  O  O21  1  0.986969  0.720716  0.269017  1
  O  O22  1  0.013031  0.720716  0.769017  1
  O  O23  1  0.013031  0.279284  0.730983  1
  O  O24  1  0.856127  0.357981  0.454373  1
  O  O25  1  0.856127  0.642019  0.045627  1
  O  O26  1  0.143873  0.642019  0.545627  1
  O  O27  1  0.143873  0.357981  0.954373  1
  O  O28  1  0.653794  0.506844  0.612507  1
  O  O29  1  0.653794  0.493156  0.887493  1
  O  O30  1  0.346206  0.493156  0.387493  1
  O  O31  1  0.346206  0.506844  0.112507  1
  O  O32  1  0.464049  0.156978  0.568460  1
  O  O33  1  0.464049  0.843022  0.931540  1
  O  O34  1  0.535951  0.843022  0.431540  1
  O  O35  1  0.535951  0.156978  0.068460  1
