# generated using pymatgen
data_Er3Th(InCu2)2
_symmetry_space_group_name_H-M   'P 1'
_cell_length_a   7.59499114
_cell_length_b   7.59499114
_cell_length_c   3.71404000
_cell_angle_alpha   90.00000000
_cell_angle_beta   90.00000000
_cell_angle_gamma   90.78704517
_symmetry_Int_Tables_number   1
_chemical_formula_structural   Er3Th(InCu2)2
_chemical_formula_sum   'Er3 Th1 In2 Cu4'
_cell_volume   214.22006387
_cell_formula_units_Z   1
loop_
 _symmetry_equiv_pos_site_id
 _symmetry_equiv_pos_as_xyz
  1  'x, y, z'
loop_
 _atom_site_type_symbol
 _atom_site_label
 _atom_site_symmetry_multiplicity
 _atom_site_fract_x
 _atom_site_fract_y
 _atom_site_fract_z
 _atom_site_occupancy
  Er  Er0  1  0.325213  0.825213  0.500000  1
  Er  Er1  1  0.173717  0.327735  0.500000  1
  Er  Er2  1  0.827735  0.673717  0.500000  1
  Th  Th3  1  0.674339  0.174339  0.500000  1
  In  In4  1  0.493654  0.506731  0.000000  1
  In  In5  1  0.006731  0.993654  0.000000  1
  Cu  Cu6  1  0.121651  0.621651  0.000000  1
  Cu  Cu7  1  0.884697  0.384697  0.000000  1
  Cu  Cu8  1  0.617588  0.874674  0.000000  1
  Cu  Cu9  1  0.374674  0.117588  0.000000  1
