# generated using pymatgen
data_Ho16MgTl2InNi4
_symmetry_space_group_name_H-M   'P 1'
_cell_length_a   9.56971012
_cell_length_b   9.52985420
_cell_length_c   9.53061700
_cell_angle_alpha   59.99735563
_cell_angle_beta   60.13504537
_cell_angle_gamma   60.25086781
_symmetry_Int_Tables_number   1
_chemical_formula_structural   Ho16MgTl2InNi4
_chemical_formula_sum   'Ho16 Mg1 Tl2 In1 Ni4'
_cell_volume   616.37063379
_cell_formula_units_Z   1
loop_
 _symmetry_equiv_pos_site_id
 _symmetry_equiv_pos_as_xyz
  1  'x, y, z'
loop_
 _atom_site_type_symbol
 _atom_site_label
 _atom_site_symmetry_multiplicity
 _atom_site_fract_x
 _atom_site_fract_y
 _atom_site_fract_z
 _atom_site_occupancy
  Ho  Ho0  1  0.346231  0.345373  0.347394  1
  Ho  Ho1  1  0.346231  0.345373  0.961001  1
  Ho  Ho2  1  0.347334  0.958833  0.346916  1
  Ho  Ho3  1  0.953498  0.348407  0.349048  1
  Ho  Ho4  1  0.811546  0.188133  0.188855  1
  Ho  Ho5  1  0.184778  0.814262  0.813427  1
  Ho  Ho6  1  0.184778  0.814262  0.187532  1
  Ho  Ho7  1  0.811546  0.188133  0.811464  1
  Ho  Ho8  1  0.186588  0.187142  0.813134  1
  Ho  Ho9  1  0.812384  0.811794  0.187910  1
  Ho  Ho10  1  0.938714  0.563413  0.563614  1
  Ho  Ho11  1  0.563520  0.937189  0.936406  1
  Ho  Ho12  1  0.563521  0.937189  0.562884  1
  Ho  Ho13  1  0.938714  0.563413  0.934260  1
  Ho  Ho14  1  0.563779  0.562844  0.936688  1
  Ho  Ho15  1  0.936860  0.936220  0.563460  1
  Mg  Mg16  1  0.270407  0.576466  0.576564  1
  Tl  Tl17  1  0.582611  0.584331  0.586216  1
  Tl  Tl18  1  0.582611  0.584331  0.246844  1
  In  In19  1  0.581588  0.251590  0.583411  1
  Ni  Ni20  1  0.140492  0.142631  0.143595  1
  Ni  Ni21  1  0.140492  0.142631  0.573281  1
  Ni  Ni22  1  0.139228  0.573803  0.143484  1
  Ni  Ni23  1  0.572547  0.142239  0.142606  1
