# generated using pymatgen
data_Ba2LaTi3O9
_symmetry_space_group_name_H-M   'P 1'
_cell_length_a   8.96163168
_cell_length_b   8.96163139
_cell_length_c   4.00157500
_cell_angle_alpha   90.00000000
_cell_angle_beta   90.00000000
_cell_angle_gamma   143.03723869
_symmetry_Int_Tables_number   1
_chemical_formula_structural   Ba2LaTi3O9
_chemical_formula_sum   'Ba2 La1 Ti3 O9'
_cell_volume   193.23835077
_cell_formula_units_Z   1
loop_
 _symmetry_equiv_pos_site_id
 _symmetry_equiv_pos_as_xyz
  1  'x, y, z'
loop_
 _atom_site_type_symbol
 _atom_site_label
 _atom_site_symmetry_multiplicity
 _atom_site_fract_x
 _atom_site_fract_y
 _atom_site_fract_z
 _atom_site_occupancy
  Ba  Ba0  1  0.667666  0.332334  0.014654  1
  Ba  Ba1  1  0.332334  0.667666  0.014654  1
  La  La2  1  0.000000  0.000000  0.989300  1
  Ti  Ti3  1  0.166017  0.833983  0.513641  1
  Ti  Ti4  1  0.833983  0.166017  0.513641  1
  Ti  Ti5  1  0.500000  0.500000  0.513004  1
  O  O6  1  0.159259  0.840741  0.016430  1
  O  O7  1  0.840741  0.159259  0.016430  1
  O  O8  1  0.500000  0.500000  0.017727  1
  O  O9  1  0.838748  0.680788  0.520724  1
  O  O10  1  0.500000  0.000000  0.514812  1
  O  O11  1  0.161252  0.319212  0.520724  1
  O  O12  1  0.319212  0.161252  0.520724  1
  O  O13  1  0.000000  0.500000  0.514812  1
  O  O14  1  0.680788  0.838748  0.520724  1
