# generated using pymatgen
data_Co2Mo3AsC
_symmetry_space_group_name_H-M   'P 1'
_cell_length_a   7.91232299
_cell_length_b   7.91232222
_cell_length_c   7.91232300
_cell_angle_alpha   60.00000094
_cell_angle_beta   60.00000415
_cell_angle_gamma   59.99999956
_symmetry_Int_Tables_number   1
_chemical_formula_structural   Co2Mo3AsC
_chemical_formula_sum   'Co8 Mo12 As4 C4'
_cell_volume   350.26520578
_cell_formula_units_Z   4
loop_
 _symmetry_equiv_pos_site_id
 _symmetry_equiv_pos_as_xyz
  1  'x, y, z'
loop_
 _atom_site_type_symbol
 _atom_site_label
 _atom_site_symmetry_multiplicity
 _atom_site_fract_x
 _atom_site_fract_y
 _atom_site_fract_z
 _atom_site_occupancy
  Co  Co0  1  0.917897  0.246309  0.917897  1
  Co  Co1  1  0.332103  0.332103  0.003691  1
  Co  Co2  1  0.003691  0.332103  0.332103  1
  Co  Co3  1  0.332103  0.332103  0.332103  1
  Co  Co4  1  0.246309  0.917897  0.917897  1
  Co  Co5  1  0.917897  0.917897  0.917897  1
  Co  Co6  1  0.917897  0.917897  0.246309  1
  Co  Co7  1  0.332103  0.003691  0.332103  1
  Mo  Mo8  1  0.939649  0.939649  0.560351  1
  Mo  Mo9  1  0.689649  0.310351  0.310351  1
  Mo  Mo10  1  0.310351  0.689649  0.689649  1
  Mo  Mo11  1  0.689649  0.689649  0.310351  1
  Mo  Mo12  1  0.689649  0.310351  0.689649  1
  Mo  Mo13  1  0.310351  0.689649  0.310351  1
  Mo  Mo14  1  0.560351  0.939649  0.560351  1
  Mo  Mo15  1  0.560351  0.939649  0.939649  1
  Mo  Mo16  1  0.939649  0.560351  0.560351  1
  Mo  Mo17  1  0.939649  0.560351  0.939649  1
  Mo  Mo18  1  0.310351  0.310351  0.689649  1
  Mo  Mo19  1  0.560351  0.560351  0.939649  1
  As  As20  1  0.125000  0.625000  0.125000  1
  As  As21  1  0.125000  0.125000  0.625000  1
  As  As22  1  0.625000  0.125000  0.125000  1
  As  As23  1  0.125000  0.125000  0.125000  1
  C  C24  1  0.625000  0.125000  0.625000  1
  C  C25  1  0.625000  0.625000  0.125000  1
  C  C26  1  0.125000  0.625000  0.625000  1
  C  C27  1  0.625000  0.625000  0.625000  1
