# generated using pymatgen
data_Li4Pr3SmAs8
_symmetry_space_group_name_H-M   'P 1'
_cell_length_a   3.97555200
_cell_length_b   4.01437496
_cell_length_c   21.40746400
_cell_angle_alpha   89.95937633
_cell_angle_beta   90.00000000
_cell_angle_gamma   90.00000000
_symmetry_Int_Tables_number   1
_chemical_formula_structural   Li4Pr3SmAs8
_chemical_formula_sum   'Li4 Pr3 Sm1 As8'
_cell_volume   341.64926155
_cell_formula_units_Z   1
loop_
 _symmetry_equiv_pos_site_id
 _symmetry_equiv_pos_as_xyz
  1  'x, y, z'
loop_
 _atom_site_type_symbol
 _atom_site_label
 _atom_site_symmetry_multiplicity
 _atom_site_fract_x
 _atom_site_fract_y
 _atom_site_fract_z
 _atom_site_occupancy
  Li  Li0  1  0.750000  0.726219  0.249723  1
  Li  Li1  1  0.250000  0.226259  0.249751  1
  Li  Li2  1  0.750000  0.773464  0.751191  1
  Li  Li3  1  0.250000  0.273594  0.751168  1
  Pr  Pr4  1  0.250000  0.729412  0.115885  1
  Pr  Pr5  1  0.750000  0.228505  0.382897  1
  Pr  Pr6  1  0.250000  0.771254  0.617218  1
  Sm  Sm7  1  0.750000  0.270521  0.883460  1
  As  As8  1  0.750000  0.226316  0.171245  1
  As  As9  1  0.250000  0.726041  0.328122  1
  As  As10  1  0.750000  0.273896  0.672202  1
  As  As11  1  0.250000  0.773578  0.830971  1
  As  As12  1  0.250000  0.209698  0.999928  1
  As  As13  1  0.750000  0.708551  0.498241  1
  As  As14  1  0.250000  0.291301  0.501741  1
  As  As15  1  0.750000  0.791390  0.996255  1
