# generated using pymatgen
data_DyHo3Al4(IrPt)2
_symmetry_space_group_name_H-M   'P 1'
_cell_length_a   4.35679000
_cell_length_b   6.79457515
_cell_length_c   7.85445717
_cell_angle_alpha   89.97614839
_cell_angle_beta   90.00000000
_cell_angle_gamma   90.00000000
_symmetry_Int_Tables_number   1
_chemical_formula_structural   DyHo3Al4(IrPt)2
_chemical_formula_sum   'Dy1 Ho3 Al4 Ir2 Pt2'
_cell_volume   232.51183928
_cell_formula_units_Z   1
loop_
 _symmetry_equiv_pos_site_id
 _symmetry_equiv_pos_as_xyz
  1  'x, y, z'
loop_
 _atom_site_type_symbol
 _atom_site_label
 _atom_site_symmetry_multiplicity
 _atom_site_fract_x
 _atom_site_fract_y
 _atom_site_fract_z
 _atom_site_occupancy
  Dy  Dy0  1  0.250000  0.032456  0.679035  1
  Ho  Ho1  1  0.250000  0.532626  0.821053  1
  Ho  Ho2  1  0.750000  0.972311  0.317796  1
  Ho  Ho3  1  0.750000  0.472383  0.182064  1
  Al  Al4  1  0.250000  0.140983  0.064631  1
  Al  Al5  1  0.250000  0.640830  0.435419  1
  Al  Al6  1  0.750000  0.856027  0.940276  1
  Al  Al7  1  0.750000  0.356333  0.559785  1
  Ir  Ir8  1  0.250000  0.267220  0.381571  1
  Ir  Ir9  1  0.250000  0.767065  0.118134  1
  Pt  Pt10  1  0.750000  0.730542  0.620113  1
  Pt  Pt11  1  0.750000  0.231224  0.880123  1
