# generated using pymatgen
data_Tb3Tl2
_symmetry_space_group_name_H-M   'P 1'
_cell_length_a   11.71471505
_cell_length_b   11.71471509
_cell_length_c   11.71471500
_cell_angle_alpha   116.91197450
_cell_angle_beta   116.91197462
_cell_angle_gamma   95.43738117
_symmetry_Int_Tables_number   1
_chemical_formula_structural   Tb3Tl2
_chemical_formula_sum   'Tb24 Tl16'
_cell_volume   1184.07890261
_cell_formula_units_Z   8
loop_
 _symmetry_equiv_pos_site_id
 _symmetry_equiv_pos_as_xyz
  1  'x, y, z'
loop_
 _atom_site_type_symbol
 _atom_site_label
 _atom_site_symmetry_multiplicity
 _atom_site_fract_x
 _atom_site_fract_y
 _atom_site_fract_z
 _atom_site_occupancy
  Tb  Tb0  1  0.147298  0.647298  0.500000  1
  Tb  Tb1  1  0.647298  0.147298  0.500000  1
  Tb  Tb2  1  0.852702  0.352702  0.500000  1
  Tb  Tb3  1  0.352702  0.852702  0.500000  1
  Tb  Tb4  1  0.668614  0.168614  0.837229  1
  Tb  Tb5  1  0.331386  0.831386  0.162771  1
  Tb  Tb6  1  0.168614  0.331386  0.500000  1
  Tb  Tb7  1  0.831386  0.668614  0.500000  1
  Tb  Tb8  1  0.068100  0.931630  0.271463  1
  Tb  Tb9  1  0.660167  0.796637  0.728537  1
  Tb  Tb10  1  0.568100  0.296637  0.136470  1
  Tb  Tb11  1  0.160167  0.431630  0.863530  1
  Tb  Tb12  1  0.796637  0.068100  0.136470  1
  Tb  Tb13  1  0.931630  0.660167  0.863530  1
  Tb  Tb14  1  0.431630  0.568100  0.271463  1
  Tb  Tb15  1  0.296637  0.160167  0.728537  1
  Tb  Tb16  1  0.931900  0.068370  0.728537  1
  Tb  Tb17  1  0.339833  0.203363  0.271463  1
  Tb  Tb18  1  0.431900  0.703363  0.863530  1
  Tb  Tb19  1  0.839833  0.568370  0.136470  1
  Tb  Tb20  1  0.203363  0.931900  0.863530  1
  Tb  Tb21  1  0.068370  0.339833  0.136470  1
  Tb  Tb22  1  0.568370  0.431900  0.728537  1
  Tb  Tb23  1  0.703363  0.839833  0.271463  1
  Tl  Tl24  1  0.750000  0.750000  0.000000  1
  Tl  Tl25  1  0.250000  0.250000  0.000000  1
  Tl  Tl26  1  0.000000  0.000000  0.000000  1
  Tl  Tl27  1  0.500000  0.500000  0.000000  1
  Tl  Tl28  1  0.117958  0.617958  0.735916  1
  Tl  Tl29  1  0.882042  0.382042  0.264084  1
  Tl  Tl30  1  0.617958  0.882042  0.500000  1
  Tl  Tl31  1  0.382042  0.117958  0.500000  1
  Tl  Tl32  1  0.871734  0.371734  0.845622  1
  Tl  Tl33  1  0.526112  0.026112  0.154378  1
  Tl  Tl34  1  0.371734  0.526112  0.500000  1
  Tl  Tl35  1  0.026112  0.871734  0.500000  1
  Tl  Tl36  1  0.128266  0.628266  0.154378  1
  Tl  Tl37  1  0.473888  0.973888  0.845622  1
  Tl  Tl38  1  0.628266  0.473888  0.500000  1
  Tl  Tl39  1  0.973888  0.128266  0.500000  1
