# generated using pymatgen
data_Sr5LaNbCo4O15
_symmetry_space_group_name_H-M   'P 1'
_cell_length_a   6.92093046
_cell_length_b   6.98507715
_cell_length_c   6.98507688
_cell_angle_alpha   87.18479207
_cell_angle_beta   87.05085837
_cell_angle_gamma   87.05084532
_symmetry_Int_Tables_number   1
_chemical_formula_structural   Sr5LaNbCo4O15
_chemical_formula_sum   'Sr5 La1 Nb1 Co4 O15'
_cell_volume   336.42160035
_cell_formula_units_Z   1
loop_
 _symmetry_equiv_pos_site_id
 _symmetry_equiv_pos_as_xyz
  1  'x, y, z'
loop_
 _atom_site_type_symbol
 _atom_site_label
 _atom_site_symmetry_multiplicity
 _atom_site_fract_x
 _atom_site_fract_y
 _atom_site_fract_z
 _atom_site_occupancy
  Sr  Sr0  1  0.130501  0.500232  0.865746  1
  Sr  Sr1  1  0.869499  0.134254  0.499768  1
  Sr  Sr2  1  0.000000  0.677955  0.322045  1
  Sr  Sr3  1  0.314448  0.001670  0.679355  1
  Sr  Sr4  1  0.685552  0.320645  0.998330  1
  La  La5  1  0.500000  0.866830  0.133170  1
  Nb  Nb6  1  0.500000  0.498876  0.501124  1
  Co  Co7  1  0.705008  0.708378  0.706727  1
  Co  Co8  1  0.294992  0.293273  0.291622  1
  Co  Co9  1  0.902733  0.902490  0.903280  1
  Co  Co10  1  0.097267  0.096720  0.097510  1
  O  O11  1  0.382818  0.557043  0.239961  1
  O  O12  1  0.241616  0.380937  0.551274  1
  O  O13  1  0.555545  0.243360  0.380194  1
  O  O14  1  0.617182  0.760039  0.442957  1
  O  O15  1  0.444455  0.619806  0.756640  1
  O  O16  1  0.758384  0.448726  0.619063  1
  O  O17  1  0.211990  0.032300  0.343174  1
  O  O18  1  0.350969  0.198478  0.035737  1
  O  O19  1  0.034633  0.344888  0.204083  1
  O  O20  1  0.788010  0.656826  0.967700  1
  O  O21  1  0.965367  0.795917  0.655112  1
  O  O22  1  0.160412  0.844940  0.002226  1
  O  O23  1  0.839588  0.997774  0.155060  1
  O  O24  1  0.000000  0.153380  0.846620  1
  O  O25  1  0.649031  0.964263  0.801522  1
