# generated using pymatgen
data_PrY(As3Rh5)2
_symmetry_space_group_name_H-M   'P 1'
_cell_length_a   4.04477200
_cell_length_b   12.92697545
_cell_length_c   11.39661300
_cell_angle_alpha   90.03527197
_cell_angle_beta   90.00000000
_cell_angle_gamma   90.00000000
_symmetry_Int_Tables_number   1
_chemical_formula_structural   PrY(As3Rh5)2
_chemical_formula_sum   'Pr2 Y2 As12 Rh20'
_cell_volume   595.89081125
_cell_formula_units_Z   2
loop_
 _symmetry_equiv_pos_site_id
 _symmetry_equiv_pos_as_xyz
  1  'x, y, z'
loop_
 _atom_site_type_symbol
 _atom_site_label
 _atom_site_symmetry_multiplicity
 _atom_site_fract_x
 _atom_site_fract_y
 _atom_site_fract_z
 _atom_site_occupancy
  Pr  Pr0  1  0.750000  0.701944  0.082164  1
  Pr  Pr1  1  0.250000  0.298056  0.917836  1
  Y  Y2  1  0.250000  0.799340  0.580450  1
  Y  Y3  1  0.750000  0.200660  0.419550  1
  As  As4  1  0.750000  0.614560  0.582726  1
  As  As5  1  0.250000  0.385440  0.417274  1
  As  As6  1  0.250000  0.886991  0.082989  1
  As  As7  1  0.750000  0.113009  0.917011  1
  As  As8  1  0.750000  0.889895  0.399931  1
  As  As9  1  0.250000  0.110105  0.600069  1
  As  As10  1  0.250000  0.609494  0.897749  1
  As  As11  1  0.750000  0.390506  0.102251  1
  As  As12  1  0.750000  0.868694  0.766589  1
  As  As13  1  0.250000  0.131306  0.233411  1
  As  As14  1  0.250000  0.629471  0.270417  1
  As  As15  1  0.750000  0.370529  0.729583  1
  Rh  Rh16  1  0.750000  0.701615  0.386715  1
  Rh  Rh17  1  0.250000  0.298385  0.613285  1
  Rh  Rh18  1  0.250000  0.799901  0.881485  1
  Rh  Rh19  1  0.750000  0.200099  0.118515  1
  Rh  Rh20  1  0.750000  0.994872  0.222496  1
  Rh  Rh21  1  0.250000  0.005128  0.777504  1
  Rh  Rh22  1  0.250000  0.503478  0.721867  1
  Rh  Rh23  1  0.750000  0.496522  0.278133  1
  Rh  Rh24  1  0.750000  0.676010  0.778915  1
  Rh  Rh25  1  0.250000  0.323990  0.221085  1
  Rh  Rh26  1  0.250000  0.824575  0.282672  1
  Rh  Rh27  1  0.750000  0.175425  0.717328  1
  Rh  Rh28  1  0.750000  0.929387  0.966889  1
  Rh  Rh29  1  0.250000  0.070613  0.033111  1
  Rh  Rh30  1  0.250000  0.571122  0.470424  1
  Rh  Rh31  1  0.750000  0.428878  0.529576  1
  Rh  Rh32  1  0.750000  0.978336  0.590362  1
  Rh  Rh33  1  0.250000  0.021664  0.409638  1
  Rh  Rh34  1  0.250000  0.517331  0.090645  1
  Rh  Rh35  1  0.750000  0.482668  0.909355  1
