# generated using pymatgen
data_BaSr3(ReN3)4
_symmetry_space_group_name_H-M   'P 1'
_cell_length_a   7.72357684
_cell_length_b   7.72357607
_cell_length_c   6.27772768
_cell_angle_alpha   78.35148408
_cell_angle_beta   78.35148882
_cell_angle_gamma   88.02549936
_symmetry_Int_Tables_number   1
_chemical_formula_structural   BaSr3(ReN3)4
_chemical_formula_sum   'Ba1 Sr3 Re4 N12'
_cell_volume   359.21485354
_cell_formula_units_Z   1
loop_
 _symmetry_equiv_pos_site_id
 _symmetry_equiv_pos_as_xyz
  1  'x, y, z'
loop_
 _atom_site_type_symbol
 _atom_site_label
 _atom_site_symmetry_multiplicity
 _atom_site_fract_x
 _atom_site_fract_y
 _atom_site_fract_z
 _atom_site_occupancy
  Ba  Ba0  1  0.317048  0.682952  0.250000  1
  Sr  Sr1  1  0.903717  0.096283  0.250000  1
  Sr  Sr2  1  0.092135  0.907865  0.750000  1
  Sr  Sr3  1  0.686888  0.313112  0.750000  1
  Re  Re4  1  0.796036  0.626813  0.247681  1
  Re  Re5  1  0.373187  0.203964  0.252319  1
  Re  Re6  1  0.629965  0.796805  0.744213  1
  Re  Re7  1  0.203195  0.370035  0.755787  1
  N  N8  1  0.772419  0.985545  0.662970  1
  N  N9  1  0.132102  0.588287  0.686353  1
  N  N10  1  0.330656  0.355900  0.990862  1
  N  N11  1  0.590368  0.130599  0.173891  1
  N  N12  1  0.869401  0.409632  0.326109  1
  N  N13  1  0.224277  0.021410  0.336470  1
  N  N14  1  0.978590  0.775723  0.163530  1
  N  N15  1  0.356134  0.326385  0.493764  1
  N  N16  1  0.644100  0.669344  0.509138  1
  N  N17  1  0.014455  0.227581  0.837030  1
  N  N18  1  0.411713  0.867898  0.813647  1
  N  N19  1  0.673615  0.643866  0.006236  1
