# generated using pymatgen
data_Th4NiIr13
_symmetry_space_group_name_H-M   'P 1'
_cell_length_a   5.35541335
_cell_length_b   5.35541426
_cell_length_c   13.54024498
_cell_angle_alpha   78.59404937
_cell_angle_beta   78.59404989
_cell_angle_gamma   59.99999318
_symmetry_Int_Tables_number   1
_chemical_formula_structural   Th4NiIr13
_chemical_formula_sum   'Th4 Ni1 Ir13'
_cell_volume   327.42675700
_cell_formula_units_Z   1
loop_
 _symmetry_equiv_pos_site_id
 _symmetry_equiv_pos_as_xyz
  1  'x, y, z'
loop_
 _atom_site_type_symbol
 _atom_site_label
 _atom_site_symmetry_multiplicity
 _atom_site_fract_x
 _atom_site_fract_y
 _atom_site_fract_z
 _atom_site_occupancy
  Th  Th0  1  0.949854  0.949854  0.150438  1
  Th  Th1  1  0.049768  0.049768  0.850695  1
  Th  Th2  1  0.852473  0.852473  0.442582  1
  Th  Th3  1  0.146486  0.146486  0.560542  1
  Ni  Ni4  1  0.388474  0.388474  0.834576  1
  Ir  Ir5  1  0.389618  0.389618  0.328942  1
  Ir  Ir6  1  0.891823  0.389618  0.328942  1
  Ir  Ir7  1  0.389618  0.891823  0.328942  1
  Ir  Ir8  1  0.607608  0.607608  0.674044  1
  Ir  Ir9  1  0.110740  0.607608  0.674044  1
  Ir  Ir10  1  0.607608  0.110740  0.674044  1
  Ir  Ir11  1  0.003288  0.500019  0.996673  1
  Ir  Ir12  1  0.500019  0.003288  0.996673  1
  Ir  Ir13  1  0.500019  0.500019  0.996673  1
  Ir  Ir14  1  0.722255  0.722255  0.833233  1
  Ir  Ir15  1  0.278475  0.278475  0.164575  1
  Ir  Ir16  1  0.612259  0.612259  0.163225  1
  Ir  Ir17  1  0.499614  0.499614  0.501159  1
