# generated using pymatgen
data_Sm5TmC2I11
_symmetry_space_group_name_H-M   'P 1'
_cell_length_a   9.66878725
_cell_length_b   10.81359828
_cell_length_c   15.07842690
_cell_angle_alpha   88.29860874
_cell_angle_beta   104.17967936
_cell_angle_gamma   109.96084208
_symmetry_Int_Tables_number   1
_chemical_formula_structural   Sm5TmC2I11
_chemical_formula_sum   'Sm10 Tm2 C4 I22'
_cell_volume   1434.14250891
_cell_formula_units_Z   2
loop_
 _symmetry_equiv_pos_site_id
 _symmetry_equiv_pos_as_xyz
  1  'x, y, z'
loop_
 _atom_site_type_symbol
 _atom_site_label
 _atom_site_symmetry_multiplicity
 _atom_site_fract_x
 _atom_site_fract_y
 _atom_site_fract_z
 _atom_site_occupancy
  Sm  Sm0  1  0.421554  0.781656  0.266420  1
  Sm  Sm1  1  0.578446  0.218344  0.733580  1
  Sm  Sm2  1  0.626100  0.574316  0.367779  1
  Sm  Sm3  1  0.373900  0.425684  0.632221  1
  Sm  Sm4  1  0.834067  0.646413  0.199692  1
  Sm  Sm5  1  0.165933  0.353587  0.800308  1
  Sm  Sm6  1  0.628679  0.849752  0.096249  1
  Sm  Sm7  1  0.371321  0.150248  0.903751  1
  Sm  Sm8  1  0.859198  0.946183  0.345845  1
  Sm  Sm9  1  0.140802  0.053817  0.654155  1
  Tm  Tm10  1  0.389885  0.481862  0.123540  1
  Tm  Tm11  1  0.610115  0.518138  0.876460  1
  C  C12  1  0.431581  0.344752  0.796668  1
  C  C13  1  0.568419  0.655248  0.203332  1
  C  C14  1  0.318840  0.234439  0.742183  1
  C  C15  1  0.681160  0.765561  0.257817  1
  I  I16  1  0.382272  0.306428  0.274510  1
  I  I17  1  0.617728  0.693572  0.725490  1
  I  I18  1  0.127166  0.554227  0.148476  1
  I  I19  1  0.872834  0.445773  0.851524  1
  I  I20  1  0.623080  0.379467  0.063284  1
  I  I21  1  0.376920  0.620533  0.936716  1
  I  I22  1  0.119789  0.213392  0.476781  1
  I  I23  1  0.880211  0.786608  0.523219  1
  I  I24  1  0.614134  0.035361  0.389838  1
  I  I25  1  0.385866  0.964639  0.610162  1
  I  I26  1  0.129444  0.868522  0.304782  1
  I  I27  1  0.870556  0.131478  0.695218  1
  I  I28  1  0.129124  0.537844  0.647831  1
  I  I29  1  0.870876  0.462156  0.352169  1
  I  I30  1  0.623712  0.374153  0.558796  1
  I  I31  1  0.376288  0.625847  0.441204  1
  I  I32  1  0.144028  0.225346  0.988467  1
  I  I33  1  0.855972  0.774654  0.011533  1
  I  I34  1  0.629305  0.044610  0.901906  1
  I  I35  1  0.370695  0.955390  0.098094  1
  I  I36  1  0.126178  0.885408  0.822750  1
  I  I37  1  0.873822  0.114592  0.177250  1
