# generated using pymatgen
data_DyHfReB6
_symmetry_space_group_name_H-M   'P 1'
_cell_length_a   3.59823600
_cell_length_b   9.00495700
_cell_length_c   11.39104600
_cell_angle_alpha   90.00000000
_cell_angle_beta   90.00000000
_cell_angle_gamma   90.00000000
_symmetry_Int_Tables_number   1
_chemical_formula_structural   DyHfReB6
_chemical_formula_sum   'Dy4 Hf4 Re4 B24'
_cell_volume   369.09222204
_cell_formula_units_Z   4
loop_
 _symmetry_equiv_pos_site_id
 _symmetry_equiv_pos_as_xyz
  1  'x, y, z'
loop_
 _atom_site_type_symbol
 _atom_site_label
 _atom_site_symmetry_multiplicity
 _atom_site_fract_x
 _atom_site_fract_y
 _atom_site_fract_z
 _atom_site_occupancy
  Dy  Dy0  1  0.000000  0.322255  0.414115  1
  Dy  Dy1  1  0.000000  0.677745  0.585885  1
  Dy  Dy2  1  0.000000  0.822255  0.085885  1
  Dy  Dy3  1  0.000000  0.177745  0.914115  1
  Hf  Hf4  1  0.000000  0.945073  0.372515  1
  Hf  Hf5  1  0.000000  0.054927  0.627485  1
  Hf  Hf6  1  0.000000  0.445073  0.127485  1
  Hf  Hf7  1  0.000000  0.554927  0.872515  1
  Re  Re8  1  0.000000  0.640654  0.317838  1
  Re  Re9  1  0.000000  0.359346  0.682162  1
  Re  Re10  1  0.000000  0.140654  0.182162  1
  Re  Re11  1  0.000000  0.859346  0.817838  1
  B  B12  1  0.500000  0.554602  0.433179  1
  B  B13  1  0.500000  0.445398  0.566821  1
  B  B14  1  0.500000  0.054602  0.066821  1
  B  B15  1  0.500000  0.945398  0.933179  1
  B  B16  1  0.500000  0.752819  0.418153  1
  B  B17  1  0.500000  0.247181  0.581847  1
  B  B18  1  0.500000  0.252819  0.081847  1
  B  B19  1  0.500000  0.747181  0.918153  1
  B  B20  1  0.500000  0.794904  0.264420  1
  B  B21  1  0.500000  0.205096  0.735580  1
  B  B22  1  0.500000  0.294904  0.235580  1
  B  B23  1  0.500000  0.705096  0.764420  1
  B  B24  1  0.500000  0.629980  0.183081  1
  B  B25  1  0.500000  0.370020  0.816919  1
  B  B26  1  0.500000  0.129980  0.316919  1
  B  B27  1  0.500000  0.870020  0.683081  1
  B  B28  1  0.500000  0.981956  0.213671  1
  B  B29  1  0.500000  0.018044  0.786329  1
  B  B30  1  0.500000  0.481956  0.286329  1
  B  B31  1  0.500000  0.518044  0.713671  1
  B  B32  1  0.500000  0.599563  0.026645  1
  B  B33  1  0.500000  0.400437  0.973355  1
  B  B34  1  0.500000  0.099563  0.473355  1
  B  B35  1  0.500000  0.900437  0.526645  1
