# generated using pymatgen
data_Dy4Al18Ir5Pt
_symmetry_space_group_name_H-M   'P 1'
_cell_length_a   7.57132858
_cell_length_b   7.57132833
_cell_length_c   9.46728867
_cell_angle_alpha   89.96574110
_cell_angle_beta   89.96574018
_cell_angle_gamma   119.64517046
_symmetry_Int_Tables_number   1
_chemical_formula_structural   Dy4Al18Ir5Pt
_chemical_formula_sum   'Dy4 Al18 Ir5 Pt1'
_cell_volume   471.67391498
_cell_formula_units_Z   1
loop_
 _symmetry_equiv_pos_site_id
 _symmetry_equiv_pos_as_xyz
  1  'x, y, z'
loop_
 _atom_site_type_symbol
 _atom_site_label
 _atom_site_symmetry_multiplicity
 _atom_site_fract_x
 _atom_site_fract_y
 _atom_site_fract_z
 _atom_site_occupancy
  Dy  Dy0  1  0.994801  0.670595  0.750652  1
  Dy  Dy1  1  0.005002  0.329400  0.249504  1
  Dy  Dy2  1  0.670600  0.994998  0.750496  1
  Dy  Dy3  1  0.329405  0.005199  0.249348  1
  Al  Al4  1  0.127988  0.127194  0.750459  1
  Al  Al5  1  0.872806  0.872012  0.249541  1
  Al  Al6  1  0.004268  0.335267  0.576203  1
  Al  Al7  1  0.002251  0.668436  0.423716  1
  Al  Al8  1  0.999936  0.665022  0.074381  1
  Al  Al9  1  0.334978  0.000064  0.925619  1
  Al  Al10  1  0.000628  0.334557  0.925210  1
  Al  Al11  1  0.665443  0.999372  0.074790  1
  Al  Al12  1  0.664733  0.995732  0.423797  1
  Al  Al13  1  0.331564  0.997749  0.576284  1
  Al  Al14  1  0.333193  0.333108  0.052083  1
  Al  Al15  1  0.666892  0.666807  0.947917  1
  Al  Al16  1  0.666324  0.669492  0.554985  1
  Al  Al17  1  0.330508  0.333676  0.445015  1
  Al  Al18  1  0.340203  0.549179  0.750320  1
  Al  Al19  1  0.660239  0.453267  0.247440  1
  Al  Al20  1  0.546733  0.339761  0.752560  1
  Al  Al21  1  0.450821  0.659797  0.249680  1
  Ir  Ir22  1  0.328118  0.671882  0.500000  1
  Ir  Ir23  1  0.328267  0.671733  0.000000  1
  Ir  Ir24  1  0.671911  0.328089  0.000000  1
  Ir  Ir25  1  0.999857  0.000143  0.500000  1
  Ir  Ir26  1  0.000184  0.999816  0.000000  1
  Pt  Pt27  1  0.672346  0.327654  0.500000  1
