# generated using pymatgen
data_Ho4TmReRuC7
_symmetry_space_group_name_H-M   'P 1'
_cell_length_a   8.21354994
_cell_length_b   8.20731861
_cell_length_c   3.44869000
_cell_angle_alpha   90.00000000
_cell_angle_beta   90.00000000
_cell_angle_gamma   122.11962288
_symmetry_Int_Tables_number   1
_chemical_formula_structural   Ho4TmReRuC7
_chemical_formula_sum   'Ho4 Tm1 Re1 Ru1 C7'
_cell_volume   196.89692503
_cell_formula_units_Z   1
loop_
 _symmetry_equiv_pos_site_id
 _symmetry_equiv_pos_as_xyz
  1  'x, y, z'
loop_
 _atom_site_type_symbol
 _atom_site_label
 _atom_site_symmetry_multiplicity
 _atom_site_fract_x
 _atom_site_fract_y
 _atom_site_fract_z
 _atom_site_occupancy
  Ho  Ho0  1  0.500260  0.498677  0.000000  1
  Ho  Ho1  1  0.075390  0.335416  0.500000  1
  Ho  Ho2  1  0.921871  0.661366  0.500000  1
  Ho  Ho3  1  0.664040  0.925197  0.500000  1
  Tm  Tm4  1  0.340821  0.079245  0.500000  1
  Re  Re5  1  0.284982  0.715078  0.000000  1
  Ru  Ru6  1  0.712507  0.287215  0.000000  1
  C  C7  1  0.627781  0.371097  0.500000  1
  C  C8  1  0.374343  0.625669  0.500000  1
  C  C9  1  0.999579  0.000340  0.000000  1
  C  C10  1  0.172040  0.169740  0.000000  1
  C  C11  1  0.829052  0.829537  0.000000  1
  C  C12  1  0.001377  0.502569  0.000000  1
  C  C13  1  0.495958  0.998854  0.000000  1
