# generated using pymatgen
data_CeHo7Lu2(Al2Ru3)2
_symmetry_space_group_name_H-M   'P 1'
_cell_length_a   8.37026593
_cell_length_b   8.36874172
_cell_length_c   8.25307928
_cell_angle_alpha   110.08527772
_cell_angle_beta   109.26402509
_cell_angle_gamma   109.64945501
_symmetry_Int_Tables_number   1
_chemical_formula_structural   CeHo7Lu2(Al2Ru3)2
_chemical_formula_sum   'Ce1 Ho7 Lu2 Al4 Ru6'
_cell_volume   441.77461343
_cell_formula_units_Z   1
loop_
 _symmetry_equiv_pos_site_id
 _symmetry_equiv_pos_as_xyz
  1  'x, y, z'
loop_
 _atom_site_type_symbol
 _atom_site_label
 _atom_site_symmetry_multiplicity
 _atom_site_fract_x
 _atom_site_fract_y
 _atom_site_fract_z
 _atom_site_occupancy
  Ce  Ce0  1  0.193055  0.943622  0.249654  1
  Ho  Ho1  1  0.782053  0.788251  0.785534  1
  Ho  Ho2  1  0.318195  0.567921  0.749708  1
  Ho  Ho3  1  0.753895  0.321642  0.570733  1
  Ho  Ho4  1  0.570369  0.747672  0.318154  1
  Ho  Ho5  1  0.714473  0.498880  0.997864  1
  Ho  Ho6  1  0.002597  0.717231  0.502448  1
  Ho  Ho7  1  0.502281  0.996886  0.716240  1
  Lu  Lu8  1  0.250519  0.181850  0.928644  1
  Lu  Lu9  1  0.928617  0.251980  0.180470  1
  Al  Al10  1  0.412100  0.413783  0.407266  1
  Al  Al11  1  0.092032  0.495800  0.004195  1
  Al  Al12  1  0.993102  0.088603  0.496543  1
  Al  Al13  1  0.506484  0.005431  0.091359  1
  Ru  Ru14  1  0.876259  0.125510  0.751482  1
  Ru  Ru15  1  0.741743  0.872014  0.119028  1
  Ru  Ru16  1  0.129070  0.762008  0.904034  1
  Ru  Ru17  1  0.251016  0.621580  0.381003  1
  Ru  Ru18  1  0.357634  0.224763  0.596770  1
  Ru  Ru19  1  0.624509  0.374573  0.248872  1
