# generated using pymatgen
data_Tb11DyCdCo6
_symmetry_space_group_name_H-M   'P 1'
_cell_length_a   8.42125170
_cell_length_b   8.42250388
_cell_length_c   8.42125100
_cell_angle_alpha   109.47608175
_cell_angle_beta   109.44929212
_cell_angle_gamma   109.48225654
_symmetry_Int_Tables_number   1
_chemical_formula_structural   Tb11DyCdCo6
_chemical_formula_sum   'Tb11 Dy1 Cd1 Co6'
_cell_volume   459.83802514
_cell_formula_units_Z   1
loop_
 _symmetry_equiv_pos_site_id
 _symmetry_equiv_pos_as_xyz
  1  'x, y, z'
loop_
 _atom_site_type_symbol
 _atom_site_label
 _atom_site_symmetry_multiplicity
 _atom_site_fract_x
 _atom_site_fract_y
 _atom_site_fract_z
 _atom_site_occupancy
  Tb  Tb0  1  0.805810  0.501398  0.695590  1
  Tb  Tb1  1  0.695780  0.194318  0.889911  1
  Tb  Tb2  1  0.194228  0.889703  0.695475  1
  Tb  Tb3  1  0.304405  0.194318  0.498538  1
  Tb  Tb4  1  0.695284  0.805637  0.501281  1
  Tb  Tb5  1  0.498385  0.304408  0.194197  1
  Tb  Tb6  1  0.805976  0.110376  0.304400  1
  Tb  Tb7  1  0.889924  0.695508  0.194187  1
  Tb  Tb8  1  0.110212  0.304408  0.806024  1
  Tb  Tb9  1  0.304355  0.805637  0.110353  1
  Tb  Tb10  1  0.501321  0.695508  0.805584  1
  Dy  Dy11  1  0.194132  0.498889  0.304756  1
  Cd  Cd12  1  0.000073  0.000187  0.000115  1
  Co  Co13  1  0.613013  0.113021  0.500008  1
  Co  Co14  1  0.499869  0.613016  0.113145  1
  Co  Co15  1  0.500017  0.386906  0.886889  1
  Co  Co16  1  0.386796  0.886732  0.499937  1
  Co  Co17  1  0.113217  0.500015  0.612811  1
  Co  Co18  1  0.887204  0.500015  0.386798  1
