# generated using pymatgen
data_TbSm4CoRuO12
_symmetry_space_group_name_H-M   'P 1'
_cell_length_a   6.91777970
_cell_length_b   6.92034546
_cell_length_c   7.38256388
_cell_angle_alpha   74.67311516
_cell_angle_beta   74.69225916
_cell_angle_gamma   50.84288623
_symmetry_Int_Tables_number   1
_chemical_formula_structural   TbSm4CoRuO12
_chemical_formula_sum   'Tb1 Sm4 Co1 Ru1 O12'
_cell_volume   262.07033512
_cell_formula_units_Z   1
loop_
 _symmetry_equiv_pos_site_id
 _symmetry_equiv_pos_as_xyz
  1  'x, y, z'
loop_
 _atom_site_type_symbol
 _atom_site_label
 _atom_site_symmetry_multiplicity
 _atom_site_fract_x
 _atom_site_fract_y
 _atom_site_fract_z
 _atom_site_occupancy
  Tb  Tb0  1  0.303429  0.312321  0.334826  1
  Sm  Sm1  1  0.688428  0.697277  0.664570  1
  Sm  Sm2  1  0.682842  0.706687  0.144679  1
  Sm  Sm3  1  0.998649  0.001262  0.000568  1
  Sm  Sm4  1  0.293870  0.317457  0.857895  1
  Co  Co5  1  0.256369  0.743231  0.499082  1
  Ru  Ru6  1  0.767713  0.232025  0.498883  1
  O  O7  1  0.398351  0.912524  0.921949  1
  O  O8  1  0.577098  0.103101  0.576403  1
  O  O9  1  0.903189  0.416969  0.420128  1
  O  O10  1  0.090507  0.599708  0.082652  1
  O  O11  1  0.017232  0.983627  0.328852  1
  O  O12  1  0.499714  0.501423  0.673030  1
  O  O13  1  0.896338  0.406609  0.924945  1
  O  O14  1  0.103999  0.576122  0.575303  1
  O  O15  1  0.418285  0.902176  0.420762  1
  O  O16  1  0.591446  0.106565  0.079727  1
  O  O17  1  0.497881  0.499915  0.324060  1
  O  O18  1  0.014661  0.981003  0.671686  1
