# generated using pymatgen
data_Pr5GaSb3
_symmetry_space_group_name_H-M   'P 1'
_cell_length_a   8.38712100
_cell_length_b   15.93534600
_cell_length_c   8.41325000
_cell_angle_alpha   90.00000000
_cell_angle_beta   90.00000000
_cell_angle_gamma   90.00000000
_symmetry_Int_Tables_number   1
_chemical_formula_structural   Pr5GaSb3
_chemical_formula_sum   'Pr20 Ga4 Sb12'
_cell_volume   1124.44495536
_cell_formula_units_Z   4
loop_
 _symmetry_equiv_pos_site_id
 _symmetry_equiv_pos_as_xyz
  1  'x, y, z'
loop_
 _atom_site_type_symbol
 _atom_site_label
 _atom_site_symmetry_multiplicity
 _atom_site_fract_x
 _atom_site_fract_y
 _atom_site_fract_z
 _atom_site_occupancy
  Pr  Pr0  1  0.222037  0.250000  0.009729  1
  Pr  Pr1  1  0.102161  0.618720  0.158227  1
  Pr  Pr2  1  0.102161  0.881280  0.158227  1
  Pr  Pr3  1  0.550942  0.110301  0.180885  1
  Pr  Pr4  1  0.550942  0.389699  0.180885  1
  Pr  Pr5  1  0.050942  0.110301  0.319115  1
  Pr  Pr6  1  0.050942  0.389699  0.319115  1
  Pr  Pr7  1  0.602160  0.618720  0.341773  1
  Pr  Pr8  1  0.602160  0.881280  0.341773  1
  Pr  Pr9  1  0.722037  0.250000  0.490271  1
  Pr  Pr10  1  0.277963  0.750000  0.509729  1
  Pr  Pr11  1  0.397839  0.118720  0.658227  1
  Pr  Pr12  1  0.397839  0.381280  0.658227  1
  Pr  Pr13  1  0.949058  0.610301  0.680886  1
  Pr  Pr14  1  0.949058  0.889699  0.680886  1
  Pr  Pr15  1  0.449058  0.610301  0.819115  1
  Pr  Pr16  1  0.449058  0.889699  0.819115  1
  Pr  Pr17  1  0.897839  0.118720  0.841773  1
  Pr  Pr18  1  0.897839  0.381280  0.841773  1
  Pr  Pr19  1  0.777963  0.750000  0.990271  1
  Ga  Ga20  1  0.858583  0.250000  0.139654  1
  Ga  Ga21  1  0.358583  0.250000  0.360346  1
  Ga  Ga22  1  0.641416  0.750000  0.639654  1
  Ga  Ga23  1  0.141416  0.750000  0.860346  1
  Sb  Sb24  1  0.761931  0.546242  0.020793  1
  Sb  Sb25  1  0.761931  0.953758  0.020793  1
  Sb  Sb26  1  0.399428  0.750000  0.116350  1
  Sb  Sb27  1  0.899428  0.750000  0.383650  1
  Sb  Sb28  1  0.261931  0.546242  0.479207  1
  Sb  Sb29  1  0.261931  0.953758  0.479207  1
  Sb  Sb30  1  0.738069  0.046242  0.520793  1
  Sb  Sb31  1  0.738069  0.453758  0.520793  1
  Sb  Sb32  1  0.100572  0.250000  0.616350  1
  Sb  Sb33  1  0.600572  0.250000  0.883650  1
  Sb  Sb34  1  0.238068  0.046242  0.979207  1
  Sb  Sb35  1  0.238068  0.453758  0.979207  1
