# generated using pymatgen
data_Cs2HfH10Os
_symmetry_space_group_name_H-M   'P 1'
_cell_length_a   11.72251220
_cell_length_b   7.79576700
_cell_length_c   4.73062200
_cell_angle_alpha   90.00000000
_cell_angle_beta   90.77926537
_cell_angle_gamma   90.00000000
_symmetry_Int_Tables_number   1
_chemical_formula_structural   Cs2HfH10Os
_chemical_formula_sum   'Cs4 Hf2 H20 Os2'
_cell_volume   432.27251396
_cell_formula_units_Z   2
loop_
 _symmetry_equiv_pos_site_id
 _symmetry_equiv_pos_as_xyz
  1  'x, y, z'
loop_
 _atom_site_type_symbol
 _atom_site_label
 _atom_site_symmetry_multiplicity
 _atom_site_fract_x
 _atom_site_fract_y
 _atom_site_fract_z
 _atom_site_occupancy
  Cs  Cs0  1  0.678149  0.080975  0.337422  1
  Cs  Cs1  1  0.178149  0.419024  0.337422  1
  Cs  Cs2  1  0.833443  0.580344  0.826638  1
  Cs  Cs3  1  0.333443  0.919656  0.826638  1
  Hf  Hf4  1  0.963037  0.065512  0.837914  1
  Hf  Hf5  1  0.463037  0.434488  0.837914  1
  H  H6  1  0.337245  0.279251  0.828122  1
  H  H7  1  0.837245  0.220749  0.828122  1
  H  H8  1  0.048069  0.739272  0.465438  1
  H  H9  1  0.548069  0.760727  0.465438  1
  H  H10  1  0.615044  0.433225  0.117878  1
  H  H11  1  0.115043  0.066775  0.117878  1
  H  H12  1  0.316965  0.544948  0.841068  1
  H  H13  1  0.816965  0.955053  0.841068  1
  H  H14  1  0.954219  0.115708  0.322614  1
  H  H15  1  0.454219  0.384293  0.322614  1
  H  H16  1  0.166755  0.841684  0.297240  1
  H  H17  1  0.666755  0.658315  0.297240  1
  H  H18  1  0.522207  0.201673  0.837983  1
  H  H19  1  0.022207  0.298326  0.837983  1
  H  H20  1  0.922155  0.880256  0.511663  1
  H  H21  1  0.422155  0.619744  0.511663  1
  H  H22  1  0.113585  0.029983  0.615702  1
  H  H23  1  0.613585  0.470017  0.615702  1
  H  H24  1  0.487551  0.670107  0.053638  1
  H  H25  1  0.987551  0.829894  0.053638  1
  Os  Os26  1  0.541579  0.563360  0.340680  1
  Os  Os27  1  0.041579  0.936640  0.340680  1
