# generated using pymatgen
data_Tb3Y(B10Pt)2
_symmetry_space_group_name_H-M   'P 1'
_cell_length_a   4.17421500
_cell_length_b   5.69792100
_cell_length_c   11.38721300
_cell_angle_alpha   89.99777185
_cell_angle_beta   90.00000000
_cell_angle_gamma   90.00000000
_symmetry_Int_Tables_number   1
_chemical_formula_structural   Tb3Y(B10Pt)2
_chemical_formula_sum   'Tb3 Y1 B20 Pt2'
_cell_volume   270.83742875
_cell_formula_units_Z   1
loop_
 _symmetry_equiv_pos_site_id
 _symmetry_equiv_pos_as_xyz
  1  'x, y, z'
loop_
 _atom_site_type_symbol
 _atom_site_label
 _atom_site_symmetry_multiplicity
 _atom_site_fract_x
 _atom_site_fract_y
 _atom_site_fract_z
 _atom_site_occupancy
  Tb  Tb0  1  0.500000  0.815069  0.641231  1
  Tb  Tb1  1  0.500000  0.315070  0.858755  1
  Tb  Tb2  1  0.500000  0.684931  0.141255  1
  Y  Y3  1  0.500000  0.184678  0.358706  1
  B  B4  1  0.000000  0.383641  0.044005  1
  B  B5  1  0.000000  0.616383  0.956010  1
  B  B6  1  0.000000  0.116335  0.544007  1
  B  B7  1  0.000000  0.883595  0.456035  1
  B  B8  1  0.000000  0.359891  0.197861  1
  B  B9  1  0.000000  0.640169  0.802112  1
  B  B10  1  0.000000  0.140160  0.697864  1
  B  B11  1  0.000000  0.859771  0.302094  1
  B  B12  1  0.000000  0.052632  0.193617  1
  B  B13  1  0.000000  0.947334  0.806372  1
  B  B14  1  0.000000  0.447347  0.693626  1
  B  B15  1  0.000000  0.552739  0.306337  1
  B  B16  1  0.303064  0.218185  0.120699  1
  B  B17  1  0.696943  0.781836  0.879308  1
  B  B18  1  0.303057  0.781836  0.879308  1
  B  B19  1  0.696947  0.281866  0.620723  1
  B  B20  1  0.696936  0.218185  0.120699  1
  B  B21  1  0.303064  0.718274  0.379331  1
  B  B22  1  0.696936  0.718274  0.379331  1
  B  B23  1  0.303053  0.281866  0.620723  1
  Pt  Pt24  1  0.000000  0.999985  0.000031  1
  Pt  Pt25  1  0.000000  0.499948  0.499958  1
