# generated using pymatgen
data_CaNd17(HoGa6)2
_symmetry_space_group_name_H-M   'P 1'
_cell_length_a   7.83706100
_cell_length_b   7.83706100
_cell_length_c   14.71254900
_cell_angle_alpha   90.00000000
_cell_angle_beta   90.00000000
_cell_angle_gamma   90.00000000
_symmetry_Int_Tables_number   1
_chemical_formula_structural   CaNd17(HoGa6)2
_chemical_formula_sum   'Ca1 Nd17 Ho2 Ga12'
_cell_volume   903.63777285
_cell_formula_units_Z   1
loop_
 _symmetry_equiv_pos_site_id
 _symmetry_equiv_pos_as_xyz
  1  'x, y, z'
loop_
 _atom_site_type_symbol
 _atom_site_label
 _atom_site_symmetry_multiplicity
 _atom_site_fract_x
 _atom_site_fract_y
 _atom_site_fract_z
 _atom_site_occupancy
  Ca  Ca0  1  0.500000  0.000000  0.234115  1
  Nd  Nd1  1  0.000000  0.500000  0.786482  1
  Nd  Nd2  1  0.684794  0.660001  0.603705  1
  Nd  Nd3  1  0.682246  0.337973  0.102455  1
  Nd  Nd4  1  0.819185  0.838475  0.397239  1
  Nd  Nd5  1  0.186198  0.842826  0.895753  1
  Nd  Nd6  1  0.315206  0.339999  0.603705  1
  Nd  Nd7  1  0.317754  0.662027  0.102455  1
  Nd  Nd8  1  0.180815  0.161525  0.397239  1
  Nd  Nd9  1  0.813802  0.157174  0.895753  1
  Nd  Nd10  1  0.661525  0.319185  0.397239  1
  Nd  Nd11  1  0.342826  0.313802  0.895753  1
  Nd  Nd12  1  0.160001  0.815206  0.603705  1
  Nd  Nd13  1  0.837973  0.817754  0.102455  1
  Nd  Nd14  1  0.338475  0.680815  0.397239  1
  Nd  Nd15  1  0.657174  0.686198  0.895753  1
  Nd  Nd16  1  0.839999  0.184794  0.603705  1
  Nd  Nd17  1  0.162027  0.182246  0.102455  1
  Ho  Ho18  1  0.000000  0.500000  0.271914  1
  Ho  Ho19  1  0.500000  0.000000  0.722262  1
  Ga  Ga20  1  0.000000  0.500000  0.484647  1
  Ga  Ga21  1  0.000000  0.500000  0.995742  1
  Ga  Ga22  1  0.500000  0.000000  0.509747  1
  Ga  Ga23  1  0.500000  0.000000  0.007407  1
  Ga  Ga24  1  0.876322  0.882224  0.748532  1
  Ga  Ga25  1  0.884743  0.124466  0.249237  1
  Ga  Ga26  1  0.624466  0.615257  0.249237  1
  Ga  Ga27  1  0.382224  0.623678  0.748532  1
  Ga  Ga28  1  0.123678  0.117776  0.748532  1
  Ga  Ga29  1  0.115257  0.875534  0.249237  1
  Ga  Ga30  1  0.375534  0.384743  0.249237  1
  Ga  Ga31  1  0.617776  0.376322  0.748532  1
