# generated using pymatgen
data_Er9Th(CoSb2)2
_symmetry_space_group_name_H-M   'P 1'
_cell_length_a   7.90992000
_cell_length_b   8.66755606
_cell_length_c   12.15911085
_cell_angle_alpha   89.78106295
_cell_angle_beta   90.00000000
_cell_angle_gamma   90.00000000
_symmetry_Int_Tables_number   1
_chemical_formula_structural   Er9Th(CoSb2)2
_chemical_formula_sum   'Er18 Th2 Co4 Sb8'
_cell_volume   833.61860306
_cell_formula_units_Z   2
loop_
 _symmetry_equiv_pos_site_id
 _symmetry_equiv_pos_as_xyz
  1  'x, y, z'
loop_
 _atom_site_type_symbol
 _atom_site_label
 _atom_site_symmetry_multiplicity
 _atom_site_fract_x
 _atom_site_fract_y
 _atom_site_fract_z
 _atom_site_occupancy
  Er  Er0  1  0.158563  0.748641  0.204130  1
  Er  Er1  1  0.658563  0.251359  0.295870  1
  Er  Er2  1  0.842170  0.250249  0.795748  1
  Er  Er3  1  0.342170  0.749751  0.704252  1
  Er  Er4  1  0.450850  0.749553  0.998872  1
  Er  Er5  1  0.950850  0.250447  0.501128  1
  Er  Er6  1  0.546105  0.251789  0.000959  1
  Er  Er7  1  0.046105  0.748211  0.499041  1
  Er  Er8  1  0.625990  0.749648  0.305202  1
  Er  Er9  1  0.125990  0.250352  0.194798  1
  Er  Er10  1  0.379511  0.253734  0.693644  1
  Er  Er11  1  0.879511  0.746266  0.806356  1
  Er  Er12  1  0.174205  0.460118  0.934212  1
  Er  Er13  1  0.674205  0.539882  0.565788  1
  Er  Er14  1  0.181499  0.041384  0.931276  1
  Er  Er15  1  0.681499  0.958616  0.568724  1
  Er  Er16  1  0.822602  0.540610  0.065402  1
  Er  Er17  1  0.322602  0.459390  0.434598  1
  Th  Th18  1  0.824375  0.964967  0.061439  1
  Th  Th19  1  0.324375  0.035033  0.438561  1
  Co  Co20  1  0.429029  0.759126  0.487952  1
  Co  Co21  1  0.929029  0.240874  0.012048  1
  Co  Co22  1  0.566781  0.247368  0.508536  1
  Co  Co23  1  0.066781  0.752632  0.991464  1
  Sb  Sb24  1  0.927544  0.990464  0.327707  1
  Sb  Sb25  1  0.427544  0.009536  0.172293  1
  Sb  Sb26  1  0.068849  0.490528  0.672828  1
  Sb  Sb27  1  0.568849  0.509472  0.827172  1
  Sb  Sb28  1  0.070261  0.008993  0.673877  1
  Sb  Sb29  1  0.570261  0.991007  0.826123  1
  Sb  Sb30  1  0.931667  0.508372  0.326565  1
  Sb  Sb31  1  0.431667  0.491628  0.173435  1
