# generated using pymatgen
data_La18TbYbGa12
_symmetry_space_group_name_H-M   'P 1'
_cell_length_a   7.96816200
_cell_length_b   7.96816200
_cell_length_c   14.94344500
_cell_angle_alpha   90.00000000
_cell_angle_beta   90.00000000
_cell_angle_gamma   90.00000000
_symmetry_Int_Tables_number   1
_chemical_formula_structural   La18TbYbGa12
_chemical_formula_sum   'La18 Tb1 Yb1 Ga12'
_cell_volume   948.78331712
_cell_formula_units_Z   1
loop_
 _symmetry_equiv_pos_site_id
 _symmetry_equiv_pos_as_xyz
  1  'x, y, z'
loop_
 _atom_site_type_symbol
 _atom_site_label
 _atom_site_symmetry_multiplicity
 _atom_site_fract_x
 _atom_site_fract_y
 _atom_site_fract_z
 _atom_site_occupancy
  La  La0  1  0.334906  0.314677  0.102340  1
  La  La1  1  0.838407  0.812492  0.896165  1
  La  La2  1  0.839703  0.181324  0.397057  1
  La  La3  1  0.161593  0.187508  0.896165  1
  La  La4  1  0.665094  0.685323  0.102340  1
  La  La5  1  0.000000  0.500000  0.708221  1
  La  La6  1  0.816799  0.839317  0.603754  1
  La  La7  1  0.318676  0.339703  0.397057  1
  La  La8  1  0.185323  0.834906  0.102340  1
  La  La9  1  0.183201  0.160683  0.603754  1
  La  La10  1  0.814677  0.165094  0.102340  1
  La  La11  1  0.339317  0.683201  0.603754  1
  La  La12  1  0.500000  0.000000  0.290164  1
  La  La13  1  0.687508  0.338407  0.896165  1
  La  La14  1  0.660683  0.316799  0.603754  1
  La  La15  1  0.312492  0.661593  0.896165  1
  La  La16  1  0.160297  0.818676  0.397057  1
  La  La17  1  0.681324  0.660297  0.397057  1
  Tb  Tb18  1  0.500000  0.000000  0.778626  1
  Yb  Yb19  1  0.000000  0.500000  0.232448  1
  Ga  Ga20  1  0.617282  0.381401  0.247911  1
  Ga  Ga21  1  0.877655  0.116776  0.751211  1
  Ga  Ga22  1  0.500000  0.000000  0.498486  1
  Ga  Ga23  1  0.881401  0.882718  0.247911  1
  Ga  Ga24  1  0.000000  0.500000  0.012736  1
  Ga  Ga25  1  0.122345  0.883224  0.751211  1
  Ga  Ga26  1  0.383224  0.377655  0.751211  1
  Ga  Ga27  1  0.118599  0.117282  0.247911  1
  Ga  Ga28  1  0.382718  0.618599  0.247911  1
  Ga  Ga29  1  0.616776  0.622345  0.751211  1
  Ga  Ga30  1  0.500000  0.000000  0.985107  1
  Ga  Ga31  1  0.000000  0.500000  0.500461  1
