# generated using pymatgen
data_BaSmU2(NiAs)4
_symmetry_space_group_name_H-M   'P 1'
_cell_length_a   4.12089100
_cell_length_b   4.12089100
_cell_length_c   16.22414700
_cell_angle_alpha   90.00000000
_cell_angle_beta   90.00000000
_cell_angle_gamma   120.00000805
_symmetry_Int_Tables_number   1
_chemical_formula_structural   BaSmU2(NiAs)4
_chemical_formula_sum   'Ba1 Sm1 U2 Ni4 As4'
_cell_volume   238.60235368
_cell_formula_units_Z   1
loop_
 _symmetry_equiv_pos_site_id
 _symmetry_equiv_pos_as_xyz
  1  'x, y, z'
loop_
 _atom_site_type_symbol
 _atom_site_label
 _atom_site_symmetry_multiplicity
 _atom_site_fract_x
 _atom_site_fract_y
 _atom_site_fract_z
 _atom_site_occupancy
  Ba  Ba0  1  0.000000  0.000000  0.000000  1
  Sm  Sm1  1  0.000000  0.000000  0.500000  1
  U  U2  1  0.000000  0.000000  0.261826  1
  U  U3  1  0.000000  0.000000  0.738174  1
  Ni  Ni4  1  0.333333  0.666667  0.174189  1
  Ni  Ni5  1  0.666667  0.333333  0.825811  1
  Ni  Ni6  1  0.666667  0.333333  0.645275  1
  Ni  Ni7  1  0.333333  0.666667  0.354725  1
  As  As8  1  0.333333  0.666667  0.615400  1
  As  As9  1  0.666667  0.333333  0.384600  1
  As  As10  1  0.666667  0.333333  0.144299  1
  As  As11  1  0.333333  0.666667  0.855701  1
