# generated using pymatgen
data_Eu4Ga18Ru5Rh
_symmetry_space_group_name_H-M   'P 1'
_cell_length_a   7.52743830
_cell_length_b   7.52743839
_cell_length_c   9.96138859
_cell_angle_alpha   89.88336941
_cell_angle_beta   89.88337066
_cell_angle_gamma   118.89926215
_symmetry_Int_Tables_number   1
_chemical_formula_structural   Eu4Ga18Ru5Rh
_chemical_formula_sum   'Eu4 Ga18 Ru5 Rh1'
_cell_volume   494.14278007
_cell_formula_units_Z   1
loop_
 _symmetry_equiv_pos_site_id
 _symmetry_equiv_pos_as_xyz
  1  'x, y, z'
loop_
 _atom_site_type_symbol
 _atom_site_label
 _atom_site_symmetry_multiplicity
 _atom_site_fract_x
 _atom_site_fract_y
 _atom_site_fract_z
 _atom_site_occupancy
  Eu  Eu0  1  0.671988  0.997721  0.249711  1
  Eu  Eu1  1  0.002279  0.328012  0.750289  1
  Eu  Eu2  1  0.997721  0.671988  0.249711  1
  Eu  Eu3  1  0.328012  0.002279  0.750289  1
  Ga  Ga4  1  0.662703  0.988306  0.927547  1
  Ga  Ga5  1  0.132559  0.132559  0.249597  1
  Ga  Ga6  1  0.010673  0.337971  0.427129  1
  Ga  Ga7  1  0.342313  0.342313  0.558596  1
  Ga  Ga8  1  0.338449  0.550151  0.250684  1
  Ga  Ga9  1  0.449849  0.661551  0.749316  1
  Ga  Ga10  1  0.867441  0.867441  0.750403  1
  Ga  Ga11  1  0.658926  0.658926  0.058961  1
  Ga  Ga12  1  0.657687  0.657687  0.441404  1
  Ga  Ga13  1  0.989327  0.662029  0.572871  1
  Ga  Ga14  1  0.988306  0.662703  0.927547  1
  Ga  Ga15  1  0.337971  0.010673  0.427129  1
  Ga  Ga16  1  0.661551  0.449849  0.749316  1
  Ga  Ga17  1  0.550151  0.338449  0.250684  1
  Ga  Ga18  1  0.341074  0.341074  0.941039  1
  Ga  Ga19  1  0.337297  0.011694  0.072453  1
  Ga  Ga20  1  0.662029  0.989327  0.572871  1
  Ga  Ga21  1  0.011694  0.337297  0.072453  1
  Ru  Ru22  1  0.324124  0.675876  0.500000  1
  Ru  Ru23  1  0.324096  0.675904  0.000000  1
  Ru  Ru24  1  0.675876  0.324124  0.500000  1
  Ru  Ru25  1  0.000000  0.000000  0.000000  1
  Ru  Ru26  1  0.675904  0.324096  0.000000  1
  Rh  Rh27  1  0.000000  0.000000  0.500000  1
