# generated using pymatgen
data_Lu4Si2TcB8
_symmetry_space_group_name_H-M   'P 1'
_cell_length_a   6.99818100
_cell_length_b   6.99818100
_cell_length_c   7.45784800
_cell_angle_alpha   90.00000000
_cell_angle_beta   90.00000000
_cell_angle_gamma   90.00000000
_symmetry_Int_Tables_number   1
_chemical_formula_structural   Lu4Si2TcB8
_chemical_formula_sum   'Lu8 Si4 Tc2 B16'
_cell_volume   365.24465512
_cell_formula_units_Z   2
loop_
 _symmetry_equiv_pos_site_id
 _symmetry_equiv_pos_as_xyz
  1  'x, y, z'
loop_
 _atom_site_type_symbol
 _atom_site_label
 _atom_site_symmetry_multiplicity
 _atom_site_fract_x
 _atom_site_fract_y
 _atom_site_fract_z
 _atom_site_occupancy
  Lu  Lu0  1  0.678840  0.178840  0.237028  1
  Lu  Lu1  1  0.321160  0.821160  0.762972  1
  Lu  Lu2  1  0.321160  0.821160  0.237028  1
  Lu  Lu3  1  0.821160  0.678840  0.237028  1
  Lu  Lu4  1  0.821160  0.678840  0.762972  1
  Lu  Lu5  1  0.678840  0.178840  0.762972  1
  Lu  Lu6  1  0.178840  0.321160  0.762972  1
  Lu  Lu7  1  0.178840  0.321160  0.237028  1
  Si  Si8  1  0.124030  0.624030  0.500000  1
  Si  Si9  1  0.875970  0.375970  0.500000  1
  Si  Si10  1  0.375970  0.124030  0.500000  1
  Si  Si11  1  0.624030  0.875970  0.500000  1
  Tc  Tc12  1  0.000000  0.000000  0.500000  1
  Tc  Tc13  1  0.500000  0.500000  0.500000  1
  B  B14  1  0.172768  0.039790  0.000000  1
  B  B15  1  0.827232  0.960210  0.000000  1
  B  B16  1  0.960210  0.172768  0.000000  1
  B  B17  1  0.327232  0.539790  0.000000  1
  B  B18  1  0.039790  0.827232  0.000000  1
  B  B19  1  0.672768  0.460210  0.000000  1
  B  B20  1  0.539790  0.672768  0.000000  1
  B  B21  1  0.460210  0.327232  0.000000  1
  B  B22  1  0.089357  0.589357  0.000000  1
  B  B23  1  0.910643  0.410643  0.000000  1
  B  B24  1  0.410643  0.089357  0.000000  1
  B  B25  1  0.589357  0.910643  0.000000  1
  B  B26  1  0.000000  0.000000  0.178934  1
  B  B27  1  0.000000  0.000000  0.821066  1
  B  B28  1  0.500000  0.500000  0.821066  1
  B  B29  1  0.500000  0.500000  0.178934  1
