# generated using pymatgen
data_Gd3Lu7Sn8
_symmetry_space_group_name_H-M   'P 1'
_cell_length_a   8.03169800
_cell_length_b   8.10119052
_cell_length_c   15.30610000
_cell_angle_alpha   90.06687063
_cell_angle_beta   90.00000000
_cell_angle_gamma   90.00000000
_symmetry_Int_Tables_number   1
_chemical_formula_structural   Gd3Lu7Sn8
_chemical_formula_sum   'Gd6 Lu14 Sn16'
_cell_volume   995.91085610
_cell_formula_units_Z   2
loop_
 _symmetry_equiv_pos_site_id
 _symmetry_equiv_pos_as_xyz
  1  'x, y, z'
loop_
 _atom_site_type_symbol
 _atom_site_label
 _atom_site_symmetry_multiplicity
 _atom_site_fract_x
 _atom_site_fract_y
 _atom_site_fract_z
 _atom_site_occupancy
  Gd  Gd0  1  0.484384  0.679280  0.405753  1
  Gd  Gd1  1  0.984384  0.820720  0.094247  1
  Gd  Gd2  1  0.482416  0.677290  0.094501  1
  Gd  Gd3  1  0.982416  0.822710  0.405499  1
  Gd  Gd4  1  0.514984  0.321733  0.595227  1
  Gd  Gd5  1  0.014984  0.178267  0.904773  1
  Lu  Lu6  1  0.359232  0.837920  0.875588  1
  Lu  Lu7  1  0.859232  0.662080  0.624412  1
  Lu  Lu8  1  0.637909  0.161290  0.376563  1
  Lu  Lu9  1  0.137909  0.338710  0.123437  1
  Lu  Lu10  1  0.638553  0.162135  0.123514  1
  Lu  Lu11  1  0.138553  0.337865  0.376486  1
  Lu  Lu12  1  0.361785  0.839914  0.624755  1
  Lu  Lu13  1  0.861785  0.660086  0.875245  1
  Lu  Lu14  1  0.521338  0.321692  0.902214  1
  Lu  Lu15  1  0.021338  0.178308  0.597786  1
  Lu  Lu16  1  0.191896  0.503921  0.749775  1
  Lu  Lu17  1  0.691896  0.996079  0.750225  1
  Lu  Lu18  1  0.807180  0.495279  0.249872  1
  Lu  Lu19  1  0.307180  0.004721  0.250128  1
  Sn  Sn20  1  0.302805  0.041994  0.041361  1
  Sn  Sn21  1  0.802805  0.458006  0.458639  1
  Sn  Sn22  1  0.703399  0.964037  0.543571  1
  Sn  Sn23  1  0.203399  0.535963  0.956429  1
  Sn  Sn24  1  0.695709  0.958721  0.957692  1
  Sn  Sn25  1  0.195709  0.541279  0.542308  1
  Sn  Sn26  1  0.298288  0.042577  0.459963  1
  Sn  Sn27  1  0.798288  0.457423  0.040037  1
  Sn  Sn28  1  0.556692  0.620223  0.750320  1
  Sn  Sn29  1  0.056692  0.879777  0.749680  1
  Sn  Sn30  1  0.442636  0.378331  0.250106  1
  Sn  Sn31  1  0.942636  0.121669  0.249894  1
  Sn  Sn32  1  0.327854  0.150453  0.751536  1
  Sn  Sn33  1  0.827854  0.349547  0.748464  1
  Sn  Sn34  1  0.672935  0.851513  0.249768  1
  Sn  Sn35  1  0.172935  0.648487  0.250232  1
