# generated using pymatgen
data_TcSn14Ir5
_symmetry_space_group_name_H-M   'P 1'
_cell_length_a   8.25321821
_cell_length_b   8.25321809
_cell_length_c   8.25321801
_cell_angle_alpha   109.32483446
_cell_angle_beta   109.76439047
_cell_angle_gamma   109.32483542
_symmetry_Int_Tables_number   1
_chemical_formula_structural   TcSn14Ir5
_chemical_formula_sum   'Tc1 Sn14 Ir5'
_cell_volume   432.75245681
_cell_formula_units_Z   1
loop_
 _symmetry_equiv_pos_site_id
 _symmetry_equiv_pos_as_xyz
  1  'x, y, z'
loop_
 _atom_site_type_symbol
 _atom_site_label
 _atom_site_symmetry_multiplicity
 _atom_site_fract_x
 _atom_site_fract_y
 _atom_site_fract_z
 _atom_site_occupancy
  Tc  Tc0  1  0.652958  0.000000  0.652958  1
  Sn  Sn1  1  0.996673  0.000000  0.672661  1
  Sn  Sn2  1  0.328078  0.000000  0.000013  1
  Sn  Sn3  1  0.672661  0.675988  0.672661  1
  Sn  Sn4  1  0.996673  0.324012  0.996673  1
  Sn  Sn5  1  0.328078  0.328066  0.328078  1
  Sn  Sn6  1  0.000013  0.671934  0.000013  1
  Sn  Sn7  1  0.254020  0.750893  0.503127  1
  Sn  Sn8  1  0.752234  0.249107  0.503127  1
  Sn  Sn9  1  0.750370  0.500000  0.250370  1
  Sn  Sn10  1  0.250370  0.500000  0.750370  1
  Sn  Sn11  1  0.503127  0.750893  0.254020  1
  Sn  Sn12  1  0.503127  0.249107  0.752234  1
  Sn  Sn13  1  0.000013  0.000000  0.328078  1
  Sn  Sn14  1  0.672661  0.000000  0.996673  1
  Ir  Ir15  1  0.656442  0.656357  0.000085  1
  Ir  Ir16  1  0.343728  0.343643  0.000085  1
  Ir  Ir17  1  0.000085  0.656357  0.656442  1
  Ir  Ir18  1  0.000085  0.343643  0.343728  1
  Ir  Ir19  1  0.338603  0.000000  0.338603  1
