# generated using pymatgen
data_Tm5LuAl24(Ir3Ru)2
_symmetry_space_group_name_H-M   'P 1'
_cell_length_a   8.79893600
_cell_length_b   8.79893481
_cell_length_c   9.46369000
_cell_angle_alpha   90.00052171
_cell_angle_beta   89.99947920
_cell_angle_gamma   120.00111439
_symmetry_Int_Tables_number   1
_chemical_formula_structural   Tm5LuAl24(Ir3Ru)2
_chemical_formula_sum   'Tm5 Lu1 Al24 Ir6 Ru2'
_cell_volume   634.52175868
_cell_formula_units_Z   1
loop_
 _symmetry_equiv_pos_site_id
 _symmetry_equiv_pos_as_xyz
  1  'x, y, z'
loop_
 _atom_site_type_symbol
 _atom_site_label
 _atom_site_symmetry_multiplicity
 _atom_site_fract_x
 _atom_site_fract_y
 _atom_site_fract_z
 _atom_site_occupancy
  Tm  Tm0  1  0.194734  0.805266  0.250003  1
  Tm  Tm1  1  0.389637  0.194776  0.750001  1
  Tm  Tm2  1  0.610600  0.805223  0.250000  1
  Tm  Tm3  1  0.805224  0.610363  0.750001  1
  Tm  Tm4  1  0.194777  0.389400  0.250000  1
  Lu  Lu5  1  0.804472  0.195528  0.750014  1
  Al  Al6  1  0.666794  0.333206  0.971068  1
  Al  Al7  1  0.333370  0.666630  0.028660  1
  Al  Al8  1  0.333370  0.666630  0.471340  1
  Al  Al9  1  0.666795  0.333205  0.528932  1
  Al  Al10  1  0.837279  0.162721  0.423196  1
  Al  Al11  1  0.162732  0.837268  0.577133  1
  Al  Al12  1  0.325478  0.162785  0.422970  1
  Al  Al13  1  0.162732  0.837268  0.922865  1
  Al  Al14  1  0.674647  0.837432  0.577236  1
  Al  Al15  1  0.837279  0.162721  0.076805  1
  Al  Al16  1  0.837215  0.674522  0.422970  1
  Al  Al17  1  0.674645  0.837433  0.922761  1
  Al  Al18  1  0.162568  0.325353  0.577236  1
  Al  Al19  1  0.325481  0.162787  0.077032  1
  Al  Al20  1  0.162567  0.325355  0.922761  1
  Al  Al21  1  0.837213  0.674519  0.077032  1
  Al  Al22  1  0.437661  0.562339  0.749999  1
  Al  Al23  1  0.562314  0.437686  0.250000  1
  Al  Al24  1  0.124412  0.561975  0.749998  1
  Al  Al25  1  0.875317  0.437653  0.250000  1
  Al  Al26  1  0.438025  0.875588  0.749998  1
  Al  Al27  1  0.562347  0.124683  0.250000  1
  Al  Al28  1  0.999688  0.000312  0.749999  1
  Al  Al29  1  0.999989  0.000011  0.250002  1
  Ir  Ir30  1  0.500123  0.499877  0.999948  1
  Ir  Ir31  1  0.999827  0.499675  0.999743  1
  Ir  Ir32  1  0.500122  0.499878  0.500052  1
  Ir  Ir33  1  0.500325  0.000173  0.999743  1
  Ir  Ir34  1  0.999834  0.499680  0.500250  1
  Ir  Ir35  1  0.500320  0.000166  0.500250  1
  Ru  Ru36  1  0.000040  0.999960  0.000024  1
  Ru  Ru37  1  0.000045  0.999955  0.499978  1
