# generated using pymatgen
data_Hf3Sc3(Ti2Sn3)2
_symmetry_space_group_name_H-M   'P 1'
_cell_length_a   8.30838700
_cell_length_b   8.30838744
_cell_length_c   5.63175600
_cell_angle_alpha   90.00000000
_cell_angle_beta   90.00000000
_cell_angle_gamma   119.99999428
_symmetry_Int_Tables_number   1
_chemical_formula_structural   Hf3Sc3(Ti2Sn3)2
_chemical_formula_sum   'Hf3 Sc3 Ti4 Sn6'
_cell_volume   336.67273346
_cell_formula_units_Z   1
loop_
 _symmetry_equiv_pos_site_id
 _symmetry_equiv_pos_as_xyz
  1  'x, y, z'
loop_
 _atom_site_type_symbol
 _atom_site_label
 _atom_site_symmetry_multiplicity
 _atom_site_fract_x
 _atom_site_fract_y
 _atom_site_fract_z
 _atom_site_occupancy
  Hf  Hf0  1  0.236824  0.236824  0.250000  1
  Hf  Hf1  1  0.763176  0.000000  0.250000  1
  Hf  Hf2  1  0.000000  0.763176  0.250000  1
  Sc  Sc3  1  0.760293  0.760293  0.750000  1
  Sc  Sc4  1  0.239707  0.000000  0.750000  1
  Sc  Sc5  1  0.000000  0.239707  0.750000  1
  Ti  Ti6  1  0.666667  0.333333  0.001528  1
  Ti  Ti7  1  0.333333  0.666667  0.001528  1
  Ti  Ti8  1  0.333333  0.666667  0.498472  1
  Ti  Ti9  1  0.666667  0.333333  0.498472  1
  Sn  Sn10  1  0.398789  0.398789  0.750000  1
  Sn  Sn11  1  0.601211  0.000000  0.750000  1
  Sn  Sn12  1  0.000000  0.601211  0.750000  1
  Sn  Sn13  1  0.600887  0.600887  0.250000  1
  Sn  Sn14  1  0.399113  0.000000  0.250000  1
  Sn  Sn15  1  0.000000  0.399113  0.250000  1
