# generated using pymatgen
data_Ho3Mg2PaNi4
_symmetry_space_group_name_H-M   'P 1'
_cell_length_a   7.46578438
_cell_length_b   7.46578439
_cell_length_c   3.56732300
_cell_angle_alpha   90.00000000
_cell_angle_beta   90.00000000
_cell_angle_gamma   92.05663550
_symmetry_Int_Tables_number   1
_chemical_formula_structural   Ho3Mg2PaNi4
_chemical_formula_sum   'Ho3 Mg2 Pa1 Ni4'
_cell_volume   198.70714156
_cell_formula_units_Z   1
loop_
 _symmetry_equiv_pos_site_id
 _symmetry_equiv_pos_as_xyz
  1  'x, y, z'
loop_
 _atom_site_type_symbol
 _atom_site_label
 _atom_site_symmetry_multiplicity
 _atom_site_fract_x
 _atom_site_fract_y
 _atom_site_fract_z
 _atom_site_occupancy
  Ho  Ho0  1  0.328192  0.828192  0.500000  1
  Ho  Ho1  1  0.168882  0.333125  0.500000  1
  Ho  Ho2  1  0.833125  0.668882  0.500000  1
  Mg  Mg3  1  0.004209  0.998993  0.000000  1
  Mg  Mg4  1  0.498993  0.504209  0.000000  1
  Pa  Pa5  1  0.666459  0.166459  0.500000  1
  Ni  Ni6  1  0.116681  0.616681  0.000000  1
  Ni  Ni7  1  0.859872  0.359872  0.000000  1
  Ni  Ni8  1  0.631556  0.892031  0.000000  1
  Ni  Ni9  1  0.392031  0.131556  0.000000  1
