# generated using pymatgen
data_Ni4Mo6P2C
_symmetry_space_group_name_H-M   'P 1'
_cell_length_a   7.68337754
_cell_length_b   7.68337724
_cell_length_c   7.68337700
_cell_angle_alpha   59.99999673
_cell_angle_beta   59.99999801
_cell_angle_gamma   59.99999740
_symmetry_Int_Tables_number   1
_chemical_formula_structural   Ni4Mo6P2C
_chemical_formula_sum   'Ni8 Mo12 P4 C2'
_cell_volume   320.73137783
_cell_formula_units_Z   2
loop_
 _symmetry_equiv_pos_site_id
 _symmetry_equiv_pos_as_xyz
  1  'x, y, z'
loop_
 _atom_site_type_symbol
 _atom_site_label
 _atom_site_symmetry_multiplicity
 _atom_site_fract_x
 _atom_site_fract_y
 _atom_site_fract_z
 _atom_site_occupancy
  Ni  Ni0  1  0.330894  0.330894  0.007317  1
  Ni  Ni1  1  0.330894  0.330894  0.330894  1
  Ni  Ni2  1  0.242683  0.919106  0.919106  1
  Ni  Ni3  1  0.919106  0.919106  0.919106  1
  Ni  Ni4  1  0.007317  0.330894  0.330894  1
  Ni  Ni5  1  0.330894  0.007317  0.330894  1
  Ni  Ni6  1  0.919106  0.919106  0.242683  1
  Ni  Ni7  1  0.919106  0.242683  0.919106  1
  Mo  Mo8  1  0.305725  0.694275  0.694275  1
  Mo  Mo9  1  0.694275  0.694275  0.305725  1
  Mo  Mo10  1  0.694275  0.305725  0.694275  1
  Mo  Mo11  1  0.305725  0.694275  0.305725  1
  Mo  Mo12  1  0.555725  0.944275  0.555725  1
  Mo  Mo13  1  0.555725  0.944275  0.944275  1
  Mo  Mo14  1  0.944275  0.555725  0.555725  1
  Mo  Mo15  1  0.944275  0.555725  0.944275  1
  Mo  Mo16  1  0.305725  0.305725  0.694275  1
  Mo  Mo17  1  0.555725  0.555725  0.944275  1
  Mo  Mo18  1  0.944275  0.944275  0.555725  1
  Mo  Mo19  1  0.694275  0.305725  0.305725  1
  P  P20  1  0.125000  0.625000  0.125000  1
  P  P21  1  0.125000  0.125000  0.625000  1
  P  P22  1  0.625000  0.125000  0.125000  1
  P  P23  1  0.125000  0.125000  0.125000  1
  C  C24  1  0.500000  0.500000  0.500000  1
  C  C25  1  0.750000  0.750000  0.750000  1
