# generated using pymatgen
data_Nd4Ga4Pd3Rh
_symmetry_space_group_name_H-M   'P 1'
_cell_length_a   4.55097500
_cell_length_b   7.10273350
_cell_length_c   7.81481133
_cell_angle_alpha   90.25463647
_cell_angle_beta   90.00000000
_cell_angle_gamma   90.00000000
_symmetry_Int_Tables_number   1
_chemical_formula_structural   Nd4Ga4Pd3Rh
_chemical_formula_sum   'Nd4 Ga4 Pd3 Rh1'
_cell_volume   252.60630045
_cell_formula_units_Z   1
loop_
 _symmetry_equiv_pos_site_id
 _symmetry_equiv_pos_as_xyz
  1  'x, y, z'
loop_
 _atom_site_type_symbol
 _atom_site_label
 _atom_site_symmetry_multiplicity
 _atom_site_fract_x
 _atom_site_fract_y
 _atom_site_fract_z
 _atom_site_occupancy
  Nd  Nd0  1  0.250000  0.032010  0.689518  1
  Nd  Nd1  1  0.250000  0.528035  0.806309  1
  Nd  Nd2  1  0.750000  0.977977  0.305850  1
  Nd  Nd3  1  0.750000  0.471702  0.197303  1
  Ga  Ga4  1  0.250000  0.169372  0.075347  1
  Ga  Ga5  1  0.250000  0.661053  0.426992  1
  Ga  Ga6  1  0.750000  0.833270  0.927485  1
  Ga  Ga7  1  0.750000  0.331548  0.571456  1
  Pd  Pd8  1  0.250000  0.783615  0.101996  1
  Pd  Pd9  1  0.750000  0.717464  0.601512  1
  Pd  Pd10  1  0.750000  0.215856  0.897538  1
  Rh  Rh11  1  0.250000  0.278098  0.398693  1
