# generated using pymatgen
data_Y3Lu3(Fe8Co)2
_symmetry_space_group_name_H-M   'P 1'
_cell_length_a   5.08968200
_cell_length_b   5.08968294
_cell_length_c   16.08756500
_cell_angle_alpha   90.00000000
_cell_angle_beta   90.00000000
_cell_angle_gamma   119.99999386
_symmetry_Int_Tables_number   1
_chemical_formula_structural   Y3Lu3(Fe8Co)2
_chemical_formula_sum   'Y3 Lu3 Fe16 Co2'
_cell_volume   360.91285522
_cell_formula_units_Z   1
loop_
 _symmetry_equiv_pos_site_id
 _symmetry_equiv_pos_as_xyz
  1  'x, y, z'
loop_
 _atom_site_type_symbol
 _atom_site_label
 _atom_site_symmetry_multiplicity
 _atom_site_fract_x
 _atom_site_fract_y
 _atom_site_fract_z
 _atom_site_occupancy
  Y  Y0  1  0.333333  0.666667  0.536250  1
  Y  Y1  1  0.333333  0.666667  0.751397  1
  Y  Y2  1  0.666667  0.333333  0.249261  1
  Lu  Lu3  1  0.333333  0.666667  0.964059  1
  Lu  Lu4  1  0.666667  0.333333  0.036434  1
  Lu  Lu5  1  0.666667  0.333333  0.462401  1
  Fe  Fe6  1  0.166762  0.833238  0.372888  1
  Fe  Fe7  1  0.166762  0.333524  0.372888  1
  Fe  Fe8  1  0.666476  0.833238  0.372888  1
  Fe  Fe9  1  0.832975  0.167025  0.627212  1
  Fe  Fe10  1  0.832975  0.665950  0.627212  1
  Fe  Fe11  1  0.334050  0.167025  0.627212  1
  Fe  Fe12  1  0.832636  0.167364  0.874552  1
  Fe  Fe13  1  0.832636  0.665272  0.874552  1
  Fe  Fe14  1  0.334728  0.167364  0.874552  1
  Fe  Fe15  1  0.167355  0.832645  0.125548  1
  Fe  Fe16  1  0.167355  0.334710  0.125548  1
  Fe  Fe17  1  0.665290  0.832645  0.125548  1
  Fe  Fe18  1  0.333333  0.666667  0.249365  1
  Fe  Fe19  1  0.666667  0.333333  0.750563  1
  Fe  Fe20  1  0.000000  0.000000  0.249132  1
  Fe  Fe21  1  0.000000  0.000000  0.750749  1
  Co  Co22  1  0.000000  0.000000  0.499668  1
  Co  Co23  1  0.000000  0.000000  0.000121  1
