# generated using pymatgen
data_DyErTcB6
_symmetry_space_group_name_H-M   'P 1'
_cell_length_a   3.66983400
_cell_length_b   9.13761800
_cell_length_c   11.52604200
_cell_angle_alpha   90.00000000
_cell_angle_beta   90.00000000
_cell_angle_gamma   90.00000000
_symmetry_Int_Tables_number   1
_chemical_formula_structural   DyErTcB6
_chemical_formula_sum   'Dy4 Er4 Tc4 B24'
_cell_volume   386.50900446
_cell_formula_units_Z   4
loop_
 _symmetry_equiv_pos_site_id
 _symmetry_equiv_pos_as_xyz
  1  'x, y, z'
loop_
 _atom_site_type_symbol
 _atom_site_label
 _atom_site_symmetry_multiplicity
 _atom_site_fract_x
 _atom_site_fract_y
 _atom_site_fract_z
 _atom_site_occupancy
  Dy  Dy0  1  0.000000  0.323777  0.414254  1
  Dy  Dy1  1  0.000000  0.676223  0.585746  1
  Dy  Dy2  1  0.000000  0.823777  0.085746  1
  Dy  Dy3  1  0.000000  0.176223  0.914254  1
  Er  Er4  1  0.000000  0.943187  0.369756  1
  Er  Er5  1  0.000000  0.056813  0.630244  1
  Er  Er6  1  0.000000  0.443187  0.130244  1
  Er  Er7  1  0.000000  0.556813  0.869756  1
  Tc  Tc8  1  0.000000  0.639132  0.320210  1
  Tc  Tc9  1  0.000000  0.360868  0.679790  1
  Tc  Tc10  1  0.000000  0.139132  0.179790  1
  Tc  Tc11  1  0.000000  0.860868  0.820210  1
  B  B12  1  0.500000  0.553604  0.432670  1
  B  B13  1  0.500000  0.446396  0.567330  1
  B  B14  1  0.500000  0.053604  0.067330  1
  B  B15  1  0.500000  0.946396  0.932670  1
  B  B16  1  0.500000  0.749415  0.418483  1
  B  B17  1  0.500000  0.250585  0.581517  1
  B  B18  1  0.500000  0.249415  0.081517  1
  B  B19  1  0.500000  0.750585  0.918483  1
  B  B20  1  0.500000  0.792423  0.265431  1
  B  B21  1  0.500000  0.207577  0.734569  1
  B  B22  1  0.500000  0.292423  0.234569  1
  B  B23  1  0.500000  0.707577  0.765431  1
  B  B24  1  0.500000  0.630744  0.185380  1
  B  B25  1  0.500000  0.369256  0.814620  1
  B  B26  1  0.500000  0.130744  0.314620  1
  B  B27  1  0.500000  0.869256  0.685380  1
  B  B28  1  0.500000  0.982205  0.212128  1
  B  B29  1  0.500000  0.017795  0.787872  1
  B  B30  1  0.500000  0.482205  0.287872  1
  B  B31  1  0.500000  0.517795  0.712128  1
  B  B32  1  0.500000  0.599675  0.027754  1
  B  B33  1  0.500000  0.400325  0.972246  1
  B  B34  1  0.500000  0.099675  0.472246  1
  B  B35  1  0.500000  0.900325  0.527754  1
