# generated using pymatgen
data_Li4La3YbSi8
_symmetry_space_group_name_H-M   'P 1'
_cell_length_a   3.89604600
_cell_length_b   7.87664431
_cell_length_c   10.68079200
_cell_angle_alpha   90.03215246
_cell_angle_beta   90.00000000
_cell_angle_gamma   90.00000000
_symmetry_Int_Tables_number   1
_chemical_formula_structural   Li4La3YbSi8
_chemical_formula_sum   'Li4 La3 Yb1 Si8'
_cell_volume   327.76962137
_cell_formula_units_Z   1
loop_
 _symmetry_equiv_pos_site_id
 _symmetry_equiv_pos_as_xyz
  1  'x, y, z'
loop_
 _atom_site_type_symbol
 _atom_site_label
 _atom_site_symmetry_multiplicity
 _atom_site_fract_x
 _atom_site_fract_y
 _atom_site_fract_z
 _atom_site_occupancy
  Li  Li0  1  0.250000  0.999624  0.391119  1
  Li  Li1  1  0.750000  0.003979  0.608679  1
  Li  Li2  1  0.250000  0.495629  0.112232  1
  Li  Li3  1  0.750000  0.502746  0.890642  1
  La  La4  1  0.250000  0.134214  0.864604  1
  La  La5  1  0.750000  0.865417  0.135048  1
  La  La6  1  0.250000  0.632646  0.632556  1
  Yb  Yb7  1  0.750000  0.366987  0.366930  1
  Si  Si8  1  0.750000  0.273450  0.072906  1
  Si  Si9  1  0.250000  0.725982  0.928557  1
  Si  Si10  1  0.750000  0.770452  0.429291  1
  Si  Si11  1  0.250000  0.232194  0.568216  1
  Si  Si12  1  0.750000  0.830980  0.822079  1
  Si  Si13  1  0.250000  0.166192  0.176493  1
  Si  Si14  1  0.750000  0.331574  0.677576  1
  Si  Si15  1  0.250000  0.667934  0.323071  1
