# generated using pymatgen
data_Ce3ErTa2(B2Ru5)2
_symmetry_space_group_name_H-M   'P 1'
_cell_length_a   9.74116352
_cell_length_b   9.74116352
_cell_length_c   3.13172100
_cell_angle_alpha   90.00000000
_cell_angle_beta   90.00000000
_cell_angle_gamma   89.96237987
_symmetry_Int_Tables_number   1
_chemical_formula_structural   Ce3ErTa2(B2Ru5)2
_chemical_formula_sum   'Ce3 Er1 Ta2 B4 Ru10'
_cell_volume   297.16977724
_cell_formula_units_Z   1
loop_
 _symmetry_equiv_pos_site_id
 _symmetry_equiv_pos_as_xyz
  1  'x, y, z'
loop_
 _atom_site_type_symbol
 _atom_site_label
 _atom_site_symmetry_multiplicity
 _atom_site_fract_x
 _atom_site_fract_y
 _atom_site_fract_z
 _atom_site_occupancy
  Ce  Ce0  1  0.174010  0.325990  0.000000  1
  Ce  Ce1  1  0.324582  0.824202  0.000000  1
  Ce  Ce2  1  0.675798  0.175418  0.000000  1
  Er  Er3  1  0.824589  0.675411  0.000000  1
  Ta  Ta4  1  0.503840  0.502189  0.000000  1
  Ta  Ta5  1  0.997811  0.996160  0.000000  1
  B  B6  1  0.623931  0.876069  0.000000  1
  B  B7  1  0.378830  0.121170  0.000000  1
  B  B8  1  0.118563  0.620915  0.000000  1
  B  B9  1  0.879085  0.381437  0.000000  1
  Ru  Ru10  1  0.569813  0.719247  0.500000  1
  Ru  Ru11  1  0.428679  0.281865  0.500000  1
  Ru  Ru12  1  0.071128  0.780429  0.500000  1
  Ru  Ru13  1  0.929390  0.218348  0.500000  1
  Ru  Ru14  1  0.281652  0.570610  0.500000  1
  Ru  Ru15  1  0.719571  0.428872  0.500000  1
  Ru  Ru16  1  0.218135  0.071321  0.500000  1
  Ru  Ru17  1  0.780753  0.930187  0.500000  1
  Ru  Ru18  1  0.499667  0.000333  0.500000  1
  Ru  Ru19  1  0.000175  0.499825  0.500000  1
