# generated using pymatgen
data_SrFeCoAs2
_symmetry_space_group_name_H-M   'P 1'
_cell_length_a   6.61355912
_cell_length_b   6.61355901
_cell_length_c   6.61355896
_cell_angle_alpha   145.56326734
_cell_angle_beta   145.56326070
_cell_angle_gamma   49.49592441
_symmetry_Int_Tables_number   1
_chemical_formula_structural   SrFeCoAs2
_chemical_formula_sum   'Sr1 Fe1 Co1 As2'
_cell_volume   92.07727565
_cell_formula_units_Z   1
loop_
 _symmetry_equiv_pos_site_id
 _symmetry_equiv_pos_as_xyz
  1  'x, y, z'
loop_
 _atom_site_type_symbol
 _atom_site_label
 _atom_site_symmetry_multiplicity
 _atom_site_fract_x
 _atom_site_fract_y
 _atom_site_fract_z
 _atom_site_occupancy
  Sr  Sr0  1  0.000000  0.000000  0.000000  1
  Fe  Fe1  1  0.750000  0.250000  0.500000  1
  Co  Co2  1  0.250000  0.750000  0.500000  1
  As  As3  1  0.354337  0.354337  0.000000  1
  As  As4  1  0.645663  0.645663  0.000000  1
