# generated using pymatgen
data_Ce2InPb3
_symmetry_space_group_name_H-M   'P 1'
_cell_length_a   8.20051900
_cell_length_b   8.20051836
_cell_length_c   4.70366000
_cell_angle_alpha   90.00000000
_cell_angle_beta   90.00000000
_cell_angle_gamma   145.50064216
_symmetry_Int_Tables_number   1
_chemical_formula_structural   Ce2InPb3
_chemical_formula_sum   'Ce2 In1 Pb3'
_cell_volume   179.15936343
_cell_formula_units_Z   1
loop_
 _symmetry_equiv_pos_site_id
 _symmetry_equiv_pos_as_xyz
  1  'x, y, z'
loop_
 _atom_site_type_symbol
 _atom_site_label
 _atom_site_symmetry_multiplicity
 _atom_site_fract_x
 _atom_site_fract_y
 _atom_site_fract_z
 _atom_site_occupancy
  Ce  Ce0  1  0.850787  0.149212  0.000000  1
  Ce  Ce1  1  0.149212  0.850787  0.000000  1
  In  In2  1  0.000000  0.000000  0.500001  1
  Pb  Pb3  1  0.499999  0.499999  0.000000  1
  Pb  Pb4  1  0.672749  0.327250  0.500001  1
  Pb  Pb5  1  0.327250  0.672749  0.500001  1
