# generated using pymatgen
data_Ho2ErBi(AuO5)2
_symmetry_space_group_name_H-M   'P 1'
_cell_length_a   8.51469535
_cell_length_b   8.51469545
_cell_length_c   5.69145951
_cell_angle_alpha   88.91408632
_cell_angle_beta   91.08591891
_cell_angle_gamma   89.89542142
_symmetry_Int_Tables_number   1
_chemical_formula_structural   Ho2ErBi(AuO5)2
_chemical_formula_sum   'Ho4 Er2 Bi2 Au4 O20'
_cell_volume   412.48184161
_cell_formula_units_Z   2
loop_
 _symmetry_equiv_pos_site_id
 _symmetry_equiv_pos_as_xyz
  1  'x, y, z'
loop_
 _atom_site_type_symbol
 _atom_site_label
 _atom_site_symmetry_multiplicity
 _atom_site_fract_x
 _atom_site_fract_y
 _atom_site_fract_z
 _atom_site_occupancy
  Ho  Ho0  1  0.651729  0.652129  0.750095  1
  Ho  Ho1  1  0.656526  0.354469  0.252470  1
  Ho  Ho2  1  0.847871  0.848271  0.250095  1
  Ho  Ho3  1  0.145531  0.843474  0.752470  1
  Er  Er4  1  0.354599  0.656675  0.247713  1
  Er  Er5  1  0.843325  0.145401  0.747713  1
  Bi  Bi6  1  0.358802  0.359112  0.749766  1
  Bi  Bi7  1  0.140888  0.141198  0.249766  1
  Au  Au8  1  0.496953  0.000081  0.409111  1
  Au  Au9  1  0.499919  0.003047  0.909111  1
  Au  Au10  1  0.000294  0.497012  0.090921  1
  Au  Au11  1  0.002988  0.499706  0.590921  1
  O  O12  1  0.106419  0.288252  0.599618  1
  O  O13  1  0.909936  0.279544  0.108265  1
  O  O14  1  0.907518  0.716932  0.609448  1
  O  O15  1  0.717217  0.908068  0.889922  1
  O  O16  1  0.220456  0.590064  0.608265  1
  O  O17  1  0.404535  0.787225  0.894967  1
  O  O18  1  0.393515  0.211607  0.400656  1
  O  O19  1  0.783068  0.592482  0.109448  1
  O  O20  1  0.279785  0.909394  0.390096  1
  O  O21  1  0.590606  0.220215  0.890096  1
  O  O22  1  0.494197  0.499930  0.999453  1
  O  O23  1  0.499575  0.495226  0.500481  1
  O  O24  1  0.787584  0.403529  0.607017  1
  O  O25  1  0.096471  0.712416  0.107017  1
  O  O26  1  0.288393  0.106485  0.900656  1
  O  O27  1  0.591932  0.782783  0.389922  1
  O  O28  1  0.211748  0.393581  0.099618  1
  O  O29  1  0.004774  0.000425  0.000481  1
  O  O30  1  0.000070  0.005803  0.499453  1
  O  O31  1  0.712775  0.095465  0.394967  1
