# generated using pymatgen
data_Y3Ho14Er3Pb16
_symmetry_space_group_name_H-M   'P 1'
_cell_length_a   8.19276430
_cell_length_b   8.26154304
_cell_length_c   15.61042214
_cell_angle_alpha   89.99757441
_cell_angle_beta   90.01521725
_cell_angle_gamma   89.99191314
_symmetry_Int_Tables_number   1
_chemical_formula_structural   Y3Ho14Er3Pb16
_chemical_formula_sum   'Y3 Ho14 Er3 Pb16'
_cell_volume   1056.58941987
_cell_formula_units_Z   1
loop_
 _symmetry_equiv_pos_site_id
 _symmetry_equiv_pos_as_xyz
  1  'x, y, z'
loop_
 _atom_site_type_symbol
 _atom_site_label
 _atom_site_symmetry_multiplicity
 _atom_site_fract_x
 _atom_site_fract_y
 _atom_site_fract_z
 _atom_site_occupancy
  Y  Y0  1  0.964319  0.823942  0.400024  1
  Y  Y1  1  0.535768  0.323880  0.599877  1
  Y  Y2  1  0.035633  0.175862  0.900123  1
  Ho  Ho3  1  0.377417  0.841339  0.879240  1
  Ho  Ho4  1  0.877024  0.658696  0.620934  1
  Ho  Ho5  1  0.622839  0.158459  0.378943  1
  Ho  Ho6  1  0.122899  0.341500  0.121115  1
  Ho  Ho7  1  0.622792  0.158564  0.120877  1
  Ho  Ho8  1  0.122860  0.341363  0.379006  1
  Ho  Ho9  1  0.377344  0.841337  0.620778  1
  Ho  Ho10  1  0.877239  0.658840  0.879240  1
  Ho  Ho11  1  0.535964  0.323898  0.900039  1
  Ho  Ho12  1  0.035726  0.175874  0.599989  1
  Ho  Ho13  1  0.464226  0.675984  0.399910  1
  Ho  Ho14  1  0.964111  0.823990  0.100053  1
  Ho  Ho15  1  0.464106  0.675917  0.100062  1
  Ho  Ho16  1  0.208906  0.504071  0.750027  1
  Er  Er17  1  0.708993  0.995584  0.750049  1
  Er  Er18  1  0.790885  0.495740  0.249857  1
  Er  Er19  1  0.291159  0.004232  0.249879  1
  Pb  Pb20  1  0.281172  0.033016  0.043093  1
  Pb  Pb21  1  0.781173  0.466817  0.456954  1
  Pb  Pb22  1  0.718879  0.966894  0.542933  1
  Pb  Pb23  1  0.219064  0.533481  0.957456  1
  Pb  Pb24  1  0.718195  0.966430  0.957313  1
  Pb  Pb25  1  0.218028  0.533856  0.542497  1
  Pb  Pb26  1  0.281879  0.033770  0.457268  1
  Pb  Pb27  1  0.781298  0.466716  0.042834  1
  Pb  Pb28  1  0.572502  0.626123  0.750000  1
  Pb  Pb29  1  0.072230  0.874139  0.750052  1
  Pb  Pb30  1  0.427944  0.374208  0.249932  1
  Pb  Pb31  1  0.927739  0.125900  0.250007  1
  Pb  Pb32  1  0.347877  0.153291  0.750176  1
  Pb  Pb33  1  0.847830  0.346422  0.749849  1
  Pb  Pb34  1  0.651781  0.846107  0.249865  1
  Pb  Pb35  1  0.152196  0.653756  0.249749  1
