# generated using pymatgen
data_Pr4Zr3TcF28
_symmetry_space_group_name_H-M   'P 1'
_cell_length_a   5.85072645
_cell_length_b   9.37005982
_cell_length_c   12.59401012
_cell_angle_alpha   62.09098963
_cell_angle_beta   89.99005596
_cell_angle_gamma   89.95307101
_symmetry_Int_Tables_number   1
_chemical_formula_structural   Pr4Zr3TcF28
_chemical_formula_sum   'Pr4 Zr3 Tc1 F28'
_cell_volume   610.12240799
_cell_formula_units_Z   1
loop_
 _symmetry_equiv_pos_site_id
 _symmetry_equiv_pos_as_xyz
  1  'x, y, z'
loop_
 _atom_site_type_symbol
 _atom_site_label
 _atom_site_symmetry_multiplicity
 _atom_site_fract_x
 _atom_site_fract_y
 _atom_site_fract_z
 _atom_site_occupancy
  Pr  Pr0  1  0.757590  0.814819  0.763798  1
  Pr  Pr1  1  0.256741  0.187889  0.731518  1
  Pr  Pr2  1  0.241746  0.187507  0.238512  1
  Pr  Pr3  1  0.743112  0.810832  0.266293  1
  Zr  Zr4  1  0.754302  0.273597  0.957308  1
  Zr  Zr5  1  0.254979  0.725824  0.542908  1
  Zr  Zr6  1  0.245293  0.726209  0.042742  1
  Tc  Tc7  1  0.742783  0.274444  0.456436  1
  F  F8  1  0.454640  0.710992  0.919167  1
  F  F9  1  0.937820  0.288334  0.578522  1
  F  F10  1  0.542910  0.287665  0.080980  1
  F  F11  1  0.047997  0.711391  0.418606  1
  F  F12  1  0.462783  0.280374  0.542067  1
  F  F13  1  0.954944  0.720866  0.952877  1
  F  F14  1  0.546017  0.717236  0.455194  1
  F  F15  1  0.042046  0.278762  0.048956  1
  F  F16  1  0.771460  0.519223  0.861495  1
  F  F17  1  0.267566  0.480060  0.637467  1
  F  F18  1  0.226342  0.480794  0.139934  1
  F  F19  1  0.733367  0.511665  0.362693  1
  F  F20  1  0.759982  0.028585  0.057043  1
  F  F21  1  0.262553  0.970787  0.445568  1
  F  F22  1  0.238696  0.970798  0.941408  1
  F  F23  1  0.741275  0.038117  0.550789  1
  F  F24  1  0.977376  0.732047  0.638974  1
  F  F25  1  0.481455  0.267811  0.858129  1
  F  F26  1  0.015274  0.268557  0.366663  1
  F  F27  1  0.521240  0.730876  0.140168  1
  F  F28  1  0.047491  0.746752  0.169324  1
  F  F29  1  0.551870  0.258124  0.332991  1
  F  F30  1  0.957723  0.254240  0.831412  1
  F  F31  1  0.454805  0.744600  0.669824  1
  F  F32  1  0.416813  0.969056  0.234710  1
  F  F33  1  0.917098  0.030089  0.269390  1
  F  F34  1  0.584643  0.033000  0.766820  1
  F  F35  1  0.087266  0.968080  0.729311  1
