# generated using pymatgen
data_Ho3Er5B2(Os2C3)2
_symmetry_space_group_name_H-M   'P 1'
_cell_length_a   5.09516700
_cell_length_b   6.52640578
_cell_length_c   9.76361364
_cell_angle_alpha   90.29614085
_cell_angle_beta   90.00000000
_cell_angle_gamma   90.00000000
_symmetry_Int_Tables_number   1
_chemical_formula_structural   Ho3Er5B2(Os2C3)2
_chemical_formula_sum   'Ho3 Er5 B2 Os4 C6'
_cell_volume   324.66635077
_cell_formula_units_Z   1
loop_
 _symmetry_equiv_pos_site_id
 _symmetry_equiv_pos_as_xyz
  1  'x, y, z'
loop_
 _atom_site_type_symbol
 _atom_site_label
 _atom_site_symmetry_multiplicity
 _atom_site_fract_x
 _atom_site_fract_y
 _atom_site_fract_z
 _atom_site_occupancy
  Ho  Ho0  1  0.750000  0.476343  0.788422  1
  Ho  Ho1  1  0.750000  0.973270  0.715898  1
  Ho  Ho2  1  0.250000  0.026792  0.284009  1
  Er  Er3  1  0.250000  0.678769  0.550488  1
  Er  Er4  1  0.750000  0.321409  0.449359  1
  Er  Er5  1  0.750000  0.826708  0.053477  1
  Er  Er6  1  0.250000  0.173161  0.946692  1
  Er  Er7  1  0.250000  0.523682  0.211853  1
  B  B8  1  0.250000  0.450990  0.757280  1
  B  B9  1  0.750000  0.549081  0.242578  1
  Os  Os10  1  0.250000  0.726023  0.864208  1
  Os  Os11  1  0.750000  0.274150  0.135866  1
  Os  Os12  1  0.750000  0.788125  0.371799  1
  Os  Os13  1  0.250000  0.211927  0.628035  1
  C  C14  1  0.750000  0.045045  0.260527  1
  C  C15  1  0.250000  0.955084  0.739473  1
  C  C16  1  0.250000  0.823364  0.052667  1
  C  C17  1  0.750000  0.175861  0.947633  1
  C  C18  1  0.750000  0.673651  0.554385  1
  C  C19  1  0.250000  0.326565  0.445351  1
