# generated using pymatgen
data_Sm2Ti3Si7Pt9
_symmetry_space_group_name_H-M   'P 1'
_cell_length_a   9.93878600
_cell_length_b   9.93878636
_cell_length_c   3.97810700
_cell_angle_alpha   90.00000000
_cell_angle_beta   90.00000000
_cell_angle_gamma   120.00000545
_symmetry_Int_Tables_number   1
_chemical_formula_structural   Sm2Ti3Si7Pt9
_chemical_formula_sum   'Sm2 Ti3 Si7 Pt9'
_cell_volume   340.30925719
_cell_formula_units_Z   1
loop_
 _symmetry_equiv_pos_site_id
 _symmetry_equiv_pos_as_xyz
  1  'x, y, z'
loop_
 _atom_site_type_symbol
 _atom_site_label
 _atom_site_symmetry_multiplicity
 _atom_site_fract_x
 _atom_site_fract_y
 _atom_site_fract_z
 _atom_site_occupancy
  Sm  Sm0  1  0.000000  0.000000  0.000000  1
  Sm  Sm1  1  0.333333  0.666667  0.500000  1
  Ti  Ti2  1  0.883320  0.451672  0.500000  1
  Ti  Ti3  1  0.568353  0.116680  0.500000  1
  Ti  Ti4  1  0.548328  0.431647  0.500000  1
  Si  Si5  1  0.257162  0.211639  0.500000  1
  Si  Si6  1  0.788361  0.045526  0.500000  1
  Si  Si7  1  0.954474  0.742838  0.500000  1
  Si  Si8  1  0.554602  0.636792  0.000000  1
  Si  Si9  1  0.363208  0.917809  0.000000  1
  Si  Si10  1  0.082191  0.445398  0.000000  1
  Si  Si11  1  0.666667  0.333333  0.000000  1
  Pt  Pt12  1  0.225740  0.942739  0.500000  1
  Pt  Pt13  1  0.057261  0.283001  0.500000  1
  Pt  Pt14  1  0.716999  0.774260  0.500000  1
  Pt  Pt15  1  0.306795  0.406432  0.000000  1
  Pt  Pt16  1  0.593568  0.900363  0.000000  1
  Pt  Pt17  1  0.099637  0.693205  0.000000  1
  Pt  Pt18  1  0.390450  0.175289  0.000000  1
  Pt  Pt19  1  0.824711  0.215161  0.000000  1
  Pt  Pt20  1  0.784839  0.609550  0.000000  1
