# generated using pymatgen
data_TaNb4B4SbRu10
_symmetry_space_group_name_H-M   'P 1'
_cell_length_a   9.50803600
_cell_length_b   9.50803600
_cell_length_c   3.00991000
_cell_angle_alpha   90.00000000
_cell_angle_beta   90.00000000
_cell_angle_gamma   90.00000000
_symmetry_Int_Tables_number   1
_chemical_formula_structural   TaNb4B4SbRu10
_chemical_formula_sum   'Ta1 Nb4 B4 Sb1 Ru10'
_cell_volume   272.10413697
_cell_formula_units_Z   1
loop_
 _symmetry_equiv_pos_site_id
 _symmetry_equiv_pos_as_xyz
  1  'x, y, z'
loop_
 _atom_site_type_symbol
 _atom_site_label
 _atom_site_symmetry_multiplicity
 _atom_site_fract_x
 _atom_site_fract_y
 _atom_site_fract_z
 _atom_site_occupancy
  Ta  Ta0  1  0.000000  0.000000  0.000000  1
  Nb  Nb1  1  0.825569  0.677749  0.000000  1
  Nb  Nb2  1  0.174431  0.322251  0.000000  1
  Nb  Nb3  1  0.322251  0.825569  0.000000  1
  Nb  Nb4  1  0.677749  0.174431  0.000000  1
  B  B5  1  0.620280  0.878205  0.000000  1
  B  B6  1  0.379720  0.121795  0.000000  1
  B  B7  1  0.121795  0.620280  0.000000  1
  B  B8  1  0.878205  0.379720  0.000000  1
  Sb  Sb9  1  0.500000  0.500000  0.000000  1
  Ru  Ru10  1  0.572856  0.719678  0.500000  1
  Ru  Ru11  1  0.427144  0.280322  0.500000  1
  Ru  Ru12  1  0.069430  0.781077  0.500000  1
  Ru  Ru13  1  0.930570  0.218923  0.500000  1
  Ru  Ru14  1  0.280322  0.572856  0.500000  1
  Ru  Ru15  1  0.719678  0.427144  0.500000  1
  Ru  Ru16  1  0.218923  0.069430  0.500000  1
  Ru  Ru17  1  0.781077  0.930570  0.500000  1
  Ru  Ru18  1  0.500000  0.000000  0.500000  1
  Ru  Ru19  1  0.000000  0.500000  0.500000  1
