# generated using pymatgen
data_TbYb6LuBi6
_symmetry_space_group_name_H-M   'P 1'
_cell_length_a   8.14572304
_cell_length_b   8.34311968
_cell_length_c   8.34311952
_cell_angle_alpha   109.94553958
_cell_angle_beta   108.99263612
_cell_angle_gamma   108.99263610
_symmetry_Int_Tables_number   1
_chemical_formula_structural   TbYb6LuBi6
_chemical_formula_sum   'Tb1 Yb6 Lu1 Bi6'
_cell_volume   439.03157123
_cell_formula_units_Z   1
loop_
 _symmetry_equiv_pos_site_id
 _symmetry_equiv_pos_as_xyz
  1  'x, y, z'
loop_
 _atom_site_type_symbol
 _atom_site_label
 _atom_site_symmetry_multiplicity
 _atom_site_fract_x
 _atom_site_fract_y
 _atom_site_fract_z
 _atom_site_occupancy
  Tb  Tb0  1  0.142571  0.500000  0.000000  1
  Yb  Yb1  1  0.500832  0.999284  0.646529  1
  Yb  Yb2  1  0.354462  0.352687  0.353866  1
  Yb  Yb3  1  0.501776  0.001179  0.147313  1
  Yb  Yb4  1  0.001547  0.647244  0.500716  1
  Yb  Yb5  1  0.854303  0.853471  0.852756  1
  Yb  Yb6  1  0.000597  0.146134  0.498821  1
  Lu  Lu7  1  0.642687  0.500000  0.000000  1
  Bi  Bi8  1  0.378261  0.622082  0.757647  1
  Bi  Bi9  1  0.875192  0.256633  0.122769  1
  Bi  Bi10  1  0.620613  0.742353  0.364435  1
  Bi  Bi11  1  0.118558  0.866137  0.243367  1
  Bi  Bi12  1  0.256179  0.135565  0.877918  1
  Bi  Bi13  1  0.752422  0.377231  0.633863  1
