# generated using pymatgen
data_ZrSc3Ti2(Co5B2)2
_symmetry_space_group_name_H-M   'P 1'
_cell_length_a   8.75799320
_cell_length_b   8.75799274
_cell_length_c   3.02059700
_cell_angle_alpha   90.00000000
_cell_angle_beta   90.00000000
_cell_angle_gamma   90.09691554
_symmetry_Int_Tables_number   1
_chemical_formula_structural   ZrSc3Ti2(Co5B2)2
_chemical_formula_sum   'Zr1 Sc3 Ti2 Co10 B4'
_cell_volume   231.68683131
_cell_formula_units_Z   1
loop_
 _symmetry_equiv_pos_site_id
 _symmetry_equiv_pos_as_xyz
  1  'x, y, z'
loop_
 _atom_site_type_symbol
 _atom_site_label
 _atom_site_symmetry_multiplicity
 _atom_site_fract_x
 _atom_site_fract_y
 _atom_site_fract_z
 _atom_site_occupancy
  Zr  Zr0  1  0.175138  0.675138  0.000000  1
  Sc  Sc1  1  0.824214  0.324214  0.000000  1
  Sc  Sc2  1  0.325470  0.174939  0.000000  1
  Sc  Sc3  1  0.674939  0.825470  0.000000  1
  Ti  Ti4  1  0.998276  0.002814  0.000000  1
  Ti  Ti5  1  0.502814  0.498276  0.000000  1
  Co  Co6  1  0.499328  0.999328  0.500000  1
  Co  Co7  1  0.000101  0.500101  0.500000  1
  Co  Co8  1  0.069957  0.223651  0.500000  1
  Co  Co9  1  0.221875  0.929464  0.500000  1
  Co  Co10  1  0.776139  0.068987  0.500000  1
  Co  Co11  1  0.931902  0.777539  0.500000  1
  Co  Co12  1  0.429464  0.721875  0.500000  1
  Co  Co13  1  0.568987  0.276139  0.500000  1
  Co  Co14  1  0.723651  0.569957  0.500000  1
  Co  Co15  1  0.277539  0.431902  0.500000  1
  B  B16  1  0.619579  0.119579  0.000000  1
  B  B17  1  0.120697  0.378702  0.000000  1
  B  B18  1  0.878702  0.620697  0.000000  1
  B  B19  1  0.381228  0.881228  0.000000  1
