# generated using pymatgen
data_Ba4Ni(SbO5)2
_symmetry_space_group_name_H-M   'P 1'
_cell_length_a   7.33546604
_cell_length_b   7.33546637
_cell_length_c   13.73017800
_cell_angle_alpha   90.00000000
_cell_angle_beta   90.00000000
_cell_angle_gamma   132.24728042
_symmetry_Int_Tables_number   1
_chemical_formula_structural   Ba4Ni(SbO5)2
_chemical_formula_sum   'Ba8 Ni2 Sb4 O20'
_cell_volume   546.90267683
_cell_formula_units_Z   2
loop_
 _symmetry_equiv_pos_site_id
 _symmetry_equiv_pos_as_xyz
  1  'x, y, z'
loop_
 _atom_site_type_symbol
 _atom_site_label
 _atom_site_symmetry_multiplicity
 _atom_site_fract_x
 _atom_site_fract_y
 _atom_site_fract_z
 _atom_site_occupancy
  Ba  Ba0  1  0.231285  0.768715  0.891620  1
  Ba  Ba1  1  0.768715  0.231285  0.108380  1
  Ba  Ba2  1  0.268715  0.731285  0.391620  1
  Ba  Ba3  1  0.731285  0.268715  0.608380  1
  Ba  Ba4  1  0.033176  0.966824  0.635637  1
  Ba  Ba5  1  0.966824  0.033176  0.364363  1
  Ba  Ba6  1  0.466824  0.533176  0.135637  1
  Ba  Ba7  1  0.533176  0.466824  0.864363  1
  Ni  Ni8  1  0.500000  0.500000  0.500000  1
  Ni  Ni9  1  0.000000  0.000000  0.000000  1
  Sb  Sb10  1  0.372746  0.627254  0.649366  1
  Sb  Sb11  1  0.627254  0.372746  0.350634  1
  Sb  Sb12  1  0.127254  0.872746  0.149366  1
  Sb  Sb13  1  0.872746  0.127254  0.850634  1
  O  O14  1  0.131845  0.368155  0.750000  1
  O  O15  1  0.368155  0.131845  0.250000  1
  O  O16  1  0.868155  0.631845  0.250000  1
  O  O17  1  0.631845  0.868155  0.750000  1
  O  O18  1  0.384269  0.156356  0.459387  1
  O  O19  1  0.156356  0.384269  0.540613  1
  O  O20  1  0.115731  0.343644  0.959387  1
  O  O21  1  0.343644  0.115731  0.040613  1
  O  O22  1  0.615731  0.843644  0.540613  1
  O  O23  1  0.843644  0.615731  0.459387  1
  O  O24  1  0.884269  0.656356  0.040613  1
  O  O25  1  0.656356  0.884269  0.959387  1
  O  O26  1  0.226936  0.773064  0.656735  1
  O  O27  1  0.773064  0.226936  0.343265  1
  O  O28  1  0.974229  0.025771  0.152179  1
  O  O29  1  0.025771  0.974229  0.847821  1
  O  O30  1  0.525771  0.474229  0.652179  1
  O  O31  1  0.474229  0.525771  0.347821  1
  O  O32  1  0.726936  0.273064  0.843265  1
  O  O33  1  0.273064  0.726936  0.156735  1
