# generated using pymatgen
data_PrGa2Ni2Pd
_symmetry_space_group_name_H-M   'P 1'
_cell_length_a   9.11934200
_cell_length_b   9.11934214
_cell_length_c   4.22748700
_cell_angle_alpha   90.00000000
_cell_angle_beta   90.00000000
_cell_angle_gamma   119.99999949
_symmetry_Int_Tables_number   1
_chemical_formula_structural   PrGa2Ni2Pd
_chemical_formula_sum   'Pr3 Ga6 Ni6 Pd3'
_cell_volume   304.46678956
_cell_formula_units_Z   3
loop_
 _symmetry_equiv_pos_site_id
 _symmetry_equiv_pos_as_xyz
  1  'x, y, z'
loop_
 _atom_site_type_symbol
 _atom_site_label
 _atom_site_symmetry_multiplicity
 _atom_site_fract_x
 _atom_site_fract_y
 _atom_site_fract_z
 _atom_site_occupancy
  Pr  Pr0  1  0.333333  0.666667  0.500000  1
  Pr  Pr1  1  0.666667  0.333333  0.500000  1
  Pr  Pr2  1  0.000000  0.000000  0.000000  1
  Ga  Ga3  1  0.282725  0.000000  0.500000  1
  Ga  Ga4  1  0.000000  0.282725  0.500000  1
  Ga  Ga5  1  0.717275  0.717275  0.500000  1
  Ga  Ga6  1  0.536035  0.000000  0.000000  1
  Ga  Ga7  1  0.000000  0.536035  0.000000  1
  Ga  Ga8  1  0.463965  0.463965  0.000000  1
  Ni  Ni9  1  0.162559  0.382961  0.000000  1
  Ni  Ni10  1  0.617039  0.779598  0.000000  1
  Ni  Ni11  1  0.220402  0.837441  0.000000  1
  Ni  Ni12  1  0.779598  0.617039  0.000000  1
  Ni  Ni13  1  0.837441  0.220402  0.000000  1
  Ni  Ni14  1  0.382961  0.162559  0.000000  1
  Pd  Pd15  1  0.716703  0.000000  0.500000  1
  Pd  Pd16  1  0.000000  0.716703  0.500000  1
  Pd  Pd17  1  0.283297  0.283297  0.500000  1
