# generated using pymatgen
data_TbY6CoSn23Os5
_symmetry_space_group_name_H-M   'P 1'
_cell_length_a   9.89042000
_cell_length_b   9.85041049
_cell_length_c   10.08011510
_cell_angle_alpha   90.05176297
_cell_angle_beta   90.00000000
_cell_angle_gamma   120.13446493
_symmetry_Int_Tables_number   1
_chemical_formula_structural   TbY6CoSn23Os5
_chemical_formula_sum   'Tb1 Y6 Co1 Sn23 Os5'
_cell_volume   849.32694508
_cell_formula_units_Z   1
loop_
 _symmetry_equiv_pos_site_id
 _symmetry_equiv_pos_as_xyz
  1  'x, y, z'
loop_
 _atom_site_type_symbol
 _atom_site_label
 _atom_site_symmetry_multiplicity
 _atom_site_fract_x
 _atom_site_fract_y
 _atom_site_fract_z
 _atom_site_occupancy
  Tb  Tb0  1  0.005557  0.011114  0.993886  1
  Y  Y1  1  0.032958  0.515672  0.305303  1
  Y  Y2  1  0.482346  0.964692  0.304855  1
  Y  Y3  1  0.482714  0.515672  0.305303  1
  Y  Y4  1  0.968051  0.484294  0.696248  1
  Y  Y5  1  0.515811  0.031621  0.696402  1
  Y  Y6  1  0.516244  0.484294  0.696248  1
  Co  Co7  1  0.829612  0.659223  0.200498  1
  Sn  Sn8  1  0.999138  0.998277  0.497915  1
  Sn  Sn9  1  0.109036  0.879188  0.274742  1
  Sn  Sn10  1  0.770151  0.879188  0.274742  1
  Sn  Sn11  1  0.117691  0.235383  0.275268  1
  Sn  Sn12  1  0.883369  0.115212  0.719020  1
  Sn  Sn13  1  0.231844  0.115212  0.719020  1
  Sn  Sn14  1  0.881716  0.763429  0.725605  1
  Sn  Sn15  1  0.349324  0.000245  0.000124  1
  Sn  Sn16  1  0.656767  0.653192  0.005314  1
  Sn  Sn17  1  0.998957  0.351576  0.000125  1
  Sn  Sn18  1  0.352618  0.351576  0.000125  1
  Sn  Sn19  1  0.996426  0.653192  0.005314  1
  Sn  Sn20  1  0.650921  0.000245  0.000124  1
  Sn  Sn21  1  0.781112  0.562224  0.456494  1
  Sn  Sn22  1  0.777941  0.219628  0.462342  1
  Sn  Sn23  1  0.441686  0.219628  0.462342  1
  Sn  Sn24  1  0.221013  0.442027  0.538864  1
  Sn  Sn25  1  0.221091  0.779802  0.537884  1
  Sn  Sn26  1  0.558710  0.779802  0.537884  1
  Sn  Sn27  1  0.667327  0.334653  0.177942  1
  Sn  Sn28  1  0.333208  0.666418  0.825486  1
  Sn  Sn29  1  0.667118  0.334234  0.874481  1
  Sn  Sn30  1  0.332633  0.665267  0.126948  1
  Os  Os31  1  0.168249  0.828888  0.798997  1
  Os  Os32  1  0.660638  0.828888  0.798997  1
  Os  Os33  1  0.168780  0.337558  0.800016  1
  Os  Os34  1  0.830440  0.169244  0.202567  1
  Os  Os35  1  0.338804  0.169244  0.202567  1
