# generated using pymatgen
data_Hf7Sc5(AlIr2)4
_symmetry_space_group_name_H-M   'P 1'
_cell_length_a   8.49880162
_cell_length_b   8.48896851
_cell_length_c   8.48896843
_cell_angle_alpha   59.93622835
_cell_angle_beta   59.96167054
_cell_angle_gamma   59.96167494
_symmetry_Int_Tables_number   1
_chemical_formula_structural   Hf7Sc5(AlIr2)4
_chemical_formula_sum   'Hf7 Sc5 Al4 Ir8'
_cell_volume   432.60466040
_cell_formula_units_Z   1
loop_
 _symmetry_equiv_pos_site_id
 _symmetry_equiv_pos_as_xyz
  1  'x, y, z'
loop_
 _atom_site_type_symbol
 _atom_site_label
 _atom_site_symmetry_multiplicity
 _atom_site_fract_x
 _atom_site_fract_y
 _atom_site_fract_z
 _atom_site_occupancy
  Hf  Hf0  1  0.804511  0.195489  0.195489  1
  Hf  Hf1  1  0.443413  0.444844  0.055436  1
  Hf  Hf2  1  0.056307  0.055436  0.444844  1
  Hf  Hf3  1  0.443413  0.055436  0.444844  1
  Hf  Hf4  1  0.056307  0.444844  0.055436  1
  Hf  Hf5  1  0.055605  0.444395  0.444395  1
  Hf  Hf6  1  0.445045  0.054955  0.054955  1
  Sc  Sc7  1  0.806074  0.806010  0.193714  1
  Sc  Sc8  1  0.194201  0.193714  0.806010  1
  Sc  Sc9  1  0.806074  0.193714  0.806010  1
  Sc  Sc10  1  0.194201  0.806010  0.193714  1
  Sc  Sc11  1  0.194058  0.805942  0.805942  1
  Al  Al12  1  0.126735  0.624165  0.624165  1
  Al  Al13  1  0.623760  0.126417  0.626064  1
  Al  Al14  1  0.623760  0.626064  0.126417  1
  Al  Al15  1  0.624935  0.624165  0.624165  1
  Ir  Ir16  1  0.764176  0.410868  0.410868  1
  Ir  Ir17  1  0.412060  0.764342  0.411536  1
  Ir  Ir18  1  0.412060  0.411536  0.764342  1
  Ir  Ir19  1  0.414086  0.410868  0.410868  1
  Ir  Ir20  1  0.489477  0.836670  0.836670  1
  Ir  Ir21  1  0.836278  0.487346  0.840098  1
  Ir  Ir22  1  0.836278  0.840098  0.487346  1
  Ir  Ir23  1  0.837185  0.836670  0.836670  1
