# generated using pymatgen
data_MnSb12IrPt2
_symmetry_space_group_name_H-M   'P 1'
_cell_length_a   8.14841694
_cell_length_b   8.14369498
_cell_length_c   8.13799495
_cell_angle_alpha   109.37209226
_cell_angle_beta   109.45176533
_cell_angle_gamma   109.61594708
_symmetry_Int_Tables_number   1
_chemical_formula_structural   MnSb12IrPt2
_chemical_formula_sum   'Mn1 Sb12 Ir1 Pt2'
_cell_volume   415.57415838
_cell_formula_units_Z   1
loop_
 _symmetry_equiv_pos_site_id
 _symmetry_equiv_pos_as_xyz
  1  'x, y, z'
loop_
 _atom_site_type_symbol
 _atom_site_label
 _atom_site_symmetry_multiplicity
 _atom_site_fract_x
 _atom_site_fract_y
 _atom_site_fract_z
 _atom_site_occupancy
  Mn  Mn0  1  0.500000  0.000000  0.000000  1
  Sb  Sb1  1  0.848843  0.652667  0.501215  1
  Sb  Sb2  1  0.834510  0.323279  0.172290  1
  Sb  Sb3  1  0.165490  0.676721  0.827710  1
  Sb  Sb4  1  0.341052  0.495823  0.149895  1
  Sb  Sb5  1  0.151157  0.347333  0.498785  1
  Sb  Sb6  1  0.654281  0.821477  0.146174  1
  Sb  Sb7  1  0.190927  0.844493  0.340881  1
  Sb  Sb8  1  0.658948  0.504177  0.850105  1
  Sb  Sb9  1  0.809073  0.155507  0.659119  1
  Sb  Sb10  1  0.345719  0.178523  0.853826  1
  Sb  Sb11  1  0.507283  0.853462  0.675069  1
  Sb  Sb12  1  0.492717  0.146538  0.324931  1
  Ir  Ir13  1  0.000000  0.500000  0.000000  1
  Pt  Pt14  1  0.000000  0.000000  0.500000  1
  Pt  Pt15  1  0.500000  0.500000  0.500000  1
