# generated using pymatgen
data_Yb3LuGaOs7
_symmetry_space_group_name_H-M   'P 1'
_cell_length_a   5.24278700
_cell_length_b   5.31987394
_cell_length_c   8.74741181
_cell_angle_alpha   89.71102427
_cell_angle_beta   90.00000000
_cell_angle_gamma   119.52180280
_symmetry_Int_Tables_number   1
_chemical_formula_structural   Yb3LuGaOs7
_chemical_formula_sum   'Yb3 Lu1 Ga1 Os7'
_cell_volume   212.29465803
_cell_formula_units_Z   1
loop_
 _symmetry_equiv_pos_site_id
 _symmetry_equiv_pos_as_xyz
  1  'x, y, z'
loop_
 _atom_site_type_symbol
 _atom_site_label
 _atom_site_symmetry_multiplicity
 _atom_site_fract_x
 _atom_site_fract_y
 _atom_site_fract_z
 _atom_site_occupancy
  Yb  Yb0  1  0.333024  0.666048  0.438125  1
  Yb  Yb1  1  0.665204  0.330406  0.559293  1
  Yb  Yb2  1  0.666787  0.333573  0.935668  1
  Lu  Lu3  1  0.335271  0.670544  0.069350  1
  Ga  Ga4  1  0.172686  0.345373  0.750708  1
  Os  Os5  1  0.183618  0.841051  0.751130  1
  Os  Os6  1  0.346352  0.176875  0.248079  1
  Os  Os7  1  0.831912  0.663823  0.249327  1
  Os  Os8  1  0.657433  0.841051  0.751130  1
  Os  Os9  1  0.989795  0.979589  0.997825  1
  Os  Os10  1  0.830524  0.176875  0.248079  1
  Os  Os11  1  0.987395  0.974790  0.501288  1
