# generated using pymatgen
data_Sr2Ga6AgPd
_symmetry_space_group_name_H-M   'P 1'
_cell_length_a   6.29794105
_cell_length_b   6.29793999
_cell_length_c   6.03399400
_cell_angle_alpha   90.00000000
_cell_angle_beta   90.00000000
_cell_angle_gamma   116.93011516
_symmetry_Int_Tables_number   1
_chemical_formula_structural   Sr2Ga6AgPd
_chemical_formula_sum   'Sr2 Ga6 Ag1 Pd1'
_cell_volume   213.37933900
_cell_formula_units_Z   1
loop_
 _symmetry_equiv_pos_site_id
 _symmetry_equiv_pos_as_xyz
  1  'x, y, z'
loop_
 _atom_site_type_symbol
 _atom_site_label
 _atom_site_symmetry_multiplicity
 _atom_site_fract_x
 _atom_site_fract_y
 _atom_site_fract_z
 _atom_site_occupancy
  Sr  Sr0  1  0.232968  0.767032  0.750000  1
  Sr  Sr1  1  0.766935  0.233065  0.250000  1
  Ga  Ga2  1  0.653901  0.346099  0.750000  1
  Ga  Ga3  1  0.336106  0.663894  0.250000  1
  Ga  Ga4  1  0.717360  0.710616  0.009373  1
  Ga  Ga5  1  0.717360  0.710616  0.490627  1
  Ga  Ga6  1  0.289384  0.282640  0.009373  1
  Ga  Ga7  1  0.289384  0.282640  0.490627  1
  Ag  Ag8  1  0.897492  0.102508  0.750000  1
  Pd  Pd9  1  0.099111  0.900889  0.250000  1
