# generated using pymatgen
data_Ho4ZnPt3
_symmetry_space_group_name_H-M   'P 1'
_cell_length_a   4.54200600
_cell_length_b   5.55950141
_cell_length_c   7.06121405
_cell_angle_alpha   89.87514443
_cell_angle_beta   90.00000000
_cell_angle_gamma   90.00000000
_symmetry_Int_Tables_number   1
_chemical_formula_structural   Ho4ZnPt3
_chemical_formula_sum   'Ho4 Zn1 Pt3'
_cell_volume   178.30433173
_cell_formula_units_Z   1
loop_
 _symmetry_equiv_pos_site_id
 _symmetry_equiv_pos_as_xyz
  1  'x, y, z'
loop_
 _atom_site_type_symbol
 _atom_site_label
 _atom_site_symmetry_multiplicity
 _atom_site_fract_x
 _atom_site_fract_y
 _atom_site_fract_z
 _atom_site_occupancy
  Ho  Ho0  1  0.250000  0.359599  0.687034  1
  Ho  Ho1  1  0.250000  0.149680  0.177971  1
  Ho  Ho2  1  0.750000  0.629935  0.307279  1
  Ho  Ho3  1  0.750000  0.861166  0.828733  1
  Zn  Zn4  1  0.250000  0.863856  0.532520  1
  Pt  Pt5  1  0.250000  0.664687  0.043096  1
  Pt  Pt6  1  0.750000  0.126597  0.469252  1
  Pt  Pt7  1  0.750000  0.344480  0.954115  1
