# generated using pymatgen
data_Hf6SnGeC4
_symmetry_space_group_name_H-M   'P 1'
_cell_length_a   3.32727800
_cell_length_b   3.32727776
_cell_length_c   19.22805300
_cell_angle_alpha   90.00000000
_cell_angle_beta   90.00000000
_cell_angle_gamma   120.00000235
_symmetry_Int_Tables_number   1
_chemical_formula_structural   Hf6SnGeC4
_chemical_formula_sum   'Hf6 Sn1 Ge1 C4'
_cell_volume   184.35039732
_cell_formula_units_Z   1
loop_
 _symmetry_equiv_pos_site_id
 _symmetry_equiv_pos_as_xyz
  1  'x, y, z'
loop_
 _atom_site_type_symbol
 _atom_site_label
 _atom_site_symmetry_multiplicity
 _atom_site_fract_x
 _atom_site_fract_y
 _atom_site_fract_z
 _atom_site_occupancy
  Hf  Hf0  1  0.000000  0.000000  0.992919  1
  Hf  Hf1  1  0.333333  0.666665  0.124858  1
  Hf  Hf2  1  0.333333  0.666665  0.375142  1
  Hf  Hf3  1  0.000000  0.000000  0.507081  1
  Hf  Hf4  1  0.666669  0.333334  0.639580  1
  Hf  Hf5  1  0.666669  0.333334  0.860419  1
  Sn  Sn6  1  0.000000  0.000000  0.250000  1
  Ge  Ge7  1  0.000000  0.000000  0.750000  1
  C  C8  1  0.666669  0.333334  0.064506  1
  C  C9  1  0.666669  0.333334  0.435494  1
  C  C10  1  0.333333  0.666665  0.578590  1
  C  C11  1  0.333333  0.666665  0.921410  1
