# generated using pymatgen
data_Dy3ZrSn2Ir3
_symmetry_space_group_name_H-M   'P 1'
_cell_length_a   7.26595100
_cell_length_b   7.36971632
_cell_length_c   4.19738000
_cell_angle_alpha   90.00000000
_cell_angle_beta   90.00000000
_cell_angle_gamma   119.53530805
_symmetry_Int_Tables_number   1
_chemical_formula_structural   Dy3ZrSn2Ir3
_chemical_formula_sum   'Dy3 Zr1 Sn2 Ir3'
_cell_volume   195.55403133
_cell_formula_units_Z   1
loop_
 _symmetry_equiv_pos_site_id
 _symmetry_equiv_pos_as_xyz
  1  'x, y, z'
loop_
 _atom_site_type_symbol
 _atom_site_label
 _atom_site_symmetry_multiplicity
 _atom_site_fract_x
 _atom_site_fract_y
 _atom_site_fract_z
 _atom_site_occupancy
  Dy  Dy0  1  0.602804  0.000000  0.000000  1
  Dy  Dy1  1  0.994020  0.582145  0.000000  1
  Dy  Dy2  1  0.411874  0.417855  0.000000  1
  Zr  Zr3  1  0.250070  0.000000  0.500000  1
  Sn  Sn4  1  0.001183  0.254153  0.500000  1
  Sn  Sn5  1  0.747030  0.745847  0.500000  1
  Ir  Ir6  1  0.327449  0.675720  0.500000  1
  Ir  Ir7  1  0.651731  0.324280  0.500000  1
  Ir  Ir8  1  0.013840  0.000000  0.000000  1
