# generated using pymatgen
data_HfZr5SiGe5Os6
_symmetry_space_group_name_H-M   'P 1'
_cell_length_a   7.73920747
_cell_length_b   7.75753765
_cell_length_c   7.73920742
_cell_angle_alpha   127.86700312
_cell_angle_beta   121.91404748
_cell_angle_gamma   81.74431069
_symmetry_Int_Tables_number   1
_chemical_formula_structural   HfZr5SiGe5Os6
_chemical_formula_sum   'Hf1 Zr5 Si1 Ge5 Os6'
_cell_volume   299.79807522
_cell_formula_units_Z   1
loop_
 _symmetry_equiv_pos_site_id
 _symmetry_equiv_pos_as_xyz
  1  'x, y, z'
loop_
 _atom_site_type_symbol
 _atom_site_label
 _atom_site_symmetry_multiplicity
 _atom_site_fract_x
 _atom_site_fract_y
 _atom_site_fract_z
 _atom_site_occupancy
  Hf  Hf0  1  0.247674  0.909878  0.162204  1
  Zr  Zr1  1  0.555425  0.100804  0.045379  1
  Zr  Zr2  1  0.449785  0.497798  0.548013  1
  Zr  Zr3  1  0.970311  0.490893  0.020583  1
  Zr  Zr4  1  0.030075  0.053379  0.523304  1
  Zr  Zr5  1  0.752445  0.916259  0.663814  1
  Si  Si6  1  0.221871  0.484447  0.762575  1
  Ge  Ge7  1  0.337511  0.829136  0.500418  1
  Ge  Ge8  1  0.659871  0.162207  0.488005  1
  Ge  Ge9  1  0.828717  0.829136  0.991623  1
  Ge  Ge10  1  0.174201  0.162207  0.002336  1
  Ge  Ge11  1  0.775304  0.522364  0.247061  1
  Os  Os12  1  0.156964  0.740892  0.654809  1
  Os  Os13  1  0.856912  0.498595  0.600231  1
  Os  Os14  1  0.586084  0.740892  0.083928  1
  Os  Os15  1  0.398363  0.498595  0.141683  1
  Os  Os16  1  0.479857  0.253259  0.734631  1
  Os  Os17  1  0.018628  0.253259  0.273401  1
