# generated using pymatgen
data_Li15Sn3Sb
_symmetry_space_group_name_H-M   'P 1'
_cell_length_a   9.73986909
_cell_length_b   9.73752851
_cell_length_c   9.73986877
_cell_angle_alpha   109.50678695
_cell_angle_beta   109.45615945
_cell_angle_gamma   109.46045965
_symmetry_Int_Tables_number   1
_chemical_formula_structural   Li15Sn3Sb
_chemical_formula_sum   'Li30 Sn6 Sb2'
_cell_volume   711.01827096
_cell_formula_units_Z   2
loop_
 _symmetry_equiv_pos_site_id
 _symmetry_equiv_pos_as_xyz
  1  'x, y, z'
loop_
 _atom_site_type_symbol
 _atom_site_label
 _atom_site_symmetry_multiplicity
 _atom_site_fract_x
 _atom_site_fract_y
 _atom_site_fract_z
 _atom_site_occupancy
  Li  Li0  1  0.339074  0.805944  0.725950  1
  Li  Li1  1  0.122043  0.750000  0.872043  1
  Li  Li2  1  0.727390  0.345186  0.808748  1
  Li  Li3  1  0.622860  0.777136  0.587126  1
  Li  Li4  1  0.030294  0.912929  0.690762  1
  Li  Li5  1  0.085375  0.273384  0.115918  1
  Li  Li6  1  0.920005  0.694056  0.033129  1
  Li  Li7  1  0.273614  0.113539  0.087410  1
  Li  Li8  1  0.185638  0.412088  0.525087  1
  Li  Li9  1  0.777834  0.587071  0.617366  1
  Li  Li10  1  0.691481  0.030142  0.918025  1
  Li  Li11  1  0.531855  0.190571  0.409923  1
  Li  Li12  1  0.628666  0.375921  0.255219  1
  Li  Li13  1  0.463563  0.154814  0.882205  1
  Li  Li14  1  0.879297  0.124079  0.752744  1
  Li  Li15  1  0.973871  0.386461  0.660074  1
  Li  Li16  1  0.407656  0.527200  0.188613  1
  Li  Li17  1  0.113000  0.087912  0.273550  1
  Li  Li18  1  0.308928  0.842161  0.219372  1
  Li  Li19  1  0.754167  0.879311  0.125719  1
  Li  Li20  1  0.887885  0.469858  0.161340  1
  Li  Li21  1  0.589148  0.621120  0.776669  1
  Li  Li22  1  0.377210  0.657839  0.966767  1
  Li  Li23  1  0.809990  0.722864  0.345724  1
  Li  Li24  1  0.661413  0.972800  0.380456  1
  Li  Li25  1  0.155549  0.878880  0.468028  1
  Li  Li26  1  0.219352  0.309429  0.841284  1
  Li  Li27  1  0.370781  0.250000  0.620781  1
  Li  Li28  1  0.842534  0.226616  0.311992  1
  Li  Li29  1  0.246408  0.620689  0.374855  1
  Sn  Sn30  1  0.501301  0.000280  0.086023  1
  Sn  Sn31  1  0.001356  0.084354  0.500904  1
  Sn  Sn32  1  0.999985  0.586253  0.499703  1
  Sn  Sn33  1  0.085743  0.499720  0.001021  1
  Sn  Sn34  1  0.416550  0.415646  0.417002  1
  Sn  Sn35  1  0.913451  0.913747  0.913733  1
  Sb  Sb36  1  0.500154  0.000838  0.585420  1
  Sb  Sb37  1  0.584583  0.499162  0.999317  1
