# generated using pymatgen
data_Lu16Cd4Pd3Rh
_symmetry_space_group_name_H-M   'P 1'
_cell_length_a   9.50451430
_cell_length_b   9.49284273
_cell_length_c   9.49284400
_cell_angle_alpha   59.99999559
_cell_angle_beta   60.04060927
_cell_angle_gamma   60.04060720
_symmetry_Int_Tables_number   1
_chemical_formula_structural   Lu16Cd4Pd3Rh
_chemical_formula_sum   'Lu16 Cd4 Pd3 Rh1'
_cell_volume   606.00169724
_cell_formula_units_Z   1
loop_
 _symmetry_equiv_pos_site_id
 _symmetry_equiv_pos_as_xyz
  1  'x, y, z'
loop_
 _atom_site_type_symbol
 _atom_site_label
 _atom_site_symmetry_multiplicity
 _atom_site_fract_x
 _atom_site_fract_y
 _atom_site_fract_z
 _atom_site_occupancy
  Lu  Lu0  1  0.312374  0.895876  0.895876  1
  Lu  Lu1  1  0.682577  0.315788  0.685849  1
  Lu  Lu2  1  0.316235  0.684027  0.315710  1
  Lu  Lu3  1  0.060974  0.438989  0.438989  1
  Lu  Lu4  1  0.682577  0.315788  0.315788  1
  Lu  Lu5  1  0.441948  0.061853  0.434347  1
  Lu  Lu6  1  0.441948  0.061853  0.061853  1
  Lu  Lu7  1  0.893806  0.899953  0.899953  1
  Lu  Lu8  1  0.060974  0.438989  0.061047  1
  Lu  Lu9  1  0.893806  0.306290  0.899953  1
  Lu  Lu10  1  0.316235  0.684027  0.684027  1
  Lu  Lu11  1  0.893806  0.899953  0.306290  1
  Lu  Lu12  1  0.441948  0.434347  0.061853  1
  Lu  Lu13  1  0.316235  0.315710  0.684027  1
  Lu  Lu14  1  0.682577  0.685849  0.315788  1
  Lu  Lu15  1  0.060974  0.061047  0.438989  1
  Cd  Cd16  1  0.996488  0.667838  0.667838  1
  Cd  Cd17  1  0.667492  0.997203  0.667653  1
  Cd  Cd18  1  0.667492  0.667653  0.997203  1
  Cd  Cd19  1  0.667492  0.667653  0.667653  1
  Pd  Pd20  1  0.107106  0.105401  0.682093  1
  Pd  Pd21  1  0.107106  0.682093  0.105401  1
  Pd  Pd22  1  0.107106  0.105401  0.105401  1
  Rh  Rh23  1  0.680724  0.106426  0.106426  1
