# generated using pymatgen
data_Ce4Al4Ir2OsRh
_symmetry_space_group_name_H-M   'P 1'
_cell_length_a   4.19446700
_cell_length_b   7.11506041
_cell_length_c   15.94719022
_cell_angle_alpha   89.04388199
_cell_angle_beta   90.00000000
_cell_angle_gamma   90.00000000
_symmetry_Int_Tables_number   1
_chemical_formula_structural   Ce4Al4Ir2OsRh
_chemical_formula_sum   'Ce8 Al8 Ir4 Os2 Rh2'
_cell_volume   475.85986433
_cell_formula_units_Z   2
loop_
 _symmetry_equiv_pos_site_id
 _symmetry_equiv_pos_as_xyz
  1  'x, y, z'
loop_
 _atom_site_type_symbol
 _atom_site_label
 _atom_site_symmetry_multiplicity
 _atom_site_fract_x
 _atom_site_fract_y
 _atom_site_fract_z
 _atom_site_occupancy
  Ce  Ce0  1  0.250000  0.158807  0.557649  1
  Ce  Ce1  1  0.750000  0.841193  0.442351  1
  Ce  Ce2  1  0.250000  0.654048  0.940854  1
  Ce  Ce3  1  0.750000  0.345952  0.059146  1
  Ce  Ce4  1  0.250000  0.027795  0.779173  1
  Ce  Ce5  1  0.750000  0.972205  0.220827  1
  Ce  Ce6  1  0.250000  0.531720  0.718155  1
  Ce  Ce7  1  0.750000  0.468280  0.281845  1
  Al  Al8  1  0.250000  0.143018  0.349666  1
  Al  Al9  1  0.750000  0.856982  0.650334  1
  Al  Al10  1  0.250000  0.641055  0.150688  1
  Al  Al11  1  0.750000  0.358945  0.849312  1
  Al  Al12  1  0.250000  0.003348  0.062207  1
  Al  Al13  1  0.750000  0.996652  0.937793  1
  Al  Al14  1  0.250000  0.503932  0.437959  1
  Al  Al15  1  0.750000  0.496068  0.562041  1
  Ir  Ir16  1  0.750000  0.775140  0.071816  1
  Ir  Ir17  1  0.250000  0.224860  0.928184  1
  Ir  Ir18  1  0.750000  0.738616  0.819410  1
  Ir  Ir19  1  0.250000  0.261384  0.180590  1
  Os  Os20  1  0.750000  0.269087  0.429611  1
  Os  Os21  1  0.250000  0.730913  0.570389  1
  Rh  Rh22  1  0.750000  0.235616  0.685600  1
  Rh  Rh23  1  0.250000  0.764384  0.314400  1
