# generated using pymatgen
data_CeZn4PdAu
_symmetry_space_group_name_H-M   'P 1'
_cell_length_a   5.22503200
_cell_length_b   8.56781700
_cell_length_c   10.93928200
_cell_angle_alpha   90.00000000
_cell_angle_beta   90.00000000
_cell_angle_gamma   90.00000000
_symmetry_Int_Tables_number   1
_chemical_formula_structural   CeZn4PdAu
_chemical_formula_sum   'Ce4 Zn16 Pd4 Au4'
_cell_volume   489.72012808
_cell_formula_units_Z   4
loop_
 _symmetry_equiv_pos_site_id
 _symmetry_equiv_pos_as_xyz
  1  'x, y, z'
loop_
 _atom_site_type_symbol
 _atom_site_label
 _atom_site_symmetry_multiplicity
 _atom_site_fract_x
 _atom_site_fract_y
 _atom_site_fract_z
 _atom_site_occupancy
  Ce  Ce0  1  0.250000  0.248548  0.557589  1
  Ce  Ce1  1  0.750000  0.751452  0.442411  1
  Ce  Ce2  1  0.250000  0.748548  0.942411  1
  Ce  Ce3  1  0.750000  0.251452  0.057589  1
  Zn  Zn4  1  0.506689  0.567059  0.186815  1
  Zn  Zn5  1  0.006689  0.432941  0.813185  1
  Zn  Zn6  1  0.993311  0.067059  0.313185  1
  Zn  Zn7  1  0.493311  0.932941  0.686815  1
  Zn  Zn8  1  0.493311  0.432941  0.813185  1
  Zn  Zn9  1  0.993311  0.567059  0.186815  1
  Zn  Zn10  1  0.006689  0.932941  0.686815  1
  Zn  Zn11  1  0.506689  0.067059  0.313185  1
  Zn  Zn12  1  0.750000  0.942851  0.903093  1
  Zn  Zn13  1  0.250000  0.057149  0.096907  1
  Zn  Zn14  1  0.750000  0.442851  0.596907  1
  Zn  Zn15  1  0.250000  0.557149  0.403093  1
  Zn  Zn16  1  0.750000  0.686766  0.749415  1
  Zn  Zn17  1  0.250000  0.313234  0.250585  1
  Zn  Zn18  1  0.750000  0.186766  0.750585  1
  Zn  Zn19  1  0.250000  0.813234  0.249415  1
  Pd  Pd20  1  0.750000  0.597545  0.979290  1
  Pd  Pd21  1  0.250000  0.402455  0.020710  1
  Pd  Pd22  1  0.750000  0.097545  0.520710  1
  Pd  Pd23  1  0.250000  0.902455  0.479290  1
  Au  Au24  1  0.250000  0.125657  0.858659  1
  Au  Au25  1  0.750000  0.874343  0.141341  1
  Au  Au26  1  0.250000  0.625657  0.641341  1
  Au  Au27  1  0.750000  0.374343  0.358659  1
