# generated using pymatgen
data_Y19Th(FeHg3)2
_symmetry_space_group_name_H-M   'P 1'
_cell_length_a   9.66727912
_cell_length_b   9.66728036
_cell_length_c   9.67959967
_cell_angle_alpha   90.68108407
_cell_angle_beta   89.31891756
_cell_angle_gamma   120.32326891
_symmetry_Int_Tables_number   1
_chemical_formula_structural   Y19Th(FeHg3)2
_chemical_formula_sum   'Y19 Th1 Fe2 Hg6'
_cell_volume   780.78575198
_cell_formula_units_Z   1
loop_
 _symmetry_equiv_pos_site_id
 _symmetry_equiv_pos_as_xyz
  1  'x, y, z'
loop_
 _atom_site_type_symbol
 _atom_site_label
 _atom_site_symmetry_multiplicity
 _atom_site_fract_x
 _atom_site_fract_y
 _atom_site_fract_z
 _atom_site_occupancy
  Y  Y0  1  0.001309  0.998691  0.499207  1
  Y  Y1  1  0.997473  0.002527  0.999101  1
  Y  Y2  1  0.547142  0.452858  0.251244  1
  Y  Y3  1  0.541925  0.079970  0.246593  1
  Y  Y4  1  0.920030  0.458075  0.246593  1
  Y  Y5  1  0.458529  0.541471  0.750838  1
  Y  Y6  1  0.462613  0.917764  0.752115  1
  Y  Y7  1  0.082236  0.537387  0.752115  1
  Y  Y8  1  0.214323  0.417699  0.437836  1
  Y  Y9  1  0.582301  0.785677  0.437836  1
  Y  Y10  1  0.788281  0.211719  0.561524  1
  Y  Y11  1  0.789704  0.575183  0.563959  1
  Y  Y12  1  0.424817  0.210296  0.563959  1
  Y  Y13  1  0.788207  0.211793  0.935246  1
  Y  Y14  1  0.786761  0.575981  0.935200  1
  Y  Y15  1  0.424019  0.213239  0.935200  1
  Y  Y16  1  0.205120  0.794880  0.058087  1
  Y  Y17  1  0.214760  0.430346  0.066024  1
  Y  Y18  1  0.569654  0.785240  0.066024  1
  Th  Th19  1  0.218270  0.781730  0.434147  1
  Fe  Fe20  1  0.317134  0.682866  0.260897  1
  Fe  Fe21  1  0.667740  0.332260  0.748899  1
  Hg  Hg22  1  0.881491  0.118509  0.253332  1
  Hg  Hg23  1  0.879254  0.762308  0.247126  1
  Hg  Hg24  1  0.237692  0.120746  0.247126  1
  Hg  Hg25  1  0.118590  0.881410  0.748284  1
  Hg  Hg26  1  0.118060  0.237433  0.750744  1
  Hg  Hg27  1  0.762567  0.881940  0.750744  1
