# generated using pymatgen
data_Ho3Mg3RuAu2
_symmetry_space_group_name_H-M   'P 1'
_cell_length_a   7.51638400
_cell_length_b   7.51638444
_cell_length_c   4.06080900
_cell_angle_alpha   90.00000000
_cell_angle_beta   90.00000000
_cell_angle_gamma   119.99999805
_symmetry_Int_Tables_number   1
_chemical_formula_structural   Ho3Mg3RuAu2
_chemical_formula_sum   'Ho3 Mg3 Ru1 Au2'
_cell_volume   198.68320065
_cell_formula_units_Z   1
loop_
 _symmetry_equiv_pos_site_id
 _symmetry_equiv_pos_as_xyz
  1  'x, y, z'
loop_
 _atom_site_type_symbol
 _atom_site_label
 _atom_site_symmetry_multiplicity
 _atom_site_fract_x
 _atom_site_fract_y
 _atom_site_fract_z
 _atom_site_occupancy
  Ho  Ho0  1  0.572975  0.971945  0.000000  1
  Ho  Ho1  1  0.028055  0.601032  0.000000  1
  Ho  Ho2  1  0.398968  0.427025  0.000000  1
  Mg  Mg3  1  0.252366  0.999154  0.500000  1
  Mg  Mg4  1  0.000846  0.253212  0.500000  1
  Mg  Mg5  1  0.746788  0.747634  0.500000  1
  Ru  Ru6  1  0.333333  0.666667  0.500000  1
  Au  Au7  1  0.666667  0.333333  0.500000  1
  Au  Au8  1  0.000000  0.000000  0.000000  1
