# generated using pymatgen
data_BaLa(Ni9P5)2
_symmetry_space_group_name_H-M   'P 1'
_cell_length_a   6.51447000
_cell_length_b   6.51447042
_cell_length_c   10.83106400
_cell_angle_alpha   90.00000000
_cell_angle_beta   90.00000000
_cell_angle_gamma   119.99999785
_symmetry_Int_Tables_number   1
_chemical_formula_structural   BaLa(Ni9P5)2
_chemical_formula_sum   'Ba1 La1 Ni18 P10'
_cell_volume   398.07047605
_cell_formula_units_Z   1
loop_
 _symmetry_equiv_pos_site_id
 _symmetry_equiv_pos_as_xyz
  1  'x, y, z'
loop_
 _atom_site_type_symbol
 _atom_site_label
 _atom_site_symmetry_multiplicity
 _atom_site_fract_x
 _atom_site_fract_y
 _atom_site_fract_z
 _atom_site_occupancy
  Ba  Ba0  1  0.000000  0.000000  0.000000  1
  La  La1  1  0.000000  0.000000  0.500000  1
  Ni  Ni2  1  0.464530  0.929059  0.891973  1
  Ni  Ni3  1  0.929059  0.464530  0.108027  1
  Ni  Ni4  1  0.535470  0.070941  0.108027  1
  Ni  Ni5  1  0.071813  0.535907  0.605623  1
  Ni  Ni6  1  0.202518  0.405035  0.252563  1
  Ni  Ni7  1  0.797482  0.202518  0.747437  1
  Ni  Ni8  1  0.405035  0.202518  0.747437  1
  Ni  Ni9  1  0.594965  0.797482  0.252563  1
  Ni  Ni10  1  0.202518  0.797482  0.252563  1
  Ni  Ni11  1  0.797482  0.594965  0.747437  1
  Ni  Ni12  1  0.464093  0.928187  0.605623  1
  Ni  Ni13  1  0.535907  0.464093  0.394377  1
  Ni  Ni14  1  0.928187  0.464093  0.394377  1
  Ni  Ni15  1  0.070941  0.535470  0.891973  1
  Ni  Ni16  1  0.464530  0.535470  0.891973  1
  Ni  Ni17  1  0.535907  0.071813  0.394377  1
  Ni  Ni18  1  0.535470  0.464530  0.108027  1
  Ni  Ni19  1  0.464093  0.535907  0.605623  1
  P  P20  1  0.175061  0.350123  0.748068  1
  P  P21  1  0.824939  0.175061  0.251932  1
  P  P22  1  0.175061  0.824939  0.748068  1
  P  P23  1  0.824939  0.649877  0.251932  1
  P  P24  1  0.333333  0.666667  0.437889  1
  P  P25  1  0.666667  0.333333  0.938704  1
  P  P26  1  0.666667  0.333333  0.562111  1
  P  P27  1  0.333333  0.666667  0.061296  1
  P  P28  1  0.350123  0.175061  0.251932  1
  P  P29  1  0.649877  0.824939  0.748068  1
