# generated using pymatgen
data_K4Fe3CoP4(O7F2)2
_symmetry_space_group_name_H-M   'P 1'
_cell_length_a   6.94419900
_cell_length_b   10.57902200
_cell_length_c   11.41415900
_cell_angle_alpha   90.00000000
_cell_angle_beta   90.00000000
_cell_angle_gamma   90.00000000
_symmetry_Int_Tables_number   1
_chemical_formula_structural   K4Fe3CoP4(O7F2)2
_chemical_formula_sum   'K8 Fe6 Co2 P8 O28 F8'
_cell_volume   838.51646779
_cell_formula_units_Z   2
loop_
 _symmetry_equiv_pos_site_id
 _symmetry_equiv_pos_as_xyz
  1  'x, y, z'
loop_
 _atom_site_type_symbol
 _atom_site_label
 _atom_site_symmetry_multiplicity
 _atom_site_fract_x
 _atom_site_fract_y
 _atom_site_fract_z
 _atom_site_occupancy
  K  K0  1  0.501520  0.064917  0.826408  1
  K  K1  1  0.998480  0.564917  0.673592  1
  K  K2  1  0.001296  0.935035  0.674341  1
  K  K3  1  0.498704  0.435035  0.825659  1
  K  K4  1  0.498480  0.935083  0.173592  1
  K  K5  1  0.001520  0.435083  0.326408  1
  K  K6  1  0.998704  0.064965  0.325659  1
  K  K7  1  0.501296  0.564965  0.174341  1
  Fe  Fe8  1  0.000581  0.249512  0.835803  1
  Fe  Fe9  1  0.499419  0.749512  0.664197  1
  Fe  Fe10  1  0.999419  0.750488  0.164197  1
  Fe  Fe11  1  0.500581  0.250488  0.335803  1
  Fe  Fe12  1  0.500000  0.000000  0.500000  1
  Fe  Fe13  1  0.000000  0.500000  0.000000  1
  Co  Co14  1  0.000000  0.000000  0.000000  1
  Co  Co15  1  0.500000  0.500000  0.500000  1
  P  P16  1  0.218109  0.249442  0.579300  1
  P  P17  1  0.281891  0.749442  0.920700  1
  P  P18  1  0.718274  0.752377  0.921104  1
  P  P19  1  0.781726  0.252377  0.578896  1
  P  P20  1  0.781891  0.750558  0.420700  1
  P  P21  1  0.718109  0.250558  0.079300  1
  P  P22  1  0.281726  0.247623  0.078896  1
  P  P23  1  0.218274  0.747623  0.421104  1
  O  O24  1  0.000542  0.250796  0.521164  1
  O  O25  1  0.499458  0.750796  0.978836  1
  O  O26  1  0.999458  0.749204  0.478836  1
  O  O27  1  0.500542  0.249204  0.021164  1
  O  O28  1  0.173724  0.328369  0.987360  1
  O  O29  1  0.326276  0.828369  0.512640  1
  O  O30  1  0.671753  0.669227  0.510951  1
  O  O31  1  0.828247  0.169227  0.989049  1
  O  O32  1  0.826276  0.671631  0.012640  1
  O  O33  1  0.673724  0.171631  0.487360  1
  O  O34  1  0.328247  0.330773  0.489049  1
  O  O35  1  0.171753  0.830773  0.010951  1
  O  O36  1  0.280524  0.110529  0.582382  1
  O  O37  1  0.219476  0.610529  0.917618  1
  O  O38  1  0.780896  0.890994  0.917136  1
  O  O39  1  0.719104  0.390994  0.582864  1
  O  O40  1  0.719476  0.889471  0.417618  1
  O  O41  1  0.780524  0.389471  0.082382  1
  O  O42  1  0.219104  0.109006  0.082864  1
  O  O43  1  0.280896  0.609006  0.417136  1
  O  O44  1  0.205030  0.309092  0.701177  1
  O  O45  1  0.294970  0.809092  0.798823  1
  O  O46  1  0.704873  0.691407  0.799682  1
  O  O47  1  0.795127  0.191407  0.700318  1
  O  O48  1  0.794970  0.690908  0.298823  1
  O  O49  1  0.705030  0.190908  0.201177  1
  O  O50  1  0.295127  0.308593  0.200318  1
  O  O51  1  0.204873  0.808593  0.299682  1
  F  F52  1  0.113997  0.073876  0.847503  1
  F  F53  1  0.386003  0.573876  0.652497  1
  F  F54  1  0.616618  0.923701  0.655379  1
  F  F55  1  0.883382  0.423701  0.844621  1
  F  F56  1  0.886003  0.926124  0.152497  1
  F  F57  1  0.613997  0.426124  0.347503  1
  F  F58  1  0.383382  0.076299  0.344621  1
  F  F59  1  0.116618  0.576299  0.155379  1
