# generated using pymatgen
data_Y4TcB12Ru
_symmetry_space_group_name_H-M   'P 1'
_cell_length_a   3.67976600
_cell_length_b   9.16339684
_cell_length_c   11.55501301
_cell_angle_alpha   89.85431823
_cell_angle_beta   90.00000000
_cell_angle_gamma   90.00000000
_symmetry_Int_Tables_number   1
_chemical_formula_structural   Y4TcB12Ru
_chemical_formula_sum   'Y8 Tc2 B24 Ru2'
_cell_volume   389.62402816
_cell_formula_units_Z   2
loop_
 _symmetry_equiv_pos_site_id
 _symmetry_equiv_pos_as_xyz
  1  'x, y, z'
loop_
 _atom_site_type_symbol
 _atom_site_label
 _atom_site_symmetry_multiplicity
 _atom_site_fract_x
 _atom_site_fract_y
 _atom_site_fract_z
 _atom_site_occupancy
  Y  Y0  1  0.000000  0.325149  0.415535  1
  Y  Y1  1  0.000000  0.674851  0.584465  1
  Y  Y2  1  0.000000  0.821443  0.087397  1
  Y  Y3  1  0.000000  0.178557  0.912603  1
  Y  Y4  1  0.000000  0.942361  0.370624  1
  Y  Y5  1  0.000000  0.057639  0.629376  1
  Y  Y6  1  0.000000  0.443293  0.129964  1
  Y  Y7  1  0.000000  0.556707  0.870036  1
  Tc  Tc8  1  0.000000  0.638600  0.320276  1
  Tc  Tc9  1  0.000000  0.361400  0.679724  1
  B  B10  1  0.500000  0.553373  0.432835  1
  B  B11  1  0.500000  0.446627  0.567165  1
  B  B12  1  0.500000  0.054090  0.067129  1
  B  B13  1  0.500000  0.945910  0.932871  1
  B  B14  1  0.500000  0.748352  0.418857  1
  B  B15  1  0.500000  0.251648  0.581143  1
  B  B16  1  0.500000  0.248376  0.081205  1
  B  B17  1  0.500000  0.751624  0.918795  1
  B  B18  1  0.500000  0.791372  0.265219  1
  B  B19  1  0.500000  0.208628  0.734781  1
  B  B20  1  0.500000  0.290452  0.234300  1
  B  B21  1  0.500000  0.709548  0.765700  1
  B  B22  1  0.500000  0.631614  0.185387  1
  B  B23  1  0.500000  0.368386  0.814613  1
  B  B24  1  0.500000  0.131309  0.313821  1
  B  B25  1  0.500000  0.868691  0.686179  1
  B  B26  1  0.500000  0.983590  0.211731  1
  B  B27  1  0.500000  0.016410  0.788269  1
  B  B28  1  0.500000  0.483058  0.287766  1
  B  B29  1  0.500000  0.516942  0.712234  1
  B  B30  1  0.500000  0.603782  0.028556  1
  B  B31  1  0.500000  0.396218  0.971444  1
  B  B32  1  0.500000  0.103875  0.471044  1
  B  B33  1  0.500000  0.896125  0.528956  1
  Ru  Ru34  1  0.000000  0.137886  0.178355  1
  Ru  Ru35  1  0.000000  0.862114  0.821645  1
