# generated using pymatgen
data_Tb16Cd4RuPt3
_symmetry_space_group_name_H-M   'P 1'
_cell_length_a   9.73271149
_cell_length_b   9.73271149
_cell_length_c   9.73271185
_cell_angle_alpha   59.64283324
_cell_angle_beta   59.64283774
_cell_angle_gamma   59.64283336
_symmetry_Int_Tables_number   1
_chemical_formula_structural   Tb16Cd4RuPt3
_chemical_formula_sum   'Tb16 Cd4 Ru1 Pt3'
_cell_volume   646.61761260
_cell_formula_units_Z   1
loop_
 _symmetry_equiv_pos_site_id
 _symmetry_equiv_pos_as_xyz
  1  'x, y, z'
loop_
 _atom_site_type_symbol
 _atom_site_label
 _atom_site_symmetry_multiplicity
 _atom_site_fract_x
 _atom_site_fract_y
 _atom_site_fract_z
 _atom_site_occupancy
  Tb  Tb0  1  0.351210  0.351210  0.351210  1
  Tb  Tb1  1  0.349371  0.349371  0.948672  1
  Tb  Tb2  1  0.349371  0.948672  0.349371  1
  Tb  Tb3  1  0.948672  0.349371  0.349371  1
  Tb  Tb4  1  0.814531  0.189087  0.189087  1
  Tb  Tb5  1  0.188815  0.809885  0.809885  1
  Tb  Tb6  1  0.189087  0.814531  0.189087  1
  Tb  Tb7  1  0.809885  0.188815  0.809885  1
  Tb  Tb8  1  0.189087  0.189087  0.814531  1
  Tb  Tb9  1  0.809885  0.809885  0.188815  1
  Tb  Tb10  1  0.935832  0.565377  0.565377  1
  Tb  Tb11  1  0.560930  0.936472  0.936472  1
  Tb  Tb12  1  0.565377  0.935832  0.565377  1
  Tb  Tb13  1  0.936472  0.560930  0.936472  1
  Tb  Tb14  1  0.565377  0.565377  0.935832  1
  Tb  Tb15  1  0.936472  0.936472  0.560930  1
  Cd  Cd16  1  0.580583  0.580583  0.580583  1
  Cd  Cd17  1  0.581107  0.581107  0.254630  1
  Cd  Cd18  1  0.581107  0.254630  0.581107  1
  Cd  Cd19  1  0.254630  0.581107  0.581107  1
  Ru  Ru20  1  0.143114  0.143114  0.143114  1
  Pt  Pt21  1  0.143571  0.143571  0.571944  1
  Pt  Pt22  1  0.143571  0.571944  0.143571  1
  Pt  Pt23  1  0.571944  0.143571  0.143571  1
