# generated using pymatgen
data_Tm(ZrNi6)2
_symmetry_space_group_name_H-M   'P 1'
_cell_length_a   4.74924443
_cell_length_b   4.76746154
_cell_length_c   10.08550905
_cell_angle_alpha   85.11014736
_cell_angle_beta   80.14621588
_cell_angle_gamma   60.12633987
_symmetry_Int_Tables_number   1
_chemical_formula_structural   Tm(ZrNi6)2
_chemical_formula_sum   'Tm1 Zr2 Ni12'
_cell_volume   195.09093337
_cell_formula_units_Z   1
loop_
 _symmetry_equiv_pos_site_id
 _symmetry_equiv_pos_as_xyz
  1  'x, y, z'
loop_
 _atom_site_type_symbol
 _atom_site_label
 _atom_site_symmetry_multiplicity
 _atom_site_fract_x
 _atom_site_fract_y
 _atom_site_fract_z
 _atom_site_occupancy
  Tm  Tm0  1  0.000000  0.000000  0.000000  1
  Zr  Zr1  1  0.864849  0.000000  0.356692  1
  Zr  Zr2  1  0.135151  0.000000  0.643308  1
  Ni  Ni3  1  0.333790  0.332421  0.000000  1
  Ni  Ni4  1  0.666210  0.667579  0.000000  1
  Ni  Ni5  1  0.425677  0.000000  0.201573  1
  Ni  Ni6  1  0.574323  0.000000  0.798427  1
  Ni  Ni7  1  0.927664  0.500292  0.201489  1
  Ni  Ni8  1  0.427956  0.499708  0.201489  1
  Ni  Ni9  1  0.072336  0.499708  0.798511  1
  Ni  Ni10  1  0.572044  0.500292  0.798511  1
  Ni  Ni11  1  0.187799  0.329645  0.407316  1
  Ni  Ni12  1  0.517443  0.670355  0.407316  1
  Ni  Ni13  1  0.812201  0.670355  0.592684  1
  Ni  Ni14  1  0.482557  0.329645  0.592684  1
