# generated using pymatgen
data_TbYbAl20IrOs3
_symmetry_space_group_name_H-M   'P 1'
_cell_length_a   6.88548776
_cell_length_b   6.88496544
_cell_length_c   9.18081201
_cell_angle_alpha   90.21191716
_cell_angle_beta   90.06326894
_cell_angle_gamma   96.45882913
_symmetry_Int_Tables_number   1
_chemical_formula_structural   TbYbAl20IrOs3
_chemical_formula_sum   'Tb1 Yb1 Al20 Ir1 Os3'
_cell_volume   432.46285833
_cell_formula_units_Z   1
loop_
 _symmetry_equiv_pos_site_id
 _symmetry_equiv_pos_as_xyz
  1  'x, y, z'
loop_
 _atom_site_type_symbol
 _atom_site_label
 _atom_site_symmetry_multiplicity
 _atom_site_fract_x
 _atom_site_fract_y
 _atom_site_fract_z
 _atom_site_occupancy
  Tb  Tb0  1  0.629861  0.373614  0.749705  1
  Yb  Yb1  1  0.371725  0.625806  0.250307  1
  Al  Al2  1  0.280778  0.017841  0.747808  1
  Al  Al3  1  0.019807  0.283190  0.249288  1
  Al  Al4  1  0.718528  0.980005  0.252373  1
  Al  Al5  1  0.982709  0.718626  0.750531  1
  Al  Al6  1  0.878979  0.123913  0.948768  1
  Al  Al7  1  0.121316  0.875372  0.045986  1
  Al  Al8  1  0.876906  0.123461  0.549459  1
  Al  Al9  1  0.123815  0.875489  0.455378  1
  Al  Al10  1  0.646264  0.917813  0.749137  1
  Al  Al11  1  0.916084  0.646684  0.250351  1
  Al  Al12  1  0.352416  0.083845  0.251082  1
  Al  Al13  1  0.083425  0.355042  0.749628  1
  Al  Al14  1  0.342449  0.654960  0.896926  1
  Al  Al15  1  0.660306  0.341383  0.103078  1
  Al  Al16  1  0.344652  0.656248  0.600797  1
  Al  Al17  1  0.658677  0.340051  0.398938  1
  Al  Al18  1  0.723662  0.723773  0.998710  1
  Al  Al19  1  0.722684  0.723939  0.500840  1
  Al  Al20  1  0.274766  0.277954  0.000833  1
  Al  Al21  1  0.275350  0.277547  0.499956  1
  Ir  Ir22  1  0.499188  0.001414  0.999492  1
  Os  Os23  1  0.998143  0.500201  0.999440  1
  Os  Os24  1  0.499547  0.001630  0.500607  1
  Os  Os25  1  0.997963  0.500197  0.500580  1
