# generated using pymatgen
data_La3Mg3Ge2Pd
_symmetry_space_group_name_H-M   'P 1'
_cell_length_a   7.54191200
_cell_length_b   7.54191167
_cell_length_c   4.51427900
_cell_angle_alpha   90.00000000
_cell_angle_beta   90.00000000
_cell_angle_gamma   120.00000146
_symmetry_Int_Tables_number   1
_chemical_formula_structural   La3Mg3Ge2Pd
_chemical_formula_sum   'La3 Mg3 Ge2 Pd1'
_cell_volume   222.37293294
_cell_formula_units_Z   1
loop_
 _symmetry_equiv_pos_site_id
 _symmetry_equiv_pos_as_xyz
  1  'x, y, z'
loop_
 _atom_site_type_symbol
 _atom_site_label
 _atom_site_symmetry_multiplicity
 _atom_site_fract_x
 _atom_site_fract_y
 _atom_site_fract_z
 _atom_site_occupancy
  La  La0  1  0.412414  0.412414  0.500000  1
  La  La1  1  0.587586  0.000000  0.500000  1
  La  La2  1  0.000000  0.587586  0.500000  1
  Mg  Mg3  1  0.763634  0.763634  0.000000  1
  Mg  Mg4  1  0.236366  0.000000  0.000000  1
  Mg  Mg5  1  0.000000  0.236366  0.000000  1
  Ge  Ge6  1  0.666667  0.333333  0.000000  1
  Ge  Ge7  1  0.333333  0.666667  0.000000  1
  Pd  Pd8  1  0.000000  0.000000  0.500000  1
