# generated using pymatgen
data_Ba6DyTm(BO3)6
_symmetry_space_group_name_H-M   'P 1'
_cell_length_a   8.20999369
_cell_length_b   8.20999438
_cell_length_c   8.20999476
_cell_angle_alpha   105.66965281
_cell_angle_beta   105.66966664
_cell_angle_gamma   105.66966785
_symmetry_Int_Tables_number   1
_chemical_formula_structural   Ba6DyTm(BO3)6
_chemical_formula_sum   'Ba6 Dy1 Tm1 B6 O18'
_cell_volume   476.60279329
_cell_formula_units_Z   1
loop_
 _symmetry_equiv_pos_site_id
 _symmetry_equiv_pos_as_xyz
  1  'x, y, z'
loop_
 _atom_site_type_symbol
 _atom_site_label
 _atom_site_symmetry_multiplicity
 _atom_site_fract_x
 _atom_site_fract_y
 _atom_site_fract_z
 _atom_site_occupancy
  Ba  Ba0  1  0.348947  0.734595  0.840318  1
  Ba  Ba1  1  0.840318  0.348947  0.734595  1
  Ba  Ba2  1  0.734595  0.840318  0.348947  1
  Ba  Ba3  1  0.651053  0.265405  0.159682  1
  Ba  Ba4  1  0.159682  0.651053  0.265405  1
  Ba  Ba5  1  0.265405  0.159682  0.651053  1
  Dy  Dy6  1  0.000000  0.000000  0.000000  1
  Tm  Tm7  1  0.500000  0.500000  0.500000  1
  B  B8  1  0.709903  0.623994  0.954868  1
  B  B9  1  0.954868  0.709903  0.623994  1
  B  B10  1  0.623994  0.954868  0.709903  1
  B  B11  1  0.045132  0.290097  0.376006  1
  B  B12  1  0.376006  0.045132  0.290097  1
  B  B13  1  0.290097  0.376006  0.045132  1
  O  O14  1  0.063403  0.803691  0.551419  1
  O  O15  1  0.551419  0.063403  0.803691  1
  O  O16  1  0.426247  0.490139  0.215546  1
  O  O17  1  0.490139  0.215546  0.426247  1
  O  O18  1  0.215546  0.426247  0.490139  1
  O  O19  1  0.784454  0.573753  0.509861  1
  O  O20  1  0.573753  0.509861  0.784454  1
  O  O21  1  0.509861  0.784454  0.573753  1
  O  O22  1  0.256968  0.189461  0.985298  1
  O  O23  1  0.189461  0.985298  0.256968  1
  O  O24  1  0.985298  0.256968  0.189461  1
  O  O25  1  0.743032  0.810539  0.014702  1
  O  O26  1  0.810539  0.014702  0.743032  1
  O  O27  1  0.014702  0.743032  0.810539  1
  O  O28  1  0.196309  0.448581  0.936597  1
  O  O29  1  0.448581  0.936597  0.196309  1
  O  O30  1  0.936597  0.196309  0.448581  1
  O  O31  1  0.803691  0.551419  0.063403  1
