# generated using pymatgen
data_TbDy6YLu2(SiB4)4
_symmetry_space_group_name_H-M   'P 1'
_cell_length_a   7.21388506
_cell_length_b   7.21388502
_cell_length_c   8.03272200
_cell_angle_alpha   89.99624859
_cell_angle_beta   90.00375142
_cell_angle_gamma   89.99429759
_symmetry_Int_Tables_number   1
_chemical_formula_structural   TbDy6YLu2(SiB4)4
_chemical_formula_sum   'Tb1 Dy6 Y1 Lu2 Si4 B16'
_cell_volume   418.02395256
_cell_formula_units_Z   1
loop_
 _symmetry_equiv_pos_site_id
 _symmetry_equiv_pos_as_xyz
  1  'x, y, z'
loop_
 _atom_site_type_symbol
 _atom_site_label
 _atom_site_symmetry_multiplicity
 _atom_site_fract_x
 _atom_site_fract_y
 _atom_site_fract_z
 _atom_site_occupancy
  Tb  Tb0  1  0.180182  0.319818  0.773463  1
  Dy  Dy1  1  0.680247  0.180168  0.225768  1
  Dy  Dy2  1  0.319856  0.819849  0.774229  1
  Dy  Dy3  1  0.319832  0.819753  0.225768  1
  Dy  Dy4  1  0.819707  0.680293  0.225908  1
  Dy  Dy5  1  0.819773  0.680227  0.774207  1
  Dy  Dy6  1  0.680151  0.180144  0.774229  1
  Y  Y7  1  0.180172  0.319828  0.226081  1
  Lu  Lu8  1  0.999913  0.999899  0.499939  1
  Lu  Lu9  1  0.500101  0.500087  0.499939  1
  Si  Si10  1  0.115827  0.616168  0.499863  1
  Si  Si11  1  0.883832  0.384173  0.499863  1
  Si  Si12  1  0.384226  0.115774  0.499830  1
  Si  Si13  1  0.615999  0.884001  0.499885  1
  B  B14  1  0.172542  0.038804  0.000030  1
  B  B15  1  0.827345  0.960857  0.000110  1
  B  B16  1  0.960593  0.172384  0.000033  1
  B  B17  1  0.327616  0.539407  0.000033  1
  B  B18  1  0.039062  0.827404  0.000117  1
  B  B19  1  0.672596  0.460938  0.000117  1
  B  B20  1  0.539143  0.672655  0.000110  1
  B  B21  1  0.461196  0.327458  0.000030  1
  B  B22  1  0.089631  0.589891  0.000048  1
  B  B23  1  0.910109  0.410369  0.000048  1
  B  B24  1  0.410501  0.089499  0.999878  1
  B  B25  1  0.589652  0.910348  0.000049  1
  B  B26  1  0.999896  0.999833  0.163921  1
  B  B27  1  0.999870  0.999738  0.836292  1
  B  B28  1  0.500262  0.500130  0.836292  1
  B  B29  1  0.500167  0.500104  0.163921  1
