# generated using pymatgen
data_La8GdDyRu4
_symmetry_space_group_name_H-M   'P 1'
_cell_length_a   9.05678833
_cell_length_b   9.05678977
_cell_length_c   7.25952900
_cell_angle_alpha   85.63255607
_cell_angle_beta   85.63254903
_cell_angle_gamma   43.29687611
_symmetry_Int_Tables_number   1
_chemical_formula_structural   La8GdDyRu4
_chemical_formula_sum   'La8 Gd1 Dy1 Ru4'
_cell_volume   406.98494696
_cell_formula_units_Z   1
loop_
 _symmetry_equiv_pos_site_id
 _symmetry_equiv_pos_as_xyz
  1  'x, y, z'
loop_
 _atom_site_type_symbol
 _atom_site_label
 _atom_site_symmetry_multiplicity
 _atom_site_fract_x
 _atom_site_fract_y
 _atom_site_fract_z
 _atom_site_occupancy
  La  La0  1  0.202144  0.980041  0.591905  1
  La  La1  1  0.019959  0.797856  0.908095  1
  La  La2  1  0.210457  0.364613  0.316447  1
  La  La3  1  0.635387  0.789543  0.183553  1
  La  La4  1  0.790810  0.635957  0.683615  1
  La  La5  1  0.364043  0.209190  0.816385  1
  La  La6  1  0.980558  0.201361  0.092561  1
  La  La7  1  0.798639  0.019442  0.407439  1
  Gd  Gd8  1  0.570377  0.429623  0.750000  1
  Dy  Dy9  1  0.430582  0.569418  0.250000  1
  Ru  Ru10  1  0.175673  0.604144  0.578241  1
  Ru  Ru11  1  0.395856  0.824327  0.921759  1
  Ru  Ru12  1  0.822932  0.397419  0.419257  1
  Ru  Ru13  1  0.602581  0.177068  0.080743  1
