# generated using pymatgen
data_Zr4Ga3Bi
_symmetry_space_group_name_H-M   'P 1'
_cell_length_a   5.74155000
_cell_length_b   8.79721355
_cell_length_c   9.44181400
_cell_angle_alpha   89.86189935
_cell_angle_beta   90.00000000
_cell_angle_gamma   90.00000000
_symmetry_Int_Tables_number   1
_chemical_formula_structural   Zr4Ga3Bi
_chemical_formula_sum   'Zr12 Ga9 Bi3'
_cell_volume   476.90125477
_cell_formula_units_Z   3
loop_
 _symmetry_equiv_pos_site_id
 _symmetry_equiv_pos_as_xyz
  1  'x, y, z'
loop_
 _atom_site_type_symbol
 _atom_site_label
 _atom_site_symmetry_multiplicity
 _atom_site_fract_x
 _atom_site_fract_y
 _atom_site_fract_z
 _atom_site_occupancy
  Zr  Zr0  1  0.003297  0.743339  0.123382  1
  Zr  Zr1  1  0.495752  0.254712  0.881193  1
  Zr  Zr2  1  0.004248  0.254712  0.881193  1
  Zr  Zr3  1  0.496703  0.743339  0.123382  1
  Zr  Zr4  1  0.750000  0.468929  0.607730  1
  Zr  Zr5  1  0.250000  0.528702  0.380294  1
  Zr  Zr6  1  0.750000  0.967806  0.395888  1
  Zr  Zr7  1  0.250000  0.032115  0.605550  1
  Zr  Zr8  1  0.750000  0.381203  0.200827  1
  Zr  Zr9  1  0.250000  0.614457  0.804254  1
  Zr  Zr10  1  0.750000  0.877213  0.796564  1
  Zr  Zr11  1  0.250000  0.133801  0.198445  1
  Ga  Ga12  1  0.004516  0.747425  0.571701  1
  Ga  Ga13  1  0.501179  0.250746  0.428235  1
  Ga  Ga14  1  0.998821  0.250746  0.428235  1
  Ga  Ga15  1  0.495484  0.747425  0.571701  1
  Ga  Ga16  1  0.250000  0.447182  0.086444  1
  Ga  Ga17  1  0.750000  0.142482  0.646183  1
  Ga  Ga18  1  0.250000  0.864110  0.354217  1
  Ga  Ga19  1  0.750000  0.639554  0.357811  1
  Ga  Ga20  1  0.250000  0.361286  0.640950  1
  Bi  Bi21  1  0.750000  0.052295  0.090017  1
  Bi  Bi22  1  0.250000  0.945409  0.911116  1
  Bi  Bi23  1  0.750000  0.551010  0.914687  1
