# generated using pymatgen
data_Nd12Ir3Os
_symmetry_space_group_name_H-M   'P 1'
_cell_length_a   6.53171442
_cell_length_b   7.43098161
_cell_length_c   9.84075700
_cell_angle_alpha   90.00000000
_cell_angle_beta   90.00000000
_cell_angle_gamma   89.81234002
_symmetry_Int_Tables_number   1
_chemical_formula_structural   Nd12Ir3Os
_chemical_formula_sum   'Nd12 Ir3 Os1'
_cell_volume   477.63875023
_cell_formula_units_Z   1
loop_
 _symmetry_equiv_pos_site_id
 _symmetry_equiv_pos_as_xyz
  1  'x, y, z'
loop_
 _atom_site_type_symbol
 _atom_site_label
 _atom_site_symmetry_multiplicity
 _atom_site_fract_x
 _atom_site_fract_y
 _atom_site_fract_z
 _atom_site_occupancy
  Nd  Nd0  1  0.326848  0.677539  0.067064  1
  Nd  Nd1  1  0.171572  0.174792  0.432435  1
  Nd  Nd2  1  0.670157  0.323763  0.566245  1
  Nd  Nd3  1  0.830313  0.823835  0.936058  1
  Nd  Nd4  1  0.670157  0.323763  0.933755  1
  Nd  Nd5  1  0.830313  0.823835  0.563942  1
  Nd  Nd6  1  0.326848  0.677539  0.432936  1
  Nd  Nd7  1  0.171572  0.174792  0.067565  1
  Nd  Nd8  1  0.860137  0.537676  0.250000  1
  Nd  Nd9  1  0.642085  0.035392  0.250000  1
  Nd  Nd10  1  0.141791  0.462499  0.750000  1
  Nd  Nd11  1  0.360043  0.963059  0.750000  1
  Ir  Ir12  1  0.441204  0.384152  0.250000  1
  Ir  Ir13  1  0.941098  0.116532  0.750000  1
  Ir  Ir14  1  0.560478  0.616516  0.750000  1
  Os  Os15  1  0.055384  0.884312  0.250000  1
