# generated using pymatgen
data_Y2Er3ThCoNi
_symmetry_space_group_name_H-M   'P 1'
_cell_length_a   6.29406101
_cell_length_b   6.89494800
_cell_length_c   9.53132660
_cell_angle_alpha   90.00000000
_cell_angle_beta   89.50345058
_cell_angle_gamma   90.00000000
_symmetry_Int_Tables_number   1
_chemical_formula_structural   Y2Er3ThCoNi
_chemical_formula_sum   'Y4 Er6 Th2 Co2 Ni2'
_cell_volume   413.61757650
_cell_formula_units_Z   2
loop_
 _symmetry_equiv_pos_site_id
 _symmetry_equiv_pos_as_xyz
  1  'x, y, z'
loop_
 _atom_site_type_symbol
 _atom_site_label
 _atom_site_symmetry_multiplicity
 _atom_site_fract_x
 _atom_site_fract_y
 _atom_site_fract_z
 _atom_site_occupancy
  Y  Y0  1  0.326879  0.672641  0.430141  1
  Y  Y1  1  0.173121  0.172641  0.069859  1
  Y  Y2  1  0.143166  0.467456  0.750278  1
  Y  Y3  1  0.356834  0.967456  0.749722  1
  Er  Er4  1  0.329842  0.672691  0.069365  1
  Er  Er5  1  0.170158  0.172691  0.430635  1
  Er  Er6  1  0.673950  0.326965  0.568804  1
  Er  Er7  1  0.826050  0.826965  0.931196  1
  Er  Er8  1  0.676663  0.324980  0.931790  1
  Er  Er9  1  0.823337  0.824980  0.568210  1
  Th  Th10  1  0.846922  0.550434  0.249417  1
  Th  Th11  1  0.653078  0.050434  0.250583  1
  Co  Co12  1  0.032185  0.870478  0.251357  1
  Co  Co13  1  0.467815  0.370478  0.248643  1
  Ni  Ni14  1  0.936147  0.114355  0.745309  1
  Ni  Ni15  1  0.563853  0.614355  0.754691  1
