# generated using pymatgen
data_Dy4Y9Tm3(InRh)4
_symmetry_space_group_name_H-M   'P 1'
_cell_length_a   9.65101726
_cell_length_b   9.65101733
_cell_length_c   9.65841683
_cell_angle_alpha   60.06536575
_cell_angle_beta   60.06536274
_cell_angle_gamma   60.11318806
_symmetry_Int_Tables_number   1
_chemical_formula_structural   Dy4Y9Tm3(InRh)4
_chemical_formula_sum   'Dy4 Y9 Tm3 In4 Rh4'
_cell_volume   637.28891382
_cell_formula_units_Z   1
loop_
 _symmetry_equiv_pos_site_id
 _symmetry_equiv_pos_as_xyz
  1  'x, y, z'
loop_
 _atom_site_type_symbol
 _atom_site_label
 _atom_site_symmetry_multiplicity
 _atom_site_fract_x
 _atom_site_fract_y
 _atom_site_fract_z
 _atom_site_occupancy
  Dy  Dy0  1  0.146517  0.551773  0.149009  1
  Dy  Dy1  1  0.311966  0.688903  0.688605  1
  Dy  Dy2  1  0.688903  0.311966  0.688605  1
  Dy  Dy3  1  0.551773  0.146517  0.149009  1
  Y  Y4  1  0.936995  0.936995  0.561249  1
  Y  Y5  1  0.148039  0.148039  0.551081  1
  Y  Y6  1  0.561723  0.937119  0.559636  1
  Y  Y7  1  0.151113  0.151113  0.152830  1
  Y  Y8  1  0.310691  0.310691  0.690163  1
  Y  Y9  1  0.937119  0.561723  0.559636  1
  Y  Y10  1  0.558965  0.558965  0.941047  1
  Y  Y11  1  0.561861  0.935534  0.939446  1
  Y  Y12  1  0.935534  0.561861  0.939446  1
  Tm  Tm13  1  0.689784  0.312119  0.310151  1
  Tm  Tm14  1  0.688777  0.688777  0.310838  1
  Tm  Tm15  1  0.312119  0.689784  0.310151  1
  In  In16  1  0.918361  0.918361  0.247918  1
  In  In17  1  0.248576  0.918555  0.917999  1
  In  In18  1  0.918555  0.248576  0.917999  1
  In  In19  1  0.916946  0.916946  0.916542  1
  Rh  Rh20  1  0.360685  0.360685  0.353172  1
  Rh  Rh21  1  0.922434  0.362094  0.358601  1
  Rh  Rh22  1  0.360470  0.360470  0.928267  1
  Rh  Rh23  1  0.362094  0.922434  0.358601  1
