# generated using pymatgen
data_Nb3VO6
_symmetry_space_group_name_H-M   'P 1'
_cell_length_a   5.10599500
_cell_length_b   5.10600853
_cell_length_c   10.70102100
_cell_angle_alpha   90.00000000
_cell_angle_beta   90.00000000
_cell_angle_gamma   119.99931781
_symmetry_Int_Tables_number   1
_chemical_formula_structural   Nb3VO6
_chemical_formula_sum   'Nb6 V2 O12'
_cell_volume   241.61325434
_cell_formula_units_Z   2
loop_
 _symmetry_equiv_pos_site_id
 _symmetry_equiv_pos_as_xyz
  1  'x, y, z'
loop_
 _atom_site_type_symbol
 _atom_site_label
 _atom_site_symmetry_multiplicity
 _atom_site_fract_x
 _atom_site_fract_y
 _atom_site_fract_z
 _atom_site_occupancy
  Nb  Nb0  1  0.333333  0.666666  0.512305  1
  Nb  Nb1  1  0.666667  0.333334  0.012305  1
  Nb  Nb2  1  0.666667  0.333333  0.487696  1
  Nb  Nb3  1  0.333333  0.666667  0.987696  1
  Nb  Nb4  1  0.000001  0.999999  0.500000  1
  Nb  Nb5  1  0.999999  0.000001  0.000000  1
  V  V6  1  0.666669  0.333335  0.750000  1
  V  V7  1  0.333331  0.666665  0.250000  1
  O  O8  1  0.649269  0.673924  0.378506  1
  O  O9  1  0.326073  0.975340  0.378503  1
  O  O10  1  0.024657  0.350723  0.378510  1
  O  O11  1  0.975343  0.649277  0.878510  1
  O  O12  1  0.350727  0.024650  0.621490  1
  O  O13  1  0.350731  0.326076  0.878506  1
  O  O14  1  0.673927  0.024660  0.878503  1
  O  O15  1  0.326071  0.350731  0.121498  1
  O  O16  1  0.649273  0.975350  0.121490  1
  O  O17  1  0.673929  0.649269  0.621498  1
  O  O18  1  0.975341  0.326066  0.621494  1
  O  O19  1  0.024659  0.673934  0.121494  1
