# generated using pymatgen
data_Lu24Al3ZnTe8
_symmetry_space_group_name_H-M   'P 1'
_cell_length_a   4.06150200
_cell_length_b   11.33509587
_cell_length_c   21.07120895
_cell_angle_alpha   89.88329884
_cell_angle_beta   90.00000000
_cell_angle_gamma   90.00000000
_symmetry_Int_Tables_number   1
_chemical_formula_structural   Lu24Al3ZnTe8
_chemical_formula_sum   'Lu24 Al3 Zn1 Te8'
_cell_volume   970.06407596
_cell_formula_units_Z   1
loop_
 _symmetry_equiv_pos_site_id
 _symmetry_equiv_pos_as_xyz
  1  'x, y, z'
loop_
 _atom_site_type_symbol
 _atom_site_label
 _atom_site_symmetry_multiplicity
 _atom_site_fract_x
 _atom_site_fract_y
 _atom_site_fract_z
 _atom_site_occupancy
  Lu  Lu0  1  0.750000  0.677456  0.890881  1
  Lu  Lu1  1  0.250000  0.375358  0.475103  1
  Lu  Lu2  1  0.750000  0.875999  0.027397  1
  Lu  Lu3  1  0.750000  0.971596  0.840992  1
  Lu  Lu4  1  0.250000  0.184264  0.608358  1
  Lu  Lu5  1  0.250000  0.741306  0.269945  1
  Lu  Lu6  1  0.750000  0.110742  0.492877  1
  Lu  Lu7  1  0.750000  0.562128  0.139557  1
  Lu  Lu8  1  0.250000  0.322537  0.108980  1
  Lu  Lu9  1  0.250000  0.028724  0.158918  1
  Lu  Lu10  1  0.250000  0.469201  0.656754  1
  Lu  Lu11  1  0.250000  0.758363  0.769846  1
  Lu  Lu12  1  0.750000  0.528199  0.340943  1
  Lu  Lu13  1  0.750000  0.938307  0.639417  1
  Lu  Lu14  1  0.250000  0.611272  0.007311  1
  Lu  Lu15  1  0.750000  0.258855  0.730805  1
  Lu  Lu16  1  0.750000  0.241380  0.230326  1
  Lu  Lu17  1  0.750000  0.620813  0.527885  1
  Lu  Lu18  1  0.750000  0.822051  0.390982  1
  Lu  Lu19  1  0.250000  0.124086  0.972602  1
  Lu  Lu20  1  0.250000  0.887972  0.507097  1
  Lu  Lu21  1  0.750000  0.388407  0.992751  1
  Lu  Lu22  1  0.250000  0.438138  0.860445  1
  Lu  Lu23  1  0.250000  0.062444  0.360356  1
  Al  Al24  1  0.750000  0.134432  0.075794  1
  Al  Al25  1  0.250000  0.634185  0.424040  1
  Al  Al26  1  0.250000  0.865561  0.923843  1
  Zn  Zn27  1  0.750000  0.365890  0.575728  1
  Te  Te28  1  0.250000  0.770026  0.126140  1
  Te  Te29  1  0.250000  0.730736  0.626476  1
  Te  Te30  1  0.250000  0.042706  0.737168  1
  Te  Te31  1  0.750000  0.270226  0.374184  1
  Te  Te32  1  0.750000  0.542058  0.762005  1
  Te  Te33  1  0.250000  0.457149  0.237668  1
  Te  Te34  1  0.750000  0.957266  0.262457  1
  Te  Te35  1  0.750000  0.230165  0.873973  1
