# generated using pymatgen
data_Ho16MgHg3Pd4
_symmetry_space_group_name_H-M   'P 1'
_cell_length_a   9.61320615
_cell_length_b   9.63488924
_cell_length_c   9.63489000
_cell_angle_alpha   59.99999738
_cell_angle_beta   59.92535621
_cell_angle_gamma   59.92535286
_symmetry_Int_Tables_number   1
_chemical_formula_structural   Ho16MgHg3Pd4
_chemical_formula_sum   'Ho16 Mg1 Hg3 Pd4'
_cell_volume   630.31234637
_cell_formula_units_Z   1
loop_
 _symmetry_equiv_pos_site_id
 _symmetry_equiv_pos_as_xyz
  1  'x, y, z'
loop_
 _atom_site_type_symbol
 _atom_site_label
 _atom_site_symmetry_multiplicity
 _atom_site_fract_x
 _atom_site_fract_y
 _atom_site_fract_z
 _atom_site_occupancy
  Ho  Ho0  1  0.809050  0.190049  0.190049  1
  Ho  Ho1  1  0.185816  0.812884  0.812884  1
  Ho  Ho2  1  0.185816  0.812884  0.188416  1
  Ho  Ho3  1  0.809050  0.190049  0.810854  1
  Ho  Ho4  1  0.185816  0.188416  0.812884  1
  Ho  Ho5  1  0.809050  0.810854  0.190049  1
  Ho  Ho6  1  0.933029  0.566559  0.566559  1
  Ho  Ho7  1  0.565310  0.934275  0.934275  1
  Ho  Ho8  1  0.565310  0.934275  0.566139  1
  Ho  Ho9  1  0.933029  0.566559  0.933853  1
  Ho  Ho10  1  0.565310  0.566139  0.934275  1
  Ho  Ho11  1  0.933029  0.933853  0.566559  1
  Ho  Ho12  1  0.355927  0.352967  0.352967  1
  Ho  Ho13  1  0.355927  0.352967  0.938140  1
  Ho  Ho14  1  0.355927  0.938140  0.352967  1
  Ho  Ho15  1  0.926877  0.357707  0.357707  1
  Mg  Mg16  1  0.281249  0.572917  0.572917  1
  Hg  Hg17  1  0.583556  0.588972  0.588972  1
  Hg  Hg18  1  0.583556  0.588972  0.238501  1
  Hg  Hg19  1  0.583556  0.238501  0.588972  1
  Pd  Pd20  1  0.142800  0.146297  0.146297  1
  Pd  Pd21  1  0.142800  0.146297  0.564606  1
  Pd  Pd22  1  0.142800  0.564606  0.146297  1
  Pd  Pd23  1  0.565408  0.144864  0.144864  1
