# generated using pymatgen
data_Yb2ScTaO6
_symmetry_space_group_name_H-M   'P 1'
_cell_length_a   5.67532100
_cell_length_b   5.46420321
_cell_length_c   9.55216502
_cell_angle_alpha   55.20032437
_cell_angle_beta   90.00000000
_cell_angle_gamma   90.00000000
_symmetry_Int_Tables_number   1
_chemical_formula_structural   Yb2ScTaO6
_chemical_formula_sum   'Yb4 Sc2 Ta2 O12'
_cell_volume   243.24441463
_cell_formula_units_Z   2
loop_
 _symmetry_equiv_pos_site_id
 _symmetry_equiv_pos_as_xyz
  1  'x, y, z'
loop_
 _atom_site_type_symbol
 _atom_site_label
 _atom_site_symmetry_multiplicity
 _atom_site_fract_x
 _atom_site_fract_y
 _atom_site_fract_z
 _atom_site_occupancy
  Yb  Yb0  1  0.443605  0.232790  0.751527  1
  Yb  Yb1  1  0.556395  0.767210  0.248473  1
  Yb  Yb2  1  0.943605  0.767210  0.748473  1
  Yb  Yb3  1  0.056395  0.232790  0.251527  1
  Sc  Sc4  1  0.000000  0.000000  0.000000  1
  Sc  Sc5  1  0.500000  0.000000  0.500000  1
  Ta  Ta6  1  0.000000  0.500000  0.500000  1
  Ta  Ta7  1  0.500000  0.500000  0.000000  1
  O  O8  1  0.037708  0.362133  0.742946  1
  O  O9  1  0.962292  0.637867  0.257054  1
  O  O10  1  0.537708  0.637867  0.757054  1
  O  O11  1  0.462292  0.362133  0.242946  1
  O  O12  1  0.694460  0.847698  0.946875  1
  O  O13  1  0.305540  0.152302  0.053125  1
  O  O14  1  0.194460  0.152302  0.553125  1
  O  O15  1  0.805540  0.847698  0.446875  1
  O  O16  1  0.208417  0.749216  0.942152  1
  O  O17  1  0.791583  0.250784  0.057848  1
  O  O18  1  0.708417  0.250784  0.557848  1
  O  O19  1  0.291583  0.749216  0.442152  1
