# generated using pymatgen
data_Cs2Ge(PdSe2)3
_symmetry_space_group_name_H-M   'P 1'
_cell_length_a   8.60989475
_cell_length_b   8.60989561
_cell_length_c   8.60989500
_cell_angle_alpha   50.75382798
_cell_angle_beta   50.75382489
_cell_angle_gamma   50.75383238
_symmetry_Int_Tables_number   1
_chemical_formula_structural   Cs2Ge(PdSe2)3
_chemical_formula_sum   'Cs2 Ge1 Pd3 Se6'
_cell_volume   352.88479080
_cell_formula_units_Z   1
loop_
 _symmetry_equiv_pos_site_id
 _symmetry_equiv_pos_as_xyz
  1  'x, y, z'
loop_
 _atom_site_type_symbol
 _atom_site_label
 _atom_site_symmetry_multiplicity
 _atom_site_fract_x
 _atom_site_fract_y
 _atom_site_fract_z
 _atom_site_occupancy
  Cs  Cs0  1  0.800175  0.800175  0.800175  1
  Cs  Cs1  1  0.199825  0.199825  0.199825  1
  Ge  Ge2  1  0.000000  0.000000  0.000000  1
  Pd  Pd3  1  0.500000  0.500000  0.000000  1
  Pd  Pd4  1  0.500000  0.000000  0.500000  1
  Pd  Pd5  1  0.000000  0.500000  0.500000  1
  Se  Se6  1  0.768091  0.768091  0.284505  1
  Se  Se7  1  0.284505  0.768091  0.768091  1
  Se  Se8  1  0.768091  0.284505  0.768091  1
  Se  Se9  1  0.715495  0.231909  0.231909  1
  Se  Se10  1  0.231909  0.231909  0.715495  1
  Se  Se11  1  0.231909  0.715495  0.231909  1
