# generated using pymatgen
data_LiBe9Au2
_symmetry_space_group_name_H-M   'P 1'
_cell_length_a   7.53205567
_cell_length_b   7.53205541
_cell_length_c   7.53205502
_cell_angle_alpha   33.59749108
_cell_angle_beta   33.59749512
_cell_angle_gamma   33.59748949
_symmetry_Int_Tables_number   1
_chemical_formula_structural   LiBe9Au2
_chemical_formula_sum   'Li1 Be9 Au2'
_cell_volume   116.55206457
_cell_formula_units_Z   1
loop_
 _symmetry_equiv_pos_site_id
 _symmetry_equiv_pos_as_xyz
  1  'x, y, z'
loop_
 _atom_site_type_symbol
 _atom_site_label
 _atom_site_symmetry_multiplicity
 _atom_site_fract_x
 _atom_site_fract_y
 _atom_site_fract_z
 _atom_site_occupancy
  Li  Li0  1  0.625414  0.625414  0.625414  1
  Be  Be1  1  0.063392  0.563161  0.563161  1
  Be  Be2  1  0.562959  0.061026  0.061026  1
  Be  Be3  1  0.563161  0.563161  0.063392  1
  Be  Be4  1  0.061026  0.061026  0.562959  1
  Be  Be5  1  0.812541  0.812541  0.812541  1
  Be  Be6  1  0.312818  0.312818  0.312818  1
  Be  Be7  1  0.563161  0.063392  0.563161  1
  Be  Be8  1  0.061026  0.562959  0.061026  1
  Be  Be9  1  0.123855  0.123855  0.123855  1
  Au  Au10  1  0.001663  0.001663  0.001663  1
  Au  Au11  1  0.498984  0.498984  0.498984  1
