# generated using pymatgen
data_Pr3Tl2Pd3Pb
_symmetry_space_group_name_H-M   'P 1'
_cell_length_a   7.95552212
_cell_length_b   7.95225014
_cell_length_c   4.04527700
_cell_angle_alpha   90.00000000
_cell_angle_beta   90.00000000
_cell_angle_gamma   119.98641530
_symmetry_Int_Tables_number   1
_chemical_formula_structural   Pr3Tl2Pd3Pb
_chemical_formula_sum   'Pr3 Tl2 Pd3 Pb1'
_cell_volume   221.66496208
_cell_formula_units_Z   1
loop_
 _symmetry_equiv_pos_site_id
 _symmetry_equiv_pos_as_xyz
  1  'x, y, z'
loop_
 _atom_site_type_symbol
 _atom_site_label
 _atom_site_symmetry_multiplicity
 _atom_site_fract_x
 _atom_site_fract_y
 _atom_site_fract_z
 _atom_site_occupancy
  Pr  Pr0  1  0.000000  0.596572  0.500000  1
  Pr  Pr1  1  0.410201  0.408627  0.500000  1
  Pr  Pr2  1  0.589799  0.998427  0.500000  1
  Tl  Tl3  1  0.738311  0.739563  0.000000  1
  Tl  Tl4  1  0.261689  0.001251  0.000000  1
  Pd  Pd5  1  0.667124  0.333334  0.000000  1
  Pd  Pd6  1  0.332876  0.666212  0.000000  1
  Pd  Pd7  1  0.000000  0.999374  0.500000  1
  Pb  Pb8  1  0.000000  0.256640  0.000000  1
