# generated using pymatgen
data_Yb3ErGa14(Si2Ir3)2
_symmetry_space_group_name_H-M   'P 1'
_cell_length_a   7.52676332
_cell_length_b   7.48071931
_cell_length_c   9.52992701
_cell_angle_alpha   90.01928171
_cell_angle_beta   89.96581482
_cell_angle_gamma   120.18426726
_symmetry_Int_Tables_number   1
_chemical_formula_structural   Yb3ErGa14(Si2Ir3)2
_chemical_formula_sum   'Yb3 Er1 Ga14 Si4 Ir6'
_cell_volume   463.83375657
_cell_formula_units_Z   1
loop_
 _symmetry_equiv_pos_site_id
 _symmetry_equiv_pos_as_xyz
  1  'x, y, z'
loop_
 _atom_site_type_symbol
 _atom_site_label
 _atom_site_symmetry_multiplicity
 _atom_site_fract_x
 _atom_site_fract_y
 _atom_site_fract_z
 _atom_site_occupancy
  Yb  Yb0  1  0.003433  0.338200  0.749593  1
  Yb  Yb1  1  0.668019  0.001829  0.249974  1
  Yb  Yb2  1  0.327193  0.995784  0.750289  1
  Er  Er3  1  0.000500  0.667096  0.249951  1
  Ga  Ga4  1  0.129500  0.127865  0.249926  1
  Ga  Ga5  1  0.873825  0.870598  0.749938  1
  Ga  Ga6  1  0.997294  0.325792  0.420850  1
  Ga  Ga7  1  0.671123  0.001769  0.581506  1
  Ga  Ga8  1  0.663779  0.999892  0.918626  1
  Ga  Ga9  1  0.340312  0.003293  0.079561  1
  Ga  Ga10  1  0.331638  0.334352  0.570248  1
  Ga  Ga11  1  0.662716  0.670102  0.429477  1
  Ga  Ga12  1  0.661272  0.670293  0.070457  1
  Ga  Ga13  1  0.336402  0.330495  0.929579  1
  Ga  Ga14  1  0.335566  0.546800  0.250337  1
  Ga  Ga15  1  0.664652  0.455431  0.751067  1
  Ga  Ga16  1  0.547242  0.339453  0.249833  1
  Ga  Ga17  1  0.450140  0.662278  0.749134  1
  Si  Si18  1  0.999932  0.327772  0.070947  1
  Si  Si19  1  0.998608  0.670555  0.931601  1
  Si  Si20  1  0.995820  0.660947  0.568192  1
  Si  Si21  1  0.338854  0.004492  0.428709  1
  Ir  Ir22  1  0.695593  0.343505  0.003549  1
  Ir  Ir23  1  0.303930  0.656938  0.998720  1
  Ir  Ir24  1  0.317229  0.680467  0.498470  1
  Ir  Ir25  1  0.671768  0.330786  0.499432  1
  Ir  Ir26  1  0.000444  0.997987  0.001326  1
  Ir  Ir27  1  0.013215  0.985231  0.498710  1
