# generated using pymatgen
data_CeDy3(Hf3Ge4)2
_symmetry_space_group_name_H-M   'P 1'
_cell_length_a   7.37871000
_cell_length_b   7.38303045
_cell_length_c   13.53850800
_cell_angle_alpha   90.00000000
_cell_angle_beta   90.00000000
_cell_angle_gamma   89.98003231
_symmetry_Int_Tables_number   1
_chemical_formula_structural   CeDy3(Hf3Ge4)2
_chemical_formula_sum   'Ce2 Dy6 Hf12 Ge16'
_cell_volume   737.54051289
_cell_formula_units_Z   2
loop_
 _symmetry_equiv_pos_site_id
 _symmetry_equiv_pos_as_xyz
  1  'x, y, z'
loop_
 _atom_site_type_symbol
 _atom_site_label
 _atom_site_symmetry_multiplicity
 _atom_site_fract_x
 _atom_site_fract_y
 _atom_site_fract_z
 _atom_site_occupancy
  Ce  Ce0  1  0.995918  0.342227  0.216292  1
  Ce  Ce1  1  0.004082  0.657773  0.716292  1
  Dy  Dy2  1  0.158277  0.498742  0.468892  1
  Dy  Dy3  1  0.500266  0.842045  0.031624  1
  Dy  Dy4  1  0.841723  0.501258  0.968892  1
  Dy  Dy5  1  0.499734  0.157955  0.531624  1
  Dy  Dy6  1  0.341630  0.996744  0.782431  1
  Dy  Dy7  1  0.658370  0.003256  0.282431  1
  Hf  Hf8  1  0.172396  0.172551  0.001018  1
  Hf  Hf9  1  0.827604  0.827449  0.501018  1
  Hf  Hf10  1  0.326068  0.671724  0.250196  1
  Hf  Hf11  1  0.673932  0.328276  0.750196  1
  Hf  Hf12  1  0.158332  0.998980  0.375407  1
  Hf  Hf13  1  0.841668  0.001020  0.875407  1
  Hf  Hf14  1  0.503348  0.656484  0.626263  1
  Hf  Hf15  1  0.341873  0.496301  0.872667  1
  Hf  Hf16  1  0.496652  0.343516  0.126263  1
  Hf  Hf17  1  0.658127  0.503699  0.372667  1
  Hf  Hf18  1  0.996448  0.156732  0.624854  1
  Hf  Hf19  1  0.003552  0.843268  0.124854  1
  Ge  Ge20  1  0.366794  0.301932  0.323692  1
  Ge  Ge21  1  0.633206  0.698068  0.823692  1
  Ge  Ge22  1  0.202128  0.869387  0.571215  1
  Ge  Ge23  1  0.133098  0.801038  0.928501  1
  Ge  Ge24  1  0.797872  0.130613  0.071215  1
  Ge  Ge25  1  0.866902  0.198962  0.428501  1
  Ge  Ge26  1  0.302751  0.364031  0.676888  1
  Ge  Ge27  1  0.697249  0.635969  0.176888  1
  Ge  Ge28  1  0.297080  0.036952  0.182239  1
  Ge  Ge29  1  0.702920  0.963048  0.682239  1
  Ge  Ge30  1  0.463457  0.796491  0.431466  1
  Ge  Ge31  1  0.206399  0.539735  0.066471  1
  Ge  Ge32  1  0.536543  0.203509  0.931466  1
  Ge  Ge33  1  0.793601  0.460265  0.566471  1
  Ge  Ge34  1  0.036930  0.294186  0.819888  1
  Ge  Ge35  1  0.963070  0.705814  0.319888  1
