# generated using pymatgen
data_NdFe3P12Ir
_symmetry_space_group_name_H-M   'P 1'
_cell_length_a   6.81791941
_cell_length_b   6.83364253
_cell_length_c   6.83364326
_cell_angle_alpha   109.51777936
_cell_angle_beta   109.42462205
_cell_angle_gamma   109.42462620
_symmetry_Int_Tables_number   1
_chemical_formula_structural   NdFe3P12Ir
_chemical_formula_sum   'Nd1 Fe3 P12 Ir1'
_cell_volume   245.23584196
_cell_formula_units_Z   1
loop_
 _symmetry_equiv_pos_site_id
 _symmetry_equiv_pos_as_xyz
  1  'x, y, z'
loop_
 _atom_site_type_symbol
 _atom_site_label
 _atom_site_symmetry_multiplicity
 _atom_site_fract_x
 _atom_site_fract_y
 _atom_site_fract_z
 _atom_site_occupancy
  Nd  Nd0  1  0.000000  0.000000  0.000000  1
  Fe  Fe1  1  0.500000  0.500000  0.500000  1
  Fe  Fe2  1  0.000000  0.500000  0.000000  1
  Fe  Fe3  1  0.000000  0.000000  0.500000  1
  P  P4  1  0.135232  0.790633  0.634044  1
  P  P5  1  0.151153  0.500601  0.350289  1
  P  P6  1  0.848847  0.499399  0.649711  1
  P  P7  1  0.349448  0.150312  0.500601  1
  P  P8  1  0.800865  0.649711  0.150312  1
  P  P9  1  0.864768  0.209367  0.365956  1
  P  P10  1  0.655401  0.156589  0.790633  1
  P  P11  1  0.498812  0.634044  0.843411  1
  P  P12  1  0.650552  0.849688  0.499399  1
  P  P13  1  0.501188  0.365956  0.156589  1
  P  P14  1  0.344599  0.843411  0.209367  1
  P  P15  1  0.199135  0.350289  0.849688  1
  Ir  Ir16  1  0.500000  0.000000  0.000000  1
