# generated using pymatgen
data_Th3Co2Ir7
_symmetry_space_group_name_H-M   'P 1'
_cell_length_a   5.35285492
_cell_length_b   5.35285403
_cell_length_c   9.14733382
_cell_angle_alpha   72.98686867
_cell_angle_beta   72.98687290
_cell_angle_gamma   60.00000141
_symmetry_Int_Tables_number   1
_chemical_formula_structural   Th3Co2Ir7
_chemical_formula_sum   'Th3 Co2 Ir7'
_cell_volume   213.63733353
_cell_formula_units_Z   1
loop_
 _symmetry_equiv_pos_site_id
 _symmetry_equiv_pos_as_xyz
  1  'x, y, z'
loop_
 _atom_site_type_symbol
 _atom_site_label
 _atom_site_symmetry_multiplicity
 _atom_site_fract_x
 _atom_site_fract_y
 _atom_site_fract_z
 _atom_site_occupancy
  Th  Th0  1  0.861057  0.861057  0.416830  1
  Th  Th1  1  0.138943  0.138943  0.583170  1
  Th  Th2  1  0.000000  0.000000  0.000000  1
  Co  Co3  1  0.666943  0.666943  0.999169  1
  Co  Co4  1  0.333057  0.333057  0.000831  1
  Ir  Ir5  1  0.421670  0.421670  0.234070  1
  Ir  Ir6  1  0.922589  0.421670  0.234070  1
  Ir  Ir7  1  0.421670  0.922589  0.234070  1
  Ir  Ir8  1  0.578330  0.578330  0.765930  1
  Ir  Ir9  1  0.077411  0.578330  0.765930  1
  Ir  Ir10  1  0.578330  0.077411  0.765930  1
  Ir  Ir11  1  0.500000  0.500000  0.500000  1
