# generated using pymatgen
data_SmLu2Mg3Pb2Au
_symmetry_space_group_name_H-M   'P 1'
_cell_length_a   7.55144276
_cell_length_b   7.55144311
_cell_length_c   4.52006000
_cell_angle_alpha   90.00000000
_cell_angle_beta   90.00000000
_cell_angle_gamma   120.57708665
_symmetry_Int_Tables_number   1
_chemical_formula_structural   SmLu2Mg3Pb2Au
_chemical_formula_sum   'Sm1 Lu2 Mg3 Pb2 Au1'
_cell_volume   221.91147764
_cell_formula_units_Z   1
loop_
 _symmetry_equiv_pos_site_id
 _symmetry_equiv_pos_as_xyz
  1  'x, y, z'
loop_
 _atom_site_type_symbol
 _atom_site_label
 _atom_site_symmetry_multiplicity
 _atom_site_fract_x
 _atom_site_fract_y
 _atom_site_fract_z
 _atom_site_occupancy
  Sm  Sm0  1  0.408857  0.408857  0.000000  1
  Lu  Lu1  1  0.598510  0.001603  0.000000  1
  Lu  Lu2  1  0.001603  0.598510  0.000000  1
  Mg  Mg3  1  0.231891  0.999406  0.500000  1
  Mg  Mg4  1  0.999406  0.231891  0.500000  1
  Mg  Mg5  1  0.767057  0.767057  0.500000  1
  Pb  Pb6  1  0.330206  0.670775  0.500000  1
  Pb  Pb7  1  0.670775  0.330206  0.500000  1
  Au  Au8  1  0.991694  0.991694  0.000000  1
