# generated using pymatgen
data_NaLi(Bi3S5)2
_symmetry_space_group_name_H-M   'P 1'
_cell_length_a   7.00935968
_cell_length_b   7.00935938
_cell_length_c   16.84334106
_cell_angle_alpha   85.23892233
_cell_angle_beta   85.23892244
_cell_angle_gamma   33.51420800
_symmetry_Int_Tables_number   1
_chemical_formula_structural   NaLi(Bi3S5)2
_chemical_formula_sum   'Na1 Li1 Bi6 S10'
_cell_volume   455.19693835
_cell_formula_units_Z   1
loop_
 _symmetry_equiv_pos_site_id
 _symmetry_equiv_pos_as_xyz
  1  'x, y, z'
loop_
 _atom_site_type_symbol
 _atom_site_label
 _atom_site_symmetry_multiplicity
 _atom_site_fract_x
 _atom_site_fract_y
 _atom_site_fract_z
 _atom_site_occupancy
  Na  Na0  1  0.000000  0.000000  0.000000  1
  Li  Li1  1  0.500000  0.500000  0.500000  1
  Bi  Bi2  1  0.217478  0.217478  0.605206  1
  Bi  Bi3  1  0.782522  0.782522  0.394794  1
  Bi  Bi4  1  0.478015  0.478015  0.778986  1
  Bi  Bi5  1  0.521985  0.521985  0.221014  1
  Bi  Bi6  1  0.738175  0.738175  0.889402  1
  Bi  Bi7  1  0.261825  0.261825  0.110598  1
  S  S8  1  0.851663  0.851663  0.534115  1
  S  S9  1  0.148337  0.148337  0.465885  1
  S  S10  1  0.573035  0.573035  0.632982  1
  S  S11  1  0.426965  0.426965  0.367018  1
  S  S12  1  0.846653  0.846653  0.743654  1
  S  S13  1  0.153347  0.153347  0.256346  1
  S  S14  1  0.103282  0.103282  0.844733  1
  S  S15  1  0.896718  0.896718  0.155267  1
  S  S16  1  0.639824  0.639824  0.056078  1
  S  S17  1  0.360176  0.360176  0.943922  1
