# generated using pymatgen
data_Dy6Y6Co4NiSn
_symmetry_space_group_name_H-M   'P 1'
_cell_length_a   8.33292173
_cell_length_b   8.33292244
_cell_length_c   8.33292174
_cell_angle_alpha   107.10789151
_cell_angle_beta   110.61007240
_cell_angle_gamma   110.72125617
_symmetry_Int_Tables_number   1
_chemical_formula_structural   Dy6Y6Co4NiSn
_chemical_formula_sum   'Dy6 Y6 Co4 Ni1 Sn1'
_cell_volume   444.85446274
_cell_formula_units_Z   1
loop_
 _symmetry_equiv_pos_site_id
 _symmetry_equiv_pos_as_xyz
  1  'x, y, z'
loop_
 _atom_site_type_symbol
 _atom_site_label
 _atom_site_symmetry_multiplicity
 _atom_site_fract_x
 _atom_site_fract_y
 _atom_site_fract_z
 _atom_site_occupancy
  Dy  Dy0  1  0.693618  0.379742  0.686124  1
  Dy  Dy1  1  0.693618  0.007494  0.313876  1
  Dy  Dy2  1  0.195602  0.206845  0.403606  1
  Dy  Dy3  1  0.803239  0.791996  0.596394  1
  Dy  Dy4  1  0.195602  0.791996  0.988756  1
  Dy  Dy5  1  0.803239  0.206845  0.011244  1
  Y  Y6  1  0.481986  0.294260  0.187727  1
  Y  Y7  1  0.106533  0.294260  0.812273  1
  Y  Y8  1  0.891785  0.704596  0.187189  1
  Y  Y9  1  0.517407  0.704596  0.812811  1
  Y  Y10  1  0.304678  0.618747  0.314068  1
  Y  Y11  1  0.304678  0.990611  0.685932  1
  Co  Co12  1  0.500167  0.612043  0.111876  1
  Co  Co13  1  0.500167  0.388292  0.888124  1
  Co  Co14  1  0.381245  0.003066  0.378178  1
  Co  Co15  1  0.624888  0.003066  0.621822  1
  Ni  Ni16  1  0.001161  0.001161  0.000000  1
  Sn  Sn17  1  0.000384  0.500384  0.500000  1
