# generated using pymatgen
data_Na2La3Pb4
_symmetry_space_group_name_H-M   'P 1'
_cell_length_a   9.90839300
_cell_length_b   9.90839457
_cell_length_c   6.77178300
_cell_angle_alpha   90.00000000
_cell_angle_beta   90.00000000
_cell_angle_gamma   120.00000476
_symmetry_Int_Tables_number   1
_chemical_formula_structural   Na2La3Pb4
_chemical_formula_sum   'Na4 La6 Pb8'
_cell_volume   575.75823760
_cell_formula_units_Z   2
loop_
 _symmetry_equiv_pos_site_id
 _symmetry_equiv_pos_as_xyz
  1  'x, y, z'
loop_
 _atom_site_type_symbol
 _atom_site_label
 _atom_site_symmetry_multiplicity
 _atom_site_fract_x
 _atom_site_fract_y
 _atom_site_fract_z
 _atom_site_occupancy
  Na  Na0  1  0.666667  0.333333  0.500000  1
  Na  Na1  1  0.333333  0.666667  0.500000  1
  Na  Na2  1  0.333333  0.666667  0.000000  1
  Na  Na3  1  0.666667  0.333333  0.000000  1
  La  La4  1  0.707588  0.707588  0.250000  1
  La  La5  1  0.292412  0.000000  0.250000  1
  La  La6  1  0.000000  0.292412  0.250000  1
  La  La7  1  0.292412  0.292412  0.750000  1
  La  La8  1  0.707588  0.000000  0.750000  1
  La  La9  1  0.000000  0.707588  0.750000  1
  Pb  Pb10  1  0.000000  0.000000  0.500000  1
  Pb  Pb11  1  0.000000  0.000000  0.000000  1
  Pb  Pb12  1  0.370111  0.370111  0.250000  1
  Pb  Pb13  1  0.629889  0.000000  0.250000  1
  Pb  Pb14  1  0.000000  0.629889  0.250000  1
  Pb  Pb15  1  0.629889  0.629889  0.750000  1
  Pb  Pb16  1  0.370111  0.000000  0.750000  1
  Pb  Pb17  1  0.000000  0.370111  0.750000  1
