# generated using pymatgen
data_Cs6TmSe4
_symmetry_space_group_name_H-M   'P 1'
_cell_length_a   11.65715500
_cell_length_b   11.65715580
_cell_length_c   8.79925200
_cell_angle_alpha   90.00000000
_cell_angle_beta   90.00000000
_cell_angle_gamma   120.00000057
_symmetry_Int_Tables_number   1
_chemical_formula_structural   Cs6TmSe4
_chemical_formula_sum   'Cs12 Tm2 Se8'
_cell_volume   1035.52730938
_cell_formula_units_Z   2
loop_
 _symmetry_equiv_pos_site_id
 _symmetry_equiv_pos_as_xyz
  1  'x, y, z'
loop_
 _atom_site_type_symbol
 _atom_site_label
 _atom_site_symmetry_multiplicity
 _atom_site_fract_x
 _atom_site_fract_y
 _atom_site_fract_z
 _atom_site_occupancy
  Cs  Cs0  1  0.134836  0.865164  0.546297  1
  Cs  Cs1  1  0.269672  0.134836  0.046297  1
  Cs  Cs2  1  0.865164  0.730328  0.046297  1
  Cs  Cs3  1  0.134836  0.269672  0.546297  1
  Cs  Cs4  1  0.730328  0.865164  0.546297  1
  Cs  Cs5  1  0.865164  0.134836  0.046297  1
  Cs  Cs6  1  0.531962  0.468038  0.360174  1
  Cs  Cs7  1  0.063923  0.531962  0.860174  1
  Cs  Cs8  1  0.468038  0.936077  0.860174  1
  Cs  Cs9  1  0.531962  0.063923  0.360174  1
  Cs  Cs10  1  0.936077  0.468038  0.360174  1
  Cs  Cs11  1  0.468038  0.531962  0.860174  1
  Tm  Tm12  1  0.333333  0.666667  0.257407  1
  Tm  Tm13  1  0.666667  0.333333  0.757407  1
  Se  Se14  1  0.333333  0.666667  0.565521  1
  Se  Se15  1  0.666667  0.333333  0.065521  1
  Se  Se16  1  0.206610  0.793390  0.155788  1
  Se  Se17  1  0.413219  0.206610  0.655788  1
  Se  Se18  1  0.793390  0.586781  0.655788  1
  Se  Se19  1  0.206610  0.413219  0.155788  1
  Se  Se20  1  0.586781  0.793390  0.155788  1
  Se  Se21  1  0.793390  0.206610  0.655788  1
