# generated using pymatgen
data_Fe7(TcW)3
_symmetry_space_group_name_H-M   'P 1'
_cell_length_a   8.98318349
_cell_length_b   8.98318347
_cell_length_c   8.98318300
_cell_angle_alpha   30.49987219
_cell_angle_beta   30.49987238
_cell_angle_gamma   30.49987748
_symmetry_Int_Tables_number   1
_chemical_formula_structural   Fe7(TcW)3
_chemical_formula_sum   'Fe7 Tc3 W3'
_cell_volume   165.52990201
_cell_formula_units_Z   1
loop_
 _symmetry_equiv_pos_site_id
 _symmetry_equiv_pos_as_xyz
  1  'x, y, z'
loop_
 _atom_site_type_symbol
 _atom_site_label
 _atom_site_symmetry_multiplicity
 _atom_site_fract_x
 _atom_site_fract_y
 _atom_site_fract_z
 _atom_site_occupancy
  Fe  Fe0  1  0.587500  0.091941  0.091941  1
  Fe  Fe1  1  0.091941  0.091941  0.587500  1
  Fe  Fe2  1  0.909608  0.909608  0.408786  1
  Fe  Fe3  1  0.909608  0.408786  0.909608  1
  Fe  Fe4  1  0.000198  0.000198  0.000198  1
  Fe  Fe5  1  0.091941  0.587500  0.091941  1
  Fe  Fe6  1  0.408786  0.909608  0.909608  1
  Tc  Tc7  1  0.347747  0.347747  0.347747  1
  Tc  Tc8  1  0.165737  0.165737  0.165737  1
  Tc  Tc9  1  0.548641  0.548641  0.548641  1
  W  W10  1  0.652692  0.652692  0.652692  1
  W  W11  1  0.451391  0.451391  0.451391  1
  W  W12  1  0.834211  0.834211  0.834211  1
