# generated using pymatgen
data_Tm12InSi4Hg
_symmetry_space_group_name_H-M   'P 1'
_cell_length_a   8.39746191
_cell_length_b   8.39746158
_cell_length_c   8.39746185
_cell_angle_alpha   112.29635772
_cell_angle_beta   111.12299436
_cell_angle_gamma   105.08379391
_symmetry_Int_Tables_number   1
_chemical_formula_structural   Tm12InSi4Hg
_chemical_formula_sum   'Tm12 In1 Si4 Hg1'
_cell_volume   453.81397791
_cell_formula_units_Z   1
loop_
 _symmetry_equiv_pos_site_id
 _symmetry_equiv_pos_as_xyz
  1  'x, y, z'
loop_
 _atom_site_type_symbol
 _atom_site_label
 _atom_site_symmetry_multiplicity
 _atom_site_fract_x
 _atom_site_fract_y
 _atom_site_fract_z
 _atom_site_occupancy
  Tm  Tm0  1  0.440938  0.238691  0.202247  1
  Tm  Tm1  1  0.559062  0.761309  0.797753  1
  Tm  Tm2  1  0.036444  0.238691  0.797753  1
  Tm  Tm3  1  0.963556  0.761309  0.202247  1
  Tm  Tm4  1  0.184707  0.275303  0.460011  1
  Tm  Tm5  1  0.815293  0.724697  0.539989  1
  Tm  Tm6  1  0.184707  0.724697  0.909404  1
  Tm  Tm7  1  0.815293  0.275303  0.090596  1
  Tm  Tm8  1  0.321405  0.618684  0.297280  1
  Tm  Tm9  1  0.678595  0.381316  0.702720  1
  Tm  Tm10  1  0.321405  0.024125  0.702720  1
  Tm  Tm11  1  0.678595  0.975875  0.297280  1
  In  In12  1  0.500000  0.500000  0.000000  1
  Si  Si13  1  0.365613  0.000000  0.365613  1
  Si  Si14  1  0.634387  0.000000  0.634387  1
  Si  Si15  1  0.117192  0.617192  0.500000  1
  Si  Si16  1  0.882808  0.382808  0.500000  1
  Hg  Hg17  1  0.000000  0.000000  0.000000  1
