# generated using pymatgen
data_Y11Ho5MgIn3Rh4
_symmetry_space_group_name_H-M   'P 1'
_cell_length_a   9.67723174
_cell_length_b   9.70146889
_cell_length_c   9.67253503
_cell_angle_alpha   60.04247778
_cell_angle_beta   60.06376679
_cell_angle_gamma   60.12121248
_symmetry_Int_Tables_number   1
_chemical_formula_structural   Y11Ho5MgIn3Rh4
_chemical_formula_sum   'Y11 Ho5 Mg1 In3 Rh4'
_cell_volume   643.21930298
_cell_formula_units_Z   1
loop_
 _symmetry_equiv_pos_site_id
 _symmetry_equiv_pos_as_xyz
  1  'x, y, z'
loop_
 _atom_site_type_symbol
 _atom_site_label
 _atom_site_symmetry_multiplicity
 _atom_site_fract_x
 _atom_site_fract_y
 _atom_site_fract_z
 _atom_site_occupancy
  Y  Y0  1  0.189274  0.189467  0.810843  1
  Y  Y1  1  0.600753  0.599451  0.203505  1
  Y  Y2  1  0.441118  0.058766  0.440426  1
  Y  Y3  1  0.441351  0.440889  0.058330  1
  Y  Y4  1  0.813934  0.188083  0.811994  1
  Y  Y5  1  0.188255  0.812661  0.189304  1
  Y  Y6  1  0.437510  0.062090  0.061429  1
  Y  Y7  1  0.186532  0.814862  0.812829  1
  Y  Y8  1  0.063078  0.436277  0.062377  1
  Y  Y9  1  0.815495  0.815384  0.185284  1
  Y  Y10  1  0.199227  0.601391  0.601140  1
  Ho  Ho11  1  0.059604  0.440237  0.440087  1
  Ho  Ho12  1  0.062276  0.062393  0.436768  1
  Ho  Ho13  1  0.812416  0.188701  0.189556  1
  Ho  Ho14  1  0.600643  0.202988  0.598860  1
  Ho  Ho15  1  0.598176  0.598477  0.596426  1
  Mg  Mg16  1  0.825676  0.826553  0.827362  1
  In  In17  1  0.830799  0.832356  0.502224  1
  In  In18  1  0.501080  0.832180  0.832589  1
  In  In19  1  0.831743  0.501532  0.833179  1
  Rh  Rh20  1  0.389066  0.824479  0.393560  1
  Rh  Rh21  1  0.391880  0.392015  0.395646  1
  Rh  Rh22  1  0.825122  0.387920  0.395787  1
  Rh  Rh23  1  0.394993  0.390852  0.820495  1
