# generated using pymatgen
data_Ce2Al9TcRh2
_symmetry_space_group_name_H-M   'P 1'
_cell_length_a   7.60619556
_cell_length_b   7.60619587
_cell_length_c   9.52842600
_cell_angle_alpha   90.00000000
_cell_angle_beta   90.00000000
_cell_angle_gamma   117.69238725
_symmetry_Int_Tables_number   1
_chemical_formula_structural   Ce2Al9TcRh2
_chemical_formula_sum   'Ce4 Al18 Tc2 Rh4'
_cell_volume   488.11576948
_cell_formula_units_Z   2
loop_
 _symmetry_equiv_pos_site_id
 _symmetry_equiv_pos_as_xyz
  1  'x, y, z'
loop_
 _atom_site_type_symbol
 _atom_site_label
 _atom_site_symmetry_multiplicity
 _atom_site_fract_x
 _atom_site_fract_y
 _atom_site_fract_z
 _atom_site_occupancy
  Ce  Ce0  1  0.996014  0.690448  0.250000  1
  Ce  Ce1  1  0.003986  0.309552  0.750000  1
  Ce  Ce2  1  0.690448  0.996014  0.250000  1
  Ce  Ce3  1  0.309552  0.003986  0.750000  1
  Al  Al4  1  0.006195  0.344439  0.078274  1
  Al  Al5  1  0.993805  0.655561  0.921726  1
  Al  Al6  1  0.993805  0.655561  0.578274  1
  Al  Al7  1  0.344439  0.006195  0.421726  1
  Al  Al8  1  0.006195  0.344439  0.421726  1
  Al  Al9  1  0.655561  0.993805  0.578274  1
  Al  Al10  1  0.655561  0.993805  0.921726  1
  Al  Al11  1  0.344439  0.006195  0.078274  1
  Al  Al12  1  0.333416  0.333416  0.539078  1
  Al  Al13  1  0.666584  0.666584  0.460922  1
  Al  Al14  1  0.666584  0.666584  0.039078  1
  Al  Al15  1  0.333416  0.333416  0.960922  1
  Al  Al16  1  0.143888  0.143888  0.250000  1
  Al  Al17  1  0.856112  0.856112  0.750000  1
  Al  Al18  1  0.346175  0.559578  0.250000  1
  Al  Al19  1  0.653825  0.440422  0.750000  1
  Al  Al20  1  0.559578  0.346175  0.250000  1
  Al  Al21  1  0.440422  0.653825  0.750000  1
  Tc  Tc22  1  0.000000  0.000000  0.000000  1
  Tc  Tc23  1  0.000000  0.000000  0.500000  1
  Rh  Rh24  1  0.671936  0.328064  0.000000  1
  Rh  Rh25  1  0.328064  0.671936  0.000000  1
  Rh  Rh26  1  0.328064  0.671936  0.500000  1
  Rh  Rh27  1  0.671936  0.328064  0.500000  1
