# generated using pymatgen
data_TbSm3Ho4(SiBr6)2
_symmetry_space_group_name_H-M   'P 1'
_cell_length_a   4.08810800
_cell_length_b   13.38487407
_cell_length_c   14.11658251
_cell_angle_alpha   89.88202410
_cell_angle_beta   90.00000000
_cell_angle_gamma   90.00000000
_symmetry_Int_Tables_number   1
_chemical_formula_structural   TbSm3Ho4(SiBr6)2
_chemical_formula_sum   'Tb1 Sm3 Ho4 Si2 Br12'
_cell_volume   772.44096932
_cell_formula_units_Z   1
loop_
 _symmetry_equiv_pos_site_id
 _symmetry_equiv_pos_as_xyz
  1  'x, y, z'
loop_
 _atom_site_type_symbol
 _atom_site_label
 _atom_site_symmetry_multiplicity
 _atom_site_fract_x
 _atom_site_fract_y
 _atom_site_fract_z
 _atom_site_occupancy
  Tb  Tb0  1  0.000000  0.380714  0.079524  1
  Sm  Sm1  1  0.000000  0.120374  0.580252  1
  Sm  Sm2  1  0.000000  0.879599  0.419715  1
  Sm  Sm3  1  0.000000  0.619300  0.920399  1
  Ho  Ho4  1  0.500000  0.117638  0.341713  1
  Ho  Ho5  1  0.500000  0.882489  0.658144  1
  Ho  Ho6  1  0.500000  0.617121  0.158102  1
  Ho  Ho7  1  0.500000  0.382395  0.842177  1
  Si  Si8  1  0.500000  0.000056  0.499878  1
  Si  Si9  1  0.500000  0.498229  0.001161  1
  Br  Br10  1  0.500000  0.243836  0.164173  1
  Br  Br11  1  0.500000  0.759594  0.833935  1
  Br  Br12  1  0.500000  0.739510  0.333291  1
  Br  Br13  1  0.500000  0.260283  0.666817  1
  Br  Br14  1  0.000000  0.254033  0.407028  1
  Br  Br15  1  0.000000  0.745977  0.592829  1
  Br  Br16  1  0.000000  0.753708  0.092578  1
  Br  Br17  1  0.000000  0.247088  0.909982  1
  Br  Br18  1  0.000000  0.006608  0.242378  1
  Br  Br19  1  0.000000  0.993663  0.757486  1
  Br  Br20  1  0.000000  0.504027  0.255555  1
  Br  Br21  1  0.000000  0.493760  0.742883  1
