# generated using pymatgen
data_Hf12Zn11AuC4
_symmetry_space_group_name_H-M   'P 1'
_cell_length_a   8.57965636
_cell_length_b   8.56802264
_cell_length_c   8.56802400
_cell_angle_alpha   60.00000249
_cell_angle_beta   60.04484733
_cell_angle_gamma   60.04485566
_symmetry_Int_Tables_number   1
_chemical_formula_structural   Hf12Zn11AuC4
_chemical_formula_sum   'Hf12 Zn11 Au1 C4'
_cell_volume   445.66678993
_cell_formula_units_Z   1
loop_
 _symmetry_equiv_pos_site_id
 _symmetry_equiv_pos_as_xyz
  1  'x, y, z'
loop_
 _atom_site_type_symbol
 _atom_site_label
 _atom_site_symmetry_multiplicity
 _atom_site_fract_x
 _atom_site_fract_y
 _atom_site_fract_z
 _atom_site_occupancy
  Hf  Hf0  1  0.438832  0.439323  0.060922  1
  Hf  Hf1  1  0.062922  0.438913  0.059252  1
  Hf  Hf2  1  0.438832  0.060922  0.060922  1
  Hf  Hf3  1  0.062922  0.059252  0.438913  1
  Hf  Hf4  1  0.438832  0.060922  0.439323  1
  Hf  Hf5  1  0.062922  0.438913  0.438913  1
  Hf  Hf6  1  0.811168  0.810677  0.189078  1
  Hf  Hf7  1  0.187078  0.811087  0.190748  1
  Hf  Hf8  1  0.811168  0.189078  0.189078  1
  Hf  Hf9  1  0.187078  0.190748  0.811087  1
  Hf  Hf10  1  0.811168  0.189078  0.810677  1
  Hf  Hf11  1  0.187078  0.811087  0.811087  1
  Zn  Zn12  1  0.827015  0.834765  0.503455  1
  Zn  Zn13  1  0.827015  0.503455  0.834765  1
  Zn  Zn14  1  0.503342  0.832219  0.832219  1
  Zn  Zn15  1  0.827015  0.834765  0.834765  1
  Zn  Zn16  1  0.422985  0.415235  0.746545  1
  Zn  Zn17  1  0.422985  0.746545  0.415235  1
  Zn  Zn18  1  0.746658  0.417781  0.417781  1
  Zn  Zn19  1  0.422985  0.415235  0.415235  1
  Zn  Zn20  1  0.625000  0.625000  0.125000  1
  Zn  Zn21  1  0.625000  0.125000  0.625000  1
  Zn  Zn22  1  0.625000  0.625000  0.625000  1
  Au  Au23  1  0.125000  0.625000  0.625000  1
  C  C24  1  0.125000  0.125000  0.625000  1
  C  C25  1  0.125000  0.625000  0.125000  1
  C  C26  1  0.625000  0.125000  0.125000  1
  C  C27  1  0.125000  0.125000  0.125000  1
