# generated using pymatgen
data_SrSmHo(Si3Pd10)2
_symmetry_space_group_name_H-M   'P 1'
_cell_length_a   8.75538676
_cell_length_b   8.75538747
_cell_length_c   8.75538800
_cell_angle_alpha   59.99999799
_cell_angle_beta   59.99999533
_cell_angle_gamma   60.00000172
_symmetry_Int_Tables_number   1
_chemical_formula_structural   SrSmHo(Si3Pd10)2
_chemical_formula_sum   'Sr1 Sm1 Ho1 Si6 Pd20'
_cell_volume   474.58181034
_cell_formula_units_Z   1
loop_
 _symmetry_equiv_pos_site_id
 _symmetry_equiv_pos_as_xyz
  1  'x, y, z'
loop_
 _atom_site_type_symbol
 _atom_site_label
 _atom_site_symmetry_multiplicity
 _atom_site_fract_x
 _atom_site_fract_y
 _atom_site_fract_z
 _atom_site_occupancy
  Sr  Sr0  1  0.750000  0.750000  0.750000  1
  Sm  Sm1  1  0.250000  0.250000  0.250000  1
  Ho  Ho2  1  0.000000  0.000000  0.000000  1
  Si  Si3  1  0.732442  0.267558  0.267558  1
  Si  Si4  1  0.267558  0.732442  0.732442  1
  Si  Si5  1  0.267558  0.732442  0.267558  1
  Si  Si6  1  0.732442  0.267558  0.732442  1
  Si  Si7  1  0.267558  0.267558  0.732442  1
  Si  Si8  1  0.732442  0.732442  0.267558  1
  Pd  Pd9  1  0.384362  0.384362  0.384362  1
  Pd  Pd10  1  0.613760  0.613760  0.613760  1
  Pd  Pd11  1  0.384362  0.384362  0.846915  1
  Pd  Pd12  1  0.384362  0.846915  0.384362  1
  Pd  Pd13  1  0.613760  0.613760  0.158719  1
  Pd  Pd14  1  0.613760  0.158719  0.613760  1
  Pd  Pd15  1  0.846915  0.384362  0.384362  1
  Pd  Pd16  1  0.158719  0.613760  0.613760  1
  Pd  Pd17  1  0.342714  0.001574  0.001574  1
  Pd  Pd18  1  0.654138  0.001574  0.001574  1
  Pd  Pd19  1  0.001574  0.342714  0.654138  1
  Pd  Pd20  1  0.001574  0.654138  0.342714  1
  Pd  Pd21  1  0.001574  0.342714  0.001574  1
  Pd  Pd22  1  0.654138  0.001574  0.342714  1
  Pd  Pd23  1  0.001574  0.654138  0.001574  1
  Pd  Pd24  1  0.342714  0.001574  0.654138  1
  Pd  Pd25  1  0.001574  0.001574  0.342714  1
  Pd  Pd26  1  0.001574  0.001574  0.654138  1
  Pd  Pd27  1  0.654138  0.342714  0.001574  1
  Pd  Pd28  1  0.342714  0.654138  0.001574  1
