# generated using pymatgen
data_Lu12Mn2AgPb2
_symmetry_space_group_name_H-M   'P 1'
_cell_length_a   8.27243490
_cell_length_b   8.27243644
_cell_length_c   8.27243600
_cell_angle_alpha   109.25450522
_cell_angle_beta   109.25449428
_cell_angle_gamma   109.90553014
_symmetry_Int_Tables_number   1
_chemical_formula_structural   Lu12Mn2AgPb2
_chemical_formula_sum   'Lu12 Mn2 Ag1 Pb2'
_cell_volume   435.77230733
_cell_formula_units_Z   1
loop_
 _symmetry_equiv_pos_site_id
 _symmetry_equiv_pos_as_xyz
  1  'x, y, z'
loop_
 _atom_site_type_symbol
 _atom_site_label
 _atom_site_symmetry_multiplicity
 _atom_site_fract_x
 _atom_site_fract_y
 _atom_site_fract_z
 _atom_site_occupancy
  Lu  Lu0  1  0.306260  0.306311  0.612569  1
  Lu  Lu1  1  0.693740  0.693689  0.387431  1
  Lu  Lu2  1  0.693742  0.306311  0.000052  1
  Lu  Lu3  1  0.306258  0.693689  0.999948  1
  Lu  Lu4  1  0.205449  0.445909  0.240459  1
  Lu  Lu5  1  0.794551  0.554091  0.759541  1
  Lu  Lu6  1  0.205451  0.964987  0.759539  1
  Lu  Lu7  1  0.964949  0.205456  0.759499  1
  Lu  Lu8  1  0.794549  0.035013  0.240461  1
  Lu  Lu9  1  0.035051  0.794544  0.240501  1
  Lu  Lu10  1  0.445956  0.205456  0.240504  1
  Lu  Lu11  1  0.554044  0.794544  0.759496  1
  Mn  Mn12  1  0.389943  0.389906  0.999962  1
  Mn  Mn13  1  0.610057  0.610094  0.000038  1
  Ag  Ag14  1  0.000000  0.000000  0.000000  1
  Pb  Pb15  1  0.000000  0.500000  0.500000  1
  Pb  Pb16  1  0.500000  0.000000  0.500000  1
