# generated using pymatgen
data_La6SmLu3(In3Br)2
_symmetry_space_group_name_H-M   'P 1'
_cell_length_a   9.60700400
_cell_length_b   9.60700355
_cell_length_c   6.79558600
_cell_angle_alpha   90.00000000
_cell_angle_beta   90.00000000
_cell_angle_gamma   120.00000155
_symmetry_Int_Tables_number   1
_chemical_formula_structural   La6SmLu3(In3Br)2
_chemical_formula_sum   'La6 Sm1 Lu3 In6 Br2'
_cell_volume   543.16710512
_cell_formula_units_Z   1
loop_
 _symmetry_equiv_pos_site_id
 _symmetry_equiv_pos_as_xyz
  1  'x, y, z'
loop_
 _atom_site_type_symbol
 _atom_site_label
 _atom_site_symmetry_multiplicity
 _atom_site_fract_x
 _atom_site_fract_y
 _atom_site_fract_z
 _atom_site_occupancy
  La  La0  1  0.731733  0.730566  0.249141  1
  La  La1  1  0.998833  0.730566  0.750859  1
  La  La2  1  0.731733  0.001167  0.750859  1
  La  La3  1  0.269434  0.268267  0.750859  1
  La  La4  1  0.998833  0.268267  0.249141  1
  La  La5  1  0.269434  0.001167  0.249141  1
  Sm  Sm6  1  0.333333  0.666667  0.500000  1
  Lu  Lu7  1  0.666667  0.333333  0.500000  1
  Lu  Lu8  1  0.333333  0.666667  0.000000  1
  Lu  Lu9  1  0.666667  0.333333  0.000000  1
  In  In10  1  0.394143  0.001414  0.750665  1
  In  In11  1  0.998586  0.605857  0.249335  1
  In  In12  1  0.607270  0.001414  0.249335  1
  In  In13  1  0.998586  0.392730  0.750665  1
  In  In14  1  0.394143  0.392730  0.249335  1
  In  In15  1  0.607270  0.605857  0.750665  1
  Br  Br16  1  0.000000  0.000000  0.500000  1
  Br  Br17  1  0.000000  0.000000  0.000000  1
