# generated using pymatgen
data_Dy4Sc4Ir3Pt
_symmetry_space_group_name_H-M   'P 1'
_cell_length_a   4.29239500
_cell_length_b   7.13042521
_cell_length_c   8.73160347
_cell_angle_alpha   88.79868670
_cell_angle_beta   90.00000000
_cell_angle_gamma   90.00000000
_symmetry_Int_Tables_number   1
_chemical_formula_structural   Dy4Sc4Ir3Pt
_chemical_formula_sum   'Dy4 Sc4 Ir3 Pt1'
_cell_volume   267.18596852
_cell_formula_units_Z   1
loop_
 _symmetry_equiv_pos_site_id
 _symmetry_equiv_pos_as_xyz
  1  'x, y, z'
loop_
 _atom_site_type_symbol
 _atom_site_label
 _atom_site_symmetry_multiplicity
 _atom_site_fract_x
 _atom_site_fract_y
 _atom_site_fract_z
 _atom_site_occupancy
  Dy  Dy0  1  0.250000  0.484642  0.177923  1
  Dy  Dy1  1  0.750000  0.524166  0.822253  1
  Dy  Dy2  1  0.750000  0.010157  0.671455  1
  Dy  Dy3  1  0.250000  0.986007  0.328485  1
  Sc  Sc4  1  0.250000  0.859284  0.935251  1
  Sc  Sc5  1  0.750000  0.139057  0.070449  1
  Sc  Sc6  1  0.750000  0.640859  0.432574  1
  Sc  Sc7  1  0.250000  0.357348  0.566174  1
  Ir  Ir8  1  0.250000  0.738229  0.604392  1
  Ir  Ir9  1  0.750000  0.259426  0.395629  1
  Ir  Ir10  1  0.750000  0.756935  0.098609  1
  Pt  Pt11  1  0.250000  0.243890  0.896806  1
