# generated using pymatgen
data_PrNd3(YPb)6
_symmetry_space_group_name_H-M   'P 1'
_cell_length_a   9.19257094
_cell_length_b   9.18742420
_cell_length_c   6.76712100
_cell_angle_alpha   90.00000000
_cell_angle_beta   90.00000000
_cell_angle_gamma   119.64399686
_symmetry_Int_Tables_number   1
_chemical_formula_structural   PrNd3(YPb)6
_chemical_formula_sum   'Pr1 Nd3 Y6 Pb6'
_cell_volume   496.72056025
_cell_formula_units_Z   1
loop_
 _symmetry_equiv_pos_site_id
 _symmetry_equiv_pos_as_xyz
  1  'x, y, z'
loop_
 _atom_site_type_symbol
 _atom_site_label
 _atom_site_symmetry_multiplicity
 _atom_site_fract_x
 _atom_site_fract_y
 _atom_site_fract_z
 _atom_site_occupancy
  Pr  Pr0  1  0.999342  0.762166  0.250000  1
  Nd  Nd1  1  0.238677  0.000729  0.750000  1
  Nd  Nd2  1  0.000536  0.237982  0.750000  1
  Nd  Nd3  1  0.761571  0.999368  0.250000  1
  Y  Y4  1  0.666527  0.333564  0.999893  1
  Y  Y5  1  0.333490  0.666441  0.999879  1
  Y  Y6  1  0.333490  0.666441  0.500121  1
  Y  Y7  1  0.666527  0.333564  0.500107  1
  Y  Y8  1  0.756896  0.757080  0.750000  1
  Y  Y9  1  0.242996  0.242967  0.250000  1
  Pb  Pb10  1  0.400690  0.400719  0.750000  1
  Pb  Pb11  1  0.603832  0.997652  0.750000  1
  Pb  Pb12  1  0.997534  0.603775  0.750000  1
  Pb  Pb13  1  0.598016  0.598696  0.250000  1
  Pb  Pb14  1  0.397408  0.003151  0.250000  1
  Pb  Pb15  1  0.002469  0.395709  0.250000  1
