# generated using pymatgen
data_NiH3F5
_symmetry_space_group_name_H-M   'P 1'
_cell_length_a   3.11183986
_cell_length_b   5.00037189
_cell_length_c   6.57896901
_cell_angle_alpha   76.51906022
_cell_angle_beta   87.37693539
_cell_angle_gamma   69.83575228
_symmetry_Int_Tables_number   1
_chemical_formula_structural   NiH3F5
_chemical_formula_sum   'Ni1 H3 F5'
_cell_volume   93.38177363
_cell_formula_units_Z   1
loop_
 _symmetry_equiv_pos_site_id
 _symmetry_equiv_pos_as_xyz
  1  'x, y, z'
loop_
 _atom_site_type_symbol
 _atom_site_label
 _atom_site_symmetry_multiplicity
 _atom_site_fract_x
 _atom_site_fract_y
 _atom_site_fract_z
 _atom_site_occupancy
  Ni  Ni0  1  0.900867  0.227371  0.766791  1
  H  H1  1  0.124504  0.798470  0.571084  1
  H  H2  1  0.824210  0.446837  0.140321  1
  H  H3  1  0.676851  0.830058  0.091276  1
  F  F4  1  0.823214  0.675205  0.222415  1
  F  F5  1  0.031888  0.019452  0.523826  1
  F  F6  1  0.776420  0.306405  0.062231  1
  F  F7  1  0.262531  0.497104  0.655118  1
  F  F8  1  0.534380  0.962776  0.886259  1
