# generated using pymatgen
data_Zr3Sc5Ta4(VSi2)8
_symmetry_space_group_name_H-M   'P 1'
_cell_length_a   6.72155094
_cell_length_b   6.72082309
_cell_length_c   12.45334944
_cell_angle_alpha   90.02019083
_cell_angle_beta   89.95959420
_cell_angle_gamma   90.01531816
_symmetry_Int_Tables_number   1
_chemical_formula_structural   Zr3Sc5Ta4(VSi2)8
_chemical_formula_sum   'Zr3 Sc5 Ta4 V8 Si16'
_cell_volume   562.57183062
_cell_formula_units_Z   1
loop_
 _symmetry_equiv_pos_site_id
 _symmetry_equiv_pos_as_xyz
  1  'x, y, z'
loop_
 _atom_site_type_symbol
 _atom_site_label
 _atom_site_symmetry_multiplicity
 _atom_site_fract_x
 _atom_site_fract_y
 _atom_site_fract_z
 _atom_site_occupancy
  Zr  Zr0  1  0.004221  0.660830  0.029961  1
  Zr  Zr1  1  0.838698  0.504629  0.280501  1
  Zr  Zr2  1  0.160322  0.495295  0.780198  1
  Sc  Sc3  1  0.501709  0.836715  0.720218  1
  Sc  Sc4  1  0.497903  0.162760  0.220493  1
  Sc  Sc5  1  0.997122  0.338114  0.529313  1
  Sc  Sc6  1  0.663071  0.001554  0.970130  1
  Sc  Sc7  1  0.338081  0.997388  0.469844  1
  Ta  Ta8  1  0.332267  0.334833  0.999674  1
  Ta  Ta9  1  0.164699  0.832602  0.249908  1
  Ta  Ta10  1  0.835249  0.167461  0.749715  1
  Ta  Ta11  1  0.666551  0.666481  0.500042  1
  V  V12  1  0.006234  0.159010  0.126992  1
  V  V13  1  0.341815  0.506870  0.376558  1
  V  V14  1  0.658862  0.493371  0.876899  1
  V  V15  1  0.506853  0.343920  0.623498  1
  V  V16  1  0.493646  0.658118  0.122715  1
  V  V17  1  0.992680  0.842321  0.627501  1
  V  V18  1  0.158237  0.005580  0.872768  1
  V  V19  1  0.841867  0.992838  0.372303  1
  Si  Si20  1  0.295886  0.959636  0.062037  1
  Si  Si21  1  0.539672  0.796693  0.312258  1
  Si  Si22  1  0.459745  0.203665  0.811909  1
  Si  Si23  1  0.793200  0.542481  0.687080  1
  Si  Si24  1  0.209193  0.456157  0.188541  1
  Si  Si25  1  0.704895  0.041582  0.561809  1
  Si  Si26  1  0.955753  0.290257  0.938417  1
  Si  Si27  1  0.042945  0.707195  0.439167  1
  Si  Si28  1  0.706870  0.370702  0.072918  1
  Si  Si29  1  0.128522  0.207549  0.322631  1
  Si  Si30  1  0.870256  0.792250  0.822626  1
  Si  Si31  1  0.209574  0.126479  0.676808  1
  Si  Si32  1  0.789446  0.874966  0.177230  1
  Si  Si33  1  0.292204  0.628916  0.572759  1
  Si  Si34  1  0.375354  0.709854  0.926869  1
  Si  Si35  1  0.626397  0.290927  0.427711  1
