# generated using pymatgen
data_Hf2Pa(AlPt)3
_symmetry_space_group_name_H-M   'P 1'
_cell_length_a   7.00891638
_cell_length_b   7.00169554
_cell_length_c   7.82029400
_cell_angle_alpha   90.00000000
_cell_angle_beta   90.00000000
_cell_angle_gamma   119.80985851
_symmetry_Int_Tables_number   1
_chemical_formula_structural   Hf2Pa(AlPt)3
_chemical_formula_sum   'Hf4 Pa2 Al6 Pt6'
_cell_volume   332.99424860
_cell_formula_units_Z   2
loop_
 _symmetry_equiv_pos_site_id
 _symmetry_equiv_pos_as_xyz
  1  'x, y, z'
loop_
 _atom_site_type_symbol
 _atom_site_label
 _atom_site_symmetry_multiplicity
 _atom_site_fract_x
 _atom_site_fract_y
 _atom_site_fract_z
 _atom_site_occupancy
  Hf  Hf0  1  0.596528  0.998743  0.750000  1
  Hf  Hf1  1  0.998210  0.595808  0.750000  1
  Hf  Hf2  1  0.406871  0.406422  0.750000  1
  Hf  Hf3  1  0.405839  0.408740  0.250000  1
  Pa  Pa4  1  0.001002  0.580892  0.250000  1
  Pa  Pa5  1  0.579620  0.000637  0.250000  1
  Al  Al6  1  0.749380  0.748900  0.997718  1
  Al  Al7  1  0.249171  0.005407  0.989776  1
  Al  Al8  1  0.004248  0.248096  0.989724  1
  Al  Al9  1  0.749380  0.748900  0.502282  1
  Al  Al10  1  0.249171  0.005407  0.510224  1
  Al  Al11  1  0.004248  0.248096  0.510276  1
  Pt  Pt12  1  0.997585  0.997088  0.750000  1
  Pt  Pt13  1  0.007744  0.007978  0.250000  1
  Pt  Pt14  1  0.666989  0.333550  0.984735  1
  Pt  Pt15  1  0.666989  0.333550  0.515265  1
  Pt  Pt16  1  0.333513  0.665894  0.516448  1
  Pt  Pt17  1  0.333513  0.665894  0.983553  1
