# generated using pymatgen
data_DyScGaB2Ru5
_symmetry_space_group_name_H-M   'P 1'
_cell_length_a   9.47428211
_cell_length_b   9.47428211
_cell_length_c   3.07750400
_cell_angle_alpha   90.00000000
_cell_angle_beta   90.00000000
_cell_angle_gamma   88.60293099
_symmetry_Int_Tables_number   1
_chemical_formula_structural   DyScGaB2Ru5
_chemical_formula_sum   'Dy2 Sc2 Ga2 B4 Ru10'
_cell_volume   276.16086384
_cell_formula_units_Z   2
loop_
 _symmetry_equiv_pos_site_id
 _symmetry_equiv_pos_as_xyz
  1  'x, y, z'
loop_
 _atom_site_type_symbol
 _atom_site_label
 _atom_site_symmetry_multiplicity
 _atom_site_fract_x
 _atom_site_fract_y
 _atom_site_fract_z
 _atom_site_occupancy
  Dy  Dy0  1  0.676606  0.176606  0.000000  1
  Dy  Dy1  1  0.323394  0.823394  0.000000  1
  Sc  Sc2  1  0.173157  0.326843  0.000000  1
  Sc  Sc3  1  0.826843  0.673157  0.000000  1
  Ga  Ga4  1  0.000000  0.000000  0.000000  1
  Ga  Ga5  1  0.500000  0.500000  0.000000  1
  B  B6  1  0.120987  0.620987  0.000000  1
  B  B7  1  0.879013  0.379013  0.000000  1
  B  B8  1  0.626050  0.873950  0.000000  1
  B  B9  1  0.373950  0.126050  0.000000  1
  Ru  Ru10  1  0.213827  0.078716  0.500000  1
  Ru  Ru11  1  0.786173  0.921284  0.500000  1
  Ru  Ru12  1  0.062720  0.781183  0.500000  1
  Ru  Ru13  1  0.718817  0.437280  0.500000  1
  Ru  Ru14  1  0.937280  0.218817  0.500000  1
  Ru  Ru15  1  0.281183  0.562720  0.500000  1
  Ru  Ru16  1  0.578716  0.713827  0.500000  1
  Ru  Ru17  1  0.421284  0.286173  0.500000  1
  Ru  Ru18  1  0.500000  0.000000  0.500000  1
  Ru  Ru19  1  0.000000  0.500000  0.500000  1
