# generated using pymatgen
data_YEr2Ta(Co4P3)2
_symmetry_space_group_name_H-M   'P 1'
_cell_length_a   3.70847300
_cell_length_b   10.63114600
_cell_length_c   12.32785000
_cell_angle_alpha   90.00000000
_cell_angle_beta   90.00000000
_cell_angle_gamma   90.00000000
_symmetry_Int_Tables_number   1
_chemical_formula_structural   YEr2Ta(Co4P3)2
_chemical_formula_sum   'Y2 Er4 Ta2 Co16 P12'
_cell_volume   486.02940527
_cell_formula_units_Z   2
loop_
 _symmetry_equiv_pos_site_id
 _symmetry_equiv_pos_as_xyz
  1  'x, y, z'
loop_
 _atom_site_type_symbol
 _atom_site_label
 _atom_site_symmetry_multiplicity
 _atom_site_fract_x
 _atom_site_fract_y
 _atom_site_fract_z
 _atom_site_occupancy
  Y  Y0  1  0.000000  0.500000  0.526595  1
  Y  Y1  1  0.500000  0.000000  0.473405  1
  Er  Er2  1  0.500000  0.820891  0.204826  1
  Er  Er3  1  0.500000  0.179109  0.204826  1
  Er  Er4  1  0.000000  0.679109  0.795174  1
  Er  Er5  1  0.000000  0.320891  0.795174  1
  Ta  Ta6  1  0.500000  0.500000  0.156537  1
  Ta  Ta7  1  0.000000  0.000000  0.843463  1
  Co  Co8  1  0.500000  0.500000  0.703259  1
  Co  Co9  1  0.000000  0.000000  0.296741  1
  Co  Co10  1  0.000000  0.500000  0.987096  1
  Co  Co11  1  0.500000  0.000000  0.012904  1
  Co  Co12  1  0.500000  0.332454  0.992330  1
  Co  Co13  1  0.500000  0.667546  0.992330  1
  Co  Co14  1  0.000000  0.167546  0.007670  1
  Co  Co15  1  0.000000  0.832454  0.007670  1
  Co  Co16  1  0.500000  0.295045  0.431999  1
  Co  Co17  1  0.500000  0.704955  0.431999  1
  Co  Co18  1  0.000000  0.204955  0.568001  1
  Co  Co19  1  0.000000  0.795045  0.568001  1
  Co  Co20  1  0.500000  0.877443  0.705774  1
  Co  Co21  1  0.500000  0.122557  0.705774  1
  Co  Co22  1  0.000000  0.622557  0.294226  1
  Co  Co23  1  0.000000  0.377443  0.294226  1
  P  P24  1  0.500000  0.500000  0.881942  1
  P  P25  1  0.000000  0.000000  0.118058  1
  P  P26  1  0.500000  0.500000  0.356039  1
  P  P27  1  0.000000  0.000000  0.643961  1
  P  P28  1  0.500000  0.311026  0.616354  1
  P  P29  1  0.500000  0.688974  0.616354  1
  P  P30  1  0.000000  0.188974  0.383646  1
  P  P31  1  0.000000  0.811026  0.383646  1
  P  P32  1  0.500000  0.840571  0.892307  1
  P  P33  1  0.500000  0.159429  0.892307  1
  P  P34  1  0.000000  0.659429  0.107693  1
  P  P35  1  0.000000  0.340571  0.107693  1
