# generated using pymatgen
data_Tb2CeIn3PdRh2
_symmetry_space_group_name_H-M   'P 1'
_cell_length_a   7.63541304
_cell_length_b   7.63541176
_cell_length_c   3.84665900
_cell_angle_alpha   90.00000000
_cell_angle_beta   90.00000000
_cell_angle_gamma   117.95146120
_symmetry_Int_Tables_number   1
_chemical_formula_structural   Tb2CeIn3PdRh2
_chemical_formula_sum   'Tb2 Ce1 In3 Pd1 Rh2'
_cell_volume   198.09752012
_cell_formula_units_Z   1
loop_
 _symmetry_equiv_pos_site_id
 _symmetry_equiv_pos_as_xyz
  1  'x, y, z'
loop_
 _atom_site_type_symbol
 _atom_site_label
 _atom_site_symmetry_multiplicity
 _atom_site_fract_x
 _atom_site_fract_y
 _atom_site_fract_z
 _atom_site_occupancy
  Tb  Tb0  1  0.410455  0.000448  0.500000  1
  Tb  Tb1  1  0.000448  0.410455  0.500000  1
  Ce  Ce2  1  0.579858  0.579858  0.500000  1
  In  In3  1  0.740363  0.008867  0.000000  1
  In  In4  1  0.008867  0.740363  0.000000  1
  In  In5  1  0.248557  0.248557  0.000000  1
  Pd  Pd6  1  0.994154  0.994154  0.500000  1
  Rh  Rh7  1  0.354031  0.663267  0.000000  1
  Rh  Rh8  1  0.663267  0.354031  0.000000  1
