# generated using pymatgen
data_YLu11Tc3Ir
_symmetry_space_group_name_H-M   'P 1'
_cell_length_a   6.17094063
_cell_length_b   7.30247633
_cell_length_c   8.90269600
_cell_angle_alpha   90.00000000
_cell_angle_beta   90.00000000
_cell_angle_gamma   89.89266270
_symmetry_Int_Tables_number   1
_chemical_formula_structural   YLu11Tc3Ir
_chemical_formula_sum   'Y1 Lu11 Tc3 Ir1'
_cell_volume   401.18280245
_cell_formula_units_Z   1
loop_
 _symmetry_equiv_pos_site_id
 _symmetry_equiv_pos_as_xyz
  1  'x, y, z'
loop_
 _atom_site_type_symbol
 _atom_site_label
 _atom_site_symmetry_multiplicity
 _atom_site_fract_x
 _atom_site_fract_y
 _atom_site_fract_z
 _atom_site_occupancy
  Y  Y0  1  0.127365  0.459454  0.750000  1
  Lu  Lu1  1  0.333999  0.676463  0.063714  1
  Lu  Lu2  1  0.162509  0.174380  0.437381  1
  Lu  Lu3  1  0.662849  0.323228  0.560097  1
  Lu  Lu4  1  0.835845  0.825938  0.939481  1
  Lu  Lu5  1  0.662849  0.323228  0.939903  1
  Lu  Lu6  1  0.835845  0.825938  0.560519  1
  Lu  Lu7  1  0.333999  0.676463  0.436286  1
  Lu  Lu8  1  0.162509  0.174380  0.062619  1
  Lu  Lu9  1  0.875401  0.538898  0.250000  1
  Lu  Lu10  1  0.624870  0.037859  0.250000  1
  Lu  Lu11  1  0.374119  0.961203  0.750000  1
  Tc  Tc12  1  0.040938  0.883086  0.250000  1
  Tc  Tc13  1  0.461209  0.385006  0.250000  1
  Tc  Tc14  1  0.958322  0.114979  0.750000  1
  Ir  Ir15  1  0.547374  0.619497  0.750000  1
