# generated using pymatgen
data_Sc8Re2B24OsRh
_symmetry_space_group_name_H-M   'P 1'
_cell_length_a   3.51027600
_cell_length_b   8.88690936
_cell_length_c   11.21480152
_cell_angle_alpha   90.15190119
_cell_angle_beta   90.00000000
_cell_angle_gamma   90.00000000
_symmetry_Int_Tables_number   1
_chemical_formula_structural   Sc8Re2B24OsRh
_chemical_formula_sum   'Sc8 Re2 B24 Os1 Rh1'
_cell_volume   349.85016330
_cell_formula_units_Z   1
loop_
 _symmetry_equiv_pos_site_id
 _symmetry_equiv_pos_as_xyz
  1  'x, y, z'
loop_
 _atom_site_type_symbol
 _atom_site_label
 _atom_site_symmetry_multiplicity
 _atom_site_fract_x
 _atom_site_fract_y
 _atom_site_fract_z
 _atom_site_occupancy
  Sc  Sc0  1  0.000000  0.315581  0.408311  1
  Sc  Sc1  1  0.000000  0.687676  0.587148  1
  Sc  Sc2  1  0.000000  0.821549  0.085425  1
  Sc  Sc3  1  0.000000  0.174878  0.918928  1
  Sc  Sc4  1  0.000000  0.944515  0.372473  1
  Sc  Sc5  1  0.000000  0.054821  0.627353  1
  Sc  Sc6  1  0.000000  0.443691  0.127481  1
  Sc  Sc7  1  0.000000  0.557782  0.873248  1
  Re  Re8  1  0.000000  0.138665  0.180461  1
  Re  Re9  1  0.000000  0.861247  0.819510  1
  B  B10  1  0.500000  0.553381  0.435506  1
  B  B11  1  0.500000  0.446186  0.564136  1
  B  B12  1  0.500000  0.052586  0.065340  1
  B  B13  1  0.500000  0.947341  0.934976  1
  B  B14  1  0.500000  0.752379  0.421457  1
  B  B15  1  0.500000  0.247884  0.577337  1
  B  B16  1  0.500000  0.252074  0.078508  1
  B  B17  1  0.500000  0.747883  0.921458  1
  B  B18  1  0.500000  0.793339  0.264642  1
  B  B19  1  0.500000  0.206873  0.735748  1
  B  B20  1  0.500000  0.294826  0.235880  1
  B  B21  1  0.500000  0.704861  0.763142  1
  B  B22  1  0.500000  0.629451  0.182820  1
  B  B23  1  0.500000  0.369966  0.818757  1
  B  B24  1  0.500000  0.129651  0.317749  1
  B  B25  1  0.500000  0.870675  0.681916  1
  B  B26  1  0.500000  0.978340  0.213142  1
  B  B27  1  0.500000  0.021812  0.787019  1
  B  B28  1  0.500000  0.479156  0.287765  1
  B  B29  1  0.500000  0.520212  0.712561  1
  B  B30  1  0.500000  0.599898  0.027636  1
  B  B31  1  0.500000  0.398966  0.972103  1
  B  B32  1  0.500000  0.101816  0.472559  1
  B  B33  1  0.500000  0.899773  0.527517  1
  Os  Os34  1  0.000000  0.638253  0.320969  1
  Rh  Rh35  1  0.000000  0.362010  0.679017  1
