# generated using pymatgen
data_LiNd6(YPt3)2
_symmetry_space_group_name_H-M   'P 1'
_cell_length_a   7.72178763
_cell_length_b   7.72178731
_cell_length_c   7.72178773
_cell_angle_alpha   69.12625304
_cell_angle_beta   69.12624228
_cell_angle_gamma   69.12625130
_symmetry_Int_Tables_number   1
_chemical_formula_structural   LiNd6(YPt3)2
_chemical_formula_sum   'Li1 Nd6 Y2 Pt6'
_cell_volume   387.84734755
_cell_formula_units_Z   1
loop_
 _symmetry_equiv_pos_site_id
 _symmetry_equiv_pos_as_xyz
  1  'x, y, z'
loop_
 _atom_site_type_symbol
 _atom_site_label
 _atom_site_symmetry_multiplicity
 _atom_site_fract_x
 _atom_site_fract_y
 _atom_site_fract_z
 _atom_site_occupancy
  Li  Li0  1  0.000000  0.000000  0.000000  1
  Nd  Nd1  1  0.321263  0.610894  0.860464  1
  Nd  Nd2  1  0.860464  0.321263  0.610894  1
  Nd  Nd3  1  0.610894  0.860464  0.321263  1
  Nd  Nd4  1  0.678737  0.389106  0.139536  1
  Nd  Nd5  1  0.139536  0.678737  0.389106  1
  Nd  Nd6  1  0.389106  0.139536  0.678737  1
  Y  Y7  1  0.818770  0.818770  0.818770  1
  Y  Y8  1  0.181230  0.181230  0.181230  1
  Pt  Pt9  1  0.178007  0.953775  0.572505  1
  Pt  Pt10  1  0.572505  0.178007  0.953775  1
  Pt  Pt11  1  0.953775  0.572505  0.178007  1
  Pt  Pt12  1  0.821993  0.046225  0.427495  1
  Pt  Pt13  1  0.427495  0.821993  0.046225  1
  Pt  Pt14  1  0.046225  0.427495  0.821993  1
