# generated using pymatgen
data_Nd5Th3(CdTc)2
_symmetry_space_group_name_H-M   'P 1'
_cell_length_a   9.86246095
_cell_length_b   9.96738410
_cell_length_c   9.96738452
_cell_angle_alpha   59.30477767
_cell_angle_beta   60.34761595
_cell_angle_gamma   60.34761562
_symmetry_Int_Tables_number   1
_chemical_formula_structural   Nd5Th3(CdTc)2
_chemical_formula_sum   'Nd10 Th6 Cd4 Tc4'
_cell_volume   692.68770179
_cell_formula_units_Z   2
loop_
 _symmetry_equiv_pos_site_id
 _symmetry_equiv_pos_as_xyz
  1  'x, y, z'
loop_
 _atom_site_type_symbol
 _atom_site_label
 _atom_site_symmetry_multiplicity
 _atom_site_fract_x
 _atom_site_fract_y
 _atom_site_fract_z
 _atom_site_occupancy
  Nd  Nd0  1  0.442546  0.057454  0.442546  1
  Nd  Nd1  1  0.057454  0.442546  0.057454  1
  Nd  Nd2  1  0.442546  0.442546  0.057454  1
  Nd  Nd3  1  0.057454  0.057454  0.442546  1
  Nd  Nd4  1  0.188723  0.811277  0.811277  1
  Nd  Nd5  1  0.811277  0.188723  0.188723  1
  Nd  Nd6  1  0.809184  0.190816  0.809184  1
  Nd  Nd7  1  0.190816  0.809184  0.190816  1
  Nd  Nd8  1  0.809184  0.809184  0.190816  1
  Nd  Nd9  1  0.190816  0.190816  0.809184  1
  Th  Th10  1  0.595203  0.595708  0.595708  1
  Th  Th11  1  0.595708  0.595203  0.213381  1
  Th  Th12  1  0.595708  0.213381  0.595203  1
  Th  Th13  1  0.213381  0.595708  0.595708  1
  Th  Th14  1  0.062473  0.437527  0.437527  1
  Th  Th15  1  0.437527  0.062473  0.062473  1
  Cd  Cd16  1  0.829951  0.829814  0.829814  1
  Cd  Cd17  1  0.829814  0.829951  0.510421  1
  Cd  Cd18  1  0.829814  0.510421  0.829951  1
  Cd  Cd19  1  0.510421  0.829814  0.829814  1
  Tc  Tc20  1  0.370133  0.400499  0.400499  1
  Tc  Tc21  1  0.400499  0.370133  0.828868  1
  Tc  Tc22  1  0.400499  0.828868  0.370133  1
  Tc  Tc23  1  0.828868  0.400499  0.400499  1
