# generated using pymatgen
data_NaBi3(ClO2)2
_symmetry_space_group_name_H-M   'P 1'
_cell_length_a   6.80067862
_cell_length_b   6.80067862
_cell_length_c   10.97751800
_cell_angle_alpha   90.00000000
_cell_angle_beta   90.00000000
_cell_angle_gamma   132.19811504
_symmetry_Int_Tables_number   1
_chemical_formula_structural   NaBi3(ClO2)2
_chemical_formula_sum   'Na2 Bi6 Cl4 O8'
_cell_volume   376.11900992
_cell_formula_units_Z   2
loop_
 _symmetry_equiv_pos_site_id
 _symmetry_equiv_pos_as_xyz
  1  'x, y, z'
loop_
 _atom_site_type_symbol
 _atom_site_label
 _atom_site_symmetry_multiplicity
 _atom_site_fract_x
 _atom_site_fract_y
 _atom_site_fract_z
 _atom_site_occupancy
  Na  Na0  1  0.151440  0.848560  0.750000  1
  Na  Na1  1  0.848560  0.151440  0.250000  1
  Bi  Bi2  1  0.342765  0.657235  0.998937  1
  Bi  Bi3  1  0.845988  0.154012  0.750000  1
  Bi  Bi4  1  0.154012  0.845988  0.250000  1
  Bi  Bi5  1  0.657235  0.342765  0.001063  1
  Bi  Bi6  1  0.342765  0.657235  0.501063  1
  Bi  Bi7  1  0.657235  0.342765  0.498937  1
  Cl  Cl8  1  0.501111  0.498889  0.750000  1
  Cl  Cl9  1  0.498889  0.501111  0.250000  1
  Cl  Cl10  1  0.000000  0.000000  0.000000  1
  Cl  Cl11  1  0.000000  0.000000  0.500000  1
  O  O12  1  0.995368  0.486876  0.878151  1
  O  O13  1  0.004632  0.513124  0.121849  1
  O  O14  1  0.513124  0.004632  0.878151  1
  O  O15  1  0.486876  0.995368  0.121849  1
  O  O16  1  0.004632  0.513124  0.378151  1
  O  O17  1  0.995368  0.486876  0.621849  1
  O  O18  1  0.486876  0.995368  0.378151  1
  O  O19  1  0.513124  0.004632  0.621849  1
