# generated using pymatgen
data_La8GePtI12
_symmetry_space_group_name_H-M   'P 1'
_cell_length_a   4.39289200
_cell_length_b   14.70673648
_cell_length_c   15.51832300
_cell_angle_alpha   90.48203986
_cell_angle_beta   90.00000000
_cell_angle_gamma   90.00000000
_symmetry_Int_Tables_number   1
_chemical_formula_structural   La8GePtI12
_chemical_formula_sum   'La8 Ge1 Pt1 I12'
_cell_volume   1002.52740600
_cell_formula_units_Z   1
loop_
 _symmetry_equiv_pos_site_id
 _symmetry_equiv_pos_as_xyz
  1  'x, y, z'
loop_
 _atom_site_type_symbol
 _atom_site_label
 _atom_site_symmetry_multiplicity
 _atom_site_fract_x
 _atom_site_fract_y
 _atom_site_fract_z
 _atom_site_occupancy
  La  La0  1  0.500000  0.118482  0.342940  1
  La  La1  1  0.500000  0.881518  0.657060  1
  La  La2  1  0.500000  0.618062  0.156691  1
  La  La3  1  0.500000  0.381938  0.843309  1
  La  La4  1  0.000000  0.108686  0.574287  1
  La  La5  1  0.000000  0.891314  0.425713  1
  La  La6  1  0.000000  0.614311  0.922693  1
  La  La7  1  0.000000  0.385689  0.077307  1
  Ge  Ge8  1  0.500000  0.500000  0.000000  1
  Pt  Pt9  1  0.500000  0.000000  0.500000  1
  I  I10  1  0.500000  0.246025  0.165128  1
  I  I11  1  0.500000  0.753975  0.834872  1
  I  I12  1  0.500000  0.746643  0.334081  1
  I  I13  1  0.500000  0.253357  0.665919  1
  I  I14  1  0.000000  0.263217  0.416112  1
  I  I15  1  0.000000  0.736783  0.583888  1
  I  I16  1  0.000000  0.760287  0.084073  1
  I  I17  1  0.000000  0.239713  0.915927  1
  I  I18  1  0.000000  0.999388  0.235642  1
  I  I19  1  0.000000  0.000612  0.764358  1
  I  I20  1  0.000000  0.499340  0.260438  1
  I  I21  1  0.000000  0.500660  0.739562  1
