# generated using pymatgen
data_NaHf(TaSe2)6
_symmetry_space_group_name_H-M   'P 1'
_cell_length_a   6.07612000
_cell_length_b   6.07612026
_cell_length_c   14.75927800
_cell_angle_alpha   90.00000000
_cell_angle_beta   90.00000000
_cell_angle_gamma   120.00000947
_symmetry_Int_Tables_number   1
_chemical_formula_structural   NaHf(TaSe2)6
_chemical_formula_sum   'Na1 Hf1 Ta6 Se12'
_cell_volume   471.89829325
_cell_formula_units_Z   1
loop_
 _symmetry_equiv_pos_site_id
 _symmetry_equiv_pos_as_xyz
  1  'x, y, z'
loop_
 _atom_site_type_symbol
 _atom_site_label
 _atom_site_symmetry_multiplicity
 _atom_site_fract_x
 _atom_site_fract_y
 _atom_site_fract_z
 _atom_site_occupancy
  Na  Na0  1  0.333333  0.666667  0.250000  1
  Hf  Hf1  1  0.666667  0.333333  0.750000  1
  Ta  Ta2  1  0.000000  0.000000  0.521502  1
  Ta  Ta3  1  0.000000  0.000000  0.978498  1
  Ta  Ta4  1  0.333333  0.666667  0.978026  1
  Ta  Ta5  1  0.666667  0.333333  0.977684  1
  Ta  Ta6  1  0.666667  0.333333  0.522316  1
  Ta  Ta7  1  0.333333  0.666667  0.521974  1
  Se  Se8  1  0.333129  0.332451  0.409148  1
  Se  Se9  1  0.667549  0.000677  0.409148  1
  Se  Se10  1  0.999323  0.666871  0.409148  1
  Se  Se11  1  0.327948  0.332992  0.635936  1
  Se  Se12  1  0.005043  0.672052  0.635936  1
  Se  Se13  1  0.667008  0.994957  0.635936  1
  Se  Se14  1  0.667008  0.672052  0.864064  1
  Se  Se15  1  0.327948  0.994957  0.864064  1
  Se  Se16  1  0.005043  0.332992  0.864064  1
  Se  Se17  1  0.667549  0.666871  0.090852  1
  Se  Se18  1  0.999323  0.332451  0.090852  1
  Se  Se19  1  0.333129  0.000677  0.090852  1
