# generated using pymatgen
data_Tb3Pr16DyIr12
_symmetry_space_group_name_H-M   'P 1'
_cell_length_a   11.27789300
_cell_length_b   11.27789300
_cell_length_c   6.59574400
_cell_angle_alpha   90.00000000
_cell_angle_beta   90.00000000
_cell_angle_gamma   90.00000000
_symmetry_Int_Tables_number   1
_chemical_formula_structural   Tb3Pr16DyIr12
_chemical_formula_sum   'Tb3 Pr16 Dy1 Ir12'
_cell_volume   838.91842108
_cell_formula_units_Z   1
loop_
 _symmetry_equiv_pos_site_id
 _symmetry_equiv_pos_as_xyz
  1  'x, y, z'
loop_
 _atom_site_type_symbol
 _atom_site_label
 _atom_site_symmetry_multiplicity
 _atom_site_fract_x
 _atom_site_fract_y
 _atom_site_fract_z
 _atom_site_occupancy
  Tb  Tb0  1  0.000000  0.000000  0.500000  1
  Tb  Tb1  1  0.000000  0.000000  0.000000  1
  Tb  Tb2  1  0.500000  0.500000  0.000000  1
  Pr  Pr3  1  0.289041  0.088012  0.382710  1
  Pr  Pr4  1  0.289038  0.912001  0.882721  1
  Pr  Pr5  1  0.710962  0.087999  0.882721  1
  Pr  Pr6  1  0.710959  0.911988  0.382710  1
  Pr  Pr7  1  0.587998  0.789033  0.882697  1
  Pr  Pr8  1  0.588000  0.211003  0.382727  1
  Pr  Pr9  1  0.412000  0.788997  0.382727  1
  Pr  Pr10  1  0.412002  0.210967  0.882697  1
  Pr  Pr11  1  0.211003  0.412000  0.617273  1
  Pr  Pr12  1  0.210967  0.587998  0.117303  1
  Pr  Pr13  1  0.789033  0.412002  0.117303  1
  Pr  Pr14  1  0.788997  0.588000  0.617273  1
  Pr  Pr15  1  0.912001  0.710962  0.117279  1
  Pr  Pr16  1  0.911988  0.289041  0.617290  1
  Pr  Pr17  1  0.088012  0.710959  0.617290  1
  Pr  Pr18  1  0.087999  0.289038  0.117279  1
  Dy  Dy19  1  0.500000  0.500000  0.500000  1
  Ir  Ir20  1  0.851827  0.148175  0.249998  1
  Ir  Ir21  1  0.851825  0.851827  0.750002  1
  Ir  Ir22  1  0.148175  0.148173  0.750002  1
  Ir  Ir23  1  0.148173  0.851825  0.249998  1
  Ir  Ir24  1  0.648088  0.351899  0.749872  1
  Ir  Ir25  1  0.648101  0.648088  0.250128  1
  Ir  Ir26  1  0.351899  0.351912  0.250128  1
  Ir  Ir27  1  0.351912  0.648101  0.749872  1
  Ir  Ir28  1  0.500000  0.000000  0.118855  1
  Ir  Ir29  1  0.500000  0.000000  0.618863  1
  Ir  Ir30  1  0.000000  0.500000  0.881145  1
  Ir  Ir31  1  0.000000  0.500000  0.381137  1
