# generated using pymatgen
data_NdTm5Sc2(Co4P3)4
_symmetry_space_group_name_H-M   'P 1'
_cell_length_a   3.71549900
_cell_length_b   10.64688400
_cell_length_c   12.33242100
_cell_angle_alpha   90.00000000
_cell_angle_beta   90.00000000
_cell_angle_gamma   90.00000000
_symmetry_Int_Tables_number   1
_chemical_formula_structural   NdTm5Sc2(Co4P3)4
_chemical_formula_sum   'Nd1 Tm5 Sc2 Co16 P12'
_cell_volume   487.85191402
_cell_formula_units_Z   1
loop_
 _symmetry_equiv_pos_site_id
 _symmetry_equiv_pos_as_xyz
  1  'x, y, z'
loop_
 _atom_site_type_symbol
 _atom_site_label
 _atom_site_symmetry_multiplicity
 _atom_site_fract_x
 _atom_site_fract_y
 _atom_site_fract_z
 _atom_site_occupancy
  Nd  Nd0  1  0.000000  0.500000  0.529223  1
  Tm  Tm1  1  0.500000  0.000000  0.472006  1
  Tm  Tm2  1  0.500000  0.823167  0.205531  1
  Tm  Tm3  1  0.500000  0.176833  0.205531  1
  Tm  Tm4  1  0.000000  0.677756  0.795370  1
  Tm  Tm5  1  0.000000  0.322244  0.795370  1
  Sc  Sc6  1  0.500000  0.500000  0.155133  1
  Sc  Sc7  1  0.000000  0.000000  0.841976  1
  Co  Co8  1  0.500000  0.500000  0.709432  1
  Co  Co9  1  0.000000  0.000000  0.294301  1
  Co  Co10  1  0.000000  0.500000  0.987857  1
  Co  Co11  1  0.500000  0.000000  0.012546  1
  Co  Co12  1  0.500000  0.330493  0.994758  1
  Co  Co13  1  0.500000  0.669507  0.994758  1
  Co  Co14  1  0.000000  0.168655  0.005342  1
  Co  Co15  1  0.000000  0.831345  0.005342  1
  Co  Co16  1  0.500000  0.292032  0.431988  1
  Co  Co17  1  0.500000  0.707968  0.431988  1
  Co  Co18  1  0.000000  0.201622  0.567184  1
  Co  Co19  1  0.000000  0.798378  0.567184  1
  Co  Co20  1  0.500000  0.878464  0.703787  1
  Co  Co21  1  0.500000  0.121536  0.703787  1
  Co  Co22  1  0.000000  0.623569  0.295409  1
  Co  Co23  1  0.000000  0.376431  0.295409  1
  P  P24  1  0.500000  0.500000  0.886535  1
  P  P25  1  0.000000  0.000000  0.114877  1
  P  P26  1  0.500000  0.500000  0.356705  1
  P  P27  1  0.000000  0.000000  0.638511  1
  P  P28  1  0.500000  0.306231  0.617524  1
  P  P29  1  0.500000  0.693769  0.617524  1
  P  P30  1  0.000000  0.188434  0.383534  1
  P  P31  1  0.000000  0.811566  0.383534  1
  P  P32  1  0.500000  0.839173  0.891957  1
  P  P33  1  0.500000  0.160827  0.891957  1
  P  P34  1  0.000000  0.661928  0.108065  1
  P  P35  1  0.000000  0.338072  0.108065  1
