# generated using pymatgen
data_Sm5HoCo9(P4Ru3)3
_symmetry_space_group_name_H-M   'P 1'
_cell_length_a   3.86803300
_cell_length_b   10.72624331
_cell_length_c   12.57515235
_cell_angle_alpha   89.79179691
_cell_angle_beta   90.00000000
_cell_angle_gamma   90.00000000
_symmetry_Int_Tables_number   1
_chemical_formula_structural   Sm5HoCo9(P4Ru3)3
_chemical_formula_sum   'Sm5 Ho1 Co9 P12 Ru9'
_cell_volume   521.73287474
_cell_formula_units_Z   1
loop_
 _symmetry_equiv_pos_site_id
 _symmetry_equiv_pos_as_xyz
  1  'x, y, z'
loop_
 _atom_site_type_symbol
 _atom_site_label
 _atom_site_symmetry_multiplicity
 _atom_site_fract_x
 _atom_site_fract_y
 _atom_site_fract_z
 _atom_site_occupancy
  Sm  Sm0  1  0.000000  0.500092  0.524115  1
  Sm  Sm1  1  0.500000  0.001053  0.472180  1
  Sm  Sm2  1  0.500000  0.820386  0.200850  1
  Sm  Sm3  1  0.000000  0.679293  0.800398  1
  Sm  Sm4  1  0.000000  0.320721  0.798839  1
  Ho  Ho5  1  0.500000  0.181970  0.200869  1
  Co  Co6  1  0.000000  0.497631  0.987748  1
  Co  Co7  1  0.500000  0.001568  0.016587  1
  Co  Co8  1  0.000000  0.374473  0.278751  1
  Co  Co9  1  0.500000  0.330257  0.991442  1
  Co  Co10  1  0.500000  0.666088  0.992665  1
  Co  Co11  1  0.000000  0.168531  0.013048  1
  Co  Co12  1  0.000000  0.833358  0.010984  1
  Co  Co13  1  0.500000  0.500215  0.703228  1
  Co  Co14  1  0.000000  0.002616  0.295802  1
  P  P15  1  0.500000  0.313384  0.615201  1
  P  P16  1  0.500000  0.688372  0.618056  1
  P  P17  1  0.000000  0.191115  0.376413  1
  P  P18  1  0.000000  0.811129  0.380910  1
  P  P19  1  0.500000  0.498933  0.885510  1
  P  P20  1  0.000000  0.002082  0.117937  1
  P  P21  1  0.500000  0.846900  0.903327  1
  P  P22  1  0.500000  0.153205  0.901085  1
  P  P23  1  0.000000  0.652716  0.099444  1
  P  P24  1  0.000000  0.344950  0.103826  1
  P  P25  1  0.500000  0.499671  0.336900  1
  P  P26  1  0.000000  0.000876  0.663445  1
  Ru  Ru27  1  0.500000  0.300350  0.420759  1
  Ru  Ru28  1  0.500000  0.702724  0.427210  1
  Ru  Ru29  1  0.000000  0.204595  0.568244  1
  Ru  Ru30  1  0.000000  0.798792  0.572188  1
  Ru  Ru31  1  0.500000  0.877007  0.719694  1
  Ru  Ru32  1  0.500000  0.124541  0.717003  1
  Ru  Ru33  1  0.000000  0.616670  0.281774  1
  Ru  Ru34  1  0.500000  0.491779  0.149537  1
  Ru  Ru35  1  0.000000  0.001956  0.854027  1
