# generated using pymatgen
data_NaPr6PtBr12
_symmetry_space_group_name_H-M   'P 1'
_cell_length_a   9.66927347
_cell_length_b   9.67341519
_cell_length_c   9.67089352
_cell_angle_alpha   107.26665209
_cell_angle_beta   107.21537621
_cell_angle_gamma   107.21735661
_symmetry_Int_Tables_number   1
_chemical_formula_structural   NaPr6PtBr12
_chemical_formula_sum   'Na1 Pr6 Pt1 Br12'
_cell_volume   748.48862862
_cell_formula_units_Z   1
loop_
 _symmetry_equiv_pos_site_id
 _symmetry_equiv_pos_as_xyz
  1  'x, y, z'
loop_
 _atom_site_type_symbol
 _atom_site_label
 _atom_site_symmetry_multiplicity
 _atom_site_fract_x
 _atom_site_fract_y
 _atom_site_fract_z
 _atom_site_occupancy
  Na  Na0  1  0.500000  0.500000  0.500000  1
  Pr  Pr1  1  0.116641  0.325016  0.033567  1
  Pr  Pr2  1  0.324856  0.033628  0.116632  1
  Pr  Pr3  1  0.033632  0.116532  0.324929  1
  Pr  Pr4  1  0.966369  0.883468  0.675072  1
  Pr  Pr5  1  0.675144  0.966373  0.883368  1
  Pr  Pr6  1  0.883359  0.674984  0.966433  1
  Pt  Pt7  1  0.000000  0.000000  0.000000  1
  Br  Br8  1  0.214123  0.684988  0.072322  1
  Br  Br9  1  0.455178  0.373385  0.158464  1
  Br  Br10  1  0.684981  0.072304  0.214058  1
  Br  Br11  1  0.927658  0.785899  0.315006  1
  Br  Br12  1  0.158484  0.455189  0.373381  1
  Br  Br13  1  0.373405  0.158489  0.455212  1
  Br  Br14  1  0.626595  0.841511  0.544789  1
  Br  Br15  1  0.841517  0.544811  0.626619  1
  Br  Br16  1  0.072343  0.214101  0.684995  1
  Br  Br17  1  0.315020  0.927697  0.785942  1
  Br  Br18  1  0.544822  0.626615  0.841537  1
  Br  Br19  1  0.785877  0.315012  0.927678  1
