# generated using pymatgen
data_ErTmHf2(Al3Ir)6
_symmetry_space_group_name_H-M   'P 1'
_cell_length_a   7.50515458
_cell_length_b   7.50344620
_cell_length_c   9.33256500
_cell_angle_alpha   90.00000000
_cell_angle_beta   90.00000000
_cell_angle_gamma   119.72653082
_symmetry_Int_Tables_number   1
_chemical_formula_structural   ErTmHf2(Al3Ir)6
_chemical_formula_sum   'Er1 Tm1 Hf2 Al18 Ir6'
_cell_volume   456.39644439
_cell_formula_units_Z   1
loop_
 _symmetry_equiv_pos_site_id
 _symmetry_equiv_pos_as_xyz
  1  'x, y, z'
loop_
 _atom_site_type_symbol
 _atom_site_label
 _atom_site_symmetry_multiplicity
 _atom_site_fract_x
 _atom_site_fract_y
 _atom_site_fract_z
 _atom_site_occupancy
  Er  Er0  1  0.005849  0.328673  0.750000  1
  Tm  Tm1  1  0.328776  0.005914  0.750000  1
  Hf  Hf2  1  0.994330  0.672593  0.250000  1
  Hf  Hf3  1  0.672393  0.994252  0.250000  1
  Al  Al4  1  0.123225  0.123327  0.250000  1
  Al  Al5  1  0.870351  0.870216  0.750000  1
  Al  Al6  1  0.997757  0.335092  0.082042  1
  Al  Al7  1  0.999592  0.665276  0.928856  1
  Al  Al8  1  0.999592  0.665276  0.571144  1
  Al  Al9  1  0.335083  0.997776  0.417893  1
  Al  Al10  1  0.997757  0.335092  0.417958  1
  Al  Al11  1  0.664998  0.999348  0.571218  1
  Al  Al12  1  0.664998  0.999348  0.928782  1
  Al  Al13  1  0.335083  0.997776  0.082107  1
  Al  Al14  1  0.333600  0.333483  0.553164  1
  Al  Al15  1  0.668386  0.668373  0.437768  1
  Al  Al16  1  0.668386  0.668373  0.062232  1
  Al  Al17  1  0.333600  0.333483  0.946836  1
  Al  Al18  1  0.339355  0.554167  0.250000  1
  Al  Al19  1  0.661518  0.452111  0.750000  1
  Al  Al20  1  0.554254  0.339604  0.250000  1
  Al  Al21  1  0.452171  0.661491  0.750000  1
  Ir  Ir22  1  0.673135  0.327848  0.001934  1
  Ir  Ir23  1  0.327945  0.673262  0.001973  1
  Ir  Ir24  1  0.327945  0.673262  0.498027  1
  Ir  Ir25  1  0.673135  0.327848  0.498066  1
  Ir  Ir26  1  0.998393  0.998365  0.001807  1
  Ir  Ir27  1  0.998393  0.998365  0.498193  1
