# generated using pymatgen
data_Ca14Sn2GeAs12
_symmetry_space_group_name_H-M   'P 1'
_cell_length_a   9.08733977
_cell_length_b   9.08731182
_cell_length_c   9.08743749
_cell_angle_alpha   87.03954431
_cell_angle_beta   87.03922666
_cell_angle_gamma   87.04047878
_symmetry_Int_Tables_number   1
_chemical_formula_structural   Ca14Sn2GeAs12
_chemical_formula_sum   'Ca14 Sn2 Ge1 As12'
_cell_volume   747.53155985
_cell_formula_units_Z   1
loop_
 _symmetry_equiv_pos_site_id
 _symmetry_equiv_pos_as_xyz
  1  'x, y, z'
loop_
 _atom_site_type_symbol
 _atom_site_label
 _atom_site_symmetry_multiplicity
 _atom_site_fract_x
 _atom_site_fract_y
 _atom_site_fract_z
 _atom_site_occupancy
  Ca  Ca0  1  0.414196  0.269975  0.774530  1
  Ca  Ca1  1  0.774524  0.414191  0.269979  1
  Ca  Ca2  1  0.269973  0.774526  0.414195  1
  Ca  Ca3  1  0.987310  0.540699  0.650759  1
  Ca  Ca4  1  0.650762  0.987313  0.540700  1
  Ca  Ca5  1  0.540695  0.650763  0.987313  1
  Ca  Ca6  1  0.178375  0.533603  0.023110  1
  Ca  Ca7  1  0.023107  0.178370  0.533609  1
  Ca  Ca8  1  0.533606  0.023110  0.178375  1
  Ca  Ca9  1  0.765721  0.260302  0.909685  1
  Ca  Ca10  1  0.909684  0.765720  0.260301  1
  Ca  Ca11  1  0.260302  0.909685  0.765721  1
  Ca  Ca12  1  0.186861  0.186868  0.186863  1
  Ca  Ca13  1  0.400197  0.400203  0.400200  1
  Sn  Sn14  1  0.842498  0.842498  0.842501  1
  Sn  Sn15  1  0.612431  0.612404  0.612364  1
  Ge  Ge16  1  0.005211  0.005215  0.005211  1
  As  As17  1  0.705493  0.319723  0.586708  1
  As  As18  1  0.586706  0.705492  0.319726  1
  As  As19  1  0.319724  0.586707  0.705494  1
  As  As20  1  0.575588  0.969371  0.864239  1
  As  As21  1  0.864236  0.575586  0.969372  1
  As  As22  1  0.969371  0.864237  0.575590  1
  As  As23  1  0.472988  0.344250  0.084746  1
  As  As24  1  0.084741  0.472991  0.344250  1
  As  As25  1  0.344247  0.084742  0.472994  1
  As  As26  1  0.099336  0.221930  0.854924  1
  As  As27  1  0.854924  0.099335  0.221930  1
  As  As28  1  0.221925  0.854921  0.099338  1
