# generated using pymatgen
data_Ca(BeH3)2
_symmetry_space_group_name_H-M   'P 1'
_cell_length_a   4.04169006
_cell_length_b   4.47332179
_cell_length_c   4.67399322
_cell_angle_alpha   86.91478756
_cell_angle_beta   88.47475228
_cell_angle_gamma   89.54840008
_symmetry_Int_Tables_number   1
_chemical_formula_structural   Ca(BeH3)2
_chemical_formula_sum   'Ca1 Be2 H6'
_cell_volume   84.35063067
_cell_formula_units_Z   1
loop_
 _symmetry_equiv_pos_site_id
 _symmetry_equiv_pos_as_xyz
  1  'x, y, z'
loop_
 _atom_site_type_symbol
 _atom_site_label
 _atom_site_symmetry_multiplicity
 _atom_site_fract_x
 _atom_site_fract_y
 _atom_site_fract_z
 _atom_site_occupancy
  Ca  Ca0  1  0.879587  0.047219  0.238852  1
  Be  Be1  1  0.332451  0.532309  0.470178  1
  Be  Be2  1  0.791812  0.629398  0.765644  1
  H  H3  1  0.391525  0.792202  0.293038  1
  H  H4  1  0.970027  0.529868  0.511779  1
  H  H5  1  0.914018  0.525454  0.030275  1
  H  H6  1  0.469377  0.501166  0.750157  1
  H  H7  1  0.801092  0.949835  0.749470  1
  H  H8  1  0.379266  0.271359  0.318991  1
