# generated using pymatgen
data_Tb3Dy7Si5P
_symmetry_space_group_name_H-M   'P 1'
_cell_length_a   8.43025900
_cell_length_b   8.43639972
_cell_length_c   6.32596500
_cell_angle_alpha   90.00000000
_cell_angle_beta   90.00000000
_cell_angle_gamma   119.97592863
_symmetry_Int_Tables_number   1
_chemical_formula_structural   Tb3Dy7Si5P
_chemical_formula_sum   'Tb3 Dy7 Si5 P1'
_cell_volume   389.72725051
_cell_formula_units_Z   1
loop_
 _symmetry_equiv_pos_site_id
 _symmetry_equiv_pos_as_xyz
  1  'x, y, z'
loop_
 _atom_site_type_symbol
 _atom_site_label
 _atom_site_symmetry_multiplicity
 _atom_site_fract_x
 _atom_site_fract_y
 _atom_site_fract_z
 _atom_site_occupancy
  Tb  Tb0  1  0.001077  0.756793  0.750000  1
  Tb  Tb1  1  0.754875  0.000000  0.750000  1
  Tb  Tb2  1  0.244283  0.243207  0.750000  1
  Dy  Dy3  1  0.000895  0.244371  0.250000  1
  Dy  Dy4  1  0.756524  0.755629  0.250000  1
  Dy  Dy5  1  0.243858  0.000000  0.250000  1
  Dy  Dy6  1  0.666281  0.332523  0.999590  1
  Dy  Dy7  1  0.333757  0.667477  0.500410  1
  Dy  Dy8  1  0.333757  0.667477  0.999590  1
  Dy  Dy9  1  0.666281  0.332523  0.500410  1
  Si  Si10  1  0.394165  0.393683  0.250000  1
  Si  Si11  1  0.000482  0.606317  0.250000  1
  Si  Si12  1  0.000118  0.393549  0.750000  1
  Si  Si13  1  0.606569  0.606451  0.750000  1
  Si  Si14  1  0.607164  0.000000  0.250000  1
  P  P15  1  0.389915  0.000000  0.750000  1
