# generated using pymatgen
data_CaSm3(PbAu2)2
_symmetry_space_group_name_H-M   'P 1'
_cell_length_a   8.30819306
_cell_length_b   8.30819306
_cell_length_c   3.71891300
_cell_angle_alpha   90.00000000
_cell_angle_beta   90.00000000
_cell_angle_gamma   89.94212626
_symmetry_Int_Tables_number   1
_chemical_formula_structural   CaSm3(PbAu2)2
_chemical_formula_sum   'Ca1 Sm3 Pb2 Au4'
_cell_volume   256.70182523
_cell_formula_units_Z   1
loop_
 _symmetry_equiv_pos_site_id
 _symmetry_equiv_pos_as_xyz
  1  'x, y, z'
loop_
 _atom_site_type_symbol
 _atom_site_label
 _atom_site_symmetry_multiplicity
 _atom_site_fract_x
 _atom_site_fract_y
 _atom_site_fract_z
 _atom_site_occupancy
  Ca  Ca0  1  0.328669  0.828669  0.500000  1
  Sm  Sm1  1  0.669600  0.169600  0.500000  1
  Sm  Sm2  1  0.171352  0.330113  0.500000  1
  Sm  Sm3  1  0.830113  0.671352  0.500000  1
  Pb  Pb4  1  0.002712  0.998699  0.000000  1
  Pb  Pb5  1  0.498699  0.502712  0.000000  1
  Au  Au6  1  0.123617  0.623617  0.000000  1
  Au  Au7  1  0.623933  0.876063  0.000000  1
  Au  Au8  1  0.376063  0.123933  0.000000  1
  Au  Au9  1  0.875242  0.375242  0.000000  1
