# generated using pymatgen
data_YbAgAsO4
_symmetry_space_group_name_H-M   'P 1'
_cell_length_a   5.56525471
_cell_length_b   5.56525437
_cell_length_c   7.11367600
_cell_angle_alpha   90.00000000
_cell_angle_beta   90.00000000
_cell_angle_gamma   116.41201599
_symmetry_Int_Tables_number   1
_chemical_formula_structural   YbAgAsO4
_chemical_formula_sum   'Yb2 Ag2 As2 O8'
_cell_volume   197.32731096
_cell_formula_units_Z   2
loop_
 _symmetry_equiv_pos_site_id
 _symmetry_equiv_pos_as_xyz
  1  'x, y, z'
loop_
 _atom_site_type_symbol
 _atom_site_label
 _atom_site_symmetry_multiplicity
 _atom_site_fract_x
 _atom_site_fract_y
 _atom_site_fract_z
 _atom_site_occupancy
  Yb  Yb0  1  0.000000  0.000000  0.500000  1
  Yb  Yb1  1  0.000000  0.000000  0.000000  1
  Ag  Ag2  1  0.311444  0.688556  0.750000  1
  Ag  Ag3  1  0.688556  0.311444  0.250000  1
  As  As4  1  0.652449  0.347551  0.750000  1
  As  As5  1  0.347551  0.652449  0.250000  1
  O  O6  1  0.761337  0.238663  0.557713  1
  O  O7  1  0.238663  0.761337  0.442287  1
  O  O8  1  0.238663  0.761337  0.057713  1
  O  O9  1  0.761337  0.238663  0.942287  1
  O  O10  1  0.779442  0.695967  0.750000  1
  O  O11  1  0.220558  0.304033  0.250000  1
  O  O12  1  0.304033  0.220558  0.750000  1
  O  O13  1  0.695966  0.779442  0.250000  1
