# generated using pymatgen
data_Sm7Sn23Ru5Rh
_symmetry_space_group_name_H-M   'P 1'
_cell_length_a   9.86541518
_cell_length_b   9.90583319
_cell_length_c   10.06197200
_cell_angle_alpha   90.00000000
_cell_angle_beta   89.92620682
_cell_angle_gamma   120.13562167
_symmetry_Int_Tables_number   1
_chemical_formula_structural   Sm7Sn23Ru5Rh
_chemical_formula_sum   'Sm7 Sn23 Ru5 Rh1'
_cell_volume   850.40243613
_cell_formula_units_Z   1
loop_
 _symmetry_equiv_pos_site_id
 _symmetry_equiv_pos_as_xyz
  1  'x, y, z'
loop_
 _atom_site_type_symbol
 _atom_site_label
 _atom_site_symmetry_multiplicity
 _atom_site_fract_x
 _atom_site_fract_y
 _atom_site_fract_z
 _atom_site_occupancy
  Sm  Sm0  1  0.007405  0.003704  0.003575  1
  Sm  Sm1  1  0.483568  0.515951  0.303809  1
  Sm  Sm2  1  0.515467  0.482221  0.695290  1
  Sm  Sm3  1  0.483568  0.967617  0.303809  1
  Sm  Sm4  1  0.515467  0.033246  0.695290  1
  Sm  Sm5  1  0.032399  0.516200  0.303275  1
  Sm  Sm6  1  0.965237  0.482618  0.696110  1
  Sn  Sn7  1  0.349848  0.999550  0.000349  1
  Sn  Sn8  1  0.651632  0.001728  0.999682  1
  Sn  Sn9  1  0.000191  0.348903  0.000144  1
  Sn  Sn10  1  0.000191  0.651288  0.000144  1
  Sn  Sn11  1  0.651632  0.649905  0.999682  1
  Sn  Sn12  1  0.349848  0.350298  0.000349  1
  Sn  Sn13  1  0.330202  0.665102  0.820477  1
  Sn  Sn14  1  0.666473  0.333235  0.179021  1
  Sn  Sn15  1  0.999293  0.999647  0.500844  1
  Sn  Sn16  1  0.780047  0.219906  0.461778  1
  Sn  Sn17  1  0.219431  0.778993  0.537924  1
  Sn  Sn18  1  0.780047  0.560141  0.461778  1
  Sn  Sn19  1  0.219431  0.440439  0.537924  1
  Sn  Sn20  1  0.440559  0.220280  0.461081  1
  Sn  Sn21  1  0.560298  0.780150  0.537287  1
  Sn  Sn22  1  0.333525  0.666764  0.124535  1
  Sn  Sn23  1  0.665866  0.332933  0.875156  1
  Sn  Sn24  1  0.116576  0.882979  0.276983  1
  Sn  Sn25  1  0.883521  0.117141  0.723847  1
  Sn  Sn26  1  0.116576  0.233597  0.276983  1
  Sn  Sn27  1  0.883521  0.766380  0.723847  1
  Sn  Sn28  1  0.764849  0.882425  0.272429  1
  Sn  Sn29  1  0.235848  0.117924  0.727041  1
  Ru  Ru30  1  0.830388  0.169322  0.202012  1
  Ru  Ru31  1  0.169958  0.830763  0.798108  1
  Ru  Ru32  1  0.830388  0.661065  0.202012  1
  Ru  Ru33  1  0.169958  0.339196  0.798108  1
  Ru  Ru34  1  0.338160  0.169079  0.200544  1
  Rh  Rh35  1  0.658628  0.829315  0.798764  1
