# generated using pymatgen
data_TbHo7GePd24
_symmetry_space_group_name_H-M   'P 1'
_cell_length_a   8.34708601
_cell_length_b   8.34708601
_cell_length_c   8.34708601
_cell_angle_alpha   90.00385760
_cell_angle_beta   90.00385760
_cell_angle_gamma   90.00385760
_symmetry_Int_Tables_number   1
_chemical_formula_structural   TbHo7GePd24
_chemical_formula_sum   'Tb1 Ho7 Ge1 Pd24'
_cell_volume   581.57357161
_cell_formula_units_Z   1
loop_
 _symmetry_equiv_pos_site_id
 _symmetry_equiv_pos_as_xyz
  1  'x, y, z'
loop_
 _atom_site_type_symbol
 _atom_site_label
 _atom_site_symmetry_multiplicity
 _atom_site_fract_x
 _atom_site_fract_y
 _atom_site_fract_z
 _atom_site_occupancy
  Tb  Tb0  1  0.253594  0.253594  0.253594  1
  Ho  Ho1  1  0.746346  0.746346  0.746346  1
  Ho  Ho2  1  0.746334  0.746334  0.253654  1
  Ho  Ho3  1  0.746334  0.253654  0.746334  1
  Ho  Ho4  1  0.253638  0.253638  0.746388  1
  Ho  Ho5  1  0.253638  0.746388  0.253638  1
  Ho  Ho6  1  0.253654  0.746334  0.746334  1
  Ho  Ho7  1  0.746388  0.253638  0.253638  1
  Ge  Ge8  1  0.000056  0.000056  0.000056  1
  Pd  Pd9  1  0.259435  0.500346  0.999609  1
  Pd  Pd10  1  0.740557  0.500011  0.999972  1
  Pd  Pd11  1  0.999609  0.259435  0.500346  1
  Pd  Pd12  1  0.500346  0.259435  0.999609  1
  Pd  Pd13  1  0.999972  0.740557  0.500011  1
  Pd  Pd14  1  0.500011  0.740557  0.999972  1
  Pd  Pd15  1  0.500346  0.999609  0.259435  1
  Pd  Pd16  1  0.259435  0.999609  0.500346  1
  Pd  Pd17  1  0.500011  0.999972  0.740557  1
  Pd  Pd18  1  0.740557  0.999972  0.500011  1
  Pd  Pd19  1  0.999609  0.500346  0.259435  1
  Pd  Pd20  1  0.999972  0.500011  0.740557  1
  Pd  Pd21  1  0.253068  0.500404  0.500404  1
  Pd  Pd22  1  0.746934  0.500022  0.500022  1
  Pd  Pd23  1  0.500404  0.253068  0.500404  1
  Pd  Pd24  1  0.500022  0.746934  0.500022  1
  Pd  Pd25  1  0.500404  0.500404  0.253068  1
  Pd  Pd26  1  0.500022  0.500022  0.746934  1
  Pd  Pd27  1  0.288848  0.999630  0.999630  1
  Pd  Pd28  1  0.711239  0.999980  0.999980  1
  Pd  Pd29  1  0.999630  0.288848  0.999630  1
  Pd  Pd30  1  0.999980  0.711239  0.999980  1
  Pd  Pd31  1  0.999630  0.999630  0.288848  1
  Pd  Pd32  1  0.999980  0.999980  0.711239  1
