# generated using pymatgen
data_Rb2(CoO2)5
_symmetry_space_group_name_H-M   'P 1'
_cell_length_a   4.98739668
_cell_length_b   7.15854792
_cell_length_c   7.66508700
_cell_angle_alpha   117.96915043
_cell_angle_beta   95.79257702
_cell_angle_gamma   101.74266407
_symmetry_Int_Tables_number   1
_chemical_formula_structural   Rb2(CoO2)5
_chemical_formula_sum   'Rb2 Co5 O10'
_cell_volume   230.45775334
_cell_formula_units_Z   1
loop_
 _symmetry_equiv_pos_site_id
 _symmetry_equiv_pos_as_xyz
  1  'x, y, z'
loop_
 _atom_site_type_symbol
 _atom_site_label
 _atom_site_symmetry_multiplicity
 _atom_site_fract_x
 _atom_site_fract_y
 _atom_site_fract_z
 _atom_site_occupancy
  Rb  Rb0  1  0.627116  0.245160  0.746299  1
  Rb  Rb1  1  0.372884  0.754840  0.253701  1
  Co  Co2  1  0.603740  0.704867  0.700820  1
  Co  Co3  1  0.000000  0.500000  0.500000  1
  Co  Co4  1  0.396260  0.295133  0.299180  1
  Co  Co5  1  0.799728  0.097749  0.101042  1
  Co  Co6  1  0.200272  0.902251  0.898958  1
  O  O7  1  0.685290  0.583719  0.435870  1
  O  O8  1  0.314710  0.416281  0.564130  1
  O  O9  1  0.714180  0.212237  0.367110  1
  O  O10  1  0.076804  0.382265  0.238562  1
  O  O11  1  0.285820  0.787763  0.632890  1
  O  O12  1  0.923196  0.617735  0.761438  1
  O  O13  1  0.119310  0.013922  0.164045  1
  O  O14  1  0.477415  0.189370  0.045708  1
  O  O15  1  0.880690  0.986078  0.835955  1
  O  O16  1  0.522585  0.810630  0.954292  1
