# generated using pymatgen
data_Sr4Sm3(US4)5
_symmetry_space_group_name_H-M   'P 1'
_cell_length_a   7.48227117
_cell_length_b   8.20131370
_cell_length_c   11.75131800
_cell_angle_alpha   89.58683427
_cell_angle_beta   90.11150149
_cell_angle_gamma   90.34205193
_symmetry_Int_Tables_number   1
_chemical_formula_structural   Sr4Sm3(US4)5
_chemical_formula_sum   'Sr4 Sm3 U5 S20'
_cell_volume   721.08029688
_cell_formula_units_Z   1
loop_
 _symmetry_equiv_pos_site_id
 _symmetry_equiv_pos_as_xyz
  1  'x, y, z'
loop_
 _atom_site_type_symbol
 _atom_site_label
 _atom_site_symmetry_multiplicity
 _atom_site_fract_x
 _atom_site_fract_y
 _atom_site_fract_z
 _atom_site_occupancy
  Sr  Sr0  1  0.046566  0.493917  0.328585  1
  Sr  Sr1  1  0.548587  0.506861  0.169890  1
  Sr  Sr2  1  0.951838  0.507569  0.670190  1
  Sr  Sr3  1  0.450018  0.495489  0.829921  1
  Sm  Sm4  1  0.033365  0.000628  0.322171  1
  Sm  Sm5  1  0.534234  0.000824  0.179437  1
  Sm  Sm6  1  0.966176  0.000109  0.675498  1
  U  U7  1  0.469958  0.001268  0.823299  1
  U  U8  1  0.063926  0.751997  0.006812  1
  U  U9  1  0.564943  0.248203  0.493323  1
  U  U10  1  0.936447  0.244613  0.991750  1
  U  U11  1  0.431089  0.752264  0.507281  1
  S  S12  1  0.664470  0.959679  0.411531  1
  S  S13  1  0.165340  0.040059  0.090223  1
  S  S14  1  0.339022  0.040111  0.597324  1
  S  S15  1  0.830891  0.955683  0.906841  1
  S  S16  1  0.447873  0.780103  0.997695  1
  S  S17  1  0.944760  0.229668  0.498151  1
  S  S18  1  0.550867  0.221767  0.992226  1
  S  S19  1  0.055659  0.772843  0.502881  1
  S  S20  1  0.844500  0.766074  0.187202  1
  S  S21  1  0.345419  0.234195  0.312428  1
  S  S22  1  0.161073  0.226801  0.812565  1
  S  S23  1  0.648356  0.770086  0.692624  1
  S  S24  1  0.321184  0.760907  0.287158  1
  S  S25  1  0.819290  0.238768  0.209227  1
  S  S26  1  0.679116  0.234149  0.714611  1
  S  S27  1  0.182260  0.766660  0.789102  1
  S  S28  1  0.176348  0.461314  0.074570  1
  S  S29  1  0.671338  0.540097  0.423675  1
  S  S30  1  0.826490  0.537348  0.921441  1
  S  S31  1  0.328598  0.459945  0.580366  1
