# generated using pymatgen
data_Cs8Nb3SbBr24
_symmetry_space_group_name_H-M   'P 1'
_cell_length_a   13.66059773
_cell_length_b   13.66059756
_cell_length_c   13.67302676
_cell_angle_alpha   131.43262566
_cell_angle_beta   131.43262334
_cell_angle_gamma   71.06091063
_symmetry_Int_Tables_number   1
_chemical_formula_structural   Cs8Nb3SbBr24
_chemical_formula_sum   'Cs8 Nb3 Sb1 Br24'
_cell_volume   1404.77439759
_cell_formula_units_Z   1
loop_
 _symmetry_equiv_pos_site_id
 _symmetry_equiv_pos_as_xyz
  1  'x, y, z'
loop_
 _atom_site_type_symbol
 _atom_site_label
 _atom_site_symmetry_multiplicity
 _atom_site_fract_x
 _atom_site_fract_y
 _atom_site_fract_z
 _atom_site_occupancy
  Cs  Cs0  1  0.118470  0.638196  0.998683  1
  Cs  Cs1  1  0.361804  0.881530  0.001317  1
  Cs  Cs2  1  0.639535  0.638136  0.519734  1
  Cs  Cs3  1  0.361864  0.360465  0.480266  1
  Cs  Cs4  1  0.880206  0.360480  0.998680  1
  Cs  Cs5  1  0.880174  0.881584  0.519735  1
  Cs  Cs6  1  0.118416  0.119826  0.480265  1
  Cs  Cs7  1  0.639520  0.119794  0.001320  1
  Nb  Nb8  1  0.749977  0.250023  0.500000  1
  Nb  Nb9  1  0.500077  0.499923  0.000000  1
  Nb  Nb10  1  0.249974  0.750026  0.500000  1
  Sb  Sb11  1  0.999991  0.000009  0.000000  1
  Br  Br12  1  0.251968  0.999689  0.252173  1
  Br  Br13  1  0.000311  0.748032  0.747827  1
  Br  Br14  1  0.251906  0.982542  0.730448  1
  Br  Br15  1  0.748445  0.478583  0.730287  1
  Br  Br16  1  0.478469  0.747950  0.730626  1
  Br  Br17  1  0.127700  0.127705  0.000127  1
  Br  Br18  1  0.499597  0.729255  0.229471  1
  Br  Br19  1  0.866612  0.366619  0.500204  1
  Br  Br20  1  0.000199  0.252527  0.252185  1
  Br  Br21  1  0.383364  0.383357  0.999986  1
  Br  Br22  1  0.616643  0.616636  0.000014  1
  Br  Br23  1  0.499891  0.270014  0.770486  1
  Br  Br24  1  0.270745  0.500403  0.770529  1
  Br  Br25  1  0.521417  0.251555  0.269713  1
  Br  Br26  1  0.366034  0.866007  0.499846  1
  Br  Br27  1  0.633381  0.133388  0.499796  1
  Br  Br28  1  0.252050  0.521531  0.269374  1
  Br  Br29  1  0.133993  0.633966  0.500154  1
  Br  Br30  1  0.017458  0.748094  0.269552  1
  Br  Br31  1  0.981914  0.251856  0.730355  1
  Br  Br32  1  0.747473  0.999801  0.747815  1
  Br  Br33  1  0.729986  0.500109  0.229514  1
  Br  Br34  1  0.748144  0.018086  0.269645  1
  Br  Br35  1  0.872295  0.872300  0.999873  1
