# generated using pymatgen
data_Li5Mg(SiRh2)6
_symmetry_space_group_name_H-M   'P 1'
_cell_length_a   4.13026700
_cell_length_b   5.82546100
_cell_length_c   12.39271500
_cell_angle_alpha   90.00001908
_cell_angle_beta   90.00047162
_cell_angle_gamma   90.00011450
_symmetry_Int_Tables_number   1
_chemical_formula_structural   Li5Mg(SiRh2)6
_chemical_formula_sum   'Li5 Mg1 Si6 Rh12'
_cell_volume   298.17751340
_cell_formula_units_Z   1
loop_
 _symmetry_equiv_pos_site_id
 _symmetry_equiv_pos_as_xyz
  1  'x, y, z'
loop_
 _atom_site_type_symbol
 _atom_site_label
 _atom_site_symmetry_multiplicity
 _atom_site_fract_x
 _atom_site_fract_y
 _atom_site_fract_z
 _atom_site_occupancy
  Li  Li0  1  0.499785  0.000000  0.167825  1
  Li  Li1  1  0.999810  0.500001  0.333896  1
  Li  Li2  1  0.500001  0.000001  0.499991  1
  Li  Li3  1  0.000190  0.500002  0.666098  1
  Li  Li4  1  0.500215  0.999999  0.832186  1
  Mg  Mg5  1  0.999998  0.500000  0.000001  1
  Si  Si6  1  0.999999  0.000000  0.999998  1
  Si  Si7  1  0.499846  0.500000  0.170752  1
  Si  Si8  1  0.999840  0.000000  0.336505  1
  Si  Si9  1  0.500000  0.500000  0.500002  1
  Si  Si10  1  0.000161  0.000001  0.663496  1
  Si  Si11  1  0.500154  0.500000  0.829248  1
  Rh  Rh12  1  0.500001  0.244375  0.999987  1
  Rh  Rh13  1  0.500002  0.755624  0.999984  1
  Rh  Rh14  1  0.999869  0.246890  0.169700  1
  Rh  Rh15  1  0.999866  0.753114  0.169699  1
  Rh  Rh16  1  0.499856  0.249625  0.334432  1
  Rh  Rh17  1  0.499857  0.750376  0.334430  1
  Rh  Rh18  1  0.999998  0.250726  0.500018  1
  Rh  Rh19  1  0.000001  0.749274  0.500020  1
  Rh  Rh20  1  0.500146  0.249624  0.665586  1
  Rh  Rh21  1  0.500139  0.750376  0.665583  1
  Rh  Rh22  1  0.000131  0.246880  0.830283  1
  Rh  Rh23  1  0.000131  0.753120  0.830283  1
