# generated using pymatgen
data_LaAl5Pt3
_symmetry_space_group_name_H-M   'P 1'
_cell_length_a   4.16879000
_cell_length_b   7.42584500
_cell_length_c   20.81324600
_cell_angle_alpha   90.00000000
_cell_angle_beta   90.00000000
_cell_angle_gamma   90.00000000
_symmetry_Int_Tables_number   1
_chemical_formula_structural   LaAl5Pt3
_chemical_formula_sum   'La4 Al20 Pt12'
_cell_volume   644.31125187
_cell_formula_units_Z   4
loop_
 _symmetry_equiv_pos_site_id
 _symmetry_equiv_pos_as_xyz
  1  'x, y, z'
loop_
 _atom_site_type_symbol
 _atom_site_label
 _atom_site_symmetry_multiplicity
 _atom_site_fract_x
 _atom_site_fract_y
 _atom_site_fract_z
 _atom_site_occupancy
  La  La0  1  0.250000  0.117485  0.640003  1
  La  La1  1  0.750000  0.882515  0.359997  1
  La  La2  1  0.250000  0.382515  0.140003  1
  La  La3  1  0.750000  0.617485  0.859997  1
  Al  Al4  1  0.750000  0.354624  0.383714  1
  Al  Al5  1  0.750000  0.887403  0.982878  1
  Al  Al6  1  0.750000  0.689399  0.200767  1
  Al  Al7  1  0.250000  0.868336  0.491760  1
  Al  Al8  1  0.250000  0.631664  0.991760  1
  Al  Al9  1  0.250000  0.310601  0.799233  1
  Al  Al10  1  0.750000  0.076348  0.208801  1
  Al  Al11  1  0.250000  0.645376  0.616286  1
  Al  Al12  1  0.250000  0.576348  0.291199  1
  Al  Al13  1  0.250000  0.189399  0.299233  1
  Al  Al14  1  0.750000  0.145376  0.883714  1
  Al  Al15  1  0.250000  0.923652  0.791199  1
  Al  Al16  1  0.750000  0.368336  0.008240  1
  Al  Al17  1  0.750000  0.612597  0.482878  1
  Al  Al18  1  0.750000  0.131664  0.508240  1
  Al  Al19  1  0.250000  0.112597  0.017122  1
  Al  Al20  1  0.250000  0.854624  0.116286  1
  Al  Al21  1  0.250000  0.387403  0.517122  1
  Al  Al22  1  0.750000  0.423652  0.708801  1
  Al  Al23  1  0.750000  0.810601  0.700767  1
  Pt  Pt24  1  0.750000  0.384000  0.262940  1
  Pt  Pt25  1  0.250000  0.884000  0.237060  1
  Pt  Pt26  1  0.250000  0.616000  0.737060  1
  Pt  Pt27  1  0.750000  0.116000  0.762940  1
  Pt  Pt28  1  0.250000  0.164073  0.428081  1
  Pt  Pt29  1  0.750000  0.422686  0.584344  1
  Pt  Pt30  1  0.750000  0.077314  0.084344  1
  Pt  Pt31  1  0.250000  0.922686  0.915656  1
  Pt  Pt32  1  0.750000  0.835927  0.571919  1
  Pt  Pt33  1  0.250000  0.335927  0.928081  1
  Pt  Pt34  1  0.750000  0.664073  0.071919  1
  Pt  Pt35  1  0.250000  0.577314  0.415656  1
