# generated using pymatgen
data_Er3ThHgRh
_symmetry_space_group_name_H-M   'P 1'
_cell_length_a   9.64723251
_cell_length_b   9.64723336
_cell_length_c   9.64723300
_cell_angle_alpha   59.99999782
_cell_angle_beta   59.99999489
_cell_angle_gamma   59.99999952
_symmetry_Int_Tables_number   1
_chemical_formula_structural   Er3ThHgRh
_chemical_formula_sum   'Er12 Th4 Hg4 Rh4'
_cell_volume   634.88238001
_cell_formula_units_Z   4
loop_
 _symmetry_equiv_pos_site_id
 _symmetry_equiv_pos_as_xyz
  1  'x, y, z'
loop_
 _atom_site_type_symbol
 _atom_site_label
 _atom_site_symmetry_multiplicity
 _atom_site_fract_x
 _atom_site_fract_y
 _atom_site_fract_z
 _atom_site_occupancy
  Er  Er0  1  0.813177  0.186823  0.186823  1
  Er  Er1  1  0.186823  0.813177  0.813177  1
  Er  Er2  1  0.186823  0.813177  0.186823  1
  Er  Er3  1  0.813177  0.186823  0.813177  1
  Er  Er4  1  0.186823  0.186823  0.813177  1
  Er  Er5  1  0.813177  0.813177  0.186823  1
  Er  Er6  1  0.934500  0.565500  0.565500  1
  Er  Er7  1  0.565500  0.934500  0.934500  1
  Er  Er8  1  0.565500  0.934500  0.565500  1
  Er  Er9  1  0.934500  0.565500  0.934500  1
  Er  Er10  1  0.565500  0.565500  0.934500  1
  Er  Er11  1  0.934500  0.934500  0.565500  1
  Th  Th12  1  0.352022  0.352022  0.352022  1
  Th  Th13  1  0.352022  0.352022  0.943932  1
  Th  Th14  1  0.352022  0.943932  0.352022  1
  Th  Th15  1  0.943932  0.352022  0.352022  1
  Hg  Hg16  1  0.587570  0.587570  0.587570  1
  Hg  Hg17  1  0.587570  0.587570  0.237289  1
  Hg  Hg18  1  0.587570  0.237289  0.587570  1
  Hg  Hg19  1  0.237289  0.587570  0.587570  1
  Rh  Rh20  1  0.143679  0.143679  0.143679  1
  Rh  Rh21  1  0.143679  0.143679  0.568960  1
  Rh  Rh22  1  0.143679  0.568960  0.143679  1
  Rh  Rh23  1  0.568960  0.143679  0.143679  1
