# generated using pymatgen
data_PrCdIrRhO7
_symmetry_space_group_name_H-M   'P 1'
_cell_length_a   7.32495695
_cell_length_b   7.32495721
_cell_length_c   7.23808000
_cell_angle_alpha   60.39157969
_cell_angle_beta   60.39157855
_cell_angle_gamma   61.30283119
_symmetry_Int_Tables_number   1
_chemical_formula_structural   PrCdIrRhO7
_chemical_formula_sum   'Pr2 Cd2 Ir2 Rh2 O14'
_cell_volume   278.87485419
_cell_formula_units_Z   2
loop_
 _symmetry_equiv_pos_site_id
 _symmetry_equiv_pos_as_xyz
  1  'x, y, z'
loop_
 _atom_site_type_symbol
 _atom_site_label
 _atom_site_symmetry_multiplicity
 _atom_site_fract_x
 _atom_site_fract_y
 _atom_site_fract_z
 _atom_site_occupancy
  Pr  Pr0  1  0.625000  0.125000  0.125000  1
  Pr  Pr1  1  0.125000  0.625000  0.125000  1
  Cd  Cd2  1  0.125000  0.125000  0.625000  1
  Cd  Cd3  1  0.125000  0.125000  0.125000  1
  Ir  Ir4  1  0.125000  0.625000  0.625000  1
  Ir  Ir5  1  0.625000  0.125000  0.625000  1
  Rh  Rh6  1  0.625000  0.625000  0.625000  1
  Rh  Rh7  1  0.625000  0.625000  0.125000  1
  O  O8  1  0.953184  0.546615  0.551422  1
  O  O9  1  0.306297  0.306297  0.693703  1
  O  O10  1  0.953184  0.546615  0.948779  1
  O  O11  1  0.703385  0.296816  0.301221  1
  O  O12  1  0.537031  0.537031  0.962969  1
  O  O13  1  0.546615  0.953184  0.551422  1
  O  O14  1  0.546615  0.953184  0.948779  1
  O  O15  1  0.238544  0.238544  0.261456  1
  O  O16  1  0.296816  0.703385  0.698578  1
  O  O17  1  0.703385  0.296816  0.698578  1
  O  O18  1  0.011456  0.011456  0.988544  1
  O  O19  1  0.943703  0.943703  0.556297  1
  O  O20  1  0.296816  0.703385  0.301221  1
  O  O21  1  0.712969  0.712969  0.287031  1
