# generated using pymatgen
data_HoEr11(LuRh3)2
_symmetry_space_group_name_H-M   'P 1'
_cell_length_a   9.69755300
_cell_length_b   9.69801459
_cell_length_c   6.13130340
_cell_angle_alpha   89.96435425
_cell_angle_beta   90.00000000
_cell_angle_gamma   119.99842211
_symmetry_Int_Tables_number   1
_chemical_formula_structural   HoEr11(LuRh3)2
_chemical_formula_sum   'Ho1 Er11 Lu2 Rh6'
_cell_volume   499.38469346
_cell_formula_units_Z   1
loop_
 _symmetry_equiv_pos_site_id
 _symmetry_equiv_pos_as_xyz
  1  'x, y, z'
loop_
 _atom_site_type_symbol
 _atom_site_label
 _atom_site_symmetry_multiplicity
 _atom_site_fract_x
 _atom_site_fract_y
 _atom_site_fract_z
 _atom_site_occupancy
  Ho  Ho0  1  0.459138  0.918278  0.947626  1
  Er  Er1  1  0.123678  0.876352  0.254343  1
  Er  Er2  1  0.752673  0.876352  0.254343  1
  Er  Er3  1  0.123653  0.247308  0.254271  1
  Er  Er4  1  0.876332  0.123715  0.754236  1
  Er  Er5  1  0.247384  0.123715  0.754236  1
  Er  Er6  1  0.876342  0.752683  0.754360  1
  Er  Er7  1  0.541000  0.459088  0.447420  1
  Er  Er8  1  0.918089  0.459088  0.447420  1
  Er  Er9  1  0.541037  0.082073  0.447297  1
  Er  Er10  1  0.459115  0.540756  0.947315  1
  Er  Er11  1  0.081641  0.540756  0.947315  1
  Lu  Lu12  1  0.333285  0.666572  0.457879  1
  Lu  Lu13  1  0.666737  0.333473  0.958079  1
  Rh  Rh14  1  0.809707  0.190607  0.179714  1
  Rh  Rh15  1  0.380899  0.190607  0.179714  1
  Rh  Rh16  1  0.809501  0.619003  0.179574  1
  Rh  Rh17  1  0.190089  0.809318  0.679291  1
  Rh  Rh18  1  0.619229  0.809318  0.679291  1
  Rh  Rh19  1  0.190470  0.380940  0.679819  1
