# generated using pymatgen
data_Tb2Y2Ga18Rh5Au
_symmetry_space_group_name_H-M   'P 1'
_cell_length_a   7.62648444
_cell_length_b   7.62654741
_cell_length_c   9.53790800
_cell_angle_alpha   89.98118476
_cell_angle_beta   89.98035582
_cell_angle_gamma   119.79475296
_symmetry_Int_Tables_number   1
_chemical_formula_structural   Tb2Y2Ga18Rh5Au
_chemical_formula_sum   'Tb2 Y2 Ga18 Rh5 Au1'
_cell_volume   481.42709159
_cell_formula_units_Z   1
loop_
 _symmetry_equiv_pos_site_id
 _symmetry_equiv_pos_as_xyz
  1  'x, y, z'
loop_
 _atom_site_type_symbol
 _atom_site_label
 _atom_site_symmetry_multiplicity
 _atom_site_fract_x
 _atom_site_fract_y
 _atom_site_fract_z
 _atom_site_occupancy
  Tb  Tb0  1  0.993018  0.664271  0.250463  1
  Tb  Tb1  1  0.998795  0.329831  0.750012  1
  Y  Y2  1  0.670173  0.001205  0.249991  1
  Y  Y3  1  0.335727  0.006984  0.749535  1
  Ga  Ga4  1  0.329505  0.330707  0.562743  1
  Ga  Ga5  1  0.669290  0.670497  0.437259  1
  Ga  Ga6  1  0.667344  0.675176  0.070335  1
  Ga  Ga7  1  0.324828  0.332653  0.929665  1
  Ga  Ga8  1  0.340718  0.551017  0.251635  1
  Ga  Ga9  1  0.661314  0.462415  0.741932  1
  Ga  Ga10  1  0.537589  0.338698  0.258067  1
  Ga  Ga11  1  0.448979  0.659271  0.748364  1
  Ga  Ga12  1  0.011782  0.334433  0.083273  1
  Ga  Ga13  1  0.010561  0.675170  0.917457  1
  Ga  Ga14  1  0.003123  0.666640  0.578054  1
  Ga  Ga15  1  0.333367  0.996879  0.421946  1
  Ga  Ga16  1  0.999908  0.334019  0.421194  1
  Ga  Ga17  1  0.665972  0.000089  0.578804  1
  Ga  Ga18  1  0.665561  0.988215  0.916728  1
  Ga  Ga19  1  0.324837  0.989442  0.082540  1
  Ga  Ga20  1  0.124542  0.120954  0.251235  1
  Ga  Ga21  1  0.879042  0.875463  0.748765  1
  Rh  Rh22  1  0.000353  0.999645  0.000000  1
  Rh  Rh23  1  0.999962  0.000036  0.500000  1
  Rh  Rh24  1  0.330024  0.669972  0.000001  1
  Rh  Rh25  1  0.328795  0.671202  0.499999  1
  Rh  Rh26  1  0.672136  0.327870  0.500001  1
  Au  Au27  1  0.672755  0.327250  0.999999  1
