# generated using pymatgen
data_Ho6Co16Si11Tc2P
_symmetry_space_group_name_H-M   'P 1'
_cell_length_a   3.80279100
_cell_length_b   10.67834209
_cell_length_c   12.39145708
_cell_angle_alpha   89.98602943
_cell_angle_beta   90.00000000
_cell_angle_gamma   90.00000000
_symmetry_Int_Tables_number   1
_chemical_formula_structural   Ho6Co16Si11Tc2P
_chemical_formula_sum   'Ho6 Co16 Si11 Tc2 P1'
_cell_volume   503.18611804
_cell_formula_units_Z   1
loop_
 _symmetry_equiv_pos_site_id
 _symmetry_equiv_pos_as_xyz
  1  'x, y, z'
loop_
 _atom_site_type_symbol
 _atom_site_label
 _atom_site_symmetry_multiplicity
 _atom_site_fract_x
 _atom_site_fract_y
 _atom_site_fract_z
 _atom_site_occupancy
  Ho  Ho0  1  0.000000  0.500026  0.524772  1
  Ho  Ho1  1  0.500000  0.000139  0.474589  1
  Ho  Ho2  1  0.500000  0.817634  0.205265  1
  Ho  Ho3  1  0.500000  0.184616  0.203631  1
  Ho  Ho4  1  0.000000  0.682101  0.795800  1
  Ho  Ho5  1  0.000000  0.317532  0.793752  1
  Co  Co6  1  0.000000  0.495909  0.984776  1
  Co  Co7  1  0.500000  0.001577  0.019033  1
  Co  Co8  1  0.500000  0.301671  0.429037  1
  Co  Co9  1  0.500000  0.698422  0.430799  1
  Co  Co10  1  0.000000  0.198995  0.568303  1
  Co  Co11  1  0.000000  0.801353  0.569559  1
  Co  Co12  1  0.500000  0.881944  0.707042  1
  Co  Co13  1  0.500000  0.118957  0.706307  1
  Co  Co14  1  0.000000  0.617589  0.293025  1
  Co  Co15  1  0.000000  0.380594  0.288246  1
  Co  Co16  1  0.500000  0.330245  0.995203  1
  Co  Co17  1  0.500000  0.667881  0.993872  1
  Co  Co18  1  0.000000  0.172241  0.008948  1
  Co  Co19  1  0.000000  0.831053  0.006882  1
  Co  Co20  1  0.500000  0.499848  0.695912  1
  Co  Co21  1  0.000000  0.000032  0.304633  1
  Si  Si22  1  0.500000  0.303442  0.612705  1
  Si  Si23  1  0.500000  0.697025  0.614235  1
  Si  Si24  1  0.000000  0.197276  0.384873  1
  Si  Si25  1  0.000000  0.802580  0.386202  1
  Si  Si26  1  0.500000  0.499085  0.882707  1
  Si  Si27  1  0.000000  0.000170  0.118138  1
  Si  Si28  1  0.500000  0.849578  0.894504  1
  Si  Si29  1  0.500000  0.151408  0.893527  1
  Si  Si30  1  0.000000  0.651090  0.106578  1
  Si  Si31  1  0.500000  0.500128  0.341707  1
  Si  Si32  1  0.000000  0.000281  0.658638  1
  Tc  Tc33  1  0.500000  0.498370  0.149004  1
  Tc  Tc34  1  0.000000  0.001257  0.852010  1
  P  P35  1  0.000000  0.347953  0.105787  1
