# generated using pymatgen
data_NdTh3Os8
_symmetry_space_group_name_H-M   'P 1'
_cell_length_a   5.41545900
_cell_length_b   5.41545919
_cell_length_c   9.07507500
_cell_angle_alpha   90.00000000
_cell_angle_beta   90.00000000
_cell_angle_gamma   120.00000494
_symmetry_Int_Tables_number   1
_chemical_formula_structural   NdTh3Os8
_chemical_formula_sum   'Nd1 Th3 Os8'
_cell_volume   230.48963105
_cell_formula_units_Z   1
loop_
 _symmetry_equiv_pos_site_id
 _symmetry_equiv_pos_as_xyz
  1  'x, y, z'
loop_
 _atom_site_type_symbol
 _atom_site_label
 _atom_site_symmetry_multiplicity
 _atom_site_fract_x
 _atom_site_fract_y
 _atom_site_fract_z
 _atom_site_occupancy
  Nd  Nd0  1  0.333333  0.666667  0.065002  1
  Th  Th1  1  0.333333  0.666667  0.428780  1
  Th  Th2  1  0.666667  0.333333  0.568879  1
  Th  Th3  1  0.666667  0.333333  0.933399  1
  Os  Os4  1  0.170613  0.341226  0.750376  1
  Os  Os5  1  0.170613  0.829387  0.750376  1
  Os  Os6  1  0.340855  0.170428  0.250115  1
  Os  Os7  1  0.829572  0.659145  0.250115  1
  Os  Os8  1  0.658774  0.829387  0.750376  1
  Os  Os9  1  0.000000  0.000000  0.002198  1
  Os  Os10  1  0.829572  0.170428  0.250115  1
  Os  Os11  1  0.000000  0.000000  0.500268  1
