# generated using pymatgen
data_CsRh5Se8
_symmetry_space_group_name_H-M   'P 1'
_cell_length_a   9.90738127
_cell_length_b   9.90738123
_cell_length_c   8.94277241
_cell_angle_alpha   75.21916805
_cell_angle_beta   75.21916882
_cell_angle_gamma   21.82460540
_symmetry_Int_Tables_number   1
_chemical_formula_structural   CsRh5Se8
_chemical_formula_sum   'Cs1 Rh5 Se8'
_cell_volume   315.12517850
_cell_formula_units_Z   1
loop_
 _symmetry_equiv_pos_site_id
 _symmetry_equiv_pos_as_xyz
  1  'x, y, z'
loop_
 _atom_site_type_symbol
 _atom_site_label
 _atom_site_symmetry_multiplicity
 _atom_site_fract_x
 _atom_site_fract_y
 _atom_site_fract_z
 _atom_site_occupancy
  Cs  Cs0  1  0.500000  0.500000  0.500000  1
  Rh  Rh1  1  0.000000  0.000000  0.000000  1
  Rh  Rh2  1  0.660512  0.660512  0.021654  1
  Rh  Rh3  1  0.339488  0.339488  0.978346  1
  Rh  Rh4  1  0.296759  0.296759  0.325050  1
  Rh  Rh5  1  0.703241  0.703241  0.674950  1
  Se  Se6  1  0.575414  0.575414  0.860683  1
  Se  Se7  1  0.424586  0.424586  0.139317  1
  Se  Se8  1  0.910517  0.910517  0.838128  1
  Se  Se9  1  0.089483  0.089483  0.161872  1
  Se  Se10  1  0.821931  0.821931  0.486193  1
  Se  Se11  1  0.178069  0.178069  0.513807  1
  Se  Se12  1  0.237405  0.237405  0.847474  1
  Se  Se13  1  0.762595  0.762595  0.152526  1
