# generated using pymatgen
data_FeCo3(PRu)4
_symmetry_space_group_name_H-M   'P 1'
_cell_length_a   3.71847600
_cell_length_b   5.72697870
_cell_length_c   6.69063375
_cell_angle_alpha   90.55150207
_cell_angle_beta   90.00000000
_cell_angle_gamma   90.00000000
_symmetry_Int_Tables_number   1
_chemical_formula_structural   FeCo3(PRu)4
_chemical_formula_sum   'Fe1 Co3 P4 Ru4'
_cell_volume   142.47467944
_cell_formula_units_Z   1
loop_
 _symmetry_equiv_pos_site_id
 _symmetry_equiv_pos_as_xyz
  1  'x, y, z'
loop_
 _atom_site_type_symbol
 _atom_site_label
 _atom_site_symmetry_multiplicity
 _atom_site_fract_x
 _atom_site_fract_y
 _atom_site_fract_z
 _atom_site_occupancy
  Fe  Fe0  1  0.250000  0.361424  0.566940  1
  Co  Co1  1  0.750000  0.640300  0.431241  1
  Co  Co2  1  0.250000  0.861041  0.933008  1
  Co  Co3  1  0.750000  0.138684  0.068654  1
  P  P4  1  0.250000  0.739989  0.618600  1
  P  P5  1  0.750000  0.260202  0.382712  1
  P  P6  1  0.250000  0.239278  0.880409  1
  P  P7  1  0.750000  0.759567  0.118511  1
  Ru  Ru8  1  0.750000  0.024238  0.666802  1
  Ru  Ru9  1  0.250000  0.975399  0.334933  1
  Ru  Ru10  1  0.750000  0.523299  0.831475  1
  Ru  Ru11  1  0.250000  0.476579  0.166713  1
