# generated using pymatgen
data_Tm3UZn4Ir3Rh
_symmetry_space_group_name_H-M   'P 1'
_cell_length_a   3.85510600
_cell_length_b   7.02615833
_cell_length_c   8.27257565
_cell_angle_alpha   90.52624178
_cell_angle_beta   90.00000000
_cell_angle_gamma   90.00000000
_symmetry_Int_Tables_number   1
_chemical_formula_structural   Tm3UZn4Ir3Rh
_chemical_formula_sum   'Tm3 U1 Zn4 Ir3 Rh1'
_cell_volume   224.06637338
_cell_formula_units_Z   1
loop_
 _symmetry_equiv_pos_site_id
 _symmetry_equiv_pos_as_xyz
  1  'x, y, z'
loop_
 _atom_site_type_symbol
 _atom_site_label
 _atom_site_symmetry_multiplicity
 _atom_site_fract_x
 _atom_site_fract_y
 _atom_site_fract_z
 _atom_site_occupancy
  Tm  Tm0  1  0.750000  0.446399  0.811432  1
  Tm  Tm1  1  0.750000  0.939578  0.685537  1
  Tm  Tm2  1  0.250000  0.052367  0.321235  1
  U  U3  1  0.250000  0.551224  0.179434  1
  Zn  Zn4  1  0.250000  0.620500  0.563537  1
  Zn  Zn5  1  0.750000  0.367985  0.443314  1
  Zn  Zn6  1  0.750000  0.892263  0.063372  1
  Zn  Zn7  1  0.250000  0.130645  0.934924  1
  Ir  Ir8  1  0.250000  0.742404  0.885447  1
  Ir  Ir9  1  0.750000  0.280873  0.130732  1
  Ir  Ir10  1  0.750000  0.741034  0.355692  1
  Rh  Rh11  1  0.250000  0.234728  0.625344  1
