# generated using pymatgen
data_DyY3Ga16Co2Tc
_symmetry_space_group_name_H-M   'P 1'
_cell_length_a   6.07450500
_cell_length_b   6.07502900
_cell_length_c   11.19660300
_cell_angle_alpha   90.00000000
_cell_angle_beta   90.00000000
_cell_angle_gamma   90.00000000
_symmetry_Int_Tables_number   1
_chemical_formula_structural   DyY3Ga16Co2Tc
_chemical_formula_sum   'Dy1 Y3 Ga16 Co2 Tc1'
_cell_volume   413.18593441
_cell_formula_units_Z   1
loop_
 _symmetry_equiv_pos_site_id
 _symmetry_equiv_pos_as_xyz
  1  'x, y, z'
loop_
 _atom_site_type_symbol
 _atom_site_label
 _atom_site_symmetry_multiplicity
 _atom_site_fract_x
 _atom_site_fract_y
 _atom_site_fract_z
 _atom_site_occupancy
  Dy  Dy0  1  0.000000  0.500000  0.193506  1
  Y  Y1  1  0.500000  0.000000  0.806579  1
  Y  Y2  1  0.000000  0.500000  0.806531  1
  Y  Y3  1  0.500000  0.000000  0.193464  1
  Ga  Ga4  1  0.249839  0.249839  0.614467  1
  Ga  Ga5  1  0.750161  0.750161  0.614467  1
  Ga  Ga6  1  0.750161  0.249839  0.614467  1
  Ga  Ga7  1  0.249839  0.750161  0.614467  1
  Ga  Ga8  1  0.750254  0.750073  0.385439  1
  Ga  Ga9  1  0.249746  0.249927  0.385439  1
  Ga  Ga10  1  0.249746  0.750073  0.385439  1
  Ga  Ga11  1  0.750254  0.249927  0.385439  1
  Ga  Ga12  1  0.287731  0.287911  0.000077  1
  Ga  Ga13  1  0.712269  0.712089  0.000077  1
  Ga  Ga14  1  0.712269  0.287911  0.000077  1
  Ga  Ga15  1  0.287731  0.712089  0.000077  1
  Ga  Ga16  1  0.500000  0.500000  0.798778  1
  Ga  Ga17  1  0.500000  0.500000  0.201213  1
  Ga  Ga18  1  0.000000  0.000000  0.774308  1
  Ga  Ga19  1  0.000000  0.000000  0.225695  1
  Co  Co20  1  0.500000  0.000000  0.500006  1
  Co  Co21  1  0.000000  0.500000  0.499974  1
  Tc  Tc22  1  0.000000  0.000000  0.000009  1
