# generated using pymatgen
data_SmTh2(BN2)2
_symmetry_space_group_name_H-M   'P 1'
_cell_length_a   6.46466469
_cell_length_b   6.46466528
_cell_length_c   6.46466567
_cell_angle_alpha   148.12275936
_cell_angle_beta   121.93548823
_cell_angle_gamma   67.78113460
_symmetry_Int_Tables_number   1
_chemical_formula_structural   SmTh2(BN2)2
_chemical_formula_sum   'Sm1 Th2 B2 N4'
_cell_volume   119.55147827
_cell_formula_units_Z   1
loop_
 _symmetry_equiv_pos_site_id
 _symmetry_equiv_pos_as_xyz
  1  'x, y, z'
loop_
 _atom_site_type_symbol
 _atom_site_label
 _atom_site_symmetry_multiplicity
 _atom_site_fract_x
 _atom_site_fract_y
 _atom_site_fract_z
 _atom_site_occupancy
  Sm  Sm0  1  0.304211  0.804211  0.500000  1
  Th  Th1  1  0.699668  0.199668  0.500000  1
  Th  Th2  1  0.001125  0.001125  0.000000  1
  B  B3  1  0.358934  0.498413  0.860521  1
  B  B4  1  0.637892  0.498413  0.139479  1
  N  N5  1  0.357768  0.619660  0.738108  1
  N  N6  1  0.881551  0.619660  0.261892  1
  N  N7  1  0.116164  0.379426  0.736737  1
  N  N8  1  0.642689  0.379426  0.263263  1
