# generated using pymatgen
data_Y10AlSb5
_symmetry_space_group_name_H-M   'P 1'
_cell_length_a   6.41228800
_cell_length_b   8.95214898
_cell_length_c   8.93854702
_cell_angle_alpha   120.05035490
_cell_angle_beta   90.00005247
_cell_angle_gamma   89.99991084
_symmetry_Int_Tables_number   1
_chemical_formula_structural   Y10AlSb5
_chemical_formula_sum   'Y10 Al1 Sb5'
_cell_volume   444.13734558
_cell_formula_units_Z   1
loop_
 _symmetry_equiv_pos_site_id
 _symmetry_equiv_pos_as_xyz
  1  'x, y, z'
loop_
 _atom_site_type_symbol
 _atom_site_label
 _atom_site_symmetry_multiplicity
 _atom_site_fract_x
 _atom_site_fract_y
 _atom_site_fract_z
 _atom_site_occupancy
  Y  Y0  1  0.501129  0.338010  0.672660  1
  Y  Y1  1  0.501129  0.665350  0.327340  1
  Y  Y2  1  0.998870  0.665351  0.327343  1
  Y  Y3  1  0.998870  0.338008  0.672657  1
  Y  Y4  1  0.749998  0.248462  0.000000  1
  Y  Y5  1  0.750000  0.753123  0.761875  1
  Y  Y6  1  0.750000  0.991248  0.238125  1
  Y  Y7  1  0.249999  0.756387  0.000000  1
  Y  Y8  1  0.250003  0.246146  0.245082  1
  Y  Y9  1  0.250003  0.001064  0.754918  1
  Al  Al10  1  0.750001  0.604802  0.000000  1
  Sb  Sb11  1  0.750001  0.387932  0.389646  1
  Sb  Sb12  1  0.750001  0.998284  0.610354  1
  Sb  Sb13  1  0.249996  0.392090  0.000000  1
  Sb  Sb14  1  0.250001  0.611320  0.608896  1
  Sb  Sb15  1  0.250001  0.002425  0.391104  1
