# generated using pymatgen
data_Ac2YbPt9
_symmetry_space_group_name_H-M   'P 1'
_cell_length_a   9.52883088
_cell_length_b   9.52882986
_cell_length_c   9.52882938
_cell_angle_alpha   33.72221423
_cell_angle_beta   33.72222236
_cell_angle_gamma   33.72221817
_symmetry_Int_Tables_number   1
_chemical_formula_structural   Ac2YbPt9
_chemical_formula_sum   'Ac2 Yb1 Pt9'
_cell_volume   237.58936888
_cell_formula_units_Z   1
loop_
 _symmetry_equiv_pos_site_id
 _symmetry_equiv_pos_as_xyz
  1  'x, y, z'
loop_
 _atom_site_type_symbol
 _atom_site_label
 _atom_site_symmetry_multiplicity
 _atom_site_fract_x
 _atom_site_fract_y
 _atom_site_fract_z
 _atom_site_occupancy
  Ac  Ac0  1  0.996823  0.996823  0.996823  1
  Ac  Ac1  1  0.142683  0.142683  0.142683  1
  Yb  Yb2  1  0.860746  0.860746  0.860746  1
  Pt  Pt3  1  0.585949  0.585949  0.080981  1
  Pt  Pt4  1  0.332302  0.332302  0.332302  1
  Pt  Pt5  1  0.917355  0.414531  0.414532  1
  Pt  Pt6  1  0.414531  0.917355  0.414532  1
  Pt  Pt7  1  0.500508  0.500508  0.500508  1
  Pt  Pt8  1  0.585950  0.080980  0.585949  1
  Pt  Pt9  1  0.080980  0.585950  0.585949  1
  Pt  Pt10  1  0.667640  0.667640  0.667640  1
  Pt  Pt11  1  0.414532  0.414532  0.917355  1
