# generated using pymatgen
data_Tb5Nd2Ho3TlIn7Pd4
_symmetry_space_group_name_H-M   'P 1'
_cell_length_a   3.65289900
_cell_length_b   8.21770529
_cell_length_c   18.44877400
_cell_angle_alpha   89.94874012
_cell_angle_beta   90.00000000
_cell_angle_gamma   90.00000000
_symmetry_Int_Tables_number   1
_chemical_formula_structural   Tb5Nd2Ho3TlIn7Pd4
_chemical_formula_sum   'Tb5 Nd2 Ho3 Tl1 In7 Pd4'
_cell_volume   553.80333086
_cell_formula_units_Z   1
loop_
 _symmetry_equiv_pos_site_id
 _symmetry_equiv_pos_as_xyz
  1  'x, y, z'
loop_
 _atom_site_type_symbol
 _atom_site_label
 _atom_site_symmetry_multiplicity
 _atom_site_fract_x
 _atom_site_fract_y
 _atom_site_fract_z
 _atom_site_occupancy
  Tb  Tb0  1  0.000000  0.739195  0.281714  1
  Tb  Tb1  1  0.000000  0.261112  0.718307  1
  Tb  Tb2  1  0.000000  0.761230  0.781265  1
  Tb  Tb3  1  0.000000  0.238951  0.218808  1
  Tb  Tb4  1  0.000000  0.619597  0.083992  1
  Nd  Nd5  1  0.000000  0.500092  0.500086  1
  Nd  Nd6  1  0.000000  0.000515  0.000047  1
  Ho  Ho7  1  0.000000  0.379975  0.915716  1
  Ho  Ho8  1  0.000000  0.880502  0.584128  1
  Ho  Ho9  1  0.000000  0.119571  0.416040  1
  Tl  Tl10  1  0.500000  0.702221  0.931418  1
  In  In11  1  0.500000  0.297026  0.068499  1
  In  In12  1  0.500000  0.798917  0.431831  1
  In  In13  1  0.500000  0.201177  0.568153  1
  In  In14  1  0.500000  0.583197  0.652603  1
  In  In15  1  0.500000  0.416832  0.347512  1
  In  In16  1  0.500000  0.918400  0.152921  1
  In  In17  1  0.500000  0.084410  0.847139  1
  Pd  Pd18  1  0.500000  0.523656  0.195733  1
  Pd  Pd19  1  0.500000  0.473699  0.803938  1
  Pd  Pd20  1  0.500000  0.975489  0.695252  1
  Pd  Pd21  1  0.500000  0.024237  0.304900  1
