# generated using pymatgen
data_TbDy7Y12(CoSb2)4
_symmetry_space_group_name_H-M   'P 1'
_cell_length_a   7.94180564
_cell_length_b   8.75713812
_cell_length_c   12.25605293
_cell_angle_alpha   90.01152000
_cell_angle_beta   89.95690011
_cell_angle_gamma   90.01551221
_symmetry_Int_Tables_number   1
_chemical_formula_structural   TbDy7Y12(CoSb2)4
_chemical_formula_sum   'Tb1 Dy7 Y12 Co4 Sb8'
_cell_volume   852.37741541
_cell_formula_units_Z   1
loop_
 _symmetry_equiv_pos_site_id
 _symmetry_equiv_pos_as_xyz
  1  'x, y, z'
loop_
 _atom_site_type_symbol
 _atom_site_label
 _atom_site_symmetry_multiplicity
 _atom_site_fract_x
 _atom_site_fract_y
 _atom_site_fract_z
 _atom_site_occupancy
  Tb  Tb0  1  0.321516  0.466203  0.435338  1
  Dy  Dy1  1  0.822465  0.965955  0.064722  1
  Dy  Dy2  1  0.322636  0.033876  0.435342  1
  Dy  Dy3  1  0.177518  0.465647  0.935287  1
  Dy  Dy4  1  0.677615  0.534358  0.564840  1
  Dy  Dy5  1  0.177513  0.034333  0.935247  1
  Dy  Dy6  1  0.677354  0.965596  0.564781  1
  Dy  Dy7  1  0.822450  0.534029  0.064698  1
  Y  Y8  1  0.154635  0.750060  0.203637  1
  Y  Y9  1  0.654937  0.249834  0.296254  1
  Y  Y10  1  0.845395  0.249971  0.796439  1
  Y  Y11  1  0.345339  0.750108  0.703633  1
  Y  Y12  1  0.457246  0.750024  0.998458  1
  Y  Y13  1  0.956794  0.249842  0.501528  1
  Y  Y14  1  0.542871  0.249964  0.001510  1
  Y  Y15  1  0.042458  0.750227  0.498508  1
  Y  Y16  1  0.623706  0.750197  0.305006  1
  Y  Y17  1  0.123466  0.250027  0.194802  1
  Y  Y18  1  0.376693  0.249718  0.695140  1
  Y  Y19  1  0.876376  0.750017  0.804990  1
  Co  Co20  1  0.437129  0.750232  0.490287  1
  Co  Co21  1  0.936872  0.249999  0.009644  1
  Co  Co22  1  0.563916  0.249591  0.509858  1
  Co  Co23  1  0.063088  0.749995  0.990364  1
  Sb  Sb24  1  0.928585  0.991763  0.326779  1
  Sb  Sb25  1  0.428492  0.008277  0.173187  1
  Sb  Sb26  1  0.071651  0.491731  0.673183  1
  Sb  Sb27  1  0.571533  0.508279  0.826825  1
  Sb  Sb28  1  0.071517  0.008272  0.673184  1
  Sb  Sb29  1  0.571578  0.991723  0.826887  1
  Sb  Sb30  1  0.927999  0.508375  0.326670  1
  Sb  Sb31  1  0.428659  0.491776  0.172973  1
