# generated using pymatgen
data_Th2CuSi4Ni
_symmetry_space_group_name_H-M   'P 1'
_cell_length_a   8.48520941
_cell_length_b   8.48521013
_cell_length_c   4.13933300
_cell_angle_alpha   90.00000000
_cell_angle_beta   90.00000000
_cell_angle_gamma   151.39020669
_symmetry_Int_Tables_number   1
_chemical_formula_structural   Th2CuSi4Ni
_chemical_formula_sum   'Th2 Cu1 Si4 Ni1'
_cell_volume   142.70779517
_cell_formula_units_Z   1
loop_
 _symmetry_equiv_pos_site_id
 _symmetry_equiv_pos_as_xyz
  1  'x, y, z'
loop_
 _atom_site_type_symbol
 _atom_site_label
 _atom_site_symmetry_multiplicity
 _atom_site_fract_x
 _atom_site_fract_y
 _atom_site_fract_z
 _atom_site_occupancy
  Th  Th0  1  0.603128  0.396872  0.250000  1
  Th  Th1  1  0.394669  0.605331  0.750000  1
  Cu  Cu2  1  0.822980  0.177020  0.250000  1
  Si  Si3  1  0.964928  0.035072  0.250000  1
  Si  Si4  1  0.038825  0.961175  0.750000  1
  Si  Si5  1  0.248488  0.751512  0.250000  1
  Si  Si6  1  0.746584  0.253416  0.750000  1
  Ni  Ni7  1  0.180398  0.819602  0.750000  1
