# generated using pymatgen
data_Dy16MgCd2AgIr4
_symmetry_space_group_name_H-M   'P 1'
_cell_length_a   9.64284542
_cell_length_b   9.64284520
_cell_length_c   9.65682730
_cell_angle_alpha   59.91827327
_cell_angle_beta   59.91827225
_cell_angle_gamma   59.78860021
_symmetry_Int_Tables_number   1
_chemical_formula_structural   Dy16MgCd2AgIr4
_chemical_formula_sum   'Dy16 Mg1 Cd2 Ag1 Ir4'
_cell_volume   633.13354948
_cell_formula_units_Z   1
loop_
 _symmetry_equiv_pos_site_id
 _symmetry_equiv_pos_as_xyz
  1  'x, y, z'
loop_
 _atom_site_type_symbol
 _atom_site_label
 _atom_site_symmetry_multiplicity
 _atom_site_fract_x
 _atom_site_fract_y
 _atom_site_fract_z
 _atom_site_occupancy
  Dy  Dy0  1  0.597488  0.597488  0.598133  1
  Dy  Dy1  1  0.600223  0.600223  0.201512  1
  Dy  Dy2  1  0.598755  0.205757  0.599770  1
  Dy  Dy3  1  0.205757  0.598755  0.599770  1
  Dy  Dy4  1  0.060776  0.438451  0.438436  1
  Dy  Dy5  1  0.438063  0.059653  0.059306  1
  Dy  Dy6  1  0.438451  0.060776  0.438436  1
  Dy  Dy7  1  0.059653  0.438063  0.059306  1
  Dy  Dy8  1  0.439832  0.439832  0.059331  1
  Dy  Dy9  1  0.061476  0.061476  0.435850  1
  Dy  Dy10  1  0.186495  0.811717  0.811539  1
  Dy  Dy11  1  0.811599  0.188319  0.185411  1
  Dy  Dy12  1  0.811717  0.186495  0.811539  1
  Dy  Dy13  1  0.188319  0.811599  0.185411  1
  Dy  Dy14  1  0.811697  0.811697  0.185163  1
  Dy  Dy15  1  0.186684  0.186684  0.811820  1
  Mg  Mg16  1  0.826582  0.826582  0.522611  1
  Cd  Cd17  1  0.832087  0.506149  0.831818  1
  Cd  Cd18  1  0.506149  0.832087  0.831818  1
  Ag  Ag19  1  0.834028  0.834028  0.831924  1
  Ir  Ir20  1  0.392102  0.392102  0.391047  1
  Ir  Ir21  1  0.392915  0.392915  0.826302  1
  Ir  Ir22  1  0.393373  0.825776  0.391872  1
  Ir  Ir23  1  0.825776  0.393373  0.391872  1
