# generated using pymatgen
data_Hf18Mo8AsSe
_symmetry_space_group_name_H-M   'P 1'
_cell_length_a   8.71756800
_cell_length_b   8.71759130
_cell_length_c   8.65156100
_cell_angle_alpha   89.99996219
_cell_angle_beta   90.00002639
_cell_angle_gamma   119.99908014
_symmetry_Int_Tables_number   1
_chemical_formula_structural   Hf18Mo8AsSe
_chemical_formula_sum   'Hf18 Mo8 As1 Se1'
_cell_volume   569.40461052
_cell_formula_units_Z   1
loop_
 _symmetry_equiv_pos_site_id
 _symmetry_equiv_pos_as_xyz
  1  'x, y, z'
loop_
 _atom_site_type_symbol
 _atom_site_label
 _atom_site_symmetry_multiplicity
 _atom_site_fract_x
 _atom_site_fract_y
 _atom_site_fract_z
 _atom_site_occupancy
  Hf  Hf0  1  0.195097  0.390197  0.044202  1
  Hf  Hf1  1  0.195106  0.804897  0.044203  1
  Hf  Hf2  1  0.609792  0.804899  0.044208  1
  Hf  Hf3  1  0.541375  0.082747  0.250000  1
  Hf  Hf4  1  0.541375  0.458622  0.250000  1
  Hf  Hf5  1  0.917249  0.458621  0.250000  1
  Hf  Hf6  1  0.195105  0.804898  0.455797  1
  Hf  Hf7  1  0.609794  0.804900  0.455792  1
  Hf  Hf8  1  0.195096  0.390196  0.455798  1
  Hf  Hf9  1  0.804664  0.609323  0.544854  1
  Hf  Hf10  1  0.390687  0.195341  0.544859  1
  Hf  Hf11  1  0.804657  0.195344  0.544855  1
  Hf  Hf12  1  0.079064  0.539533  0.750000  1
  Hf  Hf13  1  0.460467  0.539532  0.749999  1
  Hf  Hf14  1  0.460469  0.920942  0.750000  1
  Hf  Hf15  1  0.390688  0.195342  0.955142  1
  Hf  Hf16  1  0.804656  0.195345  0.955146  1
  Hf  Hf17  1  0.804663  0.609321  0.955146  1
  Mo  Mo18  1  0.000001  0.000001  0.999696  1
  Mo  Mo19  1  0.220756  0.110375  0.250001  1
  Mo  Mo20  1  0.889617  0.110375  0.250001  1
  Mo  Mo21  1  0.889623  0.779247  0.250001  1
  Mo  Mo22  1  0.000001  0.000001  0.500304  1
  Mo  Mo23  1  0.110360  0.220718  0.749999  1
  Mo  Mo24  1  0.110364  0.889643  0.749999  1
  Mo  Mo25  1  0.779281  0.889643  0.749999  1
  As  As26  1  0.666672  0.333345  0.749999  1
  Se  Se27  1  0.333326  0.666652  0.250001  1
