# generated using pymatgen
data_CeTlPt4
_symmetry_space_group_name_H-M   'P 1'
_cell_length_a   5.46649205
_cell_length_b   5.46649189
_cell_length_c   5.46649200
_cell_angle_alpha   59.99999932
_cell_angle_beta   60.00000031
_cell_angle_gamma   60.00000271
_symmetry_Int_Tables_number   1
_chemical_formula_structural   CeTlPt4
_chemical_formula_sum   'Ce1 Tl1 Pt4'
_cell_volume   115.50775830
_cell_formula_units_Z   1
loop_
 _symmetry_equiv_pos_site_id
 _symmetry_equiv_pos_as_xyz
  1  'x, y, z'
loop_
 _atom_site_type_symbol
 _atom_site_label
 _atom_site_symmetry_multiplicity
 _atom_site_fract_x
 _atom_site_fract_y
 _atom_site_fract_z
 _atom_site_occupancy
  Ce  Ce0  1  0.499999  0.499999  0.499999  1
  Tl  Tl1  1  0.750000  0.750000  0.750000  1
  Pt  Pt2  1  0.625959  0.124680  0.124680  1
  Pt  Pt3  1  0.124680  0.625959  0.124680  1
  Pt  Pt4  1  0.124680  0.124680  0.124680  1
  Pt  Pt5  1  0.124680  0.124680  0.625959  1
