# generated using pymatgen
data_Nd3In3HgRh2
_symmetry_space_group_name_H-M   'P 1'
_cell_length_a   7.97303600
_cell_length_b   7.97303588
_cell_length_c   3.94168800
_cell_angle_alpha   90.00000000
_cell_angle_beta   90.00000000
_cell_angle_gamma   120.00000882
_symmetry_Int_Tables_number   1
_chemical_formula_structural   Nd3In3HgRh2
_chemical_formula_sum   'Nd3 In3 Hg1 Rh2'
_cell_volume   217.00027369
_cell_formula_units_Z   1
loop_
 _symmetry_equiv_pos_site_id
 _symmetry_equiv_pos_as_xyz
  1  'x, y, z'
loop_
 _atom_site_type_symbol
 _atom_site_label
 _atom_site_symmetry_multiplicity
 _atom_site_fract_x
 _atom_site_fract_y
 _atom_site_fract_z
 _atom_site_occupancy
  Nd  Nd0  1  0.606314  0.025913  0.500000  1
  Nd  Nd1  1  0.419598  0.393686  0.500000  1
  Nd  Nd2  1  0.974087  0.580402  0.500000  1
  In  In3  1  0.251060  0.003558  0.000000  1
  In  In4  1  0.752499  0.748940  0.000000  1
  In  In5  1  0.996442  0.247501  0.000000  1
  Hg  Hg6  1  0.333333  0.666667  0.000000  1
  Rh  Rh7  1  0.000000  0.000000  0.500000  1
  Rh  Rh8  1  0.666667  0.333333  0.000000  1
