# generated using pymatgen
data_SmDySn(PRh2)6
_symmetry_space_group_name_H-M   'P 1'
_cell_length_a   9.80225000
_cell_length_b   9.80224955
_cell_length_c   3.87656800
_cell_angle_alpha   90.00000000
_cell_angle_beta   90.00000000
_cell_angle_gamma   120.00000150
_symmetry_Int_Tables_number   1
_chemical_formula_structural   SmDySn(PRh2)6
_chemical_formula_sum   'Sm1 Dy1 Sn1 P6 Rh12'
_cell_volume   322.57414979
_cell_formula_units_Z   1
loop_
 _symmetry_equiv_pos_site_id
 _symmetry_equiv_pos_as_xyz
  1  'x, y, z'
loop_
 _atom_site_type_symbol
 _atom_site_label
 _atom_site_symmetry_multiplicity
 _atom_site_fract_x
 _atom_site_fract_y
 _atom_site_fract_z
 _atom_site_occupancy
  Sm  Sm0  1  0.333333  0.666667  0.752912  1
  Dy  Dy1  1  0.666667  0.333333  0.247370  1
  Sn  Sn2  1  0.000000  0.000000  0.495927  1
  P  P3  1  0.405688  0.288347  0.746438  1
  P  P4  1  0.711653  0.117341  0.746438  1
  P  P5  1  0.882659  0.594312  0.746438  1
  P  P6  1  0.595643  0.712261  0.253955  1
  P  P7  1  0.287739  0.883382  0.253955  1
  P  P8  1  0.116618  0.404357  0.253955  1
  Rh  Rh9  1  0.453663  0.068735  0.747469  1
  Rh  Rh10  1  0.931265  0.384928  0.747469  1
  Rh  Rh11  1  0.615072  0.546337  0.747469  1
  Rh  Rh12  1  0.548620  0.935485  0.252873  1
  Rh  Rh13  1  0.064515  0.613135  0.252873  1
  Rh  Rh14  1  0.386865  0.451380  0.252873  1
  Rh  Rh15  1  0.161096  0.286729  0.759540  1
  Rh  Rh16  1  0.713271  0.874368  0.759540  1
  Rh  Rh17  1  0.125632  0.838904  0.759540  1
  Rh  Rh18  1  0.838618  0.712491  0.240989  1
  Rh  Rh19  1  0.287509  0.126126  0.240989  1
  Rh  Rh20  1  0.873874  0.161382  0.240989  1
