# generated using pymatgen
data_YbDy3Er4(B6Ru)4
_symmetry_space_group_name_H-M   'P 1'
_cell_length_a   3.64534600
_cell_length_b   9.11482206
_cell_length_c   11.50198900
_cell_angle_alpha   89.91410544
_cell_angle_beta   90.00000000
_cell_angle_gamma   90.00000000
_symmetry_Int_Tables_number   1
_chemical_formula_structural   YbDy3Er4(B6Ru)4
_chemical_formula_sum   'Yb1 Dy3 Er4 B24 Ru4'
_cell_volume   382.17247989
_cell_formula_units_Z   1
loop_
 _symmetry_equiv_pos_site_id
 _symmetry_equiv_pos_as_xyz
  1  'x, y, z'
loop_
 _atom_site_type_symbol
 _atom_site_label
 _atom_site_symmetry_multiplicity
 _atom_site_fract_x
 _atom_site_fract_y
 _atom_site_fract_z
 _atom_site_occupancy
  Yb  Yb0  1  0.000000  0.323157  0.413814  1
  Dy  Dy1  1  0.000000  0.676173  0.584961  1
  Dy  Dy2  1  0.000000  0.822225  0.086295  1
  Dy  Dy3  1  0.000000  0.178269  0.914539  1
  Er  Er4  1  0.000000  0.943872  0.371280  1
  Er  Er5  1  0.000000  0.058165  0.627931  1
  Er  Er6  1  0.000000  0.442692  0.129650  1
  Er  Er7  1  0.000000  0.556419  0.872101  1
  B  B8  1  0.500000  0.553900  0.432500  1
  B  B9  1  0.500000  0.445782  0.567442  1
  B  B10  1  0.500000  0.053407  0.066723  1
  B  B11  1  0.500000  0.945830  0.932371  1
  B  B12  1  0.500000  0.748482  0.419010  1
  B  B13  1  0.500000  0.252071  0.581036  1
  B  B14  1  0.500000  0.247836  0.080745  1
  B  B15  1  0.500000  0.751525  0.919349  1
  B  B16  1  0.500000  0.791138  0.266009  1
  B  B17  1  0.500000  0.209916  0.734225  1
  B  B18  1  0.500000  0.289774  0.233799  1
  B  B19  1  0.500000  0.709455  0.766168  1
  B  B20  1  0.500000  0.631238  0.185759  1
  B  B21  1  0.500000  0.369189  0.815299  1
  B  B22  1  0.500000  0.130672  0.314192  1
  B  B23  1  0.500000  0.869204  0.684986  1
  B  B24  1  0.500000  0.982959  0.211954  1
  B  B25  1  0.500000  0.016974  0.787123  1
  B  B26  1  0.500000  0.483316  0.287729  1
  B  B27  1  0.500000  0.516798  0.712829  1
  B  B28  1  0.500000  0.606554  0.029694  1
  B  B29  1  0.500000  0.393598  0.970996  1
  B  B30  1  0.500000  0.103546  0.471272  1
  B  B31  1  0.500000  0.895570  0.528832  1
  Ru  Ru32  1  0.000000  0.639253  0.320260  1
  Ru  Ru33  1  0.000000  0.362058  0.680421  1
  Ru  Ru34  1  0.000000  0.136788  0.177980  1
  Ru  Ru35  1  0.000000  0.862196  0.820727  1
