# generated using pymatgen
data_Sc4Mn2CoB4Rh9
_symmetry_space_group_name_H-M   'P 1'
_cell_length_a   9.33591789
_cell_length_b   9.33591860
_cell_length_c   3.05307500
_cell_angle_alpha   90.00000000
_cell_angle_beta   90.00000000
_cell_angle_gamma   90.36116792
_symmetry_Int_Tables_number   1
_chemical_formula_structural   Sc4Mn2CoB4Rh9
_chemical_formula_sum   'Sc4 Mn2 Co1 B4 Rh9'
_cell_volume   266.09880516
_cell_formula_units_Z   1
loop_
 _symmetry_equiv_pos_site_id
 _symmetry_equiv_pos_as_xyz
  1  'x, y, z'
loop_
 _atom_site_type_symbol
 _atom_site_label
 _atom_site_symmetry_multiplicity
 _atom_site_fract_x
 _atom_site_fract_y
 _atom_site_fract_z
 _atom_site_occupancy
  Sc  Sc0  1  0.820594  0.320594  0.000000  1
  Sc  Sc1  1  0.327951  0.172049  0.000000  1
  Sc  Sc2  1  0.672049  0.827951  0.000000  1
  Sc  Sc3  1  0.179406  0.679406  0.000000  1
  Mn  Mn4  1  0.000000  0.000000  0.000000  1
  Mn  Mn5  1  0.500000  0.500000  0.000000  1
  Co  Co6  1  0.500000  0.000000  0.500000  1
  B  B7  1  0.612544  0.112544  0.000000  1
  B  B8  1  0.124881  0.375119  0.000000  1
  B  B9  1  0.875119  0.624881  0.000000  1
  B  B10  1  0.387456  0.887456  0.000000  1
  Rh  Rh11  1  0.069497  0.217315  0.500000  1
  Rh  Rh12  1  0.223807  0.933912  0.500000  1
  Rh  Rh13  1  0.776193  0.066088  0.500000  1
  Rh  Rh14  1  0.930503  0.782685  0.500000  1
  Rh  Rh15  1  0.433912  0.723807  0.500000  1
  Rh  Rh16  1  0.566088  0.276193  0.500000  1
  Rh  Rh17  1  0.717315  0.569497  0.500000  1
  Rh  Rh18  1  0.282685  0.430503  0.500000  1
  Rh  Rh19  1  0.000000  0.500000  0.500000  1
