# generated using pymatgen
data_Tb3YbU4(ReB6)4
_symmetry_space_group_name_H-M   'P 1'
_cell_length_a   3.64529900
_cell_length_b   9.29938929
_cell_length_c   11.41951592
_cell_angle_alpha   89.98271807
_cell_angle_beta   90.00000000
_cell_angle_gamma   90.00000000
_symmetry_Int_Tables_number   1
_chemical_formula_structural   Tb3YbU4(ReB6)4
_chemical_formula_sum   'Tb3 Yb1 U4 Re4 B24'
_cell_volume   387.11077481
_cell_formula_units_Z   1
loop_
 _symmetry_equiv_pos_site_id
 _symmetry_equiv_pos_as_xyz
  1  'x, y, z'
loop_
 _atom_site_type_symbol
 _atom_site_label
 _atom_site_symmetry_multiplicity
 _atom_site_fract_x
 _atom_site_fract_y
 _atom_site_fract_z
 _atom_site_occupancy
  Tb  Tb0  1  0.000000  0.662241  0.591247  1
  Tb  Tb1  1  0.000000  0.837026  0.092491  1
  Tb  Tb2  1  0.000000  0.163030  0.908196  1
  Yb  Yb3  1  0.000000  0.337648  0.408127  1
  U  U4  1  0.000000  0.957321  0.395512  1
  U  U5  1  0.000000  0.044950  0.603289  1
  U  U6  1  0.000000  0.456105  0.104887  1
  U  U7  1  0.000000  0.543202  0.896213  1
  Re  Re8  1  0.000000  0.647316  0.318017  1
  Re  Re9  1  0.000000  0.353527  0.682666  1
  Re  Re10  1  0.000000  0.145440  0.181531  1
  Re  Re11  1  0.000000  0.853821  0.817874  1
  B  B12  1  0.500000  0.552047  0.430455  1
  B  B13  1  0.500000  0.446878  0.568967  1
  B  B14  1  0.500000  0.052441  0.069126  1
  B  B15  1  0.500000  0.947322  0.930374  1
  B  B16  1  0.500000  0.743637  0.422579  1
  B  B17  1  0.500000  0.256785  0.577293  1
  B  B18  1  0.500000  0.243304  0.077637  1
  B  B19  1  0.500000  0.756159  0.922532  1
  B  B20  1  0.500000  0.802547  0.275313  1
  B  B21  1  0.500000  0.198051  0.724719  1
  B  B22  1  0.500000  0.301908  0.225293  1
  B  B23  1  0.500000  0.697709  0.774889  1
  B  B24  1  0.500000  0.644256  0.189070  1
  B  B25  1  0.500000  0.355788  0.811704  1
  B  B26  1  0.500000  0.144123  0.311229  1
  B  B27  1  0.500000  0.855912  0.688177  1
  B  B28  1  0.500000  0.989985  0.219542  1
  B  B29  1  0.500000  0.010093  0.780067  1
  B  B30  1  0.500000  0.489829  0.281125  1
  B  B31  1  0.500000  0.509858  0.719459  1
  B  B32  1  0.500000  0.638837  0.038740  1
  B  B33  1  0.500000  0.361074  0.961917  1
  B  B34  1  0.500000  0.138045  0.461498  1
  B  B35  1  0.500000  0.861786  0.538249  1
