# generated using pymatgen
data_TbHo2Ta3(B2Ru5)2
_symmetry_space_group_name_H-M   'P 1'
_cell_length_a   9.60370993
_cell_length_b   9.58986379
_cell_length_c   3.11624300
_cell_angle_alpha   90.00000000
_cell_angle_beta   90.00000000
_cell_angle_gamma   90.50100196
_symmetry_Int_Tables_number   1
_chemical_formula_structural   TbHo2Ta3(B2Ru5)2
_chemical_formula_sum   'Tb1 Ho2 Ta3 B4 Ru10'
_cell_volume   286.98961758
_cell_formula_units_Z   1
loop_
 _symmetry_equiv_pos_site_id
 _symmetry_equiv_pos_as_xyz
  1  'x, y, z'
loop_
 _atom_site_type_symbol
 _atom_site_label
 _atom_site_symmetry_multiplicity
 _atom_site_fract_x
 _atom_site_fract_y
 _atom_site_fract_z
 _atom_site_occupancy
  Tb  Tb0  1  0.824044  0.674600  0.000000  1
  Ho  Ho1  1  0.174889  0.323954  0.000000  1
  Ho  Ho2  1  0.325689  0.825859  0.000000  1
  Ta  Ta3  1  0.675891  0.175719  0.000000  1
  Ta  Ta4  1  0.497719  0.502923  0.000000  1
  Ta  Ta5  1  0.003152  0.998119  0.000000  1
  B  B6  1  0.623089  0.882156  0.000000  1
  B  B7  1  0.381152  0.123993  0.000000  1
  B  B8  1  0.119618  0.618734  0.000000  1
  B  B9  1  0.876013  0.375100  0.000000  1
  Ru  Ru10  1  0.570429  0.722357  0.500000  1
  Ru  Ru11  1  0.440422  0.280954  0.500000  1
  Ru  Ru12  1  0.070236  0.780668  0.500000  1
  Ru  Ru13  1  0.916052  0.212717  0.500000  1
  Ru  Ru14  1  0.280537  0.569318  0.500000  1
  Ru  Ru15  1  0.712994  0.414843  0.500000  1
  Ru  Ru16  1  0.222154  0.071356  0.500000  1
  Ru  Ru17  1  0.780183  0.941376  0.500000  1
  Ru  Ru18  1  0.509392  0.010066  0.500000  1
  Ru  Ru19  1  0.996344  0.495187  0.500000  1
