# generated using pymatgen
data_Dy2Lu3(In2Au)2
_symmetry_space_group_name_H-M   'P 1'
_cell_length_a   3.60789500
_cell_length_b   8.18758932
_cell_length_c   18.26422232
_cell_angle_alpha   89.65087398
_cell_angle_beta   90.00000000
_cell_angle_gamma   90.00000000
_symmetry_Int_Tables_number   1
_chemical_formula_structural   Dy2Lu3(In2Au)2
_chemical_formula_sum   'Dy4 Lu6 In8 Au4'
_cell_volume   539.51442771
_cell_formula_units_Z   2
loop_
 _symmetry_equiv_pos_site_id
 _symmetry_equiv_pos_as_xyz
  1  'x, y, z'
loop_
 _atom_site_type_symbol
 _atom_site_label
 _atom_site_symmetry_multiplicity
 _atom_site_fract_x
 _atom_site_fract_y
 _atom_site_fract_z
 _atom_site_occupancy
  Dy  Dy0  1  0.000000  0.500000  0.500000  1
  Dy  Dy1  1  0.000000  0.000000  0.000000  1
  Dy  Dy2  1  0.000000  0.736266  0.284342  1
  Dy  Dy3  1  0.000000  0.263734  0.715658  1
  Lu  Lu4  1  0.000000  0.763543  0.784011  1
  Lu  Lu5  1  0.000000  0.236457  0.215989  1
  Lu  Lu6  1  0.000000  0.620817  0.080497  1
  Lu  Lu7  1  0.000000  0.379183  0.919503  1
  Lu  Lu8  1  0.000000  0.877700  0.580188  1
  Lu  Lu9  1  0.000000  0.122300  0.419812  1
  In  In10  1  0.500000  0.706125  0.934949  1
  In  In11  1  0.500000  0.293875  0.065051  1
  In  In12  1  0.500000  0.797216  0.435952  1
  In  In13  1  0.500000  0.202784  0.564048  1
  In  In14  1  0.500000  0.584911  0.647770  1
  In  In15  1  0.500000  0.415089  0.352230  1
  In  In16  1  0.500000  0.917877  0.147521  1
  In  In17  1  0.500000  0.082123  0.852479  1
  Au  Au18  1  0.500000  0.523529  0.195542  1
  Au  Au19  1  0.500000  0.476471  0.804458  1
  Au  Au20  1  0.500000  0.966933  0.696156  1
  Au  Au21  1  0.500000  0.033067  0.303844  1
