# generated using pymatgen
data_Na2Ag3Pd
_symmetry_space_group_name_H-M   'P 1'
_cell_length_a   5.59991177
_cell_length_b   5.59991173
_cell_length_c   5.59991179
_cell_angle_alpha   60.22211154
_cell_angle_beta   60.22211233
_cell_angle_gamma   60.22210252
_symmetry_Int_Tables_number   1
_chemical_formula_structural   Na2Ag3Pd
_chemical_formula_sum   'Na2 Ag3 Pd1'
_cell_volume   124.79782081
_cell_formula_units_Z   1
loop_
 _symmetry_equiv_pos_site_id
 _symmetry_equiv_pos_as_xyz
  1  'x, y, z'
loop_
 _atom_site_type_symbol
 _atom_site_label
 _atom_site_symmetry_multiplicity
 _atom_site_fract_x
 _atom_site_fract_y
 _atom_site_fract_z
 _atom_site_occupancy
  Na  Na0  1  0.499099  0.499099  0.499099  1
  Na  Na1  1  0.750901  0.750901  0.750901  1
  Ag  Ag2  1  0.625000  0.125000  0.125000  1
  Ag  Ag3  1  0.125000  0.125000  0.625000  1
  Ag  Ag4  1  0.125000  0.625000  0.125000  1
  Pd  Pd5  1  0.125000  0.125000  0.125000  1
