# generated using pymatgen
data_Re2IrRu5
_symmetry_space_group_name_H-M   'P 1'
_cell_length_a   5.49625400
_cell_length_b   5.49393184
_cell_length_c   4.34915700
_cell_angle_alpha   90.00000000
_cell_angle_beta   90.00000000
_cell_angle_gamma   120.01398304
_symmetry_Int_Tables_number   1
_chemical_formula_structural   Re2IrRu5
_chemical_formula_sum   'Re2 Ir1 Ru5'
_cell_volume   113.71678387
_cell_formula_units_Z   1
loop_
 _symmetry_equiv_pos_site_id
 _symmetry_equiv_pos_as_xyz
  1  'x, y, z'
loop_
 _atom_site_type_symbol
 _atom_site_label
 _atom_site_symmetry_multiplicity
 _atom_site_fract_x
 _atom_site_fract_y
 _atom_site_fract_z
 _atom_site_occupancy
  Re  Re0  1  0.335785  0.671570  0.750000  1
  Re  Re1  1  0.666114  0.332227  0.250000  1
  Ir  Ir2  1  0.166581  0.333161  0.250000  1
  Ru  Ru3  1  0.666312  0.834107  0.250000  1
  Ru  Ru4  1  0.167795  0.834107  0.250000  1
  Ru  Ru5  1  0.832399  0.664797  0.750000  1
  Ru  Ru6  1  0.334823  0.165016  0.750000  1
  Ru  Ru7  1  0.830193  0.165016  0.750000  1
