# generated using pymatgen
data_Pr16Hg4Pd3Rh
_symmetry_space_group_name_H-M   'P 1'
_cell_length_a   10.05103931
_cell_length_b   10.07869748
_cell_length_c   10.07869700
_cell_angle_alpha   59.99999830
_cell_angle_beta   59.90892857
_cell_angle_gamma   59.90893183
_symmetry_Int_Tables_number   1
_chemical_formula_structural   Pr16Hg4Pd3Rh
_chemical_formula_sum   'Pr16 Hg4 Pd3 Rh1'
_cell_volume   720.95071788
_cell_formula_units_Z   1
loop_
 _symmetry_equiv_pos_site_id
 _symmetry_equiv_pos_as_xyz
  1  'x, y, z'
loop_
 _atom_site_type_symbol
 _atom_site_label
 _atom_site_symmetry_multiplicity
 _atom_site_fract_x
 _atom_site_fract_y
 _atom_site_fract_z
 _atom_site_occupancy
  Pr  Pr0  1  0.354578  0.348502  0.348502  1
  Pr  Pr1  1  0.354578  0.348502  0.948416  1
  Pr  Pr2  1  0.354578  0.948416  0.348502  1
  Pr  Pr3  1  0.937709  0.354096  0.354096  1
  Pr  Pr4  1  0.805279  0.190911  0.190911  1
  Pr  Pr5  1  0.194659  0.806673  0.806672  1
  Pr  Pr6  1  0.194659  0.806672  0.191996  1
  Pr  Pr7  1  0.805279  0.190911  0.812900  1
  Pr  Pr8  1  0.194659  0.191997  0.806672  1
  Pr  Pr9  1  0.805280  0.812901  0.190910  1
  Pr  Pr10  1  0.937722  0.564367  0.564367  1
  Pr  Pr11  1  0.567066  0.935597  0.935597  1
  Pr  Pr12  1  0.567066  0.935597  0.561740  1
  Pr  Pr13  1  0.937722  0.564367  0.933545  1
  Pr  Pr14  1  0.567066  0.561740  0.935597  1
  Pr  Pr15  1  0.937722  0.933545  0.564367  1
  Hg  Hg16  1  0.581270  0.584582  0.584582  1
  Hg  Hg17  1  0.581270  0.584582  0.249566  1
  Hg  Hg18  1  0.581270  0.249566  0.584582  1
  Hg  Hg19  1  0.250964  0.583012  0.583012  1
  Pd  Pd20  1  0.139690  0.145184  0.145184  1
  Pd  Pd21  1  0.139690  0.145184  0.569942  1
  Pd  Pd22  1  0.139690  0.569942  0.145184  1
  Rh  Rh23  1  0.570535  0.143155  0.143155  1
