# generated using pymatgen
data_Ti3V2SiGe2C
_symmetry_space_group_name_H-M   'P 1'
_cell_length_a   7.44058082
_cell_length_b   7.44058119
_cell_length_c   5.08043700
_cell_angle_alpha   90.00000000
_cell_angle_beta   90.00000000
_cell_angle_gamma   120.35558094
_symmetry_Int_Tables_number   1
_chemical_formula_structural   Ti3V2SiGe2C
_chemical_formula_sum   'Ti6 V4 Si2 Ge4 C2'
_cell_volume   242.70465989
_cell_formula_units_Z   2
loop_
 _symmetry_equiv_pos_site_id
 _symmetry_equiv_pos_as_xyz
  1  'x, y, z'
loop_
 _atom_site_type_symbol
 _atom_site_label
 _atom_site_symmetry_multiplicity
 _atom_site_fract_x
 _atom_site_fract_y
 _atom_site_fract_z
 _atom_site_occupancy
  Ti  Ti0  1  0.232189  0.003402  0.250000  1
  Ti  Ti1  1  0.767811  0.996598  0.750000  1
  Ti  Ti2  1  0.003402  0.232189  0.250000  1
  Ti  Ti3  1  0.996598  0.767811  0.750000  1
  Ti  Ti4  1  0.765614  0.765614  0.250000  1
  Ti  Ti5  1  0.234386  0.234386  0.750000  1
  V  V6  1  0.336353  0.663647  0.000000  1
  V  V7  1  0.663647  0.336353  0.000000  1
  V  V8  1  0.663647  0.336353  0.500000  1
  V  V9  1  0.336353  0.663647  0.500000  1
  Si  Si10  1  0.409427  0.409427  0.250000  1
  Si  Si11  1  0.590573  0.590573  0.750000  1
  Ge  Ge12  1  0.593799  0.001337  0.250000  1
  Ge  Ge13  1  0.406201  0.998663  0.750000  1
  Ge  Ge14  1  0.001337  0.593799  0.250000  1
  Ge  Ge15  1  0.998663  0.406201  0.750000  1
  C  C16  1  0.000000  0.000000  0.000000  1
  C  C17  1  0.000000  0.000000  0.500000  1
