# generated using pymatgen
data_Dy4Sc4Mn(B8Ir)3
_symmetry_space_group_name_H-M   'P 1'
_cell_length_a   3.53420600
_cell_length_b   8.97654400
_cell_length_c   11.35913000
_cell_angle_alpha   90.00124120
_cell_angle_beta   89.99986959
_cell_angle_gamma   89.99860078
_symmetry_Int_Tables_number   1
_chemical_formula_structural   Dy4Sc4Mn(B8Ir)3
_chemical_formula_sum   'Dy4 Sc4 Mn1 B24 Ir3'
_cell_volume   360.36789554
_cell_formula_units_Z   1
loop_
 _symmetry_equiv_pos_site_id
 _symmetry_equiv_pos_as_xyz
  1  'x, y, z'
loop_
 _atom_site_type_symbol
 _atom_site_label
 _atom_site_symmetry_multiplicity
 _atom_site_fract_x
 _atom_site_fract_y
 _atom_site_fract_z
 _atom_site_occupancy
  Dy  Dy0  1  0.500013  0.316088  0.409561  1
  Dy  Dy1  1  0.499938  0.680571  0.585589  1
  Dy  Dy2  1  0.499926  0.179615  0.918838  1
  Dy  Dy3  1  0.499988  0.824462  0.087829  1
  Sc  Sc4  1  0.500054  0.438680  0.124914  1
  Sc  Sc5  1  0.499854  0.555222  0.876667  1
  Sc  Sc6  1  0.499620  0.055505  0.623969  1
  Sc  Sc7  1  0.500029  0.949544  0.371801  1
  Mn  Mn8  1  0.500916  0.140256  0.181940  1
  B  B9  1  0.999922  0.100191  0.472635  1
  B  B10  1  0.999933  0.900335  0.526630  1
  B  B11  1  0.999952  0.399244  0.973277  1
  B  B12  1  0.999950  0.600342  0.027351  1
  B  B13  1  0.000108  0.129673  0.314895  1
  B  B14  1  0.999820  0.870416  0.681116  1
  B  B15  1  0.999874  0.370582  0.819331  1
  B  B16  1  0.000112  0.629200  0.181794  1
  B  B17  1  0.000092  0.055942  0.069203  1
  B  B18  1  0.999881  0.945880  0.934508  1
  B  B19  1  0.999903  0.444726  0.565750  1
  B  B20  1  0.000100  0.554104  0.432975  1
  B  B21  1  0.000180  0.480531  0.284665  1
  B  B22  1  0.999843  0.518679  0.715533  1
  B  B23  1  0.999772  0.018974  0.785456  1
  B  B24  1  0.000183  0.984656  0.213769  1
  B  B25  1  0.000100  0.251120  0.083296  1
  B  B26  1  0.999847  0.746206  0.920520  1
  B  B27  1  0.999848  0.245582  0.579751  1
  B  B28  1  0.000112  0.755177  0.418735  1
  B  B29  1  0.000169  0.292223  0.233507  1
  B  B30  1  0.999817  0.705110  0.764643  1
  B  B31  1  0.999811  0.205432  0.735689  1
  B  B32  1  0.000155  0.795850  0.264995  1
  Ir  Ir33  1  0.499854  0.859801  0.819084  1
  Ir  Ir34  1  0.500007  0.359622  0.680913  1
  Ir  Ir35  1  0.500317  0.640459  0.318872  1
