# generated using pymatgen
data_La3Sn3Ir2Pt
_symmetry_space_group_name_H-M   'P 1'
_cell_length_a   7.63393500
_cell_length_b   7.63393556
_cell_length_c   4.21973400
_cell_angle_alpha   90.00000000
_cell_angle_beta   90.00000000
_cell_angle_gamma   120.00000190
_symmetry_Int_Tables_number   1
_chemical_formula_structural   La3Sn3Ir2Pt
_chemical_formula_sum   'La3 Sn3 Ir2 Pt1'
_cell_volume   212.96716321
_cell_formula_units_Z   1
loop_
 _symmetry_equiv_pos_site_id
 _symmetry_equiv_pos_as_xyz
  1  'x, y, z'
loop_
 _atom_site_type_symbol
 _atom_site_label
 _atom_site_symmetry_multiplicity
 _atom_site_fract_x
 _atom_site_fract_y
 _atom_site_fract_z
 _atom_site_occupancy
  La  La0  1  0.589899  0.005647  0.000000  1
  La  La1  1  0.994353  0.584252  0.000000  1
  La  La2  1  0.415748  0.410101  0.000000  1
  Sn  Sn3  1  0.248597  0.003202  0.500000  1
  Sn  Sn4  1  0.996798  0.245395  0.500000  1
  Sn  Sn5  1  0.754605  0.751403  0.500000  1
  Ir  Ir6  1  0.666667  0.333333  0.500000  1
  Ir  Ir7  1  0.000000  0.000000  0.000000  1
  Pt  Pt8  1  0.333333  0.666667  0.500000  1
