# generated using pymatgen
data_BeV2Si5MoW7
_symmetry_space_group_name_H-M   'P 1'
_cell_length_a   7.22024711
_cell_length_b   7.22194032
_cell_length_c   7.21405028
_cell_angle_alpha   96.52254308
_cell_angle_beta   96.29287381
_cell_angle_gamma   140.99691545
_symmetry_Int_Tables_number   1
_chemical_formula_structural   BeV2Si5MoW7
_chemical_formula_sum   'Be1 V2 Si5 Mo1 W7'
_cell_volume   223.12570458
_cell_formula_units_Z   1
loop_
 _symmetry_equiv_pos_site_id
 _symmetry_equiv_pos_as_xyz
  1  'x, y, z'
loop_
 _atom_site_type_symbol
 _atom_site_label
 _atom_site_symmetry_multiplicity
 _atom_site_fract_x
 _atom_site_fract_y
 _atom_site_fract_z
 _atom_site_occupancy
  Be  Be0  1  0.249682  0.249676  0.999849  1
  V  V1  1  0.249787  0.750287  0.499651  1
  V  V2  1  0.749458  0.249867  0.499689  1
  Si  Si3  1  0.749216  0.749583  0.999105  1
  Si  Si4  1  0.164161  0.662822  0.827116  1
  Si  Si5  1  0.836114  0.336298  0.172583  1
  Si  Si6  1  0.336068  0.164349  0.500477  1
  Si  Si7  1  0.664522  0.837035  0.500964  1
  Mo  Mo8  1  0.273565  0.420361  0.699958  1
  W  W9  1  0.079170  0.227220  0.299261  1
  W  W10  1  0.927722  0.779418  0.700694  1
  W  W11  1  0.780210  0.080520  0.853120  1
  W  W12  1  0.420779  0.720051  0.148017  1
  W  W13  1  0.226794  0.927211  0.147189  1
  W  W14  1  0.572722  0.272442  0.852505  1
  W  W15  1  0.720030  0.572859  0.299820  1
