# generated using pymatgen
data_Hf3BeN
_symmetry_space_group_name_H-M   'P 1'
_cell_length_a   5.72487967
_cell_length_b   5.72487968
_cell_length_c   8.54284500
_cell_angle_alpha   90.00000000
_cell_angle_beta   90.00000000
_cell_angle_gamma   146.46578534
_symmetry_Int_Tables_number   1
_chemical_formula_structural   Hf3BeN
_chemical_formula_sum   'Hf6 Be2 N2'
_cell_volume   154.67364498
_cell_formula_units_Z   2
loop_
 _symmetry_equiv_pos_site_id
 _symmetry_equiv_pos_as_xyz
  1  'x, y, z'
loop_
 _atom_site_type_symbol
 _atom_site_label
 _atom_site_symmetry_multiplicity
 _atom_site_fract_x
 _atom_site_fract_y
 _atom_site_fract_z
 _atom_site_occupancy
  Hf  Hf0  1  0.632029  0.367971  0.943556  1
  Hf  Hf1  1  0.367971  0.632029  0.443556  1
  Hf  Hf2  1  0.367971  0.632029  0.056444  1
  Hf  Hf3  1  0.632029  0.367971  0.556444  1
  Hf  Hf4  1  0.939183  0.060817  0.750000  1
  Hf  Hf5  1  0.060817  0.939183  0.250000  1
  Be  Be6  1  0.256420  0.743580  0.750000  1
  Be  Be7  1  0.743580  0.256420  0.250000  1
  N  N8  1  0.000000  0.000000  0.000000  1
  N  N9  1  0.000000  0.000000  0.500000  1
