# generated using pymatgen
data_Ti12Si11P
_symmetry_space_group_name_H-M   'P 1'
_cell_length_a   4.99960751
_cell_length_b   3.62340800
_cell_length_c   19.80711548
_cell_angle_alpha   90.00000000
_cell_angle_beta   97.23813704
_cell_angle_gamma   90.00000000
_symmetry_Int_Tables_number   1
_chemical_formula_structural   Ti12Si11P
_chemical_formula_sum   'Ti12 Si11 P1'
_cell_volume   355.95873354
_cell_formula_units_Z   1
loop_
 _symmetry_equiv_pos_site_id
 _symmetry_equiv_pos_as_xyz
  1  'x, y, z'
loop_
 _atom_site_type_symbol
 _atom_site_label
 _atom_site_symmetry_multiplicity
 _atom_site_fract_x
 _atom_site_fract_y
 _atom_site_fract_z
 _atom_site_occupancy
  Ti  Ti0  1  0.655935  0.250001  0.058430  1
  Ti  Ti1  1  0.181789  0.750001  0.105093  1
  Ti  Ti2  1  0.492931  0.250001  0.225511  1
  Ti  Ti3  1  0.016972  0.750001  0.274767  1
  Ti  Ti4  1  0.818597  0.250001  0.392139  1
  Ti  Ti5  1  0.342620  0.750001  0.441393  1
  Ti  Ti6  1  0.657364  0.250001  0.558481  1
  Ti  Ti7  1  0.181443  0.750001  0.607811  1
  Ti  Ti8  1  0.983270  0.250001  0.725257  1
  Ti  Ti9  1  0.508067  0.750001  0.774377  1
  Ti  Ti10  1  0.822209  0.250001  0.893957  1
  Ti  Ti11  1  0.340251  0.750001  0.942939  1
  Si  Si12  1  0.682626  0.750001  0.151840  1
  Si  Si13  1  0.989429  0.250001  0.180970  1
  Si  Si14  1  0.555728  0.750001  0.318700  1
  Si  Si15  1  0.279041  0.250001  0.348571  1
  Si  Si16  1  0.846995  0.750001  0.485167  1
  Si  Si17  1  0.153242  0.250001  0.514887  1
  Si  Si18  1  0.721262  0.750001  0.651434  1
  Si  Si19  1  0.444016  0.250001  0.681130  1
  Si  Si20  1  0.011332  0.750001  0.819285  1
  Si  Si21  1  0.318701  0.250001  0.847831  1
  Si  Si22  1  0.841478  0.750001  0.985656  1
  P  P23  1  0.154707  0.250001  0.014373  1
