# generated using pymatgen
data_HoPa3(Ir2Pb)2
_symmetry_space_group_name_H-M   'P 1'
_cell_length_a   7.86891681
_cell_length_b   7.86891633
_cell_length_c   3.57852800
_cell_angle_alpha   90.00000000
_cell_angle_beta   90.00000000
_cell_angle_gamma   88.39365237
_symmetry_Int_Tables_number   1
_chemical_formula_structural   HoPa3(Ir2Pb)2
_chemical_formula_sum   'Ho1 Pa3 Ir4 Pb2'
_cell_volume   221.49483168
_cell_formula_units_Z   1
loop_
 _symmetry_equiv_pos_site_id
 _symmetry_equiv_pos_as_xyz
  1  'x, y, z'
loop_
 _atom_site_type_symbol
 _atom_site_label
 _atom_site_symmetry_multiplicity
 _atom_site_fract_x
 _atom_site_fract_y
 _atom_site_fract_z
 _atom_site_occupancy
  Ho  Ho0  1  0.330569  0.830569  0.500000  1
  Pa  Pa1  1  0.665508  0.165508  0.500000  1
  Pa  Pa2  1  0.170757  0.332166  0.500000  1
  Pa  Pa3  1  0.832166  0.670757  0.500000  1
  Ir  Ir4  1  0.375904  0.143786  0.000000  1
  Ir  Ir5  1  0.114327  0.614327  0.000000  1
  Ir  Ir6  1  0.643786  0.875904  0.000000  1
  Ir  Ir7  1  0.861413  0.361413  0.000000  1
  Pb  Pb8  1  0.009720  0.995850  0.000000  1
  Pb  Pb9  1  0.495850  0.509720  0.000000  1
