# generated using pymatgen
data_Tb4YCo6
_symmetry_space_group_name_H-M   'P 1'
_cell_length_a   5.51258702
_cell_length_b   5.51258702
_cell_length_c   20.28941400
_cell_angle_alpha   90.00000000
_cell_angle_beta   90.00000000
_cell_angle_gamma   137.46340613
_symmetry_Int_Tables_number   1
_chemical_formula_structural   Tb4YCo6
_chemical_formula_sum   'Tb8 Y2 Co12'
_cell_volume   416.83701356
_cell_formula_units_Z   2
loop_
 _symmetry_equiv_pos_site_id
 _symmetry_equiv_pos_as_xyz
  1  'x, y, z'
loop_
 _atom_site_type_symbol
 _atom_site_label
 _atom_site_symmetry_multiplicity
 _atom_site_fract_x
 _atom_site_fract_y
 _atom_site_fract_z
 _atom_site_occupancy
  Tb  Tb0  1  0.280337  0.719663  0.065212  1
  Tb  Tb1  1  0.008772  0.991228  0.845912  1
  Tb  Tb2  1  0.719663  0.280337  0.565212  1
  Tb  Tb3  1  0.991228  0.008772  0.345912  1
  Tb  Tb4  1  0.008772  0.991228  0.654088  1
  Tb  Tb5  1  0.719663  0.280337  0.934788  1
  Tb  Tb6  1  0.991228  0.008772  0.154088  1
  Tb  Tb7  1  0.280337  0.719663  0.434788  1
  Y  Y8  1  0.277141  0.722859  0.250000  1
  Y  Y9  1  0.722859  0.277141  0.750000  1
  Co  Co10  1  0.000000  0.000000  0.500000  1
  Co  Co11  1  0.000000  0.000000  0.000000  1
  Co  Co12  1  0.311933  0.688067  0.651639  1
  Co  Co13  1  0.568447  0.431553  0.446542  1
  Co  Co14  1  0.421526  0.578474  0.750000  1
  Co  Co15  1  0.431553  0.568447  0.946542  1
  Co  Co16  1  0.578474  0.421526  0.250000  1
  Co  Co17  1  0.431553  0.568447  0.553458  1
  Co  Co18  1  0.688067  0.311933  0.348361  1
  Co  Co19  1  0.688067  0.311933  0.151639  1
  Co  Co20  1  0.568447  0.431553  0.053458  1
  Co  Co21  1  0.311933  0.688067  0.848361  1
