# generated using pymatgen
data_KNd4In7I20
_symmetry_space_group_name_H-M   'P 1'
_cell_length_a   9.20188033
_cell_length_b   9.79430628
_cell_length_c   14.41551596
_cell_angle_alpha   89.94990367
_cell_angle_beta   89.96764490
_cell_angle_gamma   89.85931370
_symmetry_Int_Tables_number   1
_chemical_formula_structural   KNd4In7I20
_chemical_formula_sum   'K1 Nd4 In7 I20'
_cell_volume   1299.20866683
_cell_formula_units_Z   1
loop_
 _symmetry_equiv_pos_site_id
 _symmetry_equiv_pos_as_xyz
  1  'x, y, z'
loop_
 _atom_site_type_symbol
 _atom_site_label
 _atom_site_symmetry_multiplicity
 _atom_site_fract_x
 _atom_site_fract_y
 _atom_site_fract_z
 _atom_site_occupancy
  K  K0  1  0.445496  0.503449  0.673756  1
  Nd  Nd1  1  0.919540  0.750714  0.505345  1
  Nd  Nd2  1  0.080502  0.249089  0.493802  1
  Nd  Nd3  1  0.419519  0.249574  0.994391  1
  Nd  Nd4  1  0.580729  0.750454  0.006420  1
  In  In5  1  0.947855  0.001582  0.825236  1
  In  In6  1  0.051571  0.998582  0.175357  1
  In  In7  1  0.449250  0.999667  0.675579  1
  In  In8  1  0.051365  0.501351  0.174944  1
  In  In9  1  0.550990  0.001120  0.323812  1
  In  In10  1  0.947909  0.498536  0.825316  1
  In  In11  1  0.551684  0.498355  0.324037  1
  I  I12  1  0.126671  0.750709  0.683981  1
  I  I13  1  0.872230  0.250150  0.315898  1
  I  I14  1  0.630291  0.246314  0.817939  1
  I  I15  1  0.372228  0.750325  0.184130  1
  I  I16  1  0.830747  0.045789  0.580014  1
  I  I17  1  0.168870  0.953718  0.419989  1
  I  I18  1  0.330619  0.954488  0.920306  1
  I  I19  1  0.169368  0.545235  0.419907  1
  I  I20  1  0.669146  0.045283  0.080403  1
  I  I21  1  0.832776  0.454616  0.579366  1
  I  I22  1  0.669161  0.454472  0.080077  1
  I  I23  1  0.330191  0.546040  0.921794  1
  I  I24  1  0.567175  0.752471  0.504676  1
  I  I25  1  0.433015  0.247609  0.492383  1
  I  I26  1  0.066494  0.250197  0.994469  1
  I  I27  1  0.933815  0.749576  0.006125  1
  I  I28  1  0.667012  0.752914  0.792310  1
  I  I29  1  0.334893  0.249663  0.208682  1
  I  I30  1  0.163927  0.248161  0.708544  1
  I  I31  1  0.834960  0.749796  0.291012  1
