# generated using pymatgen
data_YbDyHo2(Ga3Ir)6
_symmetry_space_group_name_H-M   'P 1'
_cell_length_a   7.56723047
_cell_length_b   7.57427055
_cell_length_c   9.51517500
_cell_angle_alpha   90.00000000
_cell_angle_beta   90.00000000
_cell_angle_gamma   119.83062620
_symmetry_Int_Tables_number   1
_chemical_formula_structural   YbDyHo2(Ga3Ir)6
_chemical_formula_sum   'Yb1 Dy1 Ho2 Ga18 Ir6'
_cell_volume   473.11190896
_cell_formula_units_Z   1
loop_
 _symmetry_equiv_pos_site_id
 _symmetry_equiv_pos_as_xyz
  1  'x, y, z'
loop_
 _atom_site_type_symbol
 _atom_site_label
 _atom_site_symmetry_multiplicity
 _atom_site_fract_x
 _atom_site_fract_y
 _atom_site_fract_z
 _atom_site_occupancy
  Yb  Yb0  1  0.996855  0.667783  0.250000  1
  Dy  Dy1  1  0.667988  0.997467  0.250000  1
  Ho  Ho2  1  0.002181  0.332025  0.750000  1
  Ho  Ho3  1  0.331674  0.002069  0.750000  1
  Ga  Ga4  1  0.126336  0.126771  0.250000  1
  Ga  Ga5  1  0.873096  0.872988  0.750000  1
  Ga  Ga6  1  0.000101  0.335483  0.080256  1
  Ga  Ga7  1  0.000167  0.665393  0.920803  1
  Ga  Ga8  1  0.000167  0.665393  0.579197  1
  Ga  Ga9  1  0.333106  0.998834  0.420169  1
  Ga  Ga10  1  0.000101  0.335483  0.419744  1
  Ga  Ga11  1  0.665664  0.000736  0.580226  1
  Ga  Ga12  1  0.665664  0.000736  0.919774  1
  Ga  Ga13  1  0.333106  0.998834  0.079831  1
  Ga  Ga14  1  0.332509  0.332445  0.564588  1
  Ga  Ga15  1  0.668548  0.667290  0.436829  1
  Ga  Ga16  1  0.668548  0.667290  0.063171  1
  Ga  Ga17  1  0.332509  0.332445  0.935412  1
  Ga  Ga18  1  0.338115  0.546547  0.250000  1
  Ga  Ga19  1  0.661882  0.453984  0.750000  1
  Ga  Ga20  1  0.546337  0.337651  0.250000  1
  Ga  Ga21  1  0.453726  0.661683  0.750000  1
  Ir  Ir22  1  0.670886  0.328313  0.999661  1
  Ir  Ir23  1  0.328977  0.671225  0.999343  1
  Ir  Ir24  1  0.328977  0.671225  0.500657  1
  Ir  Ir25  1  0.670886  0.328313  0.500339  1
  Ir  Ir26  1  0.000945  0.000796  0.999150  1
  Ir  Ir27  1  0.000945  0.000796  0.500850  1
