# generated using pymatgen
data_La3Mg3GaPb2
_symmetry_space_group_name_H-M   'P 1'
_cell_length_a   7.90135800
_cell_length_b   7.90135821
_cell_length_c   4.71900900
_cell_angle_alpha   90.00000000
_cell_angle_beta   90.00000000
_cell_angle_gamma   119.99999910
_symmetry_Int_Tables_number   1
_chemical_formula_structural   La3Mg3GaPb2
_chemical_formula_sum   'La3 Mg3 Ga1 Pb2'
_cell_volume   255.14374871
_cell_formula_units_Z   1
loop_
 _symmetry_equiv_pos_site_id
 _symmetry_equiv_pos_as_xyz
  1  'x, y, z'
loop_
 _atom_site_type_symbol
 _atom_site_label
 _atom_site_symmetry_multiplicity
 _atom_site_fract_x
 _atom_site_fract_y
 _atom_site_fract_z
 _atom_site_occupancy
  La  La0  1  0.000000  0.598331  0.000000  1
  La  La1  1  0.401669  0.401669  0.000000  1
  La  La2  1  0.598331  0.000000  0.000000  1
  Mg  Mg3  1  0.000000  0.229534  0.500000  1
  Mg  Mg4  1  0.770466  0.770466  0.500000  1
  Mg  Mg5  1  0.229534  0.000000  0.500000  1
  Ga  Ga6  1  0.000000  0.000000  0.000000  1
  Pb  Pb7  1  0.333333  0.666667  0.500000  1
  Pb  Pb8  1  0.666667  0.333333  0.500000  1
