# generated using pymatgen
data_Pr4CdRh
_symmetry_space_group_name_H-M   'P 1'
_cell_length_a   10.03993855
_cell_length_b   10.03993893
_cell_length_c   10.03993900
_cell_angle_alpha   60.00000308
_cell_angle_beta   60.00000182
_cell_angle_gamma   60.00000057
_symmetry_Int_Tables_number   1
_chemical_formula_structural   Pr4CdRh
_chemical_formula_sum   'Pr16 Cd4 Rh4'
_cell_volume   715.61299828
_cell_formula_units_Z   4
loop_
 _symmetry_equiv_pos_site_id
 _symmetry_equiv_pos_as_xyz
  1  'x, y, z'
loop_
 _atom_site_type_symbol
 _atom_site_label
 _atom_site_symmetry_multiplicity
 _atom_site_fract_x
 _atom_site_fract_y
 _atom_site_fract_z
 _atom_site_occupancy
  Pr  Pr0  1  0.348864  0.348864  0.348864  1
  Pr  Pr1  1  0.348864  0.348864  0.953406  1
  Pr  Pr2  1  0.348864  0.953406  0.348864  1
  Pr  Pr3  1  0.953406  0.348864  0.348864  1
  Pr  Pr4  1  0.809131  0.190869  0.190869  1
  Pr  Pr5  1  0.190869  0.809131  0.809131  1
  Pr  Pr6  1  0.190869  0.809131  0.190869  1
  Pr  Pr7  1  0.809131  0.190869  0.809131  1
  Pr  Pr8  1  0.190869  0.190869  0.809131  1
  Pr  Pr9  1  0.809131  0.809131  0.190869  1
  Pr  Pr10  1  0.937660  0.562340  0.562340  1
  Pr  Pr11  1  0.562340  0.937660  0.937660  1
  Pr  Pr12  1  0.562340  0.937660  0.562340  1
  Pr  Pr13  1  0.937660  0.562340  0.937660  1
  Pr  Pr14  1  0.562340  0.562340  0.937660  1
  Pr  Pr15  1  0.937660  0.937660  0.562340  1
  Cd  Cd16  1  0.580129  0.580129  0.580129  1
  Cd  Cd17  1  0.580129  0.580129  0.259611  1
  Cd  Cd18  1  0.580129  0.259611  0.580129  1
  Cd  Cd19  1  0.259611  0.580129  0.580129  1
  Rh  Rh20  1  0.141840  0.141840  0.141840  1
  Rh  Rh21  1  0.141840  0.141840  0.574479  1
  Rh  Rh22  1  0.141840  0.574479  0.141840  1
  Rh  Rh23  1  0.574479  0.141840  0.141840  1
