# generated using pymatgen
data_Dy6AlZn5C2
_symmetry_space_group_name_H-M   'P 1'
_cell_length_a   9.20547148
_cell_length_b   9.17932231
_cell_length_c   9.17932177
_cell_angle_alpha   59.73331442
_cell_angle_beta   59.90571792
_cell_angle_gamma   59.90572083
_symmetry_Int_Tables_number   1
_chemical_formula_structural   Dy6AlZn5C2
_chemical_formula_sum   'Dy12 Al2 Zn10 C4'
_cell_volume   546.57708187
_cell_formula_units_Z   2
loop_
 _symmetry_equiv_pos_site_id
 _symmetry_equiv_pos_as_xyz
  1  'x, y, z'
loop_
 _atom_site_type_symbol
 _atom_site_label
 _atom_site_symmetry_multiplicity
 _atom_site_fract_x
 _atom_site_fract_y
 _atom_site_fract_z
 _atom_site_occupancy
  Dy  Dy0  1  0.446365  0.446880  0.053267  1
  Dy  Dy1  1  0.053489  0.446880  0.053267  1
  Dy  Dy2  1  0.446728  0.053272  0.053272  1
  Dy  Dy3  1  0.053489  0.053267  0.446880  1
  Dy  Dy4  1  0.446365  0.053267  0.446880  1
  Dy  Dy5  1  0.053221  0.446779  0.446779  1
  Dy  Dy6  1  0.803635  0.803120  0.196733  1
  Dy  Dy7  1  0.196511  0.803120  0.196733  1
  Dy  Dy8  1  0.803272  0.196728  0.196728  1
  Dy  Dy9  1  0.196511  0.196733  0.803120  1
  Dy  Dy10  1  0.803635  0.196733  0.803120  1
  Dy  Dy11  1  0.196779  0.803221  0.803221  1
  Al  Al12  1  0.625000  0.625000  0.125000  1
  Al  Al13  1  0.625000  0.125000  0.625000  1
  Zn  Zn14  1  0.826859  0.825264  0.521020  1
  Zn  Zn15  1  0.826859  0.521020  0.825264  1
  Zn  Zn16  1  0.519909  0.826280  0.826280  1
  Zn  Zn17  1  0.827532  0.826280  0.826280  1
  Zn  Zn18  1  0.423141  0.424736  0.728980  1
  Zn  Zn19  1  0.423141  0.728980  0.424736  1
  Zn  Zn20  1  0.730091  0.423720  0.423720  1
  Zn  Zn21  1  0.422468  0.423720  0.423720  1
  Zn  Zn22  1  0.125000  0.625000  0.625000  1
  Zn  Zn23  1  0.625000  0.625000  0.625000  1
  C  C24  1  0.125000  0.125000  0.625000  1
  C  C25  1  0.125000  0.625000  0.125000  1
  C  C26  1  0.625000  0.125000  0.125000  1
  C  C27  1  0.125000  0.125000  0.125000  1
