# generated using pymatgen
data_Nd3Ga8Ag2Sn
_symmetry_space_group_name_H-M   'P 1'
_cell_length_a   4.31362902
_cell_length_b   8.60938806
_cell_length_c   8.60938646
_cell_angle_alpha   74.27936023
_cell_angle_beta   75.49176902
_cell_angle_gamma   75.49176608
_symmetry_Int_Tables_number   1
_chemical_formula_structural   Nd3Ga8Ag2Sn
_chemical_formula_sum   'Nd3 Ga8 Ag2 Sn1'
_cell_volume   292.18006457
_cell_formula_units_Z   1
loop_
 _symmetry_equiv_pos_site_id
 _symmetry_equiv_pos_as_xyz
  1  'x, y, z'
loop_
 _atom_site_type_symbol
 _atom_site_label
 _atom_site_symmetry_multiplicity
 _atom_site_fract_x
 _atom_site_fract_y
 _atom_site_fract_z
 _atom_site_occupancy
  Nd  Nd0  1  0.500000  0.500000  0.500000  1
  Nd  Nd1  1  0.185619  0.814381  0.814381  1
  Nd  Nd2  1  0.814381  0.185619  0.185619  1
  Ga  Ga3  1  0.353896  0.375960  0.916247  1
  Ga  Ga4  1  0.646104  0.624040  0.083753  1
  Ga  Ga5  1  0.353896  0.916247  0.375960  1
  Ga  Ga6  1  0.646104  0.083753  0.624040  1
  Ga  Ga7  1  0.164556  0.460010  0.210877  1
  Ga  Ga8  1  0.835444  0.539990  0.789123  1
  Ga  Ga9  1  0.164556  0.210877  0.460010  1
  Ga  Ga10  1  0.835444  0.789123  0.539990  1
  Ag  Ag11  1  0.000000  0.774509  0.225491  1
  Ag  Ag12  1  0.000000  0.225491  0.774509  1
  Sn  Sn13  1  0.500000  0.000000  0.000000  1
