# generated using pymatgen
data_Hf3(NbP)4
_symmetry_space_group_name_H-M   'P 1'
_cell_length_a   7.78140849
_cell_length_b   7.78140785
_cell_length_c   14.18296135
_cell_angle_alpha   76.46715949
_cell_angle_beta   76.46716067
_cell_angle_gamma   26.25324494
_symmetry_Int_Tables_number   1
_chemical_formula_structural   Hf3(NbP)4
_chemical_formula_sum   'Hf6 Nb8 P8'
_cell_volume   368.74450023
_cell_formula_units_Z   2
loop_
 _symmetry_equiv_pos_site_id
 _symmetry_equiv_pos_as_xyz
  1  'x, y, z'
loop_
 _atom_site_type_symbol
 _atom_site_label
 _atom_site_symmetry_multiplicity
 _atom_site_fract_x
 _atom_site_fract_y
 _atom_site_fract_z
 _atom_site_occupancy
  Hf  Hf0  1  0.659419  0.659419  0.031525  1
  Hf  Hf1  1  0.340581  0.340581  0.968475  1
  Hf  Hf2  1  0.997876  0.997876  0.665560  1
  Hf  Hf3  1  0.002124  0.002124  0.334440  1
  Hf  Hf4  1  0.822417  0.822417  0.543371  1
  Hf  Hf5  1  0.177583  0.177583  0.456629  1
  Nb  Nb6  1  0.209986  0.209986  0.201583  1
  Nb  Nb7  1  0.790014  0.790014  0.798417  1
  Nb  Nb8  1  0.195326  0.195326  0.692634  1
  Nb  Nb9  1  0.804674  0.804674  0.307366  1
  Nb  Nb10  1  0.429375  0.429375  0.169257  1
  Nb  Nb11  1  0.570625  0.570625  0.830743  1
  Nb  Nb12  1  0.500000  0.500000  0.500000  1
  Nb  Nb13  1  0.000000  0.000000  0.000000  1
  P  P14  1  0.060699  0.060699  0.151608  1
  P  P15  1  0.939301  0.939301  0.848392  1
  P  P16  1  0.369229  0.369229  0.664121  1
  P  P17  1  0.630771  0.630771  0.335879  1
  P  P18  1  0.371561  0.371561  0.399551  1
  P  P19  1  0.628439  0.628439  0.600449  1
  P  P20  1  0.176026  0.176026  0.888937  1
  P  P21  1  0.823974  0.823974  0.111063  1
