# generated using pymatgen
data_NaSr4Ag
_symmetry_space_group_name_H-M   'P 1'
_cell_length_a   11.41651611
_cell_length_b   11.41651650
_cell_length_c   11.41651700
_cell_angle_alpha   60.00000146
_cell_angle_beta   60.00000030
_cell_angle_gamma   60.00000303
_symmetry_Int_Tables_number   1
_chemical_formula_structural   NaSr4Ag
_chemical_formula_sum   'Na4 Sr16 Ag4'
_cell_volume   1052.16983820
_cell_formula_units_Z   4
loop_
 _symmetry_equiv_pos_site_id
 _symmetry_equiv_pos_as_xyz
  1  'x, y, z'
loop_
 _atom_site_type_symbol
 _atom_site_label
 _atom_site_symmetry_multiplicity
 _atom_site_fract_x
 _atom_site_fract_y
 _atom_site_fract_z
 _atom_site_occupancy
  Na  Na0  1  0.578424  0.578424  0.578424  1
  Na  Na1  1  0.578424  0.578424  0.264730  1
  Na  Na2  1  0.578424  0.264730  0.578424  1
  Na  Na3  1  0.264730  0.578424  0.578424  1
  Sr  Sr4  1  0.344325  0.344325  0.344325  1
  Sr  Sr5  1  0.344325  0.344325  0.967026  1
  Sr  Sr6  1  0.344325  0.967026  0.344325  1
  Sr  Sr7  1  0.967026  0.344325  0.344325  1
  Sr  Sr8  1  0.811468  0.188532  0.188532  1
  Sr  Sr9  1  0.188532  0.811468  0.811468  1
  Sr  Sr10  1  0.188532  0.811468  0.188532  1
  Sr  Sr11  1  0.811468  0.188532  0.811468  1
  Sr  Sr12  1  0.188532  0.188532  0.811468  1
  Sr  Sr13  1  0.811468  0.811468  0.188532  1
  Sr  Sr14  1  0.939245  0.560755  0.560755  1
  Sr  Sr15  1  0.560755  0.939245  0.939245  1
  Sr  Sr16  1  0.560755  0.939245  0.560755  1
  Sr  Sr17  1  0.939245  0.560755  0.939245  1
  Sr  Sr18  1  0.560755  0.560755  0.939245  1
  Sr  Sr19  1  0.939245  0.939245  0.560755  1
  Ag  Ag20  1  0.140353  0.140353  0.140353  1
  Ag  Ag21  1  0.140353  0.140353  0.578944  1
  Ag  Ag22  1  0.140353  0.578944  0.140353  1
  Ag  Ag23  1  0.578944  0.140353  0.140353  1
