# generated using pymatgen
data_Ho19Lu(GaBi5)2
_symmetry_space_group_name_H-M   'P 1'
_cell_length_a   8.13420404
_cell_length_b   9.39083973
_cell_length_c   11.97001778
_cell_angle_alpha   90.04362812
_cell_angle_beta   90.00590818
_cell_angle_gamma   89.99976506
_symmetry_Int_Tables_number   1
_chemical_formula_structural   Ho19Lu(GaBi5)2
_chemical_formula_sum   'Ho19 Lu1 Ga2 Bi10'
_cell_volume   914.35355609
_cell_formula_units_Z   1
loop_
 _symmetry_equiv_pos_site_id
 _symmetry_equiv_pos_as_xyz
  1  'x, y, z'
loop_
 _atom_site_type_symbol
 _atom_site_label
 _atom_site_symmetry_multiplicity
 _atom_site_fract_x
 _atom_site_fract_y
 _atom_site_fract_z
 _atom_site_occupancy
  Ho  Ho0  1  0.355042  0.749092  0.206290  1
  Ho  Ho1  1  0.853885  0.749487  0.293028  1
  Ho  Ho2  1  0.651050  0.249341  0.784345  1
  Ho  Ho3  1  0.151166  0.249178  0.715650  1
  Ho  Ho4  1  0.184500  0.929928  0.444695  1
  Ho  Ho5  1  0.309571  0.049462  0.941000  1
  Ho  Ho6  1  0.808699  0.450674  0.559373  1
  Ho  Ho7  1  0.308378  0.451109  0.940658  1
  Ho  Ho8  1  0.808977  0.049058  0.559132  1
  Ho  Ho9  1  0.684073  0.930611  0.054982  1
  Ho  Ho10  1  0.184678  0.569967  0.444465  1
  Ho  Ho11  1  0.478816  0.249733  0.489652  1
  Ho  Ho12  1  0.978448  0.249812  0.010149  1
  Ho  Ho13  1  0.535974  0.749555  0.509953  1
  Ho  Ho14  1  0.034966  0.749992  0.990072  1
  Ho  Ho15  1  0.312383  0.249918  0.219402  1
  Ho  Ho16  1  0.813153  0.250107  0.280988  1
  Ho  Ho17  1  0.677333  0.749495  0.785929  1
  Ho  Ho18  1  0.177340  0.749890  0.714622  1
  Lu  Lu19  1  0.684270  0.573104  0.055089  1
  Ga  Ga20  1  0.410213  0.749355  0.960223  1
  Ga  Ga21  1  0.909993  0.749890  0.540111  1
  Bi  Bi22  1  0.593557  0.253232  0.043002  1
  Bi  Bi23  1  0.093353  0.250116  0.457541  1
  Bi  Bi24  1  0.563510  0.996150  0.324314  1
  Bi  Bi25  1  0.062752  0.503383  0.175369  1
  Bi  Bi26  1  0.437221  0.497688  0.676552  1
  Bi  Bi27  1  0.936677  0.001948  0.823951  1
  Bi  Bi28  1  0.436498  0.001842  0.676165  1
  Bi  Bi29  1  0.937127  0.497626  0.823765  1
  Bi  Bi30  1  0.563326  0.502989  0.324134  1
  Bi  Bi31  1  0.063071  0.996268  0.175398  1
