# generated using pymatgen
data_Tb4HoTm3(SiBr6)2
_symmetry_space_group_name_H-M   'P 1'
_cell_length_a   4.04108000
_cell_length_b   13.20063547
_cell_length_c   13.95282450
_cell_angle_alpha   90.03067194
_cell_angle_beta   90.00000000
_cell_angle_gamma   90.00000000
_symmetry_Int_Tables_number   1
_chemical_formula_structural   Tb4HoTm3(SiBr6)2
_chemical_formula_sum   'Tb4 Ho1 Tm3 Si2 Br12'
_cell_volume   744.31086055
_cell_formula_units_Z   1
loop_
 _symmetry_equiv_pos_site_id
 _symmetry_equiv_pos_as_xyz
  1  'x, y, z'
loop_
 _atom_site_type_symbol
 _atom_site_label
 _atom_site_symmetry_multiplicity
 _atom_site_fract_x
 _atom_site_fract_y
 _atom_site_fract_z
 _atom_site_occupancy
  Tb  Tb0  1  0.000000  0.118964  0.579163  1
  Tb  Tb1  1  0.000000  0.881069  0.420778  1
  Tb  Tb2  1  0.000000  0.618910  0.920837  1
  Tb  Tb3  1  0.000000  0.381078  0.079164  1
  Ho  Ho4  1  0.500000  0.117624  0.341710  1
  Tm  Tm5  1  0.500000  0.882496  0.658146  1
  Tm  Tm6  1  0.500000  0.617430  0.158049  1
  Tm  Tm7  1  0.500000  0.382571  0.841942  1
  Si  Si8  1  0.500000  0.999591  0.500575  1
  Si  Si9  1  0.500000  0.500007  0.999986  1
  Br  Br10  1  0.500000  0.242003  0.164530  1
  Br  Br11  1  0.500000  0.758423  0.834900  1
  Br  Br12  1  0.500000  0.741490  0.334838  1
  Br  Br13  1  0.500000  0.258481  0.665205  1
  Br  Br14  1  0.000000  0.255136  0.409227  1
  Br  Br15  1  0.000000  0.745635  0.591425  1
  Br  Br16  1  0.000000  0.754276  0.091432  1
  Br  Br17  1  0.000000  0.245703  0.908557  1
  Br  Br18  1  0.000000  0.004124  0.242237  1
  Br  Br19  1  0.000000  0.994989  0.757303  1
  Br  Br20  1  0.000000  0.505045  0.257241  1
  Br  Br21  1  0.000000  0.494955  0.742756  1
