# generated using pymatgen
data_LiEu2(SeO5)2
_symmetry_space_group_name_H-M   'P 1'
_cell_length_a   5.79968154
_cell_length_b   5.97802451
_cell_length_c   6.43906700
_cell_angle_alpha   103.33651164
_cell_angle_beta   79.94466268
_cell_angle_gamma   103.55901503
_symmetry_Int_Tables_number   1
_chemical_formula_structural   LiEu2(SeO5)2
_chemical_formula_sum   'Li1 Eu2 Se2 O10'
_cell_volume   209.45070836
_cell_formula_units_Z   1
loop_
 _symmetry_equiv_pos_site_id
 _symmetry_equiv_pos_as_xyz
  1  'x, y, z'
loop_
 _atom_site_type_symbol
 _atom_site_label
 _atom_site_symmetry_multiplicity
 _atom_site_fract_x
 _atom_site_fract_y
 _atom_site_fract_z
 _atom_site_occupancy
  Li  Li0  1  0.000000  0.000000  0.000000  1
  Eu  Eu1  1  0.186401  0.797928  0.387097  1
  Eu  Eu2  1  0.813599  0.202072  0.612903  1
  Se  Se3  1  0.381895  0.660957  0.777017  1
  Se  Se4  1  0.618105  0.339043  0.222983  1
  O  O5  1  0.504361  0.861862  0.624498  1
  O  O6  1  0.495639  0.138138  0.375502  1
  O  O7  1  0.158594  0.503356  0.638285  1
  O  O8  1  0.841406  0.496644  0.361715  1
  O  O9  1  0.578054  0.511619  0.796449  1
  O  O10  1  0.421946  0.488381  0.203551  1
  O  O11  1  0.253786  0.799064  0.007546  1
  O  O12  1  0.746214  0.200936  0.992454  1
  O  O13  1  0.967526  0.015438  0.305574  1
  O  O14  1  0.032474  0.984562  0.694426  1
