# generated using pymatgen
data_Pr2Dy2Y3FeI12
_symmetry_space_group_name_H-M   'P 1'
_cell_length_a   9.85884747
_cell_length_b   9.82668069
_cell_length_c   9.88537641
_cell_angle_alpha   106.83839273
_cell_angle_beta   106.63906322
_cell_angle_gamma   107.49269856
_symmetry_Int_Tables_number   1
_chemical_formula_structural   Pr2Dy2Y3FeI12
_chemical_formula_sum   'Pr2 Dy2 Y3 Fe1 I12'
_cell_volume   797.75447425
_cell_formula_units_Z   1
loop_
 _symmetry_equiv_pos_site_id
 _symmetry_equiv_pos_as_xyz
  1  'x, y, z'
loop_
 _atom_site_type_symbol
 _atom_site_label
 _atom_site_symmetry_multiplicity
 _atom_site_fract_x
 _atom_site_fract_y
 _atom_site_fract_z
 _atom_site_occupancy
  Pr  Pr0  1  0.591821  0.786542  0.521611  1
  Pr  Pr1  1  0.407802  0.213311  0.478054  1
  Dy  Dy2  1  0.207385  0.474965  0.406394  1
  Dy  Dy3  1  0.477838  0.406442  0.208965  1
  Y  Y4  1  0.793649  0.525081  0.593608  1
  Y  Y5  1  0.522188  0.593841  0.792129  1
  Y  Y6  1  0.000099  0.000117  0.000091  1
  Fe  Fe7  1  0.499401  0.499851  0.499267  1
  I  I8  1  0.736959  0.191156  0.578931  1
  I  I9  1  0.970478  0.886689  0.667083  1
  I  I10  1  0.570310  0.718970  0.172205  1
  I  I11  1  0.115524  0.338866  0.040294  1
  I  I12  1  0.663194  0.962024  0.891725  1
  I  I13  1  0.884622  0.660953  0.959899  1
  I  I14  1  0.029534  0.113384  0.332878  1
  I  I15  1  0.818625  0.428464  0.277491  1
  I  I16  1  0.336770  0.038037  0.108241  1
  I  I17  1  0.263036  0.808775  0.421213  1
  I  I18  1  0.181005  0.571539  0.722287  1
  I  I19  1  0.429760  0.280993  0.827633  1
