# generated using pymatgen
data_Zr8Nb12Si15Ni
_symmetry_space_group_name_H-M   'P 1'
_cell_length_a   6.91810420
_cell_length_b   6.90871350
_cell_length_c   12.76093691
_cell_angle_alpha   89.86944080
_cell_angle_beta   89.85952083
_cell_angle_gamma   89.93753916
_symmetry_Int_Tables_number   1
_chemical_formula_structural   Zr8Nb12Si15Ni
_chemical_formula_sum   'Zr8 Nb12 Si15 Ni1'
_cell_volume   609.90775490
_cell_formula_units_Z   1
loop_
 _symmetry_equiv_pos_site_id
 _symmetry_equiv_pos_as_xyz
  1  'x, y, z'
loop_
 _atom_site_type_symbol
 _atom_site_label
 _atom_site_symmetry_multiplicity
 _atom_site_fract_x
 _atom_site_fract_y
 _atom_site_fract_z
 _atom_site_occupancy
  Zr  Zr0  1  0.000454  0.659217  0.031679  1
  Zr  Zr1  1  0.997392  0.340101  0.531068  1
  Zr  Zr2  1  0.658677  0.999708  0.969085  1
  Zr  Zr3  1  0.157890  0.498835  0.782605  1
  Zr  Zr4  1  0.842236  0.500929  0.282375  1
  Zr  Zr5  1  0.498928  0.156489  0.217377  1
  Zr  Zr6  1  0.498568  0.841643  0.716543  1
  Zr  Zr7  1  0.346405  0.001866  0.467888  1
  Nb  Nb8  1  0.349648  0.503806  0.375234  1
  Nb  Nb9  1  0.846839  0.992831  0.373981  1
  Nb  Nb10  1  0.004239  0.152909  0.126984  1
  Nb  Nb11  1  0.994918  0.848221  0.626814  1
  Nb  Nb12  1  0.651623  0.495090  0.876068  1
  Nb  Nb13  1  0.502287  0.350424  0.623143  1
  Nb  Nb14  1  0.495797  0.652636  0.123303  1
  Nb  Nb15  1  0.151579  0.004959  0.873730  1
  Nb  Nb16  1  0.670425  0.671697  0.500699  1
  Nb  Nb17  1  0.830076  0.169581  0.749735  1
  Nb  Nb18  1  0.169617  0.829931  0.251638  1
  Nb  Nb19  1  0.329089  0.329903  0.000355  1
  Si  Si20  1  0.954310  0.298064  0.937136  1
  Si  Si21  1  0.704361  0.046110  0.562683  1
  Si  Si22  1  0.201234  0.454849  0.187987  1
  Si  Si23  1  0.798535  0.545276  0.685634  1
  Si  Si24  1  0.455161  0.201752  0.812721  1
  Si  Si25  1  0.545684  0.796261  0.313810  1
  Si  Si26  1  0.296581  0.954432  0.063877  1
  Si  Si27  1  0.863650  0.792206  0.822174  1
  Si  Si28  1  0.135012  0.207458  0.324841  1
  Si  Si29  1  0.792495  0.864100  0.178050  1
  Si  Si30  1  0.288203  0.638386  0.567282  1
  Si  Si31  1  0.708003  0.365496  0.073281  1
  Si  Si32  1  0.637035  0.292705  0.427006  1
  Si  Si33  1  0.364577  0.708297  0.927044  1
  Si  Si34  1  0.208170  0.135653  0.676304  1
  Ni  Ni35  1  0.050304  0.698179  0.439867  1
