# generated using pymatgen
data_TaNb15Ni8(CN)2
_symmetry_space_group_name_H-M   'P 1'
_cell_length_a   8.28476840
_cell_length_b   8.28476753
_cell_length_c   8.29842428
_cell_angle_alpha   59.92099094
_cell_angle_beta   59.92099294
_cell_angle_gamma   59.86031271
_symmetry_Int_Tables_number   1
_chemical_formula_structural   TaNb15Ni8(CN)2
_chemical_formula_sum   'Ta1 Nb15 Ni8 C2 N2'
_cell_volume   401.84834534
_cell_formula_units_Z   1
loop_
 _symmetry_equiv_pos_site_id
 _symmetry_equiv_pos_as_xyz
  1  'x, y, z'
loop_
 _atom_site_type_symbol
 _atom_site_label
 _atom_site_symmetry_multiplicity
 _atom_site_fract_x
 _atom_site_fract_y
 _atom_site_fract_z
 _atom_site_occupancy
  Ta  Ta0  1  0.625000  0.625000  0.125000  1
  Nb  Nb1  1  0.125000  0.625000  0.625000  1
  Nb  Nb2  1  0.625000  0.125000  0.625000  1
  Nb  Nb3  1  0.625000  0.625000  0.625000  1
  Nb  Nb4  1  0.819287  0.819287  0.180671  1
  Nb  Nb5  1  0.184396  0.184396  0.815551  1
  Nb  Nb6  1  0.817032  0.183531  0.817553  1
  Nb  Nb7  1  0.183508  0.816876  0.182083  1
  Nb  Nb8  1  0.183531  0.817032  0.817553  1
  Nb  Nb9  1  0.816876  0.183508  0.182083  1
  Nb  Nb10  1  0.430713  0.430713  0.069329  1
  Nb  Nb11  1  0.065604  0.065604  0.434449  1
  Nb  Nb12  1  0.432968  0.066469  0.432447  1
  Nb  Nb13  1  0.066492  0.433124  0.067917  1
  Nb  Nb14  1  0.066469  0.432968  0.432447  1
  Nb  Nb15  1  0.433124  0.066492  0.067917  1
  Ni  Ni16  1  0.738644  0.421745  0.419102  1
  Ni  Ni17  1  0.421745  0.738644  0.419102  1
  Ni  Ni18  1  0.420507  0.420507  0.739904  1
  Ni  Ni19  1  0.420797  0.420797  0.418042  1
  Ni  Ni20  1  0.511356  0.828255  0.830898  1
  Ni  Ni21  1  0.828255  0.511356  0.830898  1
  Ni  Ni22  1  0.829493  0.829493  0.510096  1
  Ni  Ni23  1  0.829203  0.829203  0.831958  1
  C  C24  1  0.125000  0.125000  0.625000  1
  C  C25  1  0.125000  0.125000  0.125000  1
  N  N26  1  0.625000  0.125000  0.125000  1
  N  N27  1  0.125000  0.625000  0.125000  1
