# generated using pymatgen
data_Er16In6CuRe
_symmetry_space_group_name_H-M   'P 1'
_cell_length_a   10.37697300
_cell_length_b   10.37697255
_cell_length_c   6.88156100
_cell_angle_alpha   90.00000000
_cell_angle_beta   90.00000000
_cell_angle_gamma   119.99999825
_symmetry_Int_Tables_number   1
_chemical_formula_structural   Er16In6CuRe
_chemical_formula_sum   'Er16 In6 Cu1 Re1'
_cell_volume   641.73977529
_cell_formula_units_Z   1
loop_
 _symmetry_equiv_pos_site_id
 _symmetry_equiv_pos_as_xyz
  1  'x, y, z'
loop_
 _atom_site_type_symbol
 _atom_site_label
 _atom_site_symmetry_multiplicity
 _atom_site_fract_x
 _atom_site_fract_y
 _atom_site_fract_z
 _atom_site_occupancy
  Er  Er0  1  0.532902  0.065806  0.793075  1
  Er  Er1  1  0.934194  0.467098  0.793075  1
  Er  Er2  1  0.532902  0.467098  0.793075  1
  Er  Er3  1  0.476122  0.952244  0.298358  1
  Er  Er4  1  0.047756  0.523878  0.298358  1
  Er  Er5  1  0.476122  0.523878  0.298358  1
  Er  Er6  1  0.825373  0.650748  0.503658  1
  Er  Er7  1  0.349252  0.174627  0.503658  1
  Er  Er8  1  0.825373  0.174627  0.503658  1
  Er  Er9  1  0.176742  0.353483  0.003241  1
  Er  Er10  1  0.646517  0.823258  0.003241  1
  Er  Er11  1  0.176742  0.823258  0.003241  1
  Er  Er12  1  0.666667  0.333333  0.158369  1
  Er  Er13  1  0.333333  0.666667  0.670851  1
  Er  Er14  1  0.000000  0.000000  0.782875  1
  Er  Er15  1  0.000000  0.000000  0.274891  1
  In  In16  1  0.838306  0.676614  0.036217  1
  In  In17  1  0.323386  0.161694  0.036217  1
  In  In18  1  0.838306  0.161694  0.036217  1
  In  In19  1  0.165266  0.330530  0.535162  1
  In  In20  1  0.669470  0.834734  0.535162  1
  In  In21  1  0.165266  0.834734  0.535162  1
  Cu  Cu22  1  0.333333  0.666667  0.080033  1
  Re  Re23  1  0.666667  0.333333  0.559754  1
