# generated using pymatgen
data_Tb4ErP12Ru19
_symmetry_space_group_name_H-M   'P 1'
_cell_length_a   12.54071603
_cell_length_b   12.54071578
_cell_length_c   3.97955100
_cell_angle_alpha   90.00000000
_cell_angle_beta   90.00000000
_cell_angle_gamma   119.99365793
_symmetry_Int_Tables_number   1
_chemical_formula_structural   Tb4ErP12Ru19
_chemical_formula_sum   'Tb4 Er1 P12 Ru19'
_cell_volume   542.04721355
_cell_formula_units_Z   1
loop_
 _symmetry_equiv_pos_site_id
 _symmetry_equiv_pos_as_xyz
  1  'x, y, z'
loop_
 _atom_site_type_symbol
 _atom_site_label
 _atom_site_symmetry_multiplicity
 _atom_site_fract_x
 _atom_site_fract_y
 _atom_site_fract_z
 _atom_site_occupancy
  Tb  Tb0  1  0.666688  0.333358  0.000000  1
  Tb  Tb1  1  0.333359  0.666689  0.000000  1
  Tb  Tb2  1  0.183529  0.999988  0.500001  1
  Tb  Tb3  1  0.999988  0.183529  0.500001  1
  Er  Er4  1  0.816647  0.816646  0.500001  1
  P  P5  1  0.372594  0.000001  0.000000  1
  P  P6  1  0.815610  0.999677  0.000000  1
  P  P7  1  0.184290  0.184290  0.000000  1
  P  P8  1  0.000001  0.372595  0.000000  1
  P  P9  1  0.627621  0.627621  0.000000  1
  P  P10  1  0.999677  0.815610  0.000000  1
  P  P11  1  0.693372  0.170828  0.500001  1
  P  P12  1  0.477596  0.306697  0.500001  1
  P  P13  1  0.306697  0.477597  0.500001  1
  P  P14  1  0.829115  0.522440  0.500001  1
  P  P15  1  0.170828  0.693372  0.500001  1
  P  P16  1  0.522441  0.829115  0.500001  1
  Ru  Ru17  1  0.999261  0.999261  0.000000  1
  Ru  Ru18  1  0.554364  0.999982  0.000000  1
  Ru  Ru19  1  0.807475  0.184436  0.000000  1
  Ru  Ru20  1  0.377005  0.192527  0.000000  1
  Ru  Ru21  1  0.192527  0.377005  0.000000  1
  Ru  Ru22  1  0.445723  0.445723  0.000000  1
  Ru  Ru23  1  0.999982  0.554364  0.000000  1
  Ru  Ru24  1  0.815405  0.623605  0.000000  1
  Ru  Ru25  1  0.184436  0.807475  0.000000  1
  Ru  Ru26  1  0.623604  0.815405  0.000000  1
  Ru  Ru27  1  0.716908  0.999685  0.500001  1
  Ru  Ru28  1  0.491505  0.125746  0.500001  1
  Ru  Ru29  1  0.283298  0.283298  0.500001  1
  Ru  Ru30  1  0.874271  0.365727  0.500001  1
  Ru  Ru31  1  0.125746  0.491504  0.500001  1
  Ru  Ru32  1  0.634380  0.508711  0.500001  1
  Ru  Ru33  1  0.508711  0.634380  0.500001  1
  Ru  Ru34  1  0.999685  0.716907  0.500001  1
  Ru  Ru35  1  0.365727  0.874271  0.500001  1
