# generated using pymatgen
data_Zr10Cd2(BiPb)3
_symmetry_space_group_name_H-M   'P 1'
_cell_length_a   8.95392600
_cell_length_b   8.95392553
_cell_length_c   6.01394700
_cell_angle_alpha   90.00000000
_cell_angle_beta   90.00000000
_cell_angle_gamma   119.99733760
_symmetry_Int_Tables_number   1
_chemical_formula_structural   Zr10Cd2(BiPb)3
_chemical_formula_sum   'Zr10 Cd2 Bi3 Pb3'
_cell_volume   417.56958459
_cell_formula_units_Z   1
loop_
 _symmetry_equiv_pos_site_id
 _symmetry_equiv_pos_as_xyz
  1  'x, y, z'
loop_
 _atom_site_type_symbol
 _atom_site_label
 _atom_site_symmetry_multiplicity
 _atom_site_fract_x
 _atom_site_fract_y
 _atom_site_fract_z
 _atom_site_occupancy
  Zr  Zr0  1  0.666674  0.333331  0.001937  1
  Zr  Zr1  1  0.333329  0.666672  0.001937  1
  Zr  Zr2  1  0.333329  0.666672  0.498063  1
  Zr  Zr3  1  0.666674  0.333331  0.498063  1
  Zr  Zr4  1  0.720529  0.720530  0.750000  1
  Zr  Zr5  1  0.279449  0.999986  0.750000  1
  Zr  Zr6  1  0.999988  0.279448  0.750000  1
  Zr  Zr7  1  0.281372  0.281372  0.250000  1
  Zr  Zr8  1  0.718644  0.000008  0.250000  1
  Zr  Zr9  1  0.000006  0.718643  0.250000  1
  Cd  Cd10  1  0.999999  0.999999  0.002175  1
  Cd  Cd11  1  0.999999  0.999999  0.497825  1
  Bi  Bi12  1  0.381942  0.381944  0.750000  1
  Bi  Bi13  1  0.618038  0.000012  0.750000  1
  Bi  Bi14  1  0.000011  0.618035  0.750000  1
  Pb  Pb15  1  0.620603  0.620603  0.250000  1
  Pb  Pb16  1  0.379414  0.999997  0.250000  1
  Pb  Pb17  1  0.999999  0.379418  0.250000  1
