# generated using pymatgen
data_Ti3Re3SiGeP
_symmetry_space_group_name_H-M   'P 1'
_cell_length_a   6.78883600
_cell_length_b   6.78883612
_cell_length_c   3.28354000
_cell_angle_alpha   90.00000000
_cell_angle_beta   90.00000000
_cell_angle_gamma   120.00000916
_symmetry_Int_Tables_number   1
_chemical_formula_structural   Ti3Re3SiGeP
_chemical_formula_sum   'Ti3 Re3 Si1 Ge1 P1'
_cell_volume   131.05800278
_cell_formula_units_Z   1
loop_
 _symmetry_equiv_pos_site_id
 _symmetry_equiv_pos_as_xyz
  1  'x, y, z'
loop_
 _atom_site_type_symbol
 _atom_site_label
 _atom_site_symmetry_multiplicity
 _atom_site_fract_x
 _atom_site_fract_y
 _atom_site_fract_z
 _atom_site_occupancy
  Ti  Ti0  1  0.408840  0.396285  0.500000  1
  Ti  Ti1  1  0.603715  0.012555  0.500000  1
  Ti  Ti2  1  0.987445  0.591160  0.500000  1
  Re  Re3  1  0.744944  0.735326  0.000000  1
  Re  Re4  1  0.264674  0.009618  0.000000  1
  Re  Re5  1  0.990382  0.255056  0.000000  1
  Si  Si6  1  0.000000  0.000000  0.500000  1
  Ge  Ge7  1  0.333333  0.666667  0.000000  1
  P  P8  1  0.666667  0.333333  0.000000  1
