# generated using pymatgen
data_La2Zn2Ge2Ir3Ru
_symmetry_space_group_name_H-M   'P 1'
_cell_length_a   4.24012400
_cell_length_b   4.24012400
_cell_length_c   10.58974100
_cell_angle_alpha   90.00000000
_cell_angle_beta   90.00000000
_cell_angle_gamma   90.00000000
_symmetry_Int_Tables_number   1
_chemical_formula_structural   La2Zn2Ge2Ir3Ru
_chemical_formula_sum   'La2 Zn2 Ge2 Ir3 Ru1'
_cell_volume   190.38926329
_cell_formula_units_Z   1
loop_
 _symmetry_equiv_pos_site_id
 _symmetry_equiv_pos_as_xyz
  1  'x, y, z'
loop_
 _atom_site_type_symbol
 _atom_site_label
 _atom_site_symmetry_multiplicity
 _atom_site_fract_x
 _atom_site_fract_y
 _atom_site_fract_z
 _atom_site_occupancy
  La  La0  1  0.000000  0.500000  0.250109  1
  La  La1  1  0.500000  0.000000  0.749891  1
  Zn  Zn2  1  0.000000  0.000000  0.500000  1
  Zn  Zn3  1  0.500000  0.500000  0.500000  1
  Ge  Ge4  1  0.000000  0.500000  0.879648  1
  Ge  Ge5  1  0.500000  0.000000  0.120352  1
  Ir  Ir6  1  0.500000  0.500000  0.000000  1
  Ir  Ir7  1  0.000000  0.500000  0.644736  1
  Ir  Ir8  1  0.500000  0.000000  0.355264  1
  Ru  Ru9  1  0.000000  0.000000  0.000000  1
