# generated using pymatgen
data_Pr20Co3Bi8Ru
_symmetry_space_group_name_H-M   'P 1'
_cell_length_a   8.46149127
_cell_length_b   9.18397700
_cell_length_c   12.93875353
_cell_angle_alpha   90.00000000
_cell_angle_beta   90.31134055
_cell_angle_gamma   90.00000000
_symmetry_Int_Tables_number   1
_chemical_formula_structural   Pr20Co3Bi8Ru
_chemical_formula_sum   'Pr20 Co3 Bi8 Ru1'
_cell_volume   1005.45751967
_cell_formula_units_Z   1
loop_
 _symmetry_equiv_pos_site_id
 _symmetry_equiv_pos_as_xyz
  1  'x, y, z'
loop_
 _atom_site_type_symbol
 _atom_site_label
 _atom_site_symmetry_multiplicity
 _atom_site_fract_x
 _atom_site_fract_y
 _atom_site_fract_z
 _atom_site_occupancy
  Pr  Pr0  1  0.848670  0.750000  0.798287  1
  Pr  Pr1  1  0.150389  0.250000  0.199687  1
  Pr  Pr2  1  0.351006  0.250000  0.699159  1
  Pr  Pr3  1  0.649245  0.750000  0.297247  1
  Pr  Pr4  1  0.376902  0.750000  0.694067  1
  Pr  Pr5  1  0.622486  0.250000  0.307610  1
  Pr  Pr6  1  0.878236  0.250000  0.809193  1
  Pr  Pr7  1  0.120953  0.750000  0.190502  1
  Pr  Pr8  1  0.951094  0.750000  0.503069  1
  Pr  Pr9  1  0.046844  0.250000  0.497347  1
  Pr  Pr10  1  0.451901  0.250000  0.997255  1
  Pr  Pr11  1  0.549567  0.750000  0.002174  1
  Pr  Pr12  1  0.680008  0.037493  0.565209  1
  Pr  Pr13  1  0.320730  0.966910  0.436230  1
  Pr  Pr14  1  0.178996  0.967512  0.937495  1
  Pr  Pr15  1  0.320730  0.533090  0.436230  1
  Pr  Pr16  1  0.819650  0.034718  0.062703  1
  Pr  Pr17  1  0.680008  0.462507  0.565209  1
  Pr  Pr18  1  0.819650  0.465282  0.062703  1
  Pr  Pr19  1  0.178996  0.532488  0.937495  1
  Co  Co20  1  0.431974  0.250000  0.491471  1
  Co  Co21  1  0.063576  0.250000  0.992097  1
  Co  Co22  1  0.935886  0.750000  0.007297  1
  Bi  Bi23  1  0.573261  0.493414  0.826940  1
  Bi  Bi24  1  0.426688  0.506138  0.173501  1
  Bi  Bi25  1  0.073138  0.505661  0.674405  1
  Bi  Bi26  1  0.426688  0.993862  0.173501  1
  Bi  Bi27  1  0.927363  0.493964  0.325326  1
  Bi  Bi28  1  0.573261  0.006586  0.826940  1
  Bi  Bi29  1  0.927363  0.006036  0.325326  1
  Bi  Bi30  1  0.073138  0.994339  0.674405  1
  Ru  Ru31  1  0.571600  0.750000  0.509921  1
