# generated using pymatgen
data_Er8B24IrRu3
_symmetry_space_group_name_H-M   'P 1'
_cell_length_a   3.63503200
_cell_length_b   9.10626656
_cell_length_c   11.45549070
_cell_angle_alpha   90.04011986
_cell_angle_beta   90.00000000
_cell_angle_gamma   90.00000000
_symmetry_Int_Tables_number   1
_chemical_formula_structural   Er8B24IrRu3
_chemical_formula_sum   'Er8 B24 Ir1 Ru3'
_cell_volume   379.19463828
_cell_formula_units_Z   1
loop_
 _symmetry_equiv_pos_site_id
 _symmetry_equiv_pos_as_xyz
  1  'x, y, z'
loop_
 _atom_site_type_symbol
 _atom_site_label
 _atom_site_symmetry_multiplicity
 _atom_site_fract_x
 _atom_site_fract_y
 _atom_site_fract_z
 _atom_site_occupancy
  Er  Er0  1  0.000000  0.318836  0.414509  1
  Er  Er1  1  0.000000  0.679185  0.588973  1
  Er  Er2  1  0.000000  0.823336  0.084064  1
  Er  Er3  1  0.000000  0.178772  0.913123  1
  Er  Er4  1  0.000000  0.945456  0.373129  1
  Er  Er5  1  0.000000  0.056096  0.626847  1
  Er  Er6  1  0.000000  0.441803  0.125624  1
  Er  Er7  1  0.000000  0.556106  0.873264  1
  B  B8  1  0.500000  0.553382  0.434071  1
  B  B9  1  0.500000  0.446259  0.566710  1
  B  B10  1  0.500000  0.053905  0.066579  1
  B  B11  1  0.500000  0.946499  0.933098  1
  B  B12  1  0.500000  0.749523  0.421407  1
  B  B13  1  0.500000  0.251414  0.579795  1
  B  B14  1  0.500000  0.248003  0.079594  1
  B  B15  1  0.500000  0.752030  0.920249  1
  B  B16  1  0.500000  0.792254  0.265345  1
  B  B17  1  0.500000  0.208732  0.733895  1
  B  B18  1  0.500000  0.291477  0.234378  1
  B  B19  1  0.500000  0.708543  0.766126  1
  B  B20  1  0.500000  0.631895  0.183623  1
  B  B21  1  0.500000  0.368522  0.814962  1
  B  B22  1  0.500000  0.131577  0.315239  1
  B  B23  1  0.500000  0.868205  0.685084  1
  B  B24  1  0.500000  0.982671  0.212832  1
  B  B25  1  0.500000  0.017412  0.786865  1
  B  B26  1  0.500000  0.481454  0.286955  1
  B  B27  1  0.500000  0.517303  0.713168  1
  B  B28  1  0.500000  0.609323  0.030392  1
  B  B29  1  0.500000  0.390737  0.969930  1
  B  B30  1  0.500000  0.108628  0.470025  1
  B  B31  1  0.500000  0.890579  0.529732  1
  Ir  Ir32  1  0.000000  0.637326  0.321831  1
  Ru  Ru33  1  0.000000  0.362430  0.678319  1
  Ru  Ru34  1  0.000000  0.137974  0.179117  1
  Ru  Ru35  1  0.000000  0.862352  0.821147  1
