# generated using pymatgen
data_Er5LuAl16(SiOs)8
_symmetry_space_group_name_H-M   'P 1'
_cell_length_a   8.66842511
_cell_length_b   8.66888274
_cell_length_c   9.38061500
_cell_angle_alpha   90.00000000
_cell_angle_beta   90.00000000
_cell_angle_gamma   120.11887499
_symmetry_Int_Tables_number   1
_chemical_formula_structural   Er5LuAl16(SiOs)8
_chemical_formula_sum   'Er5 Lu1 Al16 Si8 Os8'
_cell_volume   609.73875640
_cell_formula_units_Z   1
loop_
 _symmetry_equiv_pos_site_id
 _symmetry_equiv_pos_as_xyz
  1  'x, y, z'
loop_
 _atom_site_type_symbol
 _atom_site_label
 _atom_site_symmetry_multiplicity
 _atom_site_fract_x
 _atom_site_fract_y
 _atom_site_fract_z
 _atom_site_occupancy
  Er  Er0  1  0.807936  0.612294  0.750000  1
  Er  Er1  1  0.612255  0.807640  0.250000  1
  Er  Er2  1  0.387309  0.191839  0.750000  1
  Er  Er3  1  0.194890  0.804959  0.250000  1
  Er  Er4  1  0.805224  0.194782  0.750000  1
  Lu  Lu5  1  0.193867  0.390863  0.250000  1
  Al  Al6  1  0.165309  0.329075  0.578004  1
  Al  Al7  1  0.834631  0.670693  0.420878  1
  Al  Al8  1  0.670709  0.834477  0.578563  1
  Al  Al9  1  0.834631  0.670693  0.079122  1
  Al  Al10  1  0.328861  0.165331  0.420710  1
  Al  Al11  1  0.165309  0.329075  0.921996  1
  Al  Al12  1  0.164403  0.835426  0.578295  1
  Al  Al13  1  0.328861  0.165331  0.079290  1
  Al  Al14  1  0.835882  0.164596  0.420975  1
  Al  Al15  1  0.670709  0.834477  0.921437  1
  Al  Al16  1  0.835882  0.164596  0.079025  1
  Al  Al17  1  0.164403  0.835426  0.921705  1
  Al  Al18  1  0.564480  0.434830  0.250000  1
  Al  Al19  1  0.434979  0.564463  0.750000  1
  Al  Al20  1  0.001564  0.002059  0.250000  1
  Al  Al21  1  0.999590  0.000166  0.750000  1
  Si  Si22  1  0.334687  0.664636  0.042057  1
  Si  Si23  1  0.664855  0.334740  0.958927  1
  Si  Si24  1  0.664855  0.334740  0.541073  1
  Si  Si25  1  0.334687  0.664636  0.457943  1
  Si  Si26  1  0.564103  0.124417  0.250000  1
  Si  Si27  1  0.435790  0.875767  0.750000  1
  Si  Si28  1  0.876311  0.435628  0.250000  1
  Si  Si29  1  0.124001  0.563824  0.750000  1
  Os  Os30  1  0.499846  0.999701  0.000047  1
  Os  Os31  1  0.000292  0.499835  0.000436  1
  Os  Os32  1  0.499846  0.999701  0.499953  1
  Os  Os33  1  0.499555  0.499761  0.000422  1
  Os  Os34  1  0.000292  0.499835  0.499564  1
  Os  Os35  1  0.499555  0.499761  0.499578  1
  Os  Os36  1  0.999821  0.999963  0.000066  1
  Os  Os37  1  0.999821  0.999963  0.499934  1
