# generated using pymatgen
data_Ba2TbC2(O2F)3
_symmetry_space_group_name_H-M   'P 1'
_cell_length_a   9.61172700
_cell_length_b   7.04624800
_cell_length_c   11.94668100
_cell_angle_alpha   90.00000000
_cell_angle_beta   90.00000000
_cell_angle_gamma   90.00000000
_symmetry_Int_Tables_number   1
_chemical_formula_structural   Ba2TbC2(O2F)3
_chemical_formula_sum   'Ba8 Tb4 C8 O24 F12'
_cell_volume   809.10823057
_cell_formula_units_Z   4
loop_
 _symmetry_equiv_pos_site_id
 _symmetry_equiv_pos_as_xyz
  1  'x, y, z'
loop_
 _atom_site_type_symbol
 _atom_site_label
 _atom_site_symmetry_multiplicity
 _atom_site_fract_x
 _atom_site_fract_y
 _atom_site_fract_z
 _atom_site_occupancy
  Ba  Ba0  1  0.380126  0.238706  0.071360  1
  Ba  Ba1  1  0.119874  0.738706  0.071360  1
  Ba  Ba2  1  0.619874  0.238706  0.428641  1
  Ba  Ba3  1  0.880126  0.738706  0.428641  1
  Ba  Ba4  1  0.119874  0.261294  0.571360  1
  Ba  Ba5  1  0.380126  0.761294  0.571360  1
  Ba  Ba6  1  0.880126  0.261294  0.928640  1
  Ba  Ba7  1  0.619874  0.761294  0.928640  1
  Tb  Tb8  1  0.000000  0.271519  0.250000  1
  Tb  Tb9  1  0.500000  0.771519  0.250000  1
  Tb  Tb10  1  0.500000  0.228481  0.750000  1
  Tb  Tb11  1  0.000000  0.728481  0.750000  1
  C  C12  1  0.694339  0.478856  0.179081  1
  C  C13  1  0.805662  0.978856  0.179081  1
  C  C14  1  0.305662  0.478856  0.320918  1
  C  C15  1  0.194338  0.978856  0.320918  1
  C  C16  1  0.805662  0.021144  0.679082  1
  C  C17  1  0.694339  0.521144  0.679082  1
  C  C18  1  0.194338  0.021144  0.820918  1
  C  C19  1  0.305662  0.521144  0.820918  1
  O  O20  1  0.910147  0.019540  0.113461  1
  O  O21  1  0.589853  0.519540  0.113461  1
  O  O22  1  0.797824  0.380492  0.144456  1
  O  O23  1  0.702176  0.880492  0.144456  1
  O  O24  1  0.186924  0.042836  0.218089  1
  O  O25  1  0.313077  0.542836  0.218089  1
  O  O26  1  0.813077  0.042836  0.281910  1
  O  O27  1  0.686924  0.542836  0.281910  1
  O  O28  1  0.202176  0.380492  0.355544  1
  O  O29  1  0.297824  0.880492  0.355544  1
  O  O30  1  0.089853  0.019540  0.386539  1
  O  O31  1  0.410147  0.519540  0.386539  1
  O  O32  1  0.589853  0.480460  0.613461  1
  O  O33  1  0.910147  0.980460  0.613461  1
  O  O34  1  0.702176  0.119508  0.644456  1
  O  O35  1  0.797824  0.619508  0.644456  1
  O  O36  1  0.313077  0.457164  0.718090  1
  O  O37  1  0.186924  0.957164  0.718090  1
  O  O38  1  0.686924  0.457164  0.781911  1
  O  O39  1  0.813077  0.957164  0.781911  1
  O  O40  1  0.297824  0.119508  0.855544  1
  O  O41  1  0.202176  0.619508  0.855544  1
  O  O42  1  0.410147  0.480460  0.886539  1
  O  O43  1  0.089853  0.980460  0.886539  1
  F  F44  1  0.094159  0.348919  0.078325  1
  F  F45  1  0.405841  0.848917  0.078325  1
  F  F46  1  0.500000  0.098545  0.250000  1
  F  F47  1  0.000000  0.598545  0.250000  1
  F  F48  1  0.905841  0.348919  0.421675  1
  F  F49  1  0.594159  0.848917  0.421675  1
  F  F50  1  0.405841  0.151081  0.578325  1
  F  F51  1  0.094159  0.651081  0.578325  1
  F  F52  1  0.000000  0.401453  0.750000  1
  F  F53  1  0.500000  0.901453  0.750000  1
  F  F54  1  0.594159  0.151081  0.921675  1
  F  F55  1  0.905841  0.651081  0.921675  1
