# generated using pymatgen
data_Tb5ErAl24(CoRu3)2
_symmetry_space_group_name_H-M   'P 1'
_cell_length_a   8.76740329
_cell_length_b   8.76352811
_cell_length_c   9.53423000
_cell_angle_alpha   90.00000000
_cell_angle_beta   90.00000000
_cell_angle_gamma   119.98538059
_symmetry_Int_Tables_number   1
_chemical_formula_structural   Tb5ErAl24(CoRu3)2
_chemical_formula_sum   'Tb5 Er1 Al24 Co2 Ru6'
_cell_volume   634.49789134
_cell_formula_units_Z   1
loop_
 _symmetry_equiv_pos_site_id
 _symmetry_equiv_pos_as_xyz
  1  'x, y, z'
loop_
 _atom_site_type_symbol
 _atom_site_label
 _atom_site_symmetry_multiplicity
 _atom_site_fract_x
 _atom_site_fract_y
 _atom_site_fract_z
 _atom_site_occupancy
  Tb  Tb0  1  0.806475  0.193309  0.250000  1
  Tb  Tb1  1  0.806475  0.613165  0.250000  1
  Tb  Tb2  1  0.613537  0.806769  0.750000  1
  Tb  Tb3  1  0.193172  0.806690  0.750000  1
  Tb  Tb4  1  0.193172  0.386482  0.750000  1
  Er  Er5  1  0.387722  0.193861  0.250000  1
  Al  Al6  1  0.438405  0.877444  0.250000  1
  Al  Al7  1  0.123000  0.561500  0.250000  1
  Al  Al8  1  0.438405  0.560961  0.250000  1
  Al  Al9  1  0.561461  0.122954  0.750000  1
  Al  Al10  1  0.877037  0.438518  0.750000  1
  Al  Al11  1  0.561461  0.438508  0.750000  1
  Al  Al12  1  0.160021  0.840473  0.423285  1
  Al  Al13  1  0.160021  0.319550  0.423285  1
  Al  Al14  1  0.680285  0.840143  0.423443  1
  Al  Al15  1  0.840153  0.159878  0.576601  1
  Al  Al16  1  0.840153  0.680273  0.576601  1
  Al  Al17  1  0.319741  0.159869  0.576356  1
  Al  Al18  1  0.840153  0.159878  0.923399  1
  Al  Al19  1  0.840153  0.680273  0.923399  1
  Al  Al20  1  0.319741  0.159869  0.923644  1
  Al  Al21  1  0.160021  0.840473  0.076715  1
  Al  Al22  1  0.160021  0.319550  0.076715  1
  Al  Al23  1  0.680285  0.840143  0.076557  1
  Al  Al24  1  0.333336  0.666669  0.514463  1
  Al  Al25  1  0.666383  0.333191  0.485329  1
  Al  Al26  1  0.666383  0.333191  0.014671  1
  Al  Al27  1  0.333336  0.666669  0.985537  1
  Al  Al28  1  0.000593  0.000297  0.250000  1
  Al  Al29  1  0.000015  0.000008  0.750000  1
  Co  Co30  1  0.999888  0.999944  0.499897  1
  Co  Co31  1  0.999888  0.999944  0.000103  1
  Ru  Ru32  1  0.499825  0.000235  0.499664  1
  Ru  Ru33  1  0.999903  0.499952  0.499874  1
  Ru  Ru34  1  0.499825  0.499591  0.499664  1
  Ru  Ru35  1  0.499825  0.000235  0.000336  1
  Ru  Ru36  1  0.999903  0.499952  0.000126  1
  Ru  Ru37  1  0.499825  0.499591  0.000336  1
