# generated using pymatgen
data_Y8Si15Tc12Ge
_symmetry_space_group_name_H-M   'P 1'
_cell_length_a   6.82417022
_cell_length_b   6.81737158
_cell_length_c   12.65995585
_cell_angle_alpha   90.09219941
_cell_angle_beta   89.88398441
_cell_angle_gamma   90.15807362
_symmetry_Int_Tables_number   1
_chemical_formula_structural   Y8Si15Tc12Ge
_chemical_formula_sum   'Y8 Si15 Tc12 Ge1'
_cell_volume   588.97370618
_cell_formula_units_Z   1
loop_
 _symmetry_equiv_pos_site_id
 _symmetry_equiv_pos_as_xyz
  1  'x, y, z'
loop_
 _atom_site_type_symbol
 _atom_site_label
 _atom_site_symmetry_multiplicity
 _atom_site_fract_x
 _atom_site_fract_y
 _atom_site_fract_z
 _atom_site_occupancy
  Y  Y0  1  0.002864  0.661636  0.030314  1
  Y  Y1  1  0.996960  0.339260  0.531249  1
  Y  Y2  1  0.339319  0.998557  0.470099  1
  Y  Y3  1  0.163389  0.496918  0.780684  1
  Y  Y4  1  0.837776  0.503542  0.279886  1
  Y  Y5  1  0.496169  0.163178  0.219219  1
  Y  Y6  1  0.505263  0.839877  0.719058  1
  Y  Y7  1  0.660145  0.003893  0.969209  1
  Si  Si8  1  0.614370  0.308410  0.437330  1
  Si  Si9  1  0.383716  0.692480  0.938482  1
  Si  Si10  1  0.193120  0.114224  0.688251  1
  Si  Si11  1  0.311166  0.612207  0.563322  1
  Si  Si12  1  0.693128  0.382711  0.061995  1
  Si  Si13  1  0.805408  0.883219  0.186793  1
  Si  Si14  1  0.114910  0.193101  0.311824  1
  Si  Si15  1  0.975553  0.277495  0.935166  1
  Si  Si16  1  0.733866  0.018209  0.561777  1
  Si  Si17  1  0.222440  0.475442  0.184843  1
  Si  Si18  1  0.772636  0.519112  0.688519  1
  Si  Si19  1  0.479098  0.227306  0.813530  1
  Si  Si20  1  0.522114  0.778147  0.313481  1
  Si  Si21  1  0.277670  0.974870  0.064983  1
  Si  Si22  1  0.883231  0.805399  0.813957  1
  Tc  Tc23  1  0.662789  0.668398  0.500927  1
  Tc  Tc24  1  0.167490  0.836689  0.247142  1
  Tc  Tc25  1  0.333921  0.334388  0.000005  1
  Tc  Tc26  1  0.024239  0.812041  0.633666  1
  Tc  Tc27  1  0.980537  0.176730  0.125069  1
  Tc  Tc28  1  0.809490  0.029177  0.367934  1
  Tc  Tc29  1  0.322895  0.481185  0.374372  1
  Tc  Tc30  1  0.682953  0.521441  0.879983  1
  Tc  Tc31  1  0.481449  0.313806  0.621988  1
  Tc  Tc32  1  0.519006  0.677530  0.123197  1
  Tc  Tc33  1  0.176558  0.981063  0.875035  1
  Tc  Tc34  1  0.834715  0.166914  0.750589  1
  Ge  Ge35  1  0.019647  0.731446  0.436123  1
