# generated using pymatgen
data_PrDyFe3Re14C3
_symmetry_space_group_name_H-M   'P 1'
_cell_length_a   6.94420959
_cell_length_b   6.94421030
_cell_length_c   6.94420975
_cell_angle_alpha   82.63382504
_cell_angle_beta   82.63382732
_cell_angle_gamma   82.63381419
_symmetry_Int_Tables_number   1
_chemical_formula_structural   PrDyFe3Re14C3
_chemical_formula_sum   'Pr1 Dy1 Fe3 Re14 C3'
_cell_volume   327.22599034
_cell_formula_units_Z   1
loop_
 _symmetry_equiv_pos_site_id
 _symmetry_equiv_pos_as_xyz
  1  'x, y, z'
loop_
 _atom_site_type_symbol
 _atom_site_label
 _atom_site_symmetry_multiplicity
 _atom_site_fract_x
 _atom_site_fract_y
 _atom_site_fract_z
 _atom_site_occupancy
  Pr  Pr0  1  0.648027  0.648027  0.648027  1
  Dy  Dy1  1  0.350647  0.350647  0.350647  1
  Fe  Fe2  1  0.999331  0.999331  0.500374  1
  Fe  Fe3  1  0.500374  0.999331  0.999331  1
  Fe  Fe4  1  0.999331  0.500374  0.999331  1
  Re  Re5  1  0.722127  0.277361  0.000472  1
  Re  Re6  1  0.000472  0.722127  0.277361  1
  Re  Re7  1  0.277361  0.000472  0.722127  1
  Re  Re8  1  0.000472  0.277361  0.722127  1
  Re  Re9  1  0.722127  0.000472  0.277361  1
  Re  Re10  1  0.277361  0.722127  0.000472  1
  Re  Re11  1  0.344964  0.344964  0.863928  1
  Re  Re12  1  0.863928  0.344964  0.344964  1
  Re  Re13  1  0.344964  0.863928  0.344964  1
  Re  Re14  1  0.653782  0.653782  0.139400  1
  Re  Re15  1  0.139400  0.653782  0.653782  1
  Re  Re16  1  0.653782  0.139400  0.653782  1
  Re  Re17  1  0.898637  0.898637  0.898637  1
  Re  Re18  1  0.102025  0.102025  0.102025  1
  C  C19  1  0.496551  0.496551  0.007787  1
  C  C20  1  0.007787  0.496551  0.496551  1
  C  C21  1  0.496551  0.007787  0.496551  1
