# generated using pymatgen
data_KLiLuF5
_symmetry_space_group_name_H-M   'P 1'
_cell_length_a   11.73801200
_cell_length_b   6.27243441
_cell_length_c   6.44169966
_cell_angle_alpha   65.89523948
_cell_angle_beta   90.00000000
_cell_angle_gamma   90.00000000
_symmetry_Int_Tables_number   1
_chemical_formula_structural   KLiLuF5
_chemical_formula_sum   'K4 Li4 Lu4 F20'
_cell_volume   432.91925138
_cell_formula_units_Z   4
loop_
 _symmetry_equiv_pos_site_id
 _symmetry_equiv_pos_as_xyz
  1  'x, y, z'
loop_
 _atom_site_type_symbol
 _atom_site_label
 _atom_site_symmetry_multiplicity
 _atom_site_fract_x
 _atom_site_fract_y
 _atom_site_fract_z
 _atom_site_occupancy
  K  K0  1  0.848796  0.037669  0.947264  1
  K  K1  1  0.651204  0.537669  0.947264  1
  K  K2  1  0.348796  0.462331  0.052736  1
  K  K3  1  0.151204  0.962331  0.052736  1
  Li  Li4  1  0.745205  0.461324  0.441178  1
  Li  Li5  1  0.754795  0.961324  0.441178  1
  Li  Li6  1  0.254795  0.538676  0.558822  1
  Li  Li7  1  0.245205  0.038676  0.558822  1
  Lu  Lu8  1  0.997740  0.320273  0.318210  1
  Lu  Lu9  1  0.002260  0.679727  0.681790  1
  Lu  Lu10  1  0.502260  0.820273  0.318210  1
  Lu  Lu11  1  0.497740  0.179727  0.681790  1
  F  F12  1  0.671534  0.275862  0.712175  1
  F  F13  1  0.603271  0.966196  0.534768  1
  F  F14  1  0.328466  0.724138  0.287825  1
  F  F15  1  0.007336  0.330782  0.954330  1
  F  F16  1  0.171534  0.224138  0.287825  1
  F  F17  1  0.396729  0.033804  0.465232  1
  F  F18  1  0.896729  0.466196  0.534768  1
  F  F19  1  0.531357  0.451829  0.338966  1
  F  F20  1  0.807883  0.279545  0.277220  1
  F  F21  1  0.307883  0.220455  0.722780  1
  F  F22  1  0.468643  0.548171  0.661034  1
  F  F23  1  0.992664  0.669218  0.045670  1
  F  F24  1  0.192117  0.720455  0.722780  1
  F  F25  1  0.507336  0.169218  0.045670  1
  F  F26  1  0.968643  0.951829  0.338966  1
  F  F27  1  0.692117  0.779545  0.277220  1
  F  F28  1  0.031357  0.048171  0.661034  1
  F  F29  1  0.828466  0.775862  0.712175  1
  F  F30  1  0.103271  0.533804  0.465232  1
  F  F31  1  0.492664  0.830782  0.954330  1
