# generated using pymatgen
data_TbDy4P12Ru16Pt3
_symmetry_space_group_name_H-M   'P 1'
_cell_length_a   12.63322901
_cell_length_b   12.63622062
_cell_length_c   3.97411000
_cell_angle_alpha   90.00000000
_cell_angle_beta   90.00000000
_cell_angle_gamma   119.98711654
_symmetry_Int_Tables_number   1
_chemical_formula_structural   TbDy4P12Ru16Pt3
_chemical_formula_sum   'Tb1 Dy4 P12 Ru16 Pt3'
_cell_volume   549.48830135
_cell_formula_units_Z   1
loop_
 _symmetry_equiv_pos_site_id
 _symmetry_equiv_pos_as_xyz
  1  'x, y, z'
loop_
 _atom_site_type_symbol
 _atom_site_label
 _atom_site_symmetry_multiplicity
 _atom_site_fract_x
 _atom_site_fract_y
 _atom_site_fract_z
 _atom_site_occupancy
  Tb  Tb0  1  0.816261  0.999314  0.500000  1
  Dy  Dy1  1  0.666639  0.333314  0.000000  1
  Dy  Dy2  1  0.333304  0.666622  0.000000  1
  Dy  Dy3  1  0.183112  0.183770  0.500000  1
  Dy  Dy4  1  0.000760  0.816947  0.500000  1
  P  P5  1  0.627663  0.987116  0.000000  1
  P  P6  1  0.359264  0.372142  0.000000  1
  P  P7  1  0.012878  0.640734  0.000000  1
  P  P8  1  0.695893  0.528602  0.500000  1
  P  P9  1  0.832723  0.304099  0.500000  1
  P  P10  1  0.308387  0.829407  0.500000  1
  P  P11  1  0.521009  0.691550  0.500000  1
  P  P12  1  0.183321  0.000964  0.000000  1
  P  P13  1  0.817556  0.816542  0.000000  1
  P  P14  1  0.999111  0.182485  0.000000  1
  P  P15  1  0.471404  0.167336  0.500000  1
  P  P16  1  0.170554  0.478983  0.500000  1
  Ru  Ru17  1  0.620801  0.799474  0.000000  1
  Ru  Ru18  1  0.178658  0.379006  0.000000  1
  Ru  Ru19  1  0.378362  0.187961  0.000000  1
  Ru  Ru20  1  0.200373  0.821368  0.000000  1
  Ru  Ru21  1  0.809655  0.621636  0.000000  1
  Ru  Ru22  1  0.126527  0.636158  0.500000  1
  Ru  Ru23  1  0.363875  0.490389  0.500000  1
  Ru  Ru24  1  0.509577  0.873489  0.500000  1
  Ru  Ru25  1  0.000192  0.000006  0.000000  1
  Ru  Ru26  1  0.717216  0.715744  0.500000  1
  Ru  Ru27  1  0.998692  0.282889  0.500000  1
  Ru  Ru28  1  0.453327  0.005701  0.000000  1
  Ru  Ru29  1  0.552326  0.546691  0.000000  1
  Ru  Ru30  1  0.994360  0.447651  0.000000  1
  Ru  Ru31  1  0.811991  0.190568  0.000000  1
  Ru  Ru32  1  0.284243  0.001382  0.500000  1
  Pt  Pt33  1  0.868154  0.501856  0.500000  1
  Pt  Pt34  1  0.498135  0.366281  0.500000  1
  Pt  Pt35  1  0.633696  0.131824  0.500000  1
