# generated using pymatgen
data_CsMn2Mo4S7
_symmetry_space_group_name_H-M   'P 1'
_cell_length_a   9.46146304
_cell_length_b   9.45296929
_cell_length_c   9.46537200
_cell_angle_alpha   60.83115341
_cell_angle_beta   60.80654257
_cell_angle_gamma   61.00884157
_symmetry_Int_Tables_number   1
_chemical_formula_structural   CsMn2Mo4S7
_chemical_formula_sum   'Cs2 Mn4 Mo8 S14'
_cell_volume   610.51739814
_cell_formula_units_Z   2
loop_
 _symmetry_equiv_pos_site_id
 _symmetry_equiv_pos_as_xyz
  1  'x, y, z'
loop_
 _atom_site_type_symbol
 _atom_site_label
 _atom_site_symmetry_multiplicity
 _atom_site_fract_x
 _atom_site_fract_y
 _atom_site_fract_z
 _atom_site_occupancy
  Cs  Cs0  1  0.119841  0.121441  0.124029  1
  Cs  Cs1  1  0.879345  0.881168  0.880283  1
  Mn  Mn2  1  0.609926  0.306533  0.438961  1
  Mn  Mn3  1  0.310813  0.439407  0.607740  1
  Mn  Mn4  1  0.440068  0.607912  0.311164  1
  Mn  Mn5  1  0.386643  0.693514  0.559658  1
  Mo  Mo6  1  0.699807  0.559994  0.381037  1
  Mo  Mo7  1  0.560496  0.380307  0.698734  1
  Mo  Mo8  1  0.373819  0.194276  0.508133  1
  Mo  Mo9  1  0.196476  0.509807  0.375836  1
  Mo  Mo10  1  0.508348  0.375021  0.196166  1
  Mo  Mo11  1  0.623496  0.807461  0.491427  1
  Mo  Mo12  1  0.808100  0.493115  0.625976  1
  Mo  Mo13  1  0.489437  0.626099  0.806174  1
  S  S14  1  0.667379  0.320038  0.914590  1
  S  S15  1  0.094721  0.336463  0.684053  1
  S  S16  1  0.274322  0.281119  0.276254  1
  S  S17  1  0.719399  0.726758  0.723188  1
  S  S18  1  0.848466  0.259073  0.514196  1
  S  S19  1  0.263221  0.528983  0.831361  1
  S  S20  1  0.502658  0.842432  0.278487  1
  S  S21  1  0.174169  0.715767  0.483382  1
  S  S22  1  0.716273  0.477900  0.163864  1
  S  S23  1  0.478142  0.162427  0.714777  1
  S  S24  1  0.339029  0.683653  0.094234  1
  S  S25  1  0.682468  0.092459  0.336997  1
  S  S26  1  0.914906  0.671071  0.319050  1
  S  S27  1  0.318236  0.905803  0.660251  1
