# generated using pymatgen
data_Hf6Ti5Sn10Mo
_symmetry_space_group_name_H-M   'P 1'
_cell_length_a   9.52353531
_cell_length_b   9.52914692
_cell_length_c   5.76681025
_cell_angle_alpha   90.00000531
_cell_angle_beta   90.08735844
_cell_angle_gamma   120.01949879
_symmetry_Int_Tables_number   1
_chemical_formula_structural   Hf6Ti5Sn10Mo
_chemical_formula_sum   'Hf6 Ti5 Sn10 Mo1'
_cell_volume   453.14007691
_cell_formula_units_Z   1
loop_
 _symmetry_equiv_pos_site_id
 _symmetry_equiv_pos_as_xyz
  1  'x, y, z'
loop_
 _atom_site_type_symbol
 _atom_site_label
 _atom_site_symmetry_multiplicity
 _atom_site_fract_x
 _atom_site_fract_y
 _atom_site_fract_z
 _atom_site_occupancy
  Hf  Hf0  1  0.847390  0.690676  0.750212  1
  Hf  Hf1  1  0.152610  0.843285  0.249788  1
  Hf  Hf2  1  0.690473  0.845236  0.248224  1
  Hf  Hf3  1  0.309527  0.154764  0.751776  1
  Hf  Hf4  1  0.847390  0.156715  0.750212  1
  Hf  Hf5  1  0.152610  0.309324  0.249788  1
  Ti  Ti6  1  0.500000  0.000000  0.500000  1
  Ti  Ti7  1  0.500000  0.500000  0.000000  1
  Ti  Ti8  1  0.000000  0.500000  0.500000  1
  Ti  Ti9  1  0.500000  0.000000  0.000000  1
  Ti  Ti10  1  0.500000  0.500000  0.500000  1
  Sn  Sn11  1  0.212002  0.422670  0.749016  1
  Sn  Sn12  1  0.787998  0.210668  0.250984  1
  Sn  Sn13  1  0.422632  0.211316  0.250522  1
  Sn  Sn14  1  0.577368  0.788684  0.749478  1
  Sn  Sn15  1  0.212002  0.789332  0.749016  1
  Sn  Sn16  1  0.787998  0.577330  0.250984  1
  Sn  Sn17  1  0.668080  0.334040  0.753212  1
  Sn  Sn18  1  0.331920  0.665960  0.246788  1
  Sn  Sn19  1  0.000000  0.000000  0.500000  1
  Sn  Sn20  1  0.000000  0.000000  0.000000  1
  Mo  Mo21  1  0.000000  0.500000  0.000000  1
