# generated using pymatgen
data_Er12Fe2Ag2Os
_symmetry_space_group_name_H-M   'P 1'
_cell_length_a   8.22028657
_cell_length_b   8.21935795
_cell_length_c   8.22028515
_cell_angle_alpha   108.43551228
_cell_angle_beta   108.44127312
_cell_angle_gamma   111.56199088
_symmetry_Int_Tables_number   1
_chemical_formula_structural   Er12Fe2Ag2Os
_chemical_formula_sum   'Er12 Fe2 Ag2 Os1'
_cell_volume   427.10003102
_cell_formula_units_Z   1
loop_
 _symmetry_equiv_pos_site_id
 _symmetry_equiv_pos_as_xyz
  1  'x, y, z'
loop_
 _atom_site_type_symbol
 _atom_site_label
 _atom_site_symmetry_multiplicity
 _atom_site_fract_x
 _atom_site_fract_y
 _atom_site_fract_z
 _atom_site_occupancy
  Er  Er0  1  0.311245  0.311249  0.622690  1
  Er  Er1  1  0.688755  0.688751  0.377310  1
  Er  Er2  1  0.311442  0.688751  0.999996  1
  Er  Er3  1  0.688558  0.311249  0.000004  1
  Er  Er4  1  0.432180  0.189511  0.242685  1
  Er  Er5  1  0.567820  0.810489  0.757315  1
  Er  Er6  1  0.946825  0.189511  0.757330  1
  Er  Er7  1  0.189623  0.946995  0.757373  1
  Er  Er8  1  0.053175  0.810489  0.242670  1
  Er  Er9  1  0.810377  0.053005  0.242627  1
  Er  Er10  1  0.189392  0.432153  0.242760  1
  Er  Er11  1  0.810608  0.567847  0.757240  1
  Fe  Fe12  1  0.378545  0.378136  0.999590  1
  Fe  Fe13  1  0.621455  0.621864  0.000410  1
  Ag  Ag14  1  0.500000  0.000000  0.500000  1
  Ag  Ag15  1  0.000000  0.500000  0.500000  1
  Os  Os16  1  0.000000  0.000000  0.000000  1
