# generated using pymatgen
data_Tb4YIn4PdPt
_symmetry_space_group_name_H-M   'P 1'
_cell_length_a   3.64475700
_cell_length_b   8.20234669
_cell_length_c   18.35255829
_cell_angle_alpha   90.10882896
_cell_angle_beta   90.00000000
_cell_angle_gamma   90.00000000
_symmetry_Int_Tables_number   1
_chemical_formula_structural   Tb4YIn4PdPt
_chemical_formula_sum   'Tb8 Y2 In8 Pd2 Pt2'
_cell_volume   548.65902743
_cell_formula_units_Z   2
loop_
 _symmetry_equiv_pos_site_id
 _symmetry_equiv_pos_as_xyz
  1  'x, y, z'
loop_
 _atom_site_type_symbol
 _atom_site_label
 _atom_site_symmetry_multiplicity
 _atom_site_fract_x
 _atom_site_fract_y
 _atom_site_fract_z
 _atom_site_occupancy
  Tb  Tb0  1  0.000000  0.117543  0.416166  1
  Tb  Tb1  1  0.000000  0.882457  0.583834  1
  Tb  Tb2  1  0.000000  0.383607  0.915475  1
  Tb  Tb3  1  0.000000  0.616393  0.084525  1
  Tb  Tb4  1  0.000000  0.246713  0.219396  1
  Tb  Tb5  1  0.000000  0.753287  0.780604  1
  Tb  Tb6  1  0.000000  0.261148  0.720508  1
  Tb  Tb7  1  0.000000  0.738852  0.279492  1
  Y  Y8  1  0.000000  0.000000  0.000000  1
  Y  Y9  1  0.000000  0.500000  0.500000  1
  In  In10  1  0.500000  0.422152  0.351565  1
  In  In11  1  0.500000  0.577848  0.648435  1
  In  In12  1  0.500000  0.075016  0.850762  1
  In  In13  1  0.500000  0.924984  0.149238  1
  In  In14  1  0.500000  0.291228  0.066888  1
  In  In15  1  0.500000  0.708772  0.933112  1
  In  In16  1  0.500000  0.207737  0.567461  1
  In  In17  1  0.500000  0.792263  0.432539  1
  Pd  Pd18  1  0.500000  0.024272  0.303499  1
  Pd  Pd19  1  0.500000  0.975728  0.696501  1
  Pt  Pt20  1  0.500000  0.475406  0.803333  1
  Pt  Pt21  1  0.500000  0.524594  0.196667  1
