# generated using pymatgen
data_Tb2YAlC3
_symmetry_space_group_name_H-M   'P 1'
_cell_length_a   3.59507000
_cell_length_b   7.09331694
_cell_length_c   10.00735129
_cell_angle_alpha   89.82821276
_cell_angle_beta   90.00000000
_cell_angle_gamma   90.00000000
_symmetry_Int_Tables_number   1
_chemical_formula_structural   Tb2YAlC3
_chemical_formula_sum   'Tb4 Y2 Al2 C6'
_cell_volume   255.19602726
_cell_formula_units_Z   2
loop_
 _symmetry_equiv_pos_site_id
 _symmetry_equiv_pos_as_xyz
  1  'x, y, z'
loop_
 _atom_site_type_symbol
 _atom_site_label
 _atom_site_symmetry_multiplicity
 _atom_site_fract_x
 _atom_site_fract_y
 _atom_site_fract_z
 _atom_site_occupancy
  Tb  Tb0  1  0.500000  0.509803  0.199340  1
  Tb  Tb1  1  0.500000  0.490197  0.800660  1
  Tb  Tb2  1  0.000000  0.749946  0.458016  1
  Tb  Tb3  1  0.000000  0.250054  0.541984  1
  Y  Y4  1  0.500000  0.990464  0.199393  1
  Y  Y5  1  0.500000  0.009536  0.800607  1
  Al  Al6  1  0.000000  0.751228  0.007031  1
  Al  Al7  1  0.000000  0.248772  0.992969  1
  C  C8  1  0.500000  0.508725  0.565861  1
  C  C9  1  0.500000  0.491275  0.434139  1
  C  C10  1  0.500000  0.991246  0.565770  1
  C  C11  1  0.500000  0.008754  0.434230  1
  C  C12  1  0.000000  0.749967  0.208512  1
  C  C13  1  0.000000  0.250033  0.791488  1
