# generated using pymatgen
data_Ho4Hf3ZrPt4
_symmetry_space_group_name_H-M   'P 1'
_cell_length_a   4.66694500
_cell_length_b   7.10273503
_cell_length_c   8.20282306
_cell_angle_alpha   90.24455828
_cell_angle_beta   90.00000000
_cell_angle_gamma   90.00000000
_symmetry_Int_Tables_number   1
_chemical_formula_structural   Ho4Hf3ZrPt4
_chemical_formula_sum   'Ho4 Hf3 Zr1 Pt4'
_cell_volume   271.90530666
_cell_formula_units_Z   1
loop_
 _symmetry_equiv_pos_site_id
 _symmetry_equiv_pos_as_xyz
  1  'x, y, z'
loop_
 _atom_site_type_symbol
 _atom_site_label
 _atom_site_symmetry_multiplicity
 _atom_site_fract_x
 _atom_site_fract_y
 _atom_site_fract_z
 _atom_site_occupancy
  Ho  Ho0  1  0.250000  0.984240  0.323542  1
  Ho  Ho1  1  0.250000  0.482975  0.177322  1
  Ho  Ho2  1  0.750000  0.016721  0.678673  1
  Ho  Ho3  1  0.750000  0.517848  0.820863  1
  Hf  Hf4  1  0.250000  0.855208  0.922551  1
  Hf  Hf5  1  0.250000  0.352401  0.577976  1
  Hf  Hf6  1  0.750000  0.146558  0.077597  1
  Zr  Zr7  1  0.750000  0.646761  0.420891  1
  Pt  Pt8  1  0.250000  0.229045  0.905159  1
  Pt  Pt9  1  0.250000  0.727338  0.598935  1
  Pt  Pt10  1  0.750000  0.772944  0.090710  1
  Pt  Pt11  1  0.750000  0.267957  0.405782  1
