# generated using pymatgen
data_Pr2YPa3N8
_symmetry_space_group_name_H-M   'P 1'
_cell_length_a   6.99700607
_cell_length_b   6.99677520
_cell_length_c   6.90315500
_cell_angle_alpha   120.44437184
_cell_angle_beta   90.00804122
_cell_angle_gamma   119.99541219
_symmetry_Int_Tables_number   1
_chemical_formula_structural   Pr2YPa3N8
_chemical_formula_sum   'Pr2 Y1 Pa3 N8'
_cell_volume   237.35156896
_cell_formula_units_Z   1
loop_
 _symmetry_equiv_pos_site_id
 _symmetry_equiv_pos_as_xyz
  1  'x, y, z'
loop_
 _atom_site_type_symbol
 _atom_site_label
 _atom_site_symmetry_multiplicity
 _atom_site_fract_x
 _atom_site_fract_y
 _atom_site_fract_z
 _atom_site_occupancy
  Pr  Pr0  1  0.996181  0.992352  0.988532  1
  Pr  Pr1  1  0.753820  0.507648  0.261468  1
  Y  Y2  1  0.375000  0.750000  0.125000  1
  Pa  Pa3  1  0.375000  0.750000  0.624999  1
  Pa  Pa4  1  0.375000  0.249999  0.624999  1
  Pa  Pa5  1  0.874999  0.249999  0.625000  1
  N  N6  1  0.615579  0.231218  0.406155  1
  N  N7  1  0.174938  0.790575  0.406155  1
  N  N8  1  0.615639  0.790577  0.406214  1
  N  N9  1  0.141808  0.283666  0.425478  1
  N  N10  1  0.608191  0.216335  0.824522  1
  N  N11  1  0.134361  0.709422  0.843784  1
  N  N12  1  0.134422  0.268783  0.843845  1
  N  N13  1  0.575062  0.709424  0.843845  1
