# generated using pymatgen
data_Ho2TmIn3Ag2Rh
_symmetry_space_group_name_H-M   'P 1'
_cell_length_a   7.98115106
_cell_length_b   7.97295048
_cell_length_c   3.68867200
_cell_angle_alpha   90.00000000
_cell_angle_beta   90.00000000
_cell_angle_gamma   120.02049322
_symmetry_Int_Tables_number   1
_chemical_formula_structural   Ho2TmIn3Ag2Rh
_chemical_formula_sum   'Ho2 Tm1 In3 Ag2 Rh1'
_cell_volume   203.23361754
_cell_formula_units_Z   1
loop_
 _symmetry_equiv_pos_site_id
 _symmetry_equiv_pos_as_xyz
  1  'x, y, z'
loop_
 _atom_site_type_symbol
 _atom_site_label
 _atom_site_symmetry_multiplicity
 _atom_site_fract_x
 _atom_site_fract_y
 _atom_site_fract_z
 _atom_site_occupancy
  Ho  Ho0  1  0.968207  0.384916  0.500000  1
  Ho  Ho1  1  0.614998  0.583134  0.500000  1
  Tm  Tm2  1  0.417808  0.033425  0.500000  1
  In  In3  1  0.269112  0.278989  0.000000  1
  In  In4  1  0.011200  0.731394  0.000000  1
  In  In5  1  0.720068  0.989625  0.000000  1
  Ag  Ag6  1  0.333422  0.667468  0.000000  1
  Ag  Ag7  1  0.000127  0.999858  0.500000  1
  Rh  Rh8  1  0.665059  0.331191  0.000000  1
