# generated using pymatgen
data_Ho10Cd3Ru
_symmetry_space_group_name_H-M   'P 1'
_cell_length_a   9.53737900
_cell_length_b   9.53737918
_cell_length_c   9.81503500
_cell_angle_alpha   90.00000000
_cell_angle_beta   90.00000000
_cell_angle_gamma   119.99999590
_symmetry_Int_Tables_number   1
_chemical_formula_structural   Ho10Cd3Ru
_chemical_formula_sum   'Ho20 Cd6 Ru2'
_cell_volume   773.17996685
_cell_formula_units_Z   2
loop_
 _symmetry_equiv_pos_site_id
 _symmetry_equiv_pos_as_xyz
  1  'x, y, z'
loop_
 _atom_site_type_symbol
 _atom_site_label
 _atom_site_symmetry_multiplicity
 _atom_site_fract_x
 _atom_site_fract_y
 _atom_site_fract_z
 _atom_site_occupancy
  Ho  Ho0  1  0.000000  0.000000  0.500000  1
  Ho  Ho1  1  0.000000  0.000000  0.000000  1
  Ho  Ho2  1  0.209627  0.790373  0.440680  1
  Ho  Ho3  1  0.209627  0.419255  0.440680  1
  Ho  Ho4  1  0.580745  0.790373  0.440680  1
  Ho  Ho5  1  0.790373  0.209627  0.559320  1
  Ho  Ho6  1  0.790373  0.580745  0.559320  1
  Ho  Ho7  1  0.419255  0.209627  0.559320  1
  Ho  Ho8  1  0.790373  0.209627  0.940680  1
  Ho  Ho9  1  0.790373  0.580745  0.940680  1
  Ho  Ho10  1  0.419255  0.209627  0.940680  1
  Ho  Ho11  1  0.209627  0.790373  0.059320  1
  Ho  Ho12  1  0.209627  0.419255  0.059320  1
  Ho  Ho13  1  0.580745  0.790373  0.059320  1
  Ho  Ho14  1  0.541308  0.458692  0.250000  1
  Ho  Ho15  1  0.541308  0.082617  0.250000  1
  Ho  Ho16  1  0.917383  0.458692  0.250000  1
  Ho  Ho17  1  0.458692  0.541308  0.750000  1
  Ho  Ho18  1  0.458692  0.917383  0.750000  1
  Ho  Ho19  1  0.082617  0.541308  0.750000  1
  Cd  Cd20  1  0.885401  0.114599  0.250000  1
  Cd  Cd21  1  0.885401  0.770804  0.250000  1
  Cd  Cd22  1  0.229196  0.114599  0.250000  1
  Cd  Cd23  1  0.114599  0.885401  0.750000  1
  Cd  Cd24  1  0.114599  0.229196  0.750000  1
  Cd  Cd25  1  0.770804  0.885401  0.750000  1
  Ru  Ru26  1  0.333333  0.666667  0.250000  1
  Ru  Ru27  1  0.666667  0.333333  0.750000  1
