# generated using pymatgen
data_Lu3ZrAl16(SiIr3)2
_symmetry_space_group_name_H-M   'P 1'
_cell_length_a   7.50693550
_cell_length_b   7.49272953
_cell_length_c   9.24963500
_cell_angle_alpha   90.00000000
_cell_angle_beta   90.00000000
_cell_angle_gamma   119.62243127
_symmetry_Int_Tables_number   1
_chemical_formula_structural   Lu3ZrAl16(SiIr3)2
_chemical_formula_sum   'Lu3 Zr1 Al16 Si2 Ir6'
_cell_volume   452.26997504
_cell_formula_units_Z   1
loop_
 _symmetry_equiv_pos_site_id
 _symmetry_equiv_pos_as_xyz
  1  'x, y, z'
loop_
 _atom_site_type_symbol
 _atom_site_label
 _atom_site_symmetry_multiplicity
 _atom_site_fract_x
 _atom_site_fract_y
 _atom_site_fract_z
 _atom_site_occupancy
  Lu  Lu0  1  0.005760  0.324331  0.750000  1
  Lu  Lu1  1  0.675159  0.994573  0.250000  1
  Lu  Lu2  1  0.325374  0.006164  0.750000  1
  Zr  Zr3  1  0.992978  0.674069  0.250000  1
  Al  Al4  1  0.000482  0.338377  0.077655  1
  Al  Al5  1  0.000321  0.663966  0.925820  1
  Al  Al6  1  0.000321  0.663966  0.574180  1
  Al  Al7  1  0.334327  0.999064  0.421724  1
  Al  Al8  1  0.000482  0.338377  0.422345  1
  Al  Al9  1  0.663525  0.999097  0.577193  1
  Al  Al10  1  0.663525  0.999097  0.922807  1
  Al  Al11  1  0.334327  0.999064  0.078276  1
  Al  Al12  1  0.335054  0.335042  0.558472  1
  Al  Al13  1  0.667016  0.665347  0.439095  1
  Al  Al14  1  0.667016  0.665347  0.060905  1
  Al  Al15  1  0.335054  0.335042  0.941528  1
  Al  Al16  1  0.331620  0.549421  0.250000  1
  Al  Al17  1  0.665942  0.452265  0.750000  1
  Al  Al18  1  0.552448  0.337740  0.250000  1
  Al  Al19  1  0.450244  0.663644  0.750000  1
  Si  Si20  1  0.126821  0.124872  0.250000  1
  Si  Si21  1  0.871101  0.870021  0.750000  1
  Ir  Ir22  1  0.672259  0.327594  0.000468  1
  Ir  Ir23  1  0.328897  0.672882  0.000793  1
  Ir  Ir24  1  0.328897  0.672882  0.499207  1
  Ir  Ir25  1  0.672259  0.327594  0.499532  1
  Ir  Ir26  1  0.999394  0.000082  0.000922  1
  Ir  Ir27  1  0.999394  0.000082  0.499078  1
