# generated using pymatgen
data_Dy2HoEr9Os4
_symmetry_space_group_name_H-M   'P 1'
_cell_length_a   6.28455435
_cell_length_b   7.38369798
_cell_length_c   8.97749500
_cell_angle_alpha   90.00000000
_cell_angle_beta   90.00000000
_cell_angle_gamma   89.97711456
_symmetry_Int_Tables_number   1
_chemical_formula_structural   Dy2HoEr9Os4
_chemical_formula_sum   'Dy2 Ho1 Er9 Os4'
_cell_volume   416.58492316
_cell_formula_units_Z   1
loop_
 _symmetry_equiv_pos_site_id
 _symmetry_equiv_pos_as_xyz
  1  'x, y, z'
loop_
 _atom_site_type_symbol
 _atom_site_label
 _atom_site_symmetry_multiplicity
 _atom_site_fract_x
 _atom_site_fract_y
 _atom_site_fract_z
 _atom_site_occupancy
  Dy  Dy0  1  0.870572  0.538961  0.250000  1
  Dy  Dy1  1  0.629630  0.039125  0.250000  1
  Ho  Ho2  1  0.130176  0.460818  0.750000  1
  Er  Er3  1  0.333101  0.675230  0.062394  1
  Er  Er4  1  0.167380  0.174542  0.437658  1
  Er  Er5  1  0.666815  0.324846  0.563129  1
  Er  Er6  1  0.832336  0.825202  0.936752  1
  Er  Er7  1  0.666815  0.324846  0.936871  1
  Er  Er8  1  0.832336  0.825202  0.563248  1
  Er  Er9  1  0.333101  0.675230  0.437606  1
  Er  Er10  1  0.167380  0.174542  0.062342  1
  Er  Er11  1  0.369769  0.960611  0.750000  1
  Os  Os12  1  0.041388  0.883020  0.250000  1
  Os  Os13  1  0.458596  0.383067  0.250000  1
  Os  Os14  1  0.960525  0.117178  0.750000  1
  Os  Os15  1  0.540081  0.617581  0.750000  1
