# generated using pymatgen
data_Ba3WI2O5
_symmetry_space_group_name_H-M   'P 1'
_cell_length_a   8.35096228
_cell_length_b   8.35096195
_cell_length_c   11.94947400
_cell_angle_alpha   90.00000000
_cell_angle_beta   90.00000000
_cell_angle_gamma   137.43322968
_symmetry_Int_Tables_number   1
_chemical_formula_structural   Ba3WI2O5
_chemical_formula_sum   'Ba6 W2 I4 O10'
_cell_volume   563.71142714
_cell_formula_units_Z   2
loop_
 _symmetry_equiv_pos_site_id
 _symmetry_equiv_pos_as_xyz
  1  'x, y, z'
loop_
 _atom_site_type_symbol
 _atom_site_label
 _atom_site_symmetry_multiplicity
 _atom_site_fract_x
 _atom_site_fract_y
 _atom_site_fract_z
 _atom_site_occupancy
  Ba  Ba0  1  0.338436  0.661564  0.962880  1
  Ba  Ba1  1  0.661564  0.338436  0.462880  1
  Ba  Ba2  1  0.338436  0.661564  0.537120  1
  Ba  Ba3  1  0.121784  0.878216  0.750000  1
  Ba  Ba4  1  0.661564  0.338436  0.037120  1
  Ba  Ba5  1  0.878216  0.121784  0.250000  1
  W  W6  1  0.242889  0.757111  0.250000  1
  W  W7  1  0.757111  0.242889  0.750000  1
  I  I8  1  0.506149  0.493851  0.750000  1
  I  I9  1  0.000000  0.000000  0.000000  1
  I  I10  1  0.000000  0.000000  0.500000  1
  I  I11  1  0.493851  0.506149  0.250000  1
  O  O12  1  0.493735  0.947044  0.137437  1
  O  O13  1  0.870386  0.129614  0.750000  1
  O  O14  1  0.947044  0.493735  0.637437  1
  O  O15  1  0.506265  0.052956  0.862563  1
  O  O16  1  0.129614  0.870386  0.250000  1
  O  O17  1  0.506265  0.052956  0.637437  1
  O  O18  1  0.947044  0.493735  0.862563  1
  O  O19  1  0.052956  0.506265  0.137437  1
  O  O20  1  0.493735  0.947044  0.362563  1
  O  O21  1  0.052956  0.506265  0.362563  1
