# generated using pymatgen
data_Y20Cd6PdRh
_symmetry_space_group_name_H-M   'P 1'
_cell_length_a   9.72832300
_cell_length_b   9.72832338
_cell_length_c   9.83139600
_cell_angle_alpha   90.00000000
_cell_angle_beta   90.00000000
_cell_angle_gamma   120.00000212
_symmetry_Int_Tables_number   1
_chemical_formula_structural   Y20Cd6PdRh
_chemical_formula_sum   'Y20 Cd6 Pd1 Rh1'
_cell_volume   805.78984878
_cell_formula_units_Z   1
loop_
 _symmetry_equiv_pos_site_id
 _symmetry_equiv_pos_as_xyz
  1  'x, y, z'
loop_
 _atom_site_type_symbol
 _atom_site_label
 _atom_site_symmetry_multiplicity
 _atom_site_fract_x
 _atom_site_fract_y
 _atom_site_fract_z
 _atom_site_occupancy
  Y  Y0  1  0.208993  0.791007  0.939137  1
  Y  Y1  1  0.208993  0.417986  0.939137  1
  Y  Y2  1  0.582014  0.791007  0.939137  1
  Y  Y3  1  0.792609  0.207391  0.058545  1
  Y  Y4  1  0.792609  0.585217  0.058545  1
  Y  Y5  1  0.414783  0.207391  0.058545  1
  Y  Y6  1  0.792609  0.207391  0.441455  1
  Y  Y7  1  0.792609  0.585217  0.441455  1
  Y  Y8  1  0.414783  0.207391  0.441455  1
  Y  Y9  1  0.208993  0.791007  0.560863  1
  Y  Y10  1  0.208993  0.417986  0.560863  1
  Y  Y11  1  0.582014  0.791007  0.560863  1
  Y  Y12  1  0.542359  0.457641  0.750000  1
  Y  Y13  1  0.542359  0.084719  0.750000  1
  Y  Y14  1  0.915281  0.457641  0.750000  1
  Y  Y15  1  0.456810  0.543190  0.250000  1
  Y  Y16  1  0.456810  0.913620  0.250000  1
  Y  Y17  1  0.086380  0.543190  0.250000  1
  Y  Y18  1  0.000000  0.000000  0.000201  1
  Y  Y19  1  0.000000  0.000000  0.499799  1
  Cd  Cd20  1  0.884283  0.115717  0.750000  1
  Cd  Cd21  1  0.884283  0.768567  0.750000  1
  Cd  Cd22  1  0.231433  0.115717  0.750000  1
  Cd  Cd23  1  0.115774  0.884226  0.250000  1
  Cd  Cd24  1  0.115774  0.231548  0.250000  1
  Cd  Cd25  1  0.768452  0.884226  0.250000  1
  Pd  Pd26  1  0.666667  0.333333  0.250000  1
  Rh  Rh27  1  0.333333  0.666667  0.750000  1
