# generated using pymatgen
data_Er20IrRuPt10
_symmetry_space_group_name_H-M   'P 1'
_cell_length_a   10.90918500
_cell_length_b   10.90918500
_cell_length_c   6.38441500
_cell_angle_alpha   90.00000000
_cell_angle_beta   90.00000000
_cell_angle_gamma   90.00000000
_symmetry_Int_Tables_number   1
_chemical_formula_structural   Er20IrRuPt10
_chemical_formula_sum   'Er20 Ir1 Ru1 Pt10'
_cell_volume   759.81125533
_cell_formula_units_Z   1
loop_
 _symmetry_equiv_pos_site_id
 _symmetry_equiv_pos_as_xyz
  1  'x, y, z'
loop_
 _atom_site_type_symbol
 _atom_site_label
 _atom_site_symmetry_multiplicity
 _atom_site_fract_x
 _atom_site_fract_y
 _atom_site_fract_z
 _atom_site_occupancy
  Er  Er0  1  0.291988  0.088228  0.376258  1
  Er  Er1  1  0.292108  0.911850  0.876367  1
  Er  Er2  1  0.707892  0.088150  0.876367  1
  Er  Er3  1  0.708012  0.911772  0.376258  1
  Er  Er4  1  0.588150  0.792108  0.876367  1
  Er  Er5  1  0.588228  0.208012  0.376258  1
  Er  Er6  1  0.411772  0.791988  0.376258  1
  Er  Er7  1  0.411850  0.207892  0.876367  1
  Er  Er8  1  0.204165  0.413128  0.625662  1
  Er  Er9  1  0.203975  0.586869  0.123621  1
  Er  Er10  1  0.796025  0.413131  0.123621  1
  Er  Er11  1  0.795835  0.586872  0.625662  1
  Er  Er12  1  0.913131  0.703975  0.123621  1
  Er  Er13  1  0.913128  0.295835  0.625662  1
  Er  Er14  1  0.086872  0.704165  0.625662  1
  Er  Er15  1  0.086869  0.296025  0.123621  1
  Er  Er16  1  0.000000  0.000000  0.500888  1
  Er  Er17  1  0.000000  0.000000  0.000786  1
  Er  Er18  1  0.500000  0.500000  0.000786  1
  Er  Er19  1  0.500000  0.500000  0.500888  1
  Ir  Ir20  1  0.000000  0.500000  0.378571  1
  Ru  Ru21  1  0.000000  0.500000  0.877789  1
  Pt  Pt22  1  0.845613  0.152681  0.249951  1
  Pt  Pt23  1  0.845587  0.847057  0.749776  1
  Pt  Pt24  1  0.154413  0.152943  0.749776  1
  Pt  Pt25  1  0.154387  0.847319  0.249951  1
  Pt  Pt26  1  0.652943  0.345587  0.749776  1
  Pt  Pt27  1  0.652681  0.654387  0.249951  1
  Pt  Pt28  1  0.347319  0.345613  0.249951  1
  Pt  Pt29  1  0.347057  0.654413  0.749776  1
  Pt  Pt30  1  0.500000  0.000000  0.116956  1
  Pt  Pt31  1  0.500000  0.000000  0.616784  1
