# generated using pymatgen
data_YEr2Mg3Si2Au
_symmetry_space_group_name_H-M   'P 1'
_cell_length_a   7.21190700
_cell_length_b   7.22182319
_cell_length_c   4.28320500
_cell_angle_alpha   90.00000000
_cell_angle_beta   90.00000000
_cell_angle_gamma   119.95459360
_symmetry_Int_Tables_number   1
_chemical_formula_structural   YEr2Mg3Si2Au
_chemical_formula_sum   'Y1 Er2 Mg3 Si2 Au1'
_cell_volume   193.28359269
_cell_formula_units_Z   1
loop_
 _symmetry_equiv_pos_site_id
 _symmetry_equiv_pos_as_xyz
  1  'x, y, z'
loop_
 _atom_site_type_symbol
 _atom_site_label
 _atom_site_symmetry_multiplicity
 _atom_site_fract_x
 _atom_site_fract_y
 _atom_site_fract_z
 _atom_site_occupancy
  Y  Y0  1  0.581616  0.000000  0.000000  1
  Er  Er1  1  0.999454  0.582343  0.000000  1
  Er  Er2  1  0.417111  0.417657  0.000000  1
  Mg  Mg3  1  0.246961  0.000000  0.500000  1
  Mg  Mg4  1  0.000383  0.247394  0.500000  1
  Mg  Mg5  1  0.752988  0.752606  0.500000  1
  Si  Si6  1  0.332103  0.664555  0.500000  1
  Si  Si7  1  0.667550  0.335445  0.500000  1
  Au  Au8  1  0.001834  0.000000  0.000000  1
