# generated using pymatgen
data_TmLu4Pt15
_symmetry_space_group_name_H-M   'P 1'
_cell_length_a   4.07985900
_cell_length_b   4.07985900
_cell_length_c   20.29686900
_cell_angle_alpha   90.00000000
_cell_angle_beta   90.00000000
_cell_angle_gamma   90.00000000
_symmetry_Int_Tables_number   1
_chemical_formula_structural   TmLu4Pt15
_chemical_formula_sum   'Tm1 Lu4 Pt15'
_cell_volume   337.84644776
_cell_formula_units_Z   1
loop_
 _symmetry_equiv_pos_site_id
 _symmetry_equiv_pos_as_xyz
  1  'x, y, z'
loop_
 _atom_site_type_symbol
 _atom_site_label
 _atom_site_symmetry_multiplicity
 _atom_site_fract_x
 _atom_site_fract_y
 _atom_site_fract_z
 _atom_site_occupancy
  Tm  Tm0  1  0.000000  0.000000  0.000000  1
  Lu  Lu1  1  0.000000  0.000000  0.199164  1
  Lu  Lu2  1  0.000000  0.000000  0.399551  1
  Lu  Lu3  1  0.000000  0.000000  0.600449  1
  Lu  Lu4  1  0.000000  0.000000  0.800836  1
  Pt  Pt5  1  0.500000  0.500000  0.000000  1
  Pt  Pt6  1  0.500000  0.500000  0.198911  1
  Pt  Pt7  1  0.500000  0.500000  0.399541  1
  Pt  Pt8  1  0.500000  0.500000  0.600459  1
  Pt  Pt9  1  0.500000  0.500000  0.801089  1
  Pt  Pt10  1  0.500000  0.000000  0.099606  1
  Pt  Pt11  1  0.500000  0.000000  0.299139  1
  Pt  Pt12  1  0.500000  0.000000  0.500000  1
  Pt  Pt13  1  0.500000  0.000000  0.700861  1
  Pt  Pt14  1  0.500000  0.000000  0.900394  1
  Pt  Pt15  1  0.000000  0.500000  0.099606  1
  Pt  Pt16  1  0.000000  0.500000  0.299139  1
  Pt  Pt17  1  0.000000  0.500000  0.500000  1
  Pt  Pt18  1  0.000000  0.500000  0.700861  1
  Pt  Pt19  1  0.000000  0.500000  0.900394  1
