# generated using pymatgen
data_Ho2Er10InCo4Rh
_symmetry_space_group_name_H-M   'P 1'
_cell_length_a   8.22851160
_cell_length_b   8.22843097
_cell_length_c   8.22729391
_cell_angle_alpha   110.88827680
_cell_angle_beta   110.86675059
_cell_angle_gamma   106.69938291
_symmetry_Int_Tables_number   1
_chemical_formula_structural   Ho2Er10InCo4Rh
_chemical_formula_sum   'Ho2 Er10 In1 Co4 Rh1'
_cell_volume   428.03942490
_cell_formula_units_Z   1
loop_
 _symmetry_equiv_pos_site_id
 _symmetry_equiv_pos_as_xyz
  1  'x, y, z'
loop_
 _atom_site_type_symbol
 _atom_site_label
 _atom_site_symmetry_multiplicity
 _atom_site_fract_x
 _atom_site_fract_y
 _atom_site_fract_z
 _atom_site_occupancy
  Ho  Ho0  1  0.186218  0.289590  0.475800  1
  Ho  Ho1  1  0.813782  0.710410  0.524200  1
  Er  Er2  1  0.186273  0.710592  0.896858  1
  Er  Er3  1  0.813727  0.289408  0.103142  1
  Er  Er4  1  0.313943  0.619227  0.304995  1
  Er  Er5  1  0.686057  0.380773  0.695005  1
  Er  Er6  1  0.314236  0.008940  0.695001  1
  Er  Er7  1  0.685764  0.991060  0.304999  1
  Er  Er8  1  0.409823  0.214762  0.194656  1
  Er  Er9  1  0.590177  0.785238  0.805344  1
  Er  Er10  1  0.020101  0.215175  0.805349  1
  Er  Er11  1  0.979899  0.784825  0.194651  1
  In  In12  1  0.500000  0.500000  0.000000  1
  Co  Co13  1  0.112203  0.612209  0.500003  1
  Co  Co14  1  0.887797  0.387791  0.499997  1
  Co  Co15  1  0.378442  0.999914  0.378353  1
  Co  Co16  1  0.621558  0.000086  0.621647  1
  Rh  Rh17  1  0.000000  0.000000  0.000000  1
