# generated using pymatgen
data_SmTh(Ga4Cu9)2
_symmetry_space_group_name_H-M   'P 1'
_cell_length_a   8.31804252
_cell_length_b   8.31804079
_cell_length_c   8.31804116
_cell_angle_alpha   120.56174739
_cell_angle_beta   120.56174040
_cell_angle_gamma   89.02975551
_symmetry_Int_Tables_number   1
_chemical_formula_structural   SmTh(Ga4Cu9)2
_chemical_formula_sum   'Sm1 Th1 Ga8 Cu18'
_cell_volume   403.43863972
_cell_formula_units_Z   1
loop_
 _symmetry_equiv_pos_site_id
 _symmetry_equiv_pos_as_xyz
  1  'x, y, z'
loop_
 _atom_site_type_symbol
 _atom_site_label
 _atom_site_symmetry_multiplicity
 _atom_site_fract_x
 _atom_site_fract_y
 _atom_site_fract_z
 _atom_site_occupancy
  Sm  Sm0  1  0.250000  0.250000  0.000000  1
  Th  Th1  1  0.750000  0.750000  0.000000  1
  Ga  Ga2  1  0.057619  0.557349  0.861339  1
  Ga  Ga3  1  0.696010  0.196280  0.138661  1
  Ga  Ga4  1  0.557349  0.696010  0.499730  1
  Ga  Ga5  1  0.196280  0.057619  0.500270  1
  Ga  Ga6  1  0.942651  0.442381  0.138661  1
  Ga  Ga7  1  0.303720  0.803990  0.861339  1
  Ga  Ga8  1  0.442381  0.303720  0.499730  1
  Ga  Ga9  1  0.803990  0.942651  0.500270  1
  Cu  Cu10  1  0.061562  0.201930  0.263635  1
  Cu  Cu11  1  0.938296  0.797928  0.736365  1
  Cu  Cu12  1  0.561704  0.298070  0.859632  1
  Cu  Cu13  1  0.438438  0.702072  0.140368  1
  Cu  Cu14  1  0.797928  0.061562  0.859632  1
  Cu  Cu15  1  0.201930  0.938296  0.140368  1
  Cu  Cu16  1  0.702072  0.561704  0.263635  1
  Cu  Cu17  1  0.298070  0.438438  0.736365  1
  Cu  Cu18  1  0.438286  0.938168  0.733219  1
  Cu  Cu19  1  0.204949  0.705067  0.266781  1
  Cu  Cu20  1  0.938168  0.204949  0.499882  1
  Cu  Cu21  1  0.705067  0.438286  0.500118  1
  Cu  Cu22  1  0.561832  0.061714  0.266781  1
  Cu  Cu23  1  0.794933  0.295051  0.733219  1
  Cu  Cu24  1  0.061714  0.794933  0.499882  1
  Cu  Cu25  1  0.295051  0.561832  0.500118  1
  Cu  Cu26  1  0.000000  0.500000  0.500000  1
  Cu  Cu27  1  0.500000  0.000000  0.500000  1
