# generated using pymatgen
data_Ho5Sn3P
_symmetry_space_group_name_H-M   'P 1'
_cell_length_a   9.04480900
_cell_length_b   9.04481016
_cell_length_c   6.64972700
_cell_angle_alpha   90.00000000
_cell_angle_beta   90.00000000
_cell_angle_gamma   119.99999208
_symmetry_Int_Tables_number   1
_chemical_formula_structural   Ho5Sn3P
_chemical_formula_sum   'Ho10 Sn6 P2'
_cell_volume   471.12194990
_cell_formula_units_Z   2
loop_
 _symmetry_equiv_pos_site_id
 _symmetry_equiv_pos_as_xyz
  1  'x, y, z'
loop_
 _atom_site_type_symbol
 _atom_site_label
 _atom_site_symmetry_multiplicity
 _atom_site_fract_x
 _atom_site_fract_y
 _atom_site_fract_z
 _atom_site_occupancy
  Ho  Ho0  1  0.666667  0.333333  0.000000  1
  Ho  Ho1  1  0.333333  0.666667  0.000000  1
  Ho  Ho2  1  0.333333  0.666667  0.500000  1
  Ho  Ho3  1  0.666667  0.333333  0.500000  1
  Ho  Ho4  1  0.757982  0.757982  0.750000  1
  Ho  Ho5  1  0.242018  0.000000  0.750000  1
  Ho  Ho6  1  0.000000  0.242018  0.750000  1
  Ho  Ho7  1  0.242018  0.242018  0.250000  1
  Ho  Ho8  1  0.757982  0.000000  0.250000  1
  Ho  Ho9  1  0.000000  0.757982  0.250000  1
  Sn  Sn10  1  0.396942  0.396942  0.750000  1
  Sn  Sn11  1  0.603058  0.000000  0.750000  1
  Sn  Sn12  1  0.000000  0.603058  0.750000  1
  Sn  Sn13  1  0.603058  0.603058  0.250000  1
  Sn  Sn14  1  0.396942  0.000000  0.250000  1
  Sn  Sn15  1  0.000000  0.396942  0.250000  1
  P  P16  1  0.000000  0.000000  0.000000  1
  P  P17  1  0.000000  0.000000  0.500000  1
