# generated using pymatgen
data_Tb3YCo8(PRu)12
_symmetry_space_group_name_H-M   'P 1'
_cell_length_a   3.78871400
_cell_length_b   10.62974300
_cell_length_c   12.12665800
_cell_angle_alpha   90.00087128
_cell_angle_beta   90.00000000
_cell_angle_gamma   90.00000000
_symmetry_Int_Tables_number   1
_chemical_formula_structural   Tb3YCo8(PRu)12
_chemical_formula_sum   'Tb3 Y1 Co8 P12 Ru12'
_cell_volume   488.37757816
_cell_formula_units_Z   1
loop_
 _symmetry_equiv_pos_site_id
 _symmetry_equiv_pos_as_xyz
  1  'x, y, z'
loop_
 _atom_site_type_symbol
 _atom_site_label
 _atom_site_symmetry_multiplicity
 _atom_site_fract_x
 _atom_site_fract_y
 _atom_site_fract_z
 _atom_site_occupancy
  Tb  Tb0  1  0.250000  0.915695  0.206742  1
  Tb  Tb1  1  0.750000  0.084299  0.793258  1
  Tb  Tb2  1  0.750000  0.415701  0.293253  1
  Y  Y3  1  0.250000  0.584299  0.706753  1
  Co  Co4  1  0.250000  0.612509  0.195668  1
  Co  Co5  1  0.750000  0.387497  0.804321  1
  Co  Co6  1  0.750000  0.112508  0.304339  1
  Co  Co7  1  0.250000  0.887490  0.695666  1
  Co  Co8  1  0.250000  0.037046  0.435075  1
  Co  Co9  1  0.750000  0.962951  0.564931  1
  Co  Co10  1  0.750000  0.537055  0.064933  1
  Co  Co11  1  0.250000  0.462956  0.935051  1
  P  P12  1  0.250000  0.074233  0.612441  1
  P  P13  1  0.750000  0.925768  0.387559  1
  P  P14  1  0.750000  0.574239  0.887530  1
  P  P15  1  0.250000  0.425771  0.112437  1
  P  P16  1  0.250000  0.228121  0.371378  1
  P  P17  1  0.750000  0.771842  0.628626  1
  P  P18  1  0.750000  0.728117  0.128626  1
  P  P19  1  0.250000  0.271880  0.871381  1
  P  P20  1  0.250000  0.898514  0.887084  1
  P  P21  1  0.750000  0.101492  0.112918  1
  P  P22  1  0.750000  0.398529  0.612921  1
  P  P23  1  0.250000  0.601496  0.387081  1
  Ru  Ru24  1  0.250000  0.793963  0.486339  1
  Ru  Ru25  1  0.750000  0.206049  0.513654  1
  Ru  Ru26  1  0.750000  0.293947  0.013654  1
  Ru  Ru27  1  0.250000  0.706057  0.986363  1
  Ru  Ru28  1  0.250000  0.094703  0.985902  1
  Ru  Ru29  1  0.750000  0.905297  0.014094  1
  Ru  Ru30  1  0.750000  0.594712  0.514123  1
  Ru  Ru31  1  0.250000  0.405301  0.485912  1
  Ru  Ru32  1  0.250000  0.276288  0.680400  1
  Ru  Ru33  1  0.750000  0.723718  0.319600  1
  Ru  Ru34  1  0.750000  0.776232  0.819580  1
  Ru  Ru35  1  0.250000  0.223726  0.180403  1
