# generated using pymatgen
data_Rb3Na(B4Ir3)4
_symmetry_space_group_name_H-M   'P 1'
_cell_length_a   7.65361012
_cell_length_b   7.65361144
_cell_length_c   8.35985684
_cell_angle_alpha   89.93682960
_cell_angle_beta   89.93683384
_cell_angle_gamma   96.76375723
_symmetry_Int_Tables_number   1
_chemical_formula_structural   Rb3Na(B4Ir3)4
_chemical_formula_sum   'Rb3 Na1 B16 Ir12'
_cell_volume   486.29277787
_cell_formula_units_Z   1
loop_
 _symmetry_equiv_pos_site_id
 _symmetry_equiv_pos_as_xyz
  1  'x, y, z'
loop_
 _atom_site_type_symbol
 _atom_site_label
 _atom_site_symmetry_multiplicity
 _atom_site_fract_x
 _atom_site_fract_y
 _atom_site_fract_z
 _atom_site_occupancy
  Rb  Rb0  1  0.496247  0.503753  0.500000  1
  Rb  Rb1  1  0.230245  0.263563  0.763899  1
  Rb  Rb2  1  0.736437  0.769755  0.236101  1
  Na  Na3  1  0.997145  0.002855  0.500000  1
  B  B4  1  0.153712  0.161737  0.182941  1
  B  B5  1  0.838263  0.846288  0.817059  1
  B  B6  1  0.654135  0.662198  0.818265  1
  B  B7  1  0.337802  0.345865  0.181735  1
  B  B8  1  0.909868  0.411513  0.500454  1
  B  B9  1  0.588487  0.090132  0.499546  1
  B  B10  1  0.081107  0.597437  0.498899  1
  B  B11  1  0.402563  0.918893  0.501101  1
  B  B12  1  0.211512  0.949660  0.160613  1
  B  B13  1  0.050340  0.788488  0.839387  1
  B  B14  1  0.440627  0.721276  0.838005  1
  B  B15  1  0.278724  0.559373  0.161995  1
  B  B16  1  0.780715  0.058381  0.839195  1
  B  B17  1  0.941619  0.219285  0.160805  1
  B  B18  1  0.551322  0.286629  0.161817  1
  B  B19  1  0.713371  0.448678  0.838183  1
  Ir  Ir20  1  0.101800  0.396276  0.308392  1
  Ir  Ir21  1  0.603724  0.898200  0.691608  1
  Ir  Ir22  1  0.889938  0.611967  0.691434  1
  Ir  Ir23  1  0.388033  0.110062  0.308566  1
  Ir  Ir24  1  0.746436  0.253564  0.000000  1
  Ir  Ir25  1  0.245946  0.754054  0.000000  1
  Ir  Ir26  1  0.996356  0.003644  0.000000  1
  Ir  Ir27  1  0.496344  0.503656  0.000000  1
  Ir  Ir28  1  0.751200  0.251677  0.665279  1
  Ir  Ir29  1  0.748323  0.248800  0.334721  1
  Ir  Ir30  1  0.240146  0.756487  0.334685  1
  Ir  Ir31  1  0.243513  0.759854  0.665315  1
