# generated using pymatgen
data_Nd12GaGe11Pd12
_symmetry_space_group_name_H-M   'P 1'
_cell_length_a   4.52407300
_cell_length_b   7.68868598
_cell_length_c   21.94005370
_cell_angle_alpha   89.87077738
_cell_angle_beta   90.00000000
_cell_angle_gamma   90.00000000
_symmetry_Int_Tables_number   1
_chemical_formula_structural   Nd12GaGe11Pd12
_chemical_formula_sum   'Nd12 Ga1 Ge11 Pd12'
_cell_volume   763.16476230
_cell_formula_units_Z   1
loop_
 _symmetry_equiv_pos_site_id
 _symmetry_equiv_pos_as_xyz
  1  'x, y, z'
loop_
 _atom_site_type_symbol
 _atom_site_label
 _atom_site_symmetry_multiplicity
 _atom_site_fract_x
 _atom_site_fract_y
 _atom_site_fract_z
 _atom_site_occupancy
  Nd  Nd0  1  0.250000  0.708412  0.333072  1
  Nd  Nd1  1  0.750000  0.292657  0.667027  1
  Nd  Nd2  1  0.750000  0.207972  0.166563  1
  Nd  Nd3  1  0.250000  0.793488  0.833453  1
  Nd  Nd4  1  0.250000  0.792107  0.166193  1
  Nd  Nd5  1  0.750000  0.207316  0.833362  1
  Nd  Nd6  1  0.750000  0.292334  0.333671  1
  Nd  Nd7  1  0.250000  0.705590  0.666808  1
  Nd  Nd8  1  0.250000  0.713129  0.001779  1
  Nd  Nd9  1  0.750000  0.285832  0.998204  1
  Nd  Nd10  1  0.750000  0.213883  0.498581  1
  Nd  Nd11  1  0.250000  0.785748  0.501602  1
  Ga  Ga12  1  0.250000  0.413703  0.896630  1
  Ge  Ge13  1  0.250000  0.089837  0.071352  1
  Ge  Ge14  1  0.750000  0.911143  0.930083  1
  Ge  Ge15  1  0.750000  0.589639  0.429059  1
  Ge  Ge16  1  0.250000  0.410345  0.570103  1
  Ge  Ge17  1  0.250000  0.084842  0.269196  1
  Ge  Ge18  1  0.750000  0.914969  0.730009  1
  Ge  Ge19  1  0.750000  0.584956  0.230448  1
  Ge  Ge20  1  0.250000  0.414106  0.770020  1
  Ge  Ge21  1  0.250000  0.086594  0.396624  1
  Ge  Ge22  1  0.750000  0.913547  0.603439  1
  Ge  Ge23  1  0.750000  0.586834  0.103735  1
  Pd  Pd24  1  0.250000  0.417979  0.236937  1
  Pd  Pd25  1  0.750000  0.583296  0.763387  1
  Pd  Pd26  1  0.750000  0.917906  0.263166  1
  Pd  Pd27  1  0.250000  0.081131  0.736583  1
  Pd  Pd28  1  0.250000  0.416992  0.436294  1
  Pd  Pd29  1  0.750000  0.582860  0.563918  1
  Pd  Pd30  1  0.750000  0.916414  0.063268  1
  Pd  Pd31  1  0.250000  0.081691  0.934859  1
  Pd  Pd32  1  0.250000  0.420877  0.094459  1
  Pd  Pd33  1  0.750000  0.581999  0.905969  1
  Pd  Pd34  1  0.750000  0.920937  0.405609  1
  Pd  Pd35  1  0.250000  0.078934  0.594537  1
