# generated using pymatgen
data_Pa3Ge3Ir2
_symmetry_space_group_name_H-M   'P 1'
_cell_length_a   5.59815594
_cell_length_b   5.59815517
_cell_length_c   14.60868000
_cell_angle_alpha   90.00000000
_cell_angle_beta   90.00000000
_cell_angle_gamma   134.97526136
_symmetry_Int_Tables_number   1
_chemical_formula_structural   Pa3Ge3Ir2
_chemical_formula_sum   'Pa6 Ge6 Ir4'
_cell_volume   323.87195025
_cell_formula_units_Z   2
loop_
 _symmetry_equiv_pos_site_id
 _symmetry_equiv_pos_as_xyz
  1  'x, y, z'
loop_
 _atom_site_type_symbol
 _atom_site_label
 _atom_site_symmetry_multiplicity
 _atom_site_fract_x
 _atom_site_fract_y
 _atom_site_fract_z
 _atom_site_occupancy
  Pa  Pa0  1  0.411321  0.588679  0.391666  1
  Pa  Pa1  1  0.411321  0.588679  0.108334  1
  Pa  Pa2  1  0.858674  0.141326  0.750000  1
  Pa  Pa3  1  0.141326  0.858673  0.250000  1
  Pa  Pa4  1  0.588679  0.411321  0.608334  1
  Pa  Pa5  1  0.588679  0.411321  0.891666  1
  Ge  Ge6  1  0.881391  0.118609  0.535602  1
  Ge  Ge7  1  0.881391  0.118609  0.964398  1
  Ge  Ge8  1  0.858933  0.141067  0.250000  1
  Ge  Ge9  1  0.118609  0.881391  0.035602  1
  Ge  Ge10  1  0.118609  0.881391  0.464398  1
  Ge  Ge11  1  0.141067  0.858933  0.750000  1
  Ir  Ir12  1  0.302412  0.697588  0.611609  1
  Ir  Ir13  1  0.697588  0.302412  0.111609  1
  Ir  Ir14  1  0.302412  0.697588  0.888391  1
  Ir  Ir15  1  0.697588  0.302412  0.388391  1
