# generated using pymatgen
data_Pr8Tm2Ir5Pt
_symmetry_space_group_name_H-M   'P 1'
_cell_length_a   11.29404589
_cell_length_b   11.29051600
_cell_length_c   6.52607700
_cell_angle_alpha   90.00000000
_cell_angle_beta   90.12669118
_cell_angle_gamma   90.00000000
_symmetry_Int_Tables_number   1
_chemical_formula_structural   Pr8Tm2Ir5Pt
_chemical_formula_sum   'Pr16 Tm4 Ir10 Pt2'
_cell_volume   832.17462739
_cell_formula_units_Z   2
loop_
 _symmetry_equiv_pos_site_id
 _symmetry_equiv_pos_as_xyz
  1  'x, y, z'
loop_
 _atom_site_type_symbol
 _atom_site_label
 _atom_site_symmetry_multiplicity
 _atom_site_fract_x
 _atom_site_fract_y
 _atom_site_fract_z
 _atom_site_occupancy
  Pr  Pr0  1  0.288608  0.087685  0.380324  1
  Pr  Pr1  1  0.288608  0.912315  0.880324  1
  Pr  Pr2  1  0.707830  0.089262  0.877096  1
  Pr  Pr3  1  0.707830  0.910738  0.377096  1
  Pr  Pr4  1  0.584013  0.787006  0.882658  1
  Pr  Pr5  1  0.584013  0.212994  0.382658  1
  Pr  Pr6  1  0.411885  0.787776  0.381867  1
  Pr  Pr7  1  0.411885  0.212224  0.881867  1
  Pr  Pr8  1  0.212393  0.412580  0.617840  1
  Pr  Pr9  1  0.212393  0.587420  0.117840  1
  Pr  Pr10  1  0.787214  0.415497  0.117435  1
  Pr  Pr11  1  0.787214  0.584503  0.617435  1
  Pr  Pr12  1  0.914090  0.709965  0.123966  1
  Pr  Pr13  1  0.914090  0.290035  0.623966  1
  Pr  Pr14  1  0.090742  0.709575  0.619007  1
  Pr  Pr15  1  0.090742  0.290425  0.119007  1
  Tm  Tm16  1  0.003078  0.999525  0.500118  1
  Tm  Tm17  1  0.003078  0.000475  0.000118  1
  Tm  Tm18  1  0.499749  0.499829  0.999914  1
  Tm  Tm19  1  0.499749  0.500171  0.499914  1
  Ir  Ir20  1  0.144938  0.145696  0.750066  1
  Ir  Ir21  1  0.144938  0.854304  0.250066  1
  Ir  Ir22  1  0.647293  0.352909  0.750019  1
  Ir  Ir23  1  0.647293  0.647091  0.250019  1
  Ir  Ir24  1  0.353364  0.353206  0.249825  1
  Ir  Ir25  1  0.353364  0.646794  0.749825  1
  Ir  Ir26  1  0.501091  0.999946  0.117305  1
  Ir  Ir27  1  0.501091  0.000054  0.617305  1
  Ir  Ir28  1  0.999670  0.500351  0.882599  1
  Ir  Ir29  1  0.999670  0.499649  0.382599  1
  Pt  Pt30  1  0.854042  0.145555  0.249962  1
  Pt  Pt31  1  0.854042  0.854445  0.749962  1
