# generated using pymatgen
data_Tm5Cu2Bi
_symmetry_space_group_name_H-M   'P 1'
_cell_length_a   8.51605044
_cell_length_b   8.51605089
_cell_length_c   8.51605041
_cell_angle_alpha   125.14280352
_cell_angle_beta   125.14281072
_cell_angle_gamma   81.30163137
_symmetry_Int_Tables_number   1
_chemical_formula_structural   Tm5Cu2Bi
_chemical_formula_sum   'Tm10 Cu4 Bi2'
_cell_volume   397.71309489
_cell_formula_units_Z   2
loop_
 _symmetry_equiv_pos_site_id
 _symmetry_equiv_pos_as_xyz
  1  'x, y, z'
loop_
 _atom_site_type_symbol
 _atom_site_label
 _atom_site_symmetry_multiplicity
 _atom_site_fract_x
 _atom_site_fract_y
 _atom_site_fract_z
 _atom_site_occupancy
  Tm  Tm0  1  0.000000  0.000000  0.000000  1
  Tm  Tm1  1  0.500000  0.500000  0.000000  1
  Tm  Tm2  1  0.792661  0.292661  0.808235  1
  Tm  Tm3  1  0.207339  0.707339  0.191765  1
  Tm  Tm4  1  0.484426  0.984426  0.191765  1
  Tm  Tm5  1  0.292661  0.484426  0.500000  1
  Tm  Tm6  1  0.015574  0.207339  0.500000  1
  Tm  Tm7  1  0.515574  0.015574  0.808235  1
  Tm  Tm8  1  0.707339  0.515574  0.500000  1
  Tm  Tm9  1  0.984426  0.792661  0.500000  1
  Cu  Cu10  1  0.131151  0.631151  0.762301  1
  Cu  Cu11  1  0.868849  0.368849  0.237699  1
  Cu  Cu12  1  0.631151  0.868849  0.500000  1
  Cu  Cu13  1  0.368849  0.131151  0.500000  1
  Bi  Bi14  1  0.250000  0.250000  0.000000  1
  Bi  Bi15  1  0.750000  0.750000  0.000000  1
