# generated using pymatgen
data_Tb9Dy5(Tm3Pb8)2
_symmetry_space_group_name_H-M   'P 1'
_cell_length_a   8.19897729
_cell_length_b   8.28428626
_cell_length_c   15.64050000
_cell_angle_alpha   90.00036656
_cell_angle_beta   90.01529010
_cell_angle_gamma   90.04230630
_symmetry_Int_Tables_number   1
_chemical_formula_structural   Tb9Dy5(Tm3Pb8)2
_chemical_formula_sum   'Tb9 Dy5 Tm6 Pb16'
_cell_volume   1062.34426953
_cell_formula_units_Z   1
loop_
 _symmetry_equiv_pos_site_id
 _symmetry_equiv_pos_as_xyz
  1  'x, y, z'
loop_
 _atom_site_type_symbol
 _atom_site_label
 _atom_site_symmetry_multiplicity
 _atom_site_fract_x
 _atom_site_fract_y
 _atom_site_fract_z
 _atom_site_occupancy
  Tb  Tb0  1  0.876617  0.659148  0.879397  1
  Tb  Tb1  1  0.534172  0.323077  0.900181  1
  Tb  Tb2  1  0.034467  0.176709  0.599369  1
  Tb  Tb3  1  0.465600  0.676728  0.400423  1
  Tb  Tb4  1  0.965645  0.823588  0.100239  1
  Tb  Tb5  1  0.465986  0.676537  0.099919  1
  Tb  Tb6  1  0.965610  0.822976  0.400169  1
  Tb  Tb7  1  0.534173  0.322822  0.599666  1
  Tb  Tb8  1  0.034292  0.176519  0.900094  1
  Dy  Dy9  1  0.376383  0.840964  0.878916  1
  Dy  Dy10  1  0.876329  0.658825  0.620830  1
  Dy  Dy11  1  0.623686  0.158794  0.379013  1
  Dy  Dy12  1  0.123475  0.341226  0.121009  1
  Dy  Dy13  1  0.623446  0.158698  0.121381  1
  Tm  Tm14  1  0.123844  0.341265  0.378963  1
  Tm  Tm15  1  0.376311  0.841336  0.620785  1
  Tm  Tm16  1  0.208623  0.504431  0.749606  1
  Tm  Tm17  1  0.707963  0.995673  0.749662  1
  Tm  Tm18  1  0.791937  0.495473  0.250358  1
  Tm  Tm19  1  0.291399  0.004409  0.250240  1
  Pb  Pb20  1  0.282326  0.034029  0.043062  1
  Pb  Pb21  1  0.783553  0.465639  0.456791  1
  Pb  Pb22  1  0.716520  0.965645  0.543066  1
  Pb  Pb23  1  0.218662  0.533625  0.957020  1
  Pb  Pb24  1  0.716997  0.967006  0.957035  1
  Pb  Pb25  1  0.217763  0.534466  0.542498  1
  Pb  Pb26  1  0.282132  0.034570  0.457285  1
  Pb  Pb27  1  0.782293  0.465626  0.043592  1
  Pb  Pb28  1  0.570653  0.626999  0.749386  1
  Pb  Pb29  1  0.072095  0.873975  0.749395  1
  Pb  Pb30  1  0.428143  0.373456  0.250354  1
  Pb  Pb31  1  0.929282  0.127117  0.250391  1
  Pb  Pb32  1  0.345699  0.152816  0.749701  1
  Pb  Pb33  1  0.845762  0.346387  0.749782  1
  Pb  Pb34  1  0.654097  0.846468  0.250129  1
  Pb  Pb35  1  0.154065  0.652977  0.250291  1
