# generated using pymatgen
data_Pr5Bi2PbCl
_symmetry_space_group_name_H-M   'P 1'
_cell_length_a   9.71471200
_cell_length_b   9.65485335
_cell_length_c   6.72632700
_cell_angle_alpha   90.00000000
_cell_angle_beta   90.00000000
_cell_angle_gamma   120.20530221
_symmetry_Int_Tables_number   1
_chemical_formula_structural   Pr5Bi2PbCl
_chemical_formula_sum   'Pr10 Bi4 Pb2 Cl2'
_cell_volume   545.23289034
_cell_formula_units_Z   2
loop_
 _symmetry_equiv_pos_site_id
 _symmetry_equiv_pos_as_xyz
  1  'x, y, z'
loop_
 _atom_site_type_symbol
 _atom_site_label
 _atom_site_symmetry_multiplicity
 _atom_site_fract_x
 _atom_site_fract_y
 _atom_site_fract_z
 _atom_site_occupancy
  Pr  Pr0  1  0.266622  0.000000  0.750000  1
  Pr  Pr1  1  0.733378  0.000000  0.250000  1
  Pr  Pr2  1  0.997694  0.262320  0.750000  1
  Pr  Pr3  1  0.002306  0.737680  0.250000  1
  Pr  Pr4  1  0.735374  0.737680  0.750000  1
  Pr  Pr5  1  0.264626  0.262320  0.250000  1
  Pr  Pr6  1  0.333988  0.667978  0.500000  1
  Pr  Pr7  1  0.666012  0.332022  0.500000  1
  Pr  Pr8  1  0.666012  0.332022  0.000000  1
  Pr  Pr9  1  0.333988  0.667978  0.000000  1
  Bi  Bi10  1  0.999694  0.614844  0.750000  1
  Bi  Bi11  1  0.000306  0.385156  0.250000  1
  Bi  Bi12  1  0.384850  0.385156  0.750000  1
  Bi  Bi13  1  0.615150  0.614844  0.250000  1
  Pb  Pb14  1  0.613878  0.000000  0.750000  1
  Pb  Pb15  1  0.386122  0.000000  0.250000  1
  Cl  Cl16  1  0.000000  0.000000  0.500000  1
  Cl  Cl17  1  0.000000  0.000000  0.000000  1
