# generated using pymatgen
data_Zr2Co10Si7Ru2
_symmetry_space_group_name_H-M   'P 1'
_cell_length_a   9.04504787
_cell_length_b   9.10260855
_cell_length_c   3.66276200
_cell_angle_alpha   90.00000000
_cell_angle_beta   90.00000000
_cell_angle_gamma   120.05953306
_symmetry_Int_Tables_number   1
_chemical_formula_structural   Zr2Co10Si7Ru2
_chemical_formula_sum   'Zr2 Co10 Si7 Ru2'
_cell_volume   261.00884473
_cell_formula_units_Z   1
loop_
 _symmetry_equiv_pos_site_id
 _symmetry_equiv_pos_as_xyz
  1  'x, y, z'
loop_
 _atom_site_type_symbol
 _atom_site_label
 _atom_site_symmetry_multiplicity
 _atom_site_fract_x
 _atom_site_fract_y
 _atom_site_fract_z
 _atom_site_occupancy
  Zr  Zr0  1  0.998551  0.000879  0.000000  1
  Zr  Zr1  1  0.331733  0.665896  0.500000  1
  Co  Co2  1  0.289471  0.390643  0.000000  1
  Co  Co3  1  0.103133  0.711338  0.000000  1
  Co  Co4  1  0.381814  0.174333  0.000000  1
  Co  Co5  1  0.795298  0.620465  0.000000  1
  Co  Co6  1  0.820455  0.203882  0.000000  1
  Co  Co7  1  0.234238  0.951136  0.500000  1
  Co  Co8  1  0.048867  0.279845  0.500000  1
  Co  Co9  1  0.720664  0.771432  0.500000  1
  Co  Co10  1  0.562553  0.103374  0.500000  1
  Co  Co11  1  0.608910  0.898543  0.000000  1
  Si  Si12  1  0.664653  0.330381  0.000000  1
  Si  Si13  1  0.073946  0.447678  0.000000  1
  Si  Si14  1  0.257932  0.216135  0.500000  1
  Si  Si15  1  0.780803  0.042037  0.500000  1
  Si  Si16  1  0.961289  0.744994  0.500000  1
  Si  Si17  1  0.550632  0.627444  0.000000  1
  Si  Si18  1  0.377866  0.927476  0.000000  1
  Ru  Ru19  1  0.887770  0.455034  0.500000  1
  Ru  Ru20  1  0.549419  0.437058  0.500000  1
