# generated using pymatgen
data_Dy4Tm8Co4BiRu
_symmetry_space_group_name_H-M   'P 1'
_cell_length_a   8.26189260
_cell_length_b   8.26189180
_cell_length_c   8.26189207
_cell_angle_alpha   110.71437885
_cell_angle_beta   110.95928207
_cell_angle_gamma   106.77332207
_symmetry_Int_Tables_number   1
_chemical_formula_structural   Dy4Tm8Co4BiRu
_chemical_formula_sum   'Dy4 Tm8 Co4 Bi1 Ru1'
_cell_volume   433.40716835
_cell_formula_units_Z   1
loop_
 _symmetry_equiv_pos_site_id
 _symmetry_equiv_pos_as_xyz
  1  'x, y, z'
loop_
 _atom_site_type_symbol
 _atom_site_label
 _atom_site_symmetry_multiplicity
 _atom_site_fract_x
 _atom_site_fract_y
 _atom_site_fract_z
 _atom_site_occupancy
  Dy  Dy0  1  0.284112  0.183590  0.467703  1
  Dy  Dy1  1  0.715888  0.816410  0.532297  1
  Dy  Dy2  1  0.284112  0.816410  0.100521  1
  Dy  Dy3  1  0.715888  0.183590  0.899479  1
  Tm  Tm4  1  0.621218  0.311677  0.309541  1
  Tm  Tm5  1  0.378782  0.688323  0.690459  1
  Tm  Tm6  1  0.002135  0.311677  0.690459  1
  Tm  Tm7  1  0.997865  0.688323  0.309541  1
  Tm  Tm8  1  0.212034  0.408237  0.196205  1
  Tm  Tm9  1  0.787966  0.591763  0.803795  1
  Tm  Tm10  1  0.212034  0.015830  0.803795  1
  Tm  Tm11  1  0.787966  0.984170  0.196205  1
  Co  Co12  1  0.000000  0.375460  0.375460  1
  Co  Co13  1  0.000000  0.624540  0.624540  1
  Co  Co14  1  0.388424  0.888424  0.500000  1
  Co  Co15  1  0.611576  0.111576  0.500000  1
  Bi  Bi16  1  0.500000  0.500000  0.000000  1
  Ru  Ru17  1  0.000000  0.000000  0.000000  1
