# generated using pymatgen
data_Ho5Mg(P2Ir3)6
_symmetry_space_group_name_H-M   'P 1'
_cell_length_a   12.70894621
_cell_length_b   12.83861564
_cell_length_c   3.96527900
_cell_angle_alpha   90.00000000
_cell_angle_beta   90.00000000
_cell_angle_gamma   120.33808770
_symmetry_Int_Tables_number   1
_chemical_formula_structural   Ho5Mg(P2Ir3)6
_chemical_formula_sum   'Ho5 Mg1 P12 Ir18'
_cell_volume   558.39621265
_cell_formula_units_Z   1
loop_
 _symmetry_equiv_pos_site_id
 _symmetry_equiv_pos_as_xyz
  1  'x, y, z'
loop_
 _atom_site_type_symbol
 _atom_site_label
 _atom_site_symmetry_multiplicity
 _atom_site_fract_x
 _atom_site_fract_y
 _atom_site_fract_z
 _atom_site_occupancy
  Ho  Ho0  1  0.000000  0.186847  0.500000  1
  Ho  Ho1  1  0.812166  0.812004  0.500000  1
  Ho  Ho2  1  0.187834  0.999839  0.500000  1
  Ho  Ho3  1  0.667288  0.334381  0.000000  1
  Ho  Ho4  1  0.332712  0.667094  0.000000  1
  Mg  Mg5  1  0.000000  0.556386  0.000000  1
  P  P6  1  0.000000  0.822947  0.000000  1
  P  P7  1  0.178145  0.176276  0.000000  1
  P  P8  1  0.821855  0.998131  0.000000  1
  P  P9  1  0.691939  0.172534  0.500000  1
  P  P10  1  0.828359  0.515635  0.500000  1
  P  P11  1  0.482897  0.309921  0.500000  1
  P  P12  1  0.171641  0.687277  0.500000  1
  P  P13  1  0.517103  0.827023  0.500000  1
  P  P14  1  0.308061  0.480595  0.500000  1
  P  P15  1  0.000000  0.358267  0.000000  1
  P  P16  1  0.639468  0.641641  0.000000  1
  P  P17  1  0.360532  0.002173  0.000000  1
  Ir  Ir18  1  0.459573  0.461880  0.000000  1
  Ir  Ir19  1  0.540427  0.002307  0.000000  1
  Ir  Ir20  1  0.000000  0.719030  0.500000  1
  Ir  Ir21  1  0.283761  0.282231  0.500000  1
  Ir  Ir22  1  0.716239  0.998470  0.500000  1
  Ir  Ir23  1  0.804018  0.175676  0.000000  1
  Ir  Ir24  1  0.816088  0.625812  0.000000  1
  Ir  Ir25  1  0.376364  0.193539  0.000000  1
  Ir  Ir26  1  0.183912  0.809724  0.000000  1
  Ir  Ir27  1  0.623636  0.817174  0.000000  1
  Ir  Ir28  1  0.195982  0.371658  0.000000  1
  Ir  Ir29  1  0.868702  0.360681  0.500000  1
  Ir  Ir30  1  0.637666  0.504281  0.500000  1
  Ir  Ir31  1  0.496527  0.133833  0.500000  1
  Ir  Ir32  1  0.362334  0.866615  0.500000  1
  Ir  Ir33  1  0.503473  0.637307  0.500000  1
  Ir  Ir34  1  0.131298  0.491979  0.500000  1
  Ir  Ir35  1  0.000000  0.998832  0.000000  1
