# generated using pymatgen
data_LuPb4W3O13
_symmetry_space_group_name_H-M   'P 1'
_cell_length_a   7.57811391
_cell_length_b   7.57811363
_cell_length_c   7.57811233
_cell_angle_alpha   60.68239887
_cell_angle_beta   60.68240290
_cell_angle_gamma   60.68239402
_symmetry_Int_Tables_number   1
_chemical_formula_structural   LuPb4W3O13
_chemical_formula_sum   'Lu1 Pb4 W3 O13'
_cell_volume   312.46904692
_cell_formula_units_Z   1
loop_
 _symmetry_equiv_pos_site_id
 _symmetry_equiv_pos_as_xyz
  1  'x, y, z'
loop_
 _atom_site_type_symbol
 _atom_site_label
 _atom_site_symmetry_multiplicity
 _atom_site_fract_x
 _atom_site_fract_y
 _atom_site_fract_z
 _atom_site_occupancy
  Lu  Lu0  1  0.500436  0.500436  0.500436  1
  Pb  Pb1  1  0.997124  0.997124  0.997124  1
  Pb  Pb2  1  0.497140  0.001900  0.001900  1
  Pb  Pb3  1  0.001900  0.001900  0.497140  1
  Pb  Pb4  1  0.001900  0.497140  0.001900  1
  W  W5  1  0.001170  0.499990  0.499990  1
  W  W6  1  0.499990  0.499990  0.001170  1
  W  W7  1  0.499990  0.001170  0.499990  1
  O  O8  1  0.846663  0.420075  0.420075  1
  O  O9  1  0.420496  0.818726  0.818726  1
  O  O10  1  0.420075  0.420075  0.846663  1
  O  O11  1  0.818726  0.818726  0.420496  1
  O  O12  1  0.818726  0.420496  0.818726  1
  O  O13  1  0.420075  0.846663  0.420075  1
  O  O14  1  0.157887  0.576880  0.576880  1
  O  O15  1  0.578149  0.183725  0.183725  1
  O  O16  1  0.576880  0.576880  0.157887  1
  O  O17  1  0.183725  0.183725  0.578149  1
  O  O18  1  0.183725  0.578149  0.183725  1
  O  O19  1  0.576880  0.157887  0.576880  1
  O  O20  1  0.123339  0.123339  0.123339  1
