# generated using pymatgen
data_LaPrCdPtAu
_symmetry_space_group_name_H-M   'P 1'
_cell_length_a   8.10574847
_cell_length_b   8.10574927
_cell_length_c   3.93392100
_cell_angle_alpha   90.00000000
_cell_angle_beta   90.00000000
_cell_angle_gamma   90.64612426
_symmetry_Int_Tables_number   1
_chemical_formula_structural   LaPrCdPtAu
_chemical_formula_sum   'La2 Pr2 Cd2 Pt2 Au2'
_cell_volume   258.45462495
_cell_formula_units_Z   2
loop_
 _symmetry_equiv_pos_site_id
 _symmetry_equiv_pos_as_xyz
  1  'x, y, z'
loop_
 _atom_site_type_symbol
 _atom_site_label
 _atom_site_symmetry_multiplicity
 _atom_site_fract_x
 _atom_site_fract_y
 _atom_site_fract_z
 _atom_site_occupancy
  La  La0  1  0.683363  0.183363  0.500000  1
  La  La1  1  0.316637  0.816637  0.500000  1
  Pr  Pr2  1  0.165211  0.334789  0.500000  1
  Pr  Pr3  1  0.834789  0.665211  0.500000  1
  Cd  Cd4  1  0.000000  0.000000  0.000000  1
  Cd  Cd5  1  0.500000  0.500000  0.000000  1
  Pt  Pt6  1  0.126677  0.626677  0.000000  1
  Pt  Pt7  1  0.873323  0.373323  0.000000  1
  Au  Au8  1  0.627307  0.872693  0.000000  1
  Au  Au9  1  0.372693  0.127307  0.000000  1
