# generated using pymatgen
data_ErLu3(ZnRh2)4
_symmetry_space_group_name_H-M   'P 1'
_cell_length_a   6.06789502
_cell_length_b   6.06812400
_cell_length_c   6.96847200
_cell_angle_alpha   90.00000000
_cell_angle_beta   90.00505171
_cell_angle_gamma   90.00000000
_symmetry_Int_Tables_number   1
_chemical_formula_structural   ErLu3(ZnRh2)4
_chemical_formula_sum   'Er1 Lu3 Zn4 Rh8'
_cell_volume   256.58429068
_cell_formula_units_Z   1
loop_
 _symmetry_equiv_pos_site_id
 _symmetry_equiv_pos_as_xyz
  1  'x, y, z'
loop_
 _atom_site_type_symbol
 _atom_site_label
 _atom_site_symmetry_multiplicity
 _atom_site_fract_x
 _atom_site_fract_y
 _atom_site_fract_z
 _atom_site_occupancy
  Er  Er0  1  0.749938  0.249986  0.500031  1
  Lu  Lu1  1  0.750067  0.249956  0.999989  1
  Lu  Lu2  1  0.249945  0.750028  0.999996  1
  Lu  Lu3  1  0.250053  0.750029  0.500004  1
  Zn  Zn4  1  0.250009  0.250060  0.999968  1
  Zn  Zn5  1  0.749996  0.749932  0.999994  1
  Zn  Zn6  1  0.750006  0.749929  0.499979  1
  Zn  Zn7  1  0.250005  0.250064  0.500030  1
  Rh  Rh8  1  0.498569  0.998624  0.248115  1
  Rh  Rh9  1  0.498586  0.501329  0.248197  1
  Rh  Rh10  1  0.001335  0.998642  0.248304  1
  Rh  Rh11  1  0.001396  0.501400  0.248189  1
  Rh  Rh12  1  0.001398  0.998642  0.751709  1
  Rh  Rh13  1  0.001439  0.501401  0.751798  1
  Rh  Rh14  1  0.498615  0.998591  0.751891  1
  Rh  Rh15  1  0.498642  0.501385  0.751804  1
