# generated using pymatgen
data_Ce2Al20IrRu3
_symmetry_space_group_name_H-M   'P 1'
_cell_length_a   6.87242229
_cell_length_b   6.87529978
_cell_length_c   9.16540427
_cell_angle_alpha   89.99493655
_cell_angle_beta   89.94110753
_cell_angle_gamma   97.23159977
_symmetry_Int_Tables_number   1
_chemical_formula_structural   Ce2Al20IrRu3
_chemical_formula_sum   'Ce2 Al20 Ir1 Ru3'
_cell_volume   429.61993244
_cell_formula_units_Z   1
loop_
 _symmetry_equiv_pos_site_id
 _symmetry_equiv_pos_as_xyz
  1  'x, y, z'
loop_
 _atom_site_type_symbol
 _atom_site_label
 _atom_site_symmetry_multiplicity
 _atom_site_fract_x
 _atom_site_fract_y
 _atom_site_fract_z
 _atom_site_occupancy
  Ce  Ce0  1  0.875988  0.122362  0.750086  1
  Ce  Ce1  1  0.124012  0.877638  0.249914  1
  Al  Al2  1  0.589529  0.859891  0.250331  1
  Al  Al3  1  0.776800  0.519029  0.252027  1
  Al  Al4  1  0.159632  0.842741  0.897453  1
  Al  Al5  1  0.410471  0.140109  0.749669  1
  Al  Al6  1  0.621057  0.376177  0.948389  1
  Al  Al7  1  0.841508  0.158918  0.398715  1
  Al  Al8  1  0.775085  0.777375  0.998857  1
  Al  Al9  1  0.859447  0.590748  0.748821  1
  Al  Al10  1  0.840368  0.157259  0.102547  1
  Al  Al11  1  0.223200  0.480971  0.747973  1
  Al  Al12  1  0.158492  0.841082  0.601285  1
  Al  Al13  1  0.775664  0.776313  0.499614  1
  Al  Al14  1  0.480977  0.221787  0.249938  1
  Al  Al15  1  0.622808  0.376898  0.550768  1
  Al  Al16  1  0.224336  0.223687  0.500386  1
  Al  Al17  1  0.377192  0.623102  0.449232  1
  Al  Al18  1  0.140553  0.409252  0.251179  1
  Al  Al19  1  0.519023  0.778213  0.750062  1
  Al  Al20  1  0.378943  0.623823  0.051611  1
  Al  Al21  1  0.224915  0.222625  0.001143  1
  Ir  Ir22  1  0.000000  0.500000  0.000000  1
  Ru  Ru23  1  0.500000  0.000000  0.000000  1
  Ru  Ru24  1  0.500000  0.000000  0.500000  1
  Ru  Ru25  1  0.000000  0.500000  0.500000  1
