# generated using pymatgen
data_Yb2Y3Rh2
_symmetry_space_group_name_H-M   'P 1'
_cell_length_a   6.54447995
_cell_length_b   7.28440323
_cell_length_c   8.53526800
_cell_angle_alpha   97.00063842
_cell_angle_beta   112.54313225
_cell_angle_gamma   89.99999389
_symmetry_Int_Tables_number   1
_chemical_formula_structural   Yb2Y3Rh2
_chemical_formula_sum   'Yb4 Y6 Rh4'
_cell_volume   372.52143291
_cell_formula_units_Z   2
loop_
 _symmetry_equiv_pos_site_id
 _symmetry_equiv_pos_as_xyz
  1  'x, y, z'
loop_
 _atom_site_type_symbol
 _atom_site_label
 _atom_site_symmetry_multiplicity
 _atom_site_fract_x
 _atom_site_fract_y
 _atom_site_fract_z
 _atom_site_occupancy
  Yb  Yb0  1  0.979213  0.917855  0.185765  1
  Yb  Yb1  1  0.793446  0.582145  0.814235  1
  Yb  Yb2  1  0.020787  0.082145  0.814235  1
  Yb  Yb3  1  0.206554  0.417855  0.185765  1
  Y  Y4  1  0.650033  0.816403  0.438101  1
  Y  Y5  1  0.211932  0.683597  0.561899  1
  Y  Y6  1  0.349967  0.183597  0.561899  1
  Y  Y7  1  0.788068  0.316403  0.438101  1
  Y  Y8  1  0.427516  0.750000  0.000000  1
  Y  Y9  1  0.572484  0.250000  0.000000  1
  Rh  Rh10  1  0.820009  0.572812  0.224972  1
  Rh  Rh11  1  0.595037  0.927188  0.775028  1
  Rh  Rh12  1  0.179991  0.427188  0.775028  1
  Rh  Rh13  1  0.404963  0.072812  0.224972  1
