# generated using pymatgen
data_Na2La4TmAu10
_symmetry_space_group_name_H-M   'P 1'
_cell_length_a   8.80903659
_cell_length_b   8.80903838
_cell_length_c   10.72990800
_cell_angle_alpha   90.00000000
_cell_angle_beta   90.00000000
_cell_angle_gamma   105.89040872
_symmetry_Int_Tables_number   1
_chemical_formula_structural   Na2La4TmAu10
_chemical_formula_sum   'Na4 La8 Tm2 Au20'
_cell_volume   800.81442508
_cell_formula_units_Z   2
loop_
 _symmetry_equiv_pos_site_id
 _symmetry_equiv_pos_as_xyz
  1  'x, y, z'
loop_
 _atom_site_type_symbol
 _atom_site_label
 _atom_site_symmetry_multiplicity
 _atom_site_fract_x
 _atom_site_fract_y
 _atom_site_fract_z
 _atom_site_occupancy
  Na  Na0  1  0.514572  0.014572  0.250000  1
  Na  Na1  1  0.985428  0.485428  0.750000  1
  Na  Na2  1  0.014572  0.514572  0.250000  1
  Na  Na3  1  0.485428  0.985428  0.750000  1
  La  La4  1  0.702000  0.298000  0.000000  1
  La  La5  1  0.202000  0.798000  0.500000  1
  La  La6  1  0.802905  0.802905  0.298152  1
  La  La7  1  0.302905  0.302905  0.201848  1
  La  La8  1  0.798000  0.202000  0.500000  1
  La  La9  1  0.298000  0.702000  0.000000  1
  La  La10  1  0.697095  0.697095  0.798152  1
  La  La11  1  0.197095  0.197095  0.701848  1
  Tm  Tm12  1  0.000000  0.000000  0.000000  1
  Tm  Tm13  1  0.500000  0.500000  0.500000  1
  Au  Au14  1  0.153965  0.431036  0.486414  1
  Au  Au15  1  0.902787  0.902787  0.594407  1
  Au  Au16  1  0.568964  0.846035  0.513586  1
  Au  Au17  1  0.882664  0.160364  0.207769  1
  Au  Au18  1  0.382664  0.660364  0.292231  1
  Au  Au19  1  0.660364  0.382664  0.292231  1
  Au  Au20  1  0.402787  0.402787  0.905593  1
  Au  Au21  1  0.931036  0.653965  0.013586  1
  Au  Au22  1  0.339636  0.617336  0.707769  1
  Au  Au23  1  0.346035  0.068964  0.986414  1
  Au  Au24  1  0.597213  0.597213  0.094407  1
  Au  Au25  1  0.653965  0.931036  0.013586  1
  Au  Au26  1  0.097213  0.097213  0.405593  1
  Au  Au27  1  0.617336  0.339636  0.707769  1
  Au  Au28  1  0.117336  0.839636  0.792231  1
  Au  Au29  1  0.068964  0.346035  0.986414  1
  Au  Au30  1  0.846035  0.568964  0.513586  1
  Au  Au31  1  0.160364  0.882664  0.207769  1
  Au  Au32  1  0.431036  0.153965  0.486414  1
  Au  Au33  1  0.839636  0.117336  0.792231  1
