# generated using pymatgen
data_Zr8Co16Si2AsP9
_symmetry_space_group_name_H-M   'P 1'
_cell_length_a   12.21361976
_cell_length_b   12.19599841
_cell_length_c   3.66840500
_cell_angle_alpha   90.00000000
_cell_angle_beta   90.00000000
_cell_angle_gamma   119.95228184
_symmetry_Int_Tables_number   1
_chemical_formula_structural   Zr8Co16Si2AsP9
_chemical_formula_sum   'Zr8 Co16 Si2 As1 P9'
_cell_volume   473.45454287
_cell_formula_units_Z   1
loop_
 _symmetry_equiv_pos_site_id
 _symmetry_equiv_pos_as_xyz
  1  'x, y, z'
loop_
 _atom_site_type_symbol
 _atom_site_label
 _atom_site_symmetry_multiplicity
 _atom_site_fract_x
 _atom_site_fract_y
 _atom_site_fract_z
 _atom_site_occupancy
  Zr  Zr0  1  0.444442  0.443398  0.000000  1
  Zr  Zr1  1  0.555558  0.998956  0.000000  1
  Zr  Zr2  1  0.000000  0.557819  0.000000  1
  Zr  Zr3  1  0.665212  0.333996  0.000000  1
  Zr  Zr4  1  0.334788  0.668784  0.000000  1
  Zr  Zr5  1  0.825862  0.825137  0.500000  1
  Zr  Zr6  1  0.174138  0.999275  0.500000  1
  Zr  Zr7  1  0.000000  0.168036  0.500000  1
  Co  Co8  1  0.199550  0.372989  0.000000  1
  Co  Co9  1  0.174684  0.803379  0.000000  1
  Co  Co10  1  0.825316  0.628695  0.000000  1
  Co  Co11  1  0.800450  0.173441  0.000000  1
  Co  Co12  1  0.371350  0.196289  0.000000  1
  Co  Co13  1  0.132131  0.486774  0.500000  1
  Co  Co14  1  0.354661  0.873311  0.500000  1
  Co  Co15  1  0.518325  0.645353  0.500000  1
  Co  Co16  1  0.645339  0.518651  0.500000  1
  Co  Co17  1  0.867869  0.354644  0.500000  1
  Co  Co18  1  0.481675  0.127027  0.500000  1
  Co  Co19  1  0.000000  0.000813  0.000000  1
  Co  Co20  1  0.722425  0.000160  0.500000  1
  Co  Co21  1  0.000000  0.722404  0.500000  1
  Co  Co22  1  0.628650  0.824939  0.000000  1
  Co  Co23  1  0.277575  0.277735  0.500000  1
  Si  Si24  1  0.655593  0.655466  0.000000  1
  Si  Si25  1  0.344407  0.999873  0.000000  1
  As  As26  1  0.000000  0.343667  0.000000  1
  P  P27  1  0.480952  0.307001  0.500000  1
  P  P28  1  0.689855  0.172696  0.500000  1
  P  P29  1  0.825408  0.519044  0.500000  1
  P  P30  1  0.519048  0.826049  0.500000  1
  P  P31  1  0.174592  0.693637  0.500000  1
  P  P32  1  0.823436  0.997980  0.000000  1
  P  P33  1  0.000000  0.825202  0.000000  1
  P  P34  1  0.310145  0.482841  0.500000  1
  P  P35  1  0.176564  0.174543  0.000000  1
