# generated using pymatgen
data_Ho2Co6Ge2BC
_symmetry_space_group_name_H-M   'P 1'
_cell_length_a   5.16146100
_cell_length_b   5.16146095
_cell_length_c   6.51613300
_cell_angle_alpha   90.00000000
_cell_angle_beta   90.00000000
_cell_angle_gamma   120.00000673
_symmetry_Int_Tables_number   1
_chemical_formula_structural   Ho2Co6Ge2BC
_chemical_formula_sum   'Ho2 Co6 Ge2 B1 C1'
_cell_volume   150.33698574
_cell_formula_units_Z   1
loop_
 _symmetry_equiv_pos_site_id
 _symmetry_equiv_pos_as_xyz
  1  'x, y, z'
loop_
 _atom_site_type_symbol
 _atom_site_label
 _atom_site_symmetry_multiplicity
 _atom_site_fract_x
 _atom_site_fract_y
 _atom_site_fract_z
 _atom_site_occupancy
  Ho  Ho0  1  0.000000  0.000000  0.000000  1
  Ho  Ho1  1  0.000000  0.000000  0.500000  1
  Co  Co2  1  0.502307  0.497693  0.703759  1
  Co  Co3  1  0.502307  0.004613  0.703759  1
  Co  Co4  1  0.995387  0.497693  0.703759  1
  Co  Co5  1  0.502307  0.497693  0.296241  1
  Co  Co6  1  0.502307  0.004613  0.296241  1
  Co  Co7  1  0.995387  0.497693  0.296241  1
  Ge  Ge8  1  0.666667  0.333333  0.000000  1
  Ge  Ge9  1  0.333333  0.666667  0.000000  1
  B  B10  1  0.333333  0.666667  0.500000  1
  C  C11  1  0.666667  0.333333  0.500000  1
