# generated using pymatgen
data_Tb8Ta11Si16W
_symmetry_space_group_name_H-M   'P 1'
_cell_length_a   7.03284200
_cell_length_b   7.03337351
_cell_length_c   13.03186809
_cell_angle_alpha   89.93084557
_cell_angle_beta   90.06365951
_cell_angle_gamma   89.97571452
_symmetry_Int_Tables_number   1
_chemical_formula_structural   Tb8Ta11Si16W
_chemical_formula_sum   'Tb8 Ta11 Si16 W1'
_cell_volume   644.61527672
_cell_formula_units_Z   1
loop_
 _symmetry_equiv_pos_site_id
 _symmetry_equiv_pos_as_xyz
  1  'x, y, z'
loop_
 _atom_site_type_symbol
 _atom_site_label
 _atom_site_symmetry_multiplicity
 _atom_site_fract_x
 _atom_site_fract_y
 _atom_site_fract_z
 _atom_site_occupancy
  Tb  Tb0  1  0.341049  0.002330  0.468623  1
  Tb  Tb1  1  0.496676  0.841210  0.719329  1
  Tb  Tb2  1  0.502062  0.158740  0.217446  1
  Tb  Tb3  1  0.840527  0.496375  0.281633  1
  Tb  Tb4  1  0.159305  0.502405  0.782040  1
  Tb  Tb5  1  0.659255  0.997170  0.967956  1
  Tb  Tb6  1  0.003462  0.340353  0.532527  1
  Tb  Tb7  1  0.997109  0.659668  0.030414  1
  Ta  Ta8  1  0.327875  0.329061  0.999324  1
  Ta  Ta9  1  0.171196  0.828551  0.249305  1
  Ta  Ta10  1  0.829733  0.170304  0.750467  1
  Ta  Ta11  1  0.671404  0.671212  0.499775  1
  Ta  Ta12  1  0.490840  0.655663  0.123685  1
  Ta  Ta13  1  0.506244  0.344877  0.625308  1
  Ta  Ta14  1  0.653961  0.493136  0.875609  1
  Ta  Ta15  1  0.345801  0.507174  0.375887  1
  Ta  Ta16  1  0.845668  0.992430  0.374732  1
  Ta  Ta17  1  0.006177  0.153272  0.125909  1
  Ta  Ta18  1  0.993693  0.845877  0.625775  1
  Si  Si19  1  0.202448  0.132415  0.684451  1
  Si  Si20  1  0.366338  0.705670  0.931671  1
  Si  Si21  1  0.633362  0.296704  0.433341  1
  Si  Si22  1  0.702960  0.367571  0.066607  1
  Si  Si23  1  0.298223  0.633456  0.567694  1
  Si  Si24  1  0.796979  0.866072  0.182572  1
  Si  Si25  1  0.133664  0.202235  0.316821  1
  Si  Si26  1  0.870591  0.799755  0.817709  1
  Si  Si27  1  0.292617  0.956602  0.062108  1
  Si  Si28  1  0.544389  0.794132  0.313661  1
  Si  Si29  1  0.453567  0.205752  0.814577  1
  Si  Si30  1  0.793542  0.545385  0.686358  1
  Si  Si31  1  0.205933  0.454866  0.185663  1
  Si  Si32  1  0.706582  0.044659  0.564358  1
  Si  Si33  1  0.956670  0.290950  0.935998  1
  Si  Si34  1  0.044916  0.705436  0.435945  1
  W  W35  1  0.155181  0.008531  0.874723  1
