# generated using pymatgen
data_LuCoI18
_symmetry_space_group_name_H-M   'P 1'
_cell_length_a   10.15283191
_cell_length_b   10.17905670
_cell_length_c   10.16363434
_cell_angle_alpha   87.91636633
_cell_angle_beta   87.99021523
_cell_angle_gamma   87.89490638
_symmetry_Int_Tables_number   1
_chemical_formula_structural   LuCoI18
_chemical_formula_sum   'Lu1 Co1 I18'
_cell_volume   1048.37198566
_cell_formula_units_Z   1
loop_
 _symmetry_equiv_pos_site_id
 _symmetry_equiv_pos_as_xyz
  1  'x, y, z'
loop_
 _atom_site_type_symbol
 _atom_site_label
 _atom_site_symmetry_multiplicity
 _atom_site_fract_x
 _atom_site_fract_y
 _atom_site_fract_z
 _atom_site_occupancy
  Lu  Lu0  1  0.000000  0.000000  0.000000  1
  Co  Co1  1  0.500000  0.500000  0.500000  1
  I  I2  1  0.757908  0.479437  0.497597  1
  I  I3  1  0.496426  0.757146  0.478627  1
  I  I4  1  0.479282  0.497544  0.757623  1
  I  I5  1  0.242092  0.520563  0.502403  1
  I  I6  1  0.503574  0.242854  0.521373  1
  I  I7  1  0.520718  0.502456  0.242377  1
  I  I8  1  0.876637  0.384249  0.741576  1
  I  I9  1  0.740506  0.875648  0.383868  1
  I  I10  1  0.384571  0.741110  0.876616  1
  I  I11  1  0.123363  0.615751  0.258424  1
  I  I12  1  0.259494  0.124352  0.616132  1
  I  I13  1  0.615429  0.258890  0.123384  1
  I  I14  1  0.025716  0.970457  0.707782  1
  I  I15  1  0.707478  0.026131  0.968839  1
  I  I16  1  0.969211  0.708190  0.024721  1
  I  I17  1  0.974284  0.029543  0.292218  1
  I  I18  1  0.292522  0.973869  0.031161  1
  I  I19  1  0.030789  0.291810  0.975279  1
