# generated using pymatgen
data_Zr7ZnPd9
_symmetry_space_group_name_H-M   'P 1'
_cell_length_a   8.13715858
_cell_length_b   8.21845114
_cell_length_c   9.74238027
_cell_angle_alpha   90.65517983
_cell_angle_beta   89.88024125
_cell_angle_gamma   106.95448428
_symmetry_Int_Tables_number   1
_chemical_formula_structural   Zr7ZnPd9
_chemical_formula_sum   'Zr14 Zn2 Pd18'
_cell_volume   623.16164688
_cell_formula_units_Z   2
loop_
 _symmetry_equiv_pos_site_id
 _symmetry_equiv_pos_as_xyz
  1  'x, y, z'
loop_
 _atom_site_type_symbol
 _atom_site_label
 _atom_site_symmetry_multiplicity
 _atom_site_fract_x
 _atom_site_fract_y
 _atom_site_fract_z
 _atom_site_occupancy
  Zr  Zr0  1  0.197484  0.809631  0.995740  1
  Zr  Zr1  1  0.693768  0.308399  0.505134  1
  Zr  Zr2  1  0.309503  0.311614  0.686226  1
  Zr  Zr3  1  0.681291  0.679022  0.324436  1
  Zr  Zr4  1  0.815374  0.195435  0.994716  1
  Zr  Zr5  1  0.997763  0.506774  0.749422  1
  Zr  Zr6  1  0.000008  0.496777  0.250493  1
  Zr  Zr7  1  0.817215  0.818290  0.805757  1
  Zr  Zr8  1  0.494205  0.501623  0.994997  1
  Zr  Zr9  1  0.496753  0.990567  0.250920  1
  Zr  Zr10  1  0.309992  0.687960  0.499721  1
  Zr  Zr11  1  0.502245  0.002962  0.751008  1
  Zr  Zr12  1  0.194484  0.192392  0.185764  1
  Zr  Zr13  1  0.998941  0.000905  0.494166  1
  Zn  Zn14  1  0.890707  0.894311  0.109914  1
  Zn  Zn15  1  0.634961  0.344899  0.205471  1
  Pd  Pd16  1  0.065492  0.353728  0.495004  1
  Pd  Pd17  1  0.649190  0.355343  0.795678  1
  Pd  Pd18  1  0.844966  0.145375  0.286561  1
  Pd  Pd19  1  0.131393  0.849866  0.284122  1
  Pd  Pd20  1  0.602100  0.600262  0.606751  1
  Pd  Pd21  1  0.445947  0.148258  0.004844  1
  Pd  Pd22  1  0.354174  0.651679  0.792580  1
  Pd  Pd23  1  0.149854  0.860885  0.703241  1
  Pd  Pd24  1  0.141646  0.439953  0.993590  1
  Pd  Pd25  1  0.574504  0.854745  0.003931  1
  Pd  Pd26  1  0.939532  0.644518  0.501959  1
  Pd  Pd27  1  0.646642  0.936833  0.504986  1
  Pd  Pd28  1  0.100209  0.093470  0.907564  1
  Pd  Pd29  1  0.403822  0.393576  0.389803  1
  Pd  Pd30  1  0.845663  0.570749  0.017066  1
  Pd  Pd31  1  0.354392  0.061277  0.494624  1
  Pd  Pd32  1  0.865589  0.153591  0.707109  1
  Pd  Pd33  1  0.350192  0.644332  0.206700  1
