# generated using pymatgen
data_YbCe(Al5Fe)4
_symmetry_space_group_name_H-M   'P 1'
_cell_length_a   6.78480049
_cell_length_b   6.78500862
_cell_length_c   8.99780300
_cell_angle_alpha   90.00000000
_cell_angle_beta   90.00000000
_cell_angle_gamma   97.38040176
_symmetry_Int_Tables_number   1
_chemical_formula_structural   YbCe(Al5Fe)4
_chemical_formula_sum   'Yb1 Ce1 Al20 Fe4'
_cell_volume   410.78153887
_cell_formula_units_Z   1
loop_
 _symmetry_equiv_pos_site_id
 _symmetry_equiv_pos_as_xyz
  1  'x, y, z'
loop_
 _atom_site_type_symbol
 _atom_site_label
 _atom_site_symmetry_multiplicity
 _atom_site_fract_x
 _atom_site_fract_y
 _atom_site_fract_z
 _atom_site_occupancy
  Yb  Yb0  1  0.123253  0.876766  0.750000  1
  Ce  Ce1  1  0.876557  0.123425  0.250000  1
  Al  Al2  1  0.228406  0.226480  0.501022  1
  Al  Al3  1  0.773399  0.771718  0.998965  1
  Al  Al4  1  0.773399  0.771718  0.501035  1
  Al  Al5  1  0.228406  0.226480  0.998978  1
  Al  Al6  1  0.374641  0.625459  0.546080  1
  Al  Al7  1  0.624520  0.375373  0.050003  1
  Al  Al8  1  0.585383  0.866662  0.750000  1
  Al  Al9  1  0.413015  0.133083  0.250000  1
  Al  Al10  1  0.866839  0.587023  0.250000  1
  Al  Al11  1  0.133413  0.414592  0.750000  1
  Al  Al12  1  0.475203  0.219861  0.750000  1
  Al  Al13  1  0.521422  0.778601  0.250000  1
  Al  Al14  1  0.221476  0.478564  0.250000  1
  Al  Al15  1  0.780064  0.524814  0.750000  1
  Al  Al16  1  0.157966  0.842157  0.403556  1
  Al  Al17  1  0.839862  0.160003  0.901594  1
  Al  Al18  1  0.839862  0.160003  0.598406  1
  Al  Al19  1  0.157966  0.842157  0.096444  1
  Al  Al20  1  0.374641  0.625459  0.953920  1
  Al  Al21  1  0.624520  0.375373  0.449997  1
  Fe  Fe22  1  0.999655  0.496771  0.499487  1
  Fe  Fe23  1  0.999655  0.496771  0.000513  1
  Fe  Fe24  1  0.503237  0.000342  0.499489  1
  Fe  Fe25  1  0.503237  0.000342  0.000511  1
