# generated using pymatgen
data_Nd3Hg5
_symmetry_space_group_name_H-M   'P 1'
_cell_length_a   6.52310020
_cell_length_b   6.52310055
_cell_length_c   10.59200100
_cell_angle_alpha   90.00000000
_cell_angle_beta   90.00000000
_cell_angle_gamma   105.81631985
_symmetry_Int_Tables_number   1
_chemical_formula_structural   Nd3Hg5
_chemical_formula_sum   'Nd6 Hg10'
_cell_volume   433.63525777
_cell_formula_units_Z   2
loop_
 _symmetry_equiv_pos_site_id
 _symmetry_equiv_pos_as_xyz
  1  'x, y, z'
loop_
 _atom_site_type_symbol
 _atom_site_label
 _atom_site_symmetry_multiplicity
 _atom_site_fract_x
 _atom_site_fract_y
 _atom_site_fract_z
 _atom_site_occupancy
  Nd  Nd0  1  0.590679  0.590679  0.250000  1
  Nd  Nd1  1  0.409321  0.409321  0.750000  1
  Nd  Nd2  1  0.203501  0.796499  0.500000  1
  Nd  Nd3  1  0.203501  0.796499  0.000000  1
  Nd  Nd4  1  0.796499  0.203501  0.500000  1
  Nd  Nd5  1  0.796499  0.203501  0.000000  1
  Hg  Hg6  1  0.997579  0.997578  0.250000  1
  Hg  Hg7  1  0.002422  0.002421  0.750000  1
  Hg  Hg8  1  0.302970  0.302970  0.034031  1
  Hg  Hg9  1  0.697030  0.697030  0.965969  1
  Hg  Hg10  1  0.302970  0.302970  0.465969  1
  Hg  Hg11  1  0.697030  0.697030  0.534031  1
  Hg  Hg12  1  0.487421  0.050151  0.250000  1
  Hg  Hg13  1  0.949849  0.512579  0.750000  1
  Hg  Hg14  1  0.512579  0.949849  0.750000  1
  Hg  Hg15  1  0.050151  0.487421  0.250000  1
