# generated using pymatgen
data_Nd3ThCdIr
_symmetry_space_group_name_H-M   'P 1'
_cell_length_a   10.00201965
_cell_length_b   10.00201976
_cell_length_c   10.00202000
_cell_angle_alpha   59.99999919
_cell_angle_beta   59.99999883
_cell_angle_gamma   60.00000149
_symmetry_Int_Tables_number   1
_chemical_formula_structural   Nd3ThCdIr
_chemical_formula_sum   'Nd12 Th4 Cd4 Ir4'
_cell_volume   707.53532957
_cell_formula_units_Z   4
loop_
 _symmetry_equiv_pos_site_id
 _symmetry_equiv_pos_as_xyz
  1  'x, y, z'
loop_
 _atom_site_type_symbol
 _atom_site_label
 _atom_site_symmetry_multiplicity
 _atom_site_fract_x
 _atom_site_fract_y
 _atom_site_fract_z
 _atom_site_occupancy
  Nd  Nd0  1  0.809307  0.190693  0.190693  1
  Nd  Nd1  1  0.190693  0.809307  0.809307  1
  Nd  Nd2  1  0.190693  0.809307  0.190693  1
  Nd  Nd3  1  0.809307  0.190693  0.809307  1
  Nd  Nd4  1  0.190693  0.190693  0.809307  1
  Nd  Nd5  1  0.809307  0.809307  0.190693  1
  Nd  Nd6  1  0.937775  0.562225  0.562225  1
  Nd  Nd7  1  0.562225  0.937775  0.937775  1
  Nd  Nd8  1  0.562225  0.937775  0.562225  1
  Nd  Nd9  1  0.937775  0.562225  0.937775  1
  Nd  Nd10  1  0.562225  0.562225  0.937775  1
  Nd  Nd11  1  0.937775  0.937775  0.562225  1
  Th  Th12  1  0.346770  0.346770  0.346770  1
  Th  Th13  1  0.346770  0.346770  0.959691  1
  Th  Th14  1  0.346770  0.959691  0.346770  1
  Th  Th15  1  0.959691  0.346770  0.346770  1
  Cd  Cd16  1  0.580097  0.580097  0.580097  1
  Cd  Cd17  1  0.580097  0.580097  0.259707  1
  Cd  Cd18  1  0.580097  0.259707  0.580097  1
  Cd  Cd19  1  0.259707  0.580097  0.580097  1
  Ir  Ir20  1  0.145573  0.145573  0.145573  1
  Ir  Ir21  1  0.145573  0.145573  0.563279  1
  Ir  Ir22  1  0.145573  0.563279  0.145573  1
  Ir  Ir23  1  0.563279  0.145573  0.145573  1
