# generated using pymatgen
data_Dy3Ho13(In3Rh)2
_symmetry_space_group_name_H-M   'P 1'
_cell_length_a   10.42294500
_cell_length_b   10.42294512
_cell_length_c   7.01760700
_cell_angle_alpha   90.00000000
_cell_angle_beta   90.00000000
_cell_angle_gamma   120.00000280
_symmetry_Int_Tables_number   1
_chemical_formula_structural   Dy3Ho13(In3Rh)2
_chemical_formula_sum   'Dy3 Ho13 In6 Rh2'
_cell_volume   660.23806567
_cell_formula_units_Z   1
loop_
 _symmetry_equiv_pos_site_id
 _symmetry_equiv_pos_as_xyz
  1  'x, y, z'
loop_
 _atom_site_type_symbol
 _atom_site_label
 _atom_site_symmetry_multiplicity
 _atom_site_fract_x
 _atom_site_fract_y
 _atom_site_fract_z
 _atom_site_occupancy
  Dy  Dy0  1  0.532802  0.065604  0.507425  1
  Dy  Dy1  1  0.934396  0.467198  0.507425  1
  Dy  Dy2  1  0.532802  0.467198  0.507425  1
  Ho  Ho3  1  0.466806  0.933612  0.007707  1
  Ho  Ho4  1  0.066388  0.533194  0.007707  1
  Ho  Ho5  1  0.466806  0.533194  0.007707  1
  Ho  Ho6  1  0.176216  0.352430  0.713203  1
  Ho  Ho7  1  0.647570  0.823784  0.713203  1
  Ho  Ho8  1  0.176216  0.823784  0.713203  1
  Ho  Ho9  1  0.823765  0.647532  0.212334  1
  Ho  Ho10  1  0.352468  0.176235  0.212334  1
  Ho  Ho11  1  0.823765  0.176235  0.212334  1
  Ho  Ho12  1  0.666667  0.333333  0.887933  1
  Ho  Ho13  1  0.333333  0.666667  0.387645  1
  Ho  Ho14  1  0.000000  0.000000  0.492981  1
  Ho  Ho15  1  0.000000  0.000000  0.993267  1
  In  In16  1  0.837412  0.674824  0.752087  1
  In  In17  1  0.325176  0.162588  0.752087  1
  In  In18  1  0.837412  0.162588  0.752087  1
  In  In19  1  0.162742  0.325485  0.251829  1
  In  In20  1  0.674515  0.837258  0.251829  1
  In  In21  1  0.162742  0.837258  0.251829  1
  Rh  Rh22  1  0.666667  0.333333  0.280952  1
  Rh  Rh23  1  0.333333  0.666667  0.781511  1
