# generated using pymatgen
data_La8YU3Se20
_symmetry_space_group_name_H-M   'P 1'
_cell_length_a   7.92806151
_cell_length_b   8.55623500
_cell_length_c   12.54555900
_cell_angle_alpha   90.00000000
_cell_angle_beta   90.43881082
_cell_angle_gamma   90.00000000
_symmetry_Int_Tables_number   1
_chemical_formula_structural   La8YU3Se20
_chemical_formula_sum   'La8 Y1 U3 Se20'
_cell_volume   850.99497440
_cell_formula_units_Z   1
loop_
 _symmetry_equiv_pos_site_id
 _symmetry_equiv_pos_as_xyz
  1  'x, y, z'
loop_
 _atom_site_type_symbol
 _atom_site_label
 _atom_site_symmetry_multiplicity
 _atom_site_fract_x
 _atom_site_fract_y
 _atom_site_fract_z
 _atom_site_occupancy
  La  La0  1  0.530972  0.501674  0.324043  1
  La  La1  1  0.969598  0.999597  0.822738  1
  La  La2  1  0.470212  0.000194  0.674161  1
  La  La3  1  0.028188  0.501371  0.178995  1
  La  La4  1  0.470212  0.499806  0.674161  1
  La  La5  1  0.028188  0.998629  0.178995  1
  La  La6  1  0.530972  0.998326  0.324043  1
  La  La7  1  0.969598  0.500403  0.822738  1
  Y  Y8  1  0.070292  0.750000  0.495088  1
  U  U9  1  0.428100  0.750000  0.989030  1
  U  U10  1  0.938119  0.250000  0.506064  1
  U  U11  1  0.569686  0.250000  0.009669  1
  Se  Se12  1  0.832167  0.965300  0.594274  1
  Se  Se13  1  0.663791  0.542283  0.091025  1
  Se  Se14  1  0.165695  0.456847  0.408233  1
  Se  Se15  1  0.335379  0.043439  0.907901  1
  Se  Se16  1  0.165695  0.043153  0.408233  1
  Se  Se17  1  0.335379  0.456561  0.907901  1
  Se  Se18  1  0.832167  0.534700  0.594274  1
  Se  Se19  1  0.663791  0.957717  0.091025  1
  Se  Se20  1  0.833561  0.750000  0.311727  1
  Se  Se21  1  0.662289  0.750000  0.813604  1
  Se  Se22  1  0.165471  0.250000  0.687373  1
  Se  Se23  1  0.337229  0.250000  0.185675  1
  Se  Se24  1  0.454107  0.750000  0.496906  1
  Se  Se25  1  0.046086  0.750000  0.998569  1
  Se  Se26  1  0.549745  0.250000  0.499720  1
  Se  Se27  1  0.953150  0.250000  0.002225  1
  Se  Se28  1  0.191576  0.750000  0.716733  1
  Se  Se29  1  0.311867  0.750000  0.210024  1
  Se  Se30  1  0.809191  0.250000  0.285687  1
  Se  Se31  1  0.687525  0.250000  0.789163  1
