# generated using pymatgen
data_NaGe6(Sb3Pt2)2
_symmetry_space_group_name_H-M   'P 1'
_cell_length_a   7.91304445
_cell_length_b   7.90224325
_cell_length_c   7.91304502
_cell_angle_alpha   109.56502123
_cell_angle_beta   109.62609323
_cell_angle_gamma   109.27792906
_symmetry_Int_Tables_number   1
_chemical_formula_structural   NaGe6(Sb3Pt2)2
_chemical_formula_sum   'Na1 Ge6 Sb6 Pt4'
_cell_volume   380.64061915
_cell_formula_units_Z   1
loop_
 _symmetry_equiv_pos_site_id
 _symmetry_equiv_pos_as_xyz
  1  'x, y, z'
loop_
 _atom_site_type_symbol
 _atom_site_label
 _atom_site_symmetry_multiplicity
 _atom_site_fract_x
 _atom_site_fract_y
 _atom_site_fract_z
 _atom_site_occupancy
  Na  Na0  1  0.013320  0.002928  0.989608  1
  Ge  Ge1  1  0.146622  0.339547  0.490649  1
  Ge  Ge2  1  0.514083  0.161570  0.357239  1
  Ge  Ge3  1  0.848900  0.339547  0.192925  1
  Ge  Ge4  1  0.636691  0.476525  0.839836  1
  Ge  Ge5  1  0.353721  0.200206  0.846484  1
  Ge  Ge6  1  0.804330  0.161570  0.647488  1
  Sb  Sb7  1  0.842605  0.645956  0.492954  1
  Sb  Sb8  1  0.335598  0.482542  0.146943  1
  Sb  Sb9  1  0.197417  0.860540  0.343537  1
  Sb  Sb10  1  0.153000  0.645956  0.803350  1
  Sb  Sb11  1  0.658173  0.807478  0.149306  1
  Sb  Sb12  1  0.517002  0.860540  0.663123  1
  Pt  Pt13  1  0.006739  0.019120  0.519121  1
  Pt  Pt14  1  0.492722  0.488427  0.509350  1
  Pt  Pt15  1  0.979077  0.488427  0.995705  1
  Pt  Pt16  1  0.499999  0.019120  0.012382  1
