# generated using pymatgen
data_Pb2Se3O8
_symmetry_space_group_name_H-M   'P 1'
_cell_length_a   5.93418350
_cell_length_b   8.87191484
_cell_length_c   9.31372860
_cell_angle_alpha   93.30345752
_cell_angle_beta   96.09307429
_cell_angle_gamma   98.37936624
_symmetry_Int_Tables_number   1
_chemical_formula_structural   Pb2Se3O8
_chemical_formula_sum   'Pb4 Se6 O16'
_cell_volume   481.03686563
_cell_formula_units_Z   2
loop_
 _symmetry_equiv_pos_site_id
 _symmetry_equiv_pos_as_xyz
  1  'x, y, z'
loop_
 _atom_site_type_symbol
 _atom_site_label
 _atom_site_symmetry_multiplicity
 _atom_site_fract_x
 _atom_site_fract_y
 _atom_site_fract_z
 _atom_site_occupancy
  Pb  Pb0  1  0.300842  0.172722  0.964069  1
  Pb  Pb1  1  0.699158  0.827278  0.035931  1
  Pb  Pb2  1  0.235576  0.957019  0.354307  1
  Pb  Pb3  1  0.764424  0.042981  0.645693  1
  Se  Se4  1  0.829172  0.186179  0.240033  1
  Se  Se5  1  0.170828  0.813821  0.759967  1
  Se  Se6  1  0.233036  0.560919  0.185978  1
  Se  Se7  1  0.766964  0.439081  0.814022  1
  Se  Se8  1  0.284383  0.325502  0.583880  1
  Se  Se9  1  0.715618  0.674498  0.416120  1
  O  O10  1  0.558194  0.806731  0.474800  1
  O  O11  1  0.441806  0.193269  0.525200  1
  O  O12  1  0.862029  0.756807  0.283867  1
  O  O13  1  0.137971  0.243193  0.716133  1
  O  O14  1  0.499902  0.469639  0.690109  1
  O  O15  1  0.500098  0.530361  0.309891  1
  O  O16  1  0.687939  0.260438  0.867150  1
  O  O17  1  0.312061  0.739562  0.132850  1
  O  O18  1  0.746195  0.561032  0.953888  1
  O  O19  1  0.253805  0.438968  0.046112  1
  O  O20  1  0.086271  0.867925  0.589490  1
  O  O21  1  0.913729  0.132075  0.410510  1
  O  O22  1  0.437872  0.920786  0.815799  1
  O  O23  1  0.562128  0.079214  0.184201  1
  O  O24  1  0.999583  0.916044  0.857131  1
  O  O25  1  0.000417  0.083956  0.142869  1
