# generated using pymatgen
data_Sm2Dy3(TcB3)2
_symmetry_space_group_name_H-M   'P 1'
_cell_length_a   5.54480123
_cell_length_b   5.54480309
_cell_length_c   8.59304776
_cell_angle_alpha   71.17776839
_cell_angle_beta   71.17775977
_cell_angle_gamma   59.99999471
_symmetry_Int_Tables_number   1
_chemical_formula_structural   Sm2Dy3(TcB3)2
_chemical_formula_sum   'Sm2 Dy3 Tc2 B6'
_cell_volume   212.32670319
_cell_formula_units_Z   1
loop_
 _symmetry_equiv_pos_site_id
 _symmetry_equiv_pos_as_xyz
  1  'x, y, z'
loop_
 _atom_site_type_symbol
 _atom_site_label
 _atom_site_symmetry_multiplicity
 _atom_site_fract_x
 _atom_site_fract_y
 _atom_site_fract_z
 _atom_site_occupancy
  Sm  Sm0  1  0.000416  0.000416  0.998751  1
  Sm  Sm1  1  0.249563  0.249563  0.251312  1
  Dy  Dy2  1  0.752884  0.752884  0.741349  1
  Dy  Dy3  1  0.419874  0.419874  0.740379  1
  Dy  Dy4  1  0.579700  0.579700  0.260901  1
  Tc  Tc5  1  0.111829  0.111829  0.664514  1
  Tc  Tc6  1  0.888015  0.888015  0.335955  1
  B  B7  1  0.169520  0.829076  0.501140  1
  B  B8  1  0.829076  0.500264  0.501140  1
  B  B9  1  0.500264  0.169520  0.501140  1
  B  B10  1  0.169520  0.500264  0.501140  1
  B  B11  1  0.500264  0.829076  0.501140  1
  B  B12  1  0.829076  0.169520  0.501140  1
