# generated using pymatgen
data_La9PrTl6
_symmetry_space_group_name_H-M   'P 1'
_cell_length_a   6.40470142
_cell_length_b   9.63919311
_cell_length_c   9.63919316
_cell_angle_alpha   83.66327393
_cell_angle_beta   70.59630334
_cell_angle_gamma   70.59630778
_symmetry_Int_Tables_number   1
_chemical_formula_structural   La9PrTl6
_chemical_formula_sum   'La9 Pr1 Tl6'
_cell_volume   529.40614318
_cell_formula_units_Z   1
loop_
 _symmetry_equiv_pos_site_id
 _symmetry_equiv_pos_as_xyz
  1  'x, y, z'
loop_
 _atom_site_type_symbol
 _atom_site_label
 _atom_site_symmetry_multiplicity
 _atom_site_fract_x
 _atom_site_fract_y
 _atom_site_fract_z
 _atom_site_occupancy
  La  La0  1  0.722191  0.865520  0.692158  1
  La  La1  1  0.279870  0.134480  0.307842  1
  La  La2  1  0.777809  0.307842  0.134480  1
  La  La3  1  0.220130  0.692158  0.865520  1
  La  La4  1  0.585651  0.692158  0.134480  1
  La  La5  1  0.412288  0.307842  0.865520  1
  La  La6  1  0.087712  0.134480  0.692158  1
  La  La7  1  0.914349  0.865520  0.307842  1
  La  La8  1  0.750000  0.500000  0.500000  1
  Pr  Pr9  1  0.250000  0.500000  0.500000  1
  Tl  Tl10  1  0.164302  0.500000  0.176754  1
  Tl  Tl11  1  0.841054  0.500000  0.823246  1
  Tl  Tl12  1  0.335698  0.823246  0.500000  1
  Tl  Tl13  1  0.658946  0.176754  0.500000  1
  Tl  Tl14  1  0.250000  0.000000  0.000000  1
  Tl  Tl15  1  0.750000  0.000000  0.000000  1
