# generated using pymatgen
data_Pr2Nd7Rh6
_symmetry_space_group_name_H-M   'P 1'
_cell_length_a   7.63061442
_cell_length_b   7.62761656
_cell_length_c   7.62821801
_cell_angle_alpha   71.50577846
_cell_angle_beta   71.52133482
_cell_angle_gamma   71.50096932
_symmetry_Int_Tables_number   1
_chemical_formula_structural   Pr2Nd7Rh6
_chemical_formula_sum   'Pr2 Nd7 Rh6'
_cell_volume   387.58123745
_cell_formula_units_Z   1
loop_
 _symmetry_equiv_pos_site_id
 _symmetry_equiv_pos_as_xyz
  1  'x, y, z'
loop_
 _atom_site_type_symbol
 _atom_site_label
 _atom_site_symmetry_multiplicity
 _atom_site_fract_x
 _atom_site_fract_y
 _atom_site_fract_z
 _atom_site_occupancy
  Pr  Pr0  1  0.335600  0.835509  0.607328  1
  Pr  Pr1  1  0.607606  0.335520  0.835330  1
  Nd  Nd2  1  0.000012  0.999868  0.000336  1
  Nd  Nd3  1  0.797075  0.796957  0.797120  1
  Nd  Nd4  1  0.202714  0.203189  0.203039  1
  Nd  Nd5  1  0.164326  0.392040  0.664832  1
  Nd  Nd6  1  0.665121  0.164525  0.391936  1
  Nd  Nd7  1  0.391991  0.665027  0.164647  1
  Nd  Nd8  1  0.835745  0.607936  0.334716  1
  Rh  Rh9  1  0.957278  0.162847  0.589606  1
  Rh  Rh10  1  0.590324  0.956665  0.162878  1
  Rh  Rh11  1  0.162312  0.589816  0.957743  1
  Rh  Rh12  1  0.042668  0.837127  0.409511  1
  Rh  Rh13  1  0.409727  0.042998  0.837504  1
  Rh  Rh14  1  0.837501  0.409976  0.043474  1
