# generated using pymatgen
data_Er2Mo3P7Rh9
_symmetry_space_group_name_H-M   'P 1'
_cell_length_a   3.92542066
_cell_length_b   9.51517859
_cell_length_c   9.51453893
_cell_angle_alpha   120.00243035
_cell_angle_beta   89.99790650
_cell_angle_gamma   90.00301521
_symmetry_Int_Tables_number   1
_chemical_formula_structural   Er2Mo3P7Rh9
_chemical_formula_sum   'Er2 Mo3 P7 Rh9'
_cell_volume   307.75909030
_cell_formula_units_Z   1
loop_
 _symmetry_equiv_pos_site_id
 _symmetry_equiv_pos_as_xyz
  1  'x, y, z'
loop_
 _atom_site_type_symbol
 _atom_site_label
 _atom_site_symmetry_multiplicity
 _atom_site_fract_x
 _atom_site_fract_y
 _atom_site_fract_z
 _atom_site_occupancy
  Er  Er0  1  0.261348  0.666610  0.333286  1
  Er  Er1  1  0.762121  0.333373  0.666674  1
  Mo  Mo2  1  0.761942  0.091700  0.870622  1
  Mo  Mo3  1  0.761955  0.129436  0.221226  1
  Mo  Mo4  1  0.761926  0.778837  0.908212  1
  P  P5  1  0.262207  0.000009  0.999972  1
  P  P6  1  0.761753  0.881085  0.593092  1
  P  P7  1  0.761727  0.406875  0.287969  1
  P  P8  1  0.761711  0.712011  0.118869  1
  P  P9  1  0.262007  0.118570  0.412366  1
  P  P10  1  0.262022  0.587694  0.706270  1
  P  P11  1  0.261995  0.293794  0.881460  1
  Rh  Rh12  1  0.261902  0.884277  0.160105  1
  Rh  Rh13  1  0.261910  0.839856  0.724061  1
  Rh  Rh14  1  0.261923  0.275897  0.115817  1
  Rh  Rh15  1  0.761922  0.612637  0.557468  1
  Rh  Rh16  1  0.761893  0.442449  0.055045  1
  Rh  Rh17  1  0.761942  0.944823  0.387342  1
  Rh  Rh18  1  0.261958  0.371255  0.440318  1
  Rh  Rh19  1  0.261894  0.559788  0.931042  1
  Rh  Rh20  1  0.261941  0.069022  0.628785  1
