# generated using pymatgen
data_TmZr(SiMo)2
_symmetry_space_group_name_H-M   'P 1'
_cell_length_a   3.58713200
_cell_length_b   7.12017900
_cell_length_c   8.34993400
_cell_angle_alpha   90.00000000
_cell_angle_beta   90.00000000
_cell_angle_gamma   90.00000000
_symmetry_Int_Tables_number   1
_chemical_formula_structural   TmZr(SiMo)2
_chemical_formula_sum   'Tm2 Zr2 Si4 Mo4'
_cell_volume   213.26584746
_cell_formula_units_Z   2
loop_
 _symmetry_equiv_pos_site_id
 _symmetry_equiv_pos_as_xyz
  1  'x, y, z'
loop_
 _atom_site_type_symbol
 _atom_site_label
 _atom_site_symmetry_multiplicity
 _atom_site_fract_x
 _atom_site_fract_y
 _atom_site_fract_z
 _atom_site_occupancy
  Tm  Tm0  1  0.250000  0.042581  0.335304  1
  Tm  Tm1  1  0.250000  0.542581  0.164696  1
  Zr  Zr2  1  0.750000  0.956821  0.669886  1
  Zr  Zr3  1  0.750000  0.456821  0.830114  1
  Si  Si4  1  0.250000  0.258812  0.637642  1
  Si  Si5  1  0.250000  0.758812  0.862358  1
  Si  Si6  1  0.750000  0.737895  0.367583  1
  Si  Si7  1  0.750000  0.237895  0.132417  1
  Mo  Mo8  1  0.250000  0.129127  0.936159  1
  Mo  Mo9  1  0.250000  0.629127  0.563841  1
  Mo  Mo10  1  0.750000  0.874765  0.055156  1
  Mo  Mo11  1  0.750000  0.374765  0.444844  1
