# generated using pymatgen
data_Pr2In(AsRh2)6
_symmetry_space_group_name_H-M   'P 1'
_cell_length_a   10.10595400
_cell_length_b   10.10595409
_cell_length_c   4.01804000
_cell_angle_alpha   90.00000000
_cell_angle_beta   90.00000000
_cell_angle_gamma   119.99999970
_symmetry_Int_Tables_number   1
_chemical_formula_structural   Pr2In(AsRh2)6
_chemical_formula_sum   'Pr2 In1 As6 Rh12'
_cell_volume   355.38535497
_cell_formula_units_Z   1
loop_
 _symmetry_equiv_pos_site_id
 _symmetry_equiv_pos_as_xyz
  1  'x, y, z'
loop_
 _atom_site_type_symbol
 _atom_site_label
 _atom_site_symmetry_multiplicity
 _atom_site_fract_x
 _atom_site_fract_y
 _atom_site_fract_z
 _atom_site_occupancy
  Pr  Pr0  1  0.333333  0.666667  0.755263  1
  Pr  Pr1  1  0.000000  0.000000  0.246234  1
  In  In2  1  0.666667  0.333333  0.587145  1
  As  As3  1  0.954392  0.218438  0.747235  1
  As  As4  1  0.781562  0.735954  0.747235  1
  As  As5  1  0.264046  0.045608  0.747235  1
  As  As6  1  0.378443  0.446466  0.254457  1
  As  As7  1  0.553534  0.931978  0.254457  1
  As  As8  1  0.068022  0.621557  0.254457  1
  Rh  Rh9  1  0.729887  0.950084  0.750304  1
  Rh  Rh10  1  0.049916  0.779803  0.750304  1
  Rh  Rh11  1  0.220197  0.270113  0.750304  1
  Rh  Rh12  1  0.606441  0.720644  0.251563  1
  Rh  Rh13  1  0.279356  0.885798  0.251563  1
  Rh  Rh14  1  0.114202  0.393559  0.251563  1
  Rh  Rh15  1  0.957537  0.461829  0.757481  1
  Rh  Rh16  1  0.538171  0.495708  0.757481  1
  Rh  Rh17  1  0.504292  0.042463  0.757481  1
  Rh  Rh18  1  0.389951  0.209237  0.244140  1
  Rh  Rh19  1  0.790763  0.180713  0.244140  1
  Rh  Rh20  1  0.819287  0.610049  0.244140  1
