# generated using pymatgen
data_LuZr4(Re3Tc)6
_symmetry_space_group_name_H-M   'P 1'
_cell_length_a   8.50066514
_cell_length_b   8.50065267
_cell_length_c   8.48571704
_cell_angle_alpha   109.46852094
_cell_angle_beta   109.46866734
_cell_angle_gamma   109.54793737
_symmetry_Int_Tables_number   1
_chemical_formula_structural   LuZr4(Re3Tc)6
_chemical_formula_sum   'Lu1 Zr4 Re18 Tc6'
_cell_volume   471.61542952
_cell_formula_units_Z   1
loop_
 _symmetry_equiv_pos_site_id
 _symmetry_equiv_pos_as_xyz
  1  'x, y, z'
loop_
 _atom_site_type_symbol
 _atom_site_label
 _atom_site_symmetry_multiplicity
 _atom_site_fract_x
 _atom_site_fract_y
 _atom_site_fract_z
 _atom_site_occupancy
  Lu  Lu0  1  0.999326  0.999325  0.999999  1
  Zr  Zr1  1  0.625838  0.999894  0.000006  1
  Zr  Zr2  1  0.999913  0.625857  0.000016  1
  Zr  Zr3  1  0.999600  0.999600  0.627564  1
  Zr  Zr4  1  0.372029  0.372040  0.372435  1
  Re  Re5  1  0.324981  0.324984  0.721444  1
  Re  Re6  1  0.001055  0.675414  0.396045  1
  Re  Re7  1  0.675382  0.001014  0.396029  1
  Re  Re8  1  0.603521  0.603547  0.278553  1
  Re  Re9  1  0.279374  0.605007  0.603963  1
  Re  Re10  1  0.604987  0.279352  0.603958  1
  Re  Re11  1  0.377103  0.195643  0.999993  1
  Re  Re12  1  0.180979  0.805433  0.804749  1
  Re  Re13  1  0.376222  0.000676  0.195259  1
  Re  Re14  1  0.195653  0.377128  0.000011  1
  Re  Re15  1  0.000713  0.376243  0.195262  1
  Re  Re16  1  0.805431  0.180965  0.804737  1
  Re  Re17  1  0.806200  0.806206  0.183143  1
  Re  Re18  1  0.000668  0.194643  0.378518  1
  Re  Re19  1  0.194659  0.000657  0.378526  1
  Re  Re20  1  0.623056  0.623059  0.816856  1
  Re  Re21  1  0.816123  0.622145  0.621482  1
  Re  Re22  1  0.622124  0.816122  0.621468  1
  Tc  Tc23  1  0.396007  0.676527  0.000012  1
  Tc  Tc24  1  0.720205  0.323905  0.322846  1
  Tc  Tc25  1  0.397351  0.001043  0.677130  1
  Tc  Tc26  1  0.676525  0.396007  0.999997  1
  Tc  Tc27  1  0.001059  0.397354  0.677144  1
  Tc  Tc28  1  0.323918  0.720209  0.322856  1
