# generated using pymatgen
data_Ba12Gd2YErAl8O30
_symmetry_space_group_name_H-M   'P 1'
_cell_length_a   5.97365351
_cell_length_b   7.94355170
_cell_length_c   18.56326666
_cell_angle_alpha   88.41405338
_cell_angle_beta   89.93713254
_cell_angle_gamma   89.97079828
_symmetry_Int_Tables_number   1
_chemical_formula_structural   Ba12Gd2YErAl8O30
_chemical_formula_sum   'Ba12 Gd2 Y1 Er1 Al8 O30'
_cell_volume   880.52654149
_cell_formula_units_Z   1
loop_
 _symmetry_equiv_pos_site_id
 _symmetry_equiv_pos_as_xyz
  1  'x, y, z'
loop_
 _atom_site_type_symbol
 _atom_site_label
 _atom_site_symmetry_multiplicity
 _atom_site_fract_x
 _atom_site_fract_y
 _atom_site_fract_z
 _atom_site_occupancy
  Ba  Ba0  1  0.755767  0.501562  0.082826  1
  Ba  Ba1  1  0.244345  0.498463  0.916969  1
  Ba  Ba2  1  0.755600  0.498398  0.417830  1
  Ba  Ba3  1  0.243646  0.500861  0.582630  1
  Ba  Ba4  1  0.747625  0.969667  0.090218  1
  Ba  Ba5  1  0.252441  0.030407  0.909596  1
  Ba  Ba6  1  0.747369  0.030391  0.410510  1
  Ba  Ba7  1  0.251813  0.970325  0.590109  1
  Ba  Ba8  1  0.729261  0.000917  0.749404  1
  Ba  Ba9  1  0.271050  0.999494  0.250284  1
  Ba  Ba10  1  0.674629  0.499557  0.749656  1
  Ba  Ba11  1  0.325641  0.500105  0.250145  1
  Gd  Gd12  1  0.748930  0.753195  0.910366  1
  Gd  Gd13  1  0.251167  0.246911  0.089463  1
  Y  Y14  1  0.251713  0.752217  0.410964  1
  Er  Er15  1  0.747661  0.248317  0.589233  1
  Al  Al16  1  0.747427  0.752083  0.555978  1
  Al  Al17  1  0.251558  0.247501  0.445316  1
  Al  Al18  1  0.748034  0.247498  0.943157  1
  Al  Al19  1  0.252169  0.752517  0.056707  1
  Al  Al20  1  0.768787  0.779112  0.268113  1
  Al  Al21  1  0.231950  0.221000  0.731136  1
  Al  Al22  1  0.768750  0.220470  0.232782  1
  Al  Al23  1  0.231550  0.779685  0.767170  1
  O  O24  1  0.209138  0.000582  0.749806  1
  O  O25  1  0.791504  0.999616  0.249852  1
  O  O26  1  0.500359  0.765089  0.002463  1
  O  O27  1  0.499771  0.234943  0.997363  1
  O  O28  1  0.501002  0.235752  0.499767  1
  O  O29  1  0.498833  0.764271  0.501611  1
  O  O30  1  0.760478  0.944210  0.605805  1
  O  O31  1  0.238686  0.057348  0.394561  1
  O  O32  1  0.761679  0.058210  0.892498  1
  O  O33  1  0.238351  0.941879  0.107359  1
  O  O34  1  0.016606  0.763818  0.996120  1
  O  O35  1  0.983692  0.236230  0.003666  1
  O  O36  1  0.013825  0.236899  0.506046  1
  O  O37  1  0.984102  0.762833  0.495174  1
  O  O38  1  0.317747  0.690449  0.687013  1
  O  O39  1  0.682921  0.309336  0.313091  1
  O  O40  1  0.315816  0.309669  0.811880  1
  O  O41  1  0.682673  0.691178  0.187440  1
  O  O42  1  0.450411  0.755200  0.832752  1
  O  O43  1  0.549693  0.244991  0.167198  1
  O  O44  1  0.455739  0.244376  0.666532  1
  O  O45  1  0.547450  0.755526  0.333343  1
  O  O46  1  0.974156  0.728485  0.810208  1
  O  O47  1  0.025970  0.271793  0.189609  1
  O  O48  1  0.974691  0.268985  0.686586  1
  O  O49  1  0.026940  0.729962  0.311572  1
  O  O50  1  0.752195  0.537921  0.591559  1
  O  O51  1  0.246727  0.459845  0.408786  1
  O  O52  1  0.753251  0.459285  0.907040  1
  O  O53  1  0.246717  0.540659  0.092736  1
