# generated using pymatgen
data_Lu5Hf3Pt4
_symmetry_space_group_name_H-M   'P 1'
_cell_length_a   4.67006800
_cell_length_b   6.94764256
_cell_length_c   8.26360421
_cell_angle_alpha   89.38192633
_cell_angle_beta   90.00000000
_cell_angle_gamma   90.00000000
_symmetry_Int_Tables_number   1
_chemical_formula_structural   Lu5Hf3Pt4
_chemical_formula_sum   'Lu5 Hf3 Pt4'
_cell_volume   268.10499795
_cell_formula_units_Z   1
loop_
 _symmetry_equiv_pos_site_id
 _symmetry_equiv_pos_as_xyz
  1  'x, y, z'
loop_
 _atom_site_type_symbol
 _atom_site_label
 _atom_site_symmetry_multiplicity
 _atom_site_fract_x
 _atom_site_fract_y
 _atom_site_fract_z
 _atom_site_occupancy
  Lu  Lu0  1  0.750000  0.647973  0.420214  1
  Lu  Lu1  1  0.250000  0.987512  0.325969  1
  Lu  Lu2  1  0.250000  0.479856  0.172096  1
  Lu  Lu3  1  0.750000  0.019339  0.680120  1
  Lu  Lu4  1  0.750000  0.516664  0.821174  1
  Hf  Hf5  1  0.250000  0.856434  0.924802  1
  Hf  Hf6  1  0.250000  0.354242  0.576815  1
  Hf  Hf7  1  0.750000  0.146897  0.078134  1
  Pt  Pt8  1  0.250000  0.235458  0.903376  1
  Pt  Pt9  1  0.250000  0.739026  0.607701  1
  Pt  Pt10  1  0.750000  0.765010  0.085428  1
  Pt  Pt11  1  0.750000  0.251588  0.404171  1
