# generated using pymatgen
data_Ho2InHgPt
_symmetry_space_group_name_H-M   'P 1'
_cell_length_a   7.97949000
_cell_length_b   8.14929200
_cell_length_c   3.67329800
_cell_angle_alpha   90.00000000
_cell_angle_beta   90.00000000
_cell_angle_gamma   90.00000000
_symmetry_Int_Tables_number   1
_chemical_formula_structural   Ho2InHgPt
_chemical_formula_sum   'Ho4 In2 Hg2 Pt2'
_cell_volume   238.86426174
_cell_formula_units_Z   2
loop_
 _symmetry_equiv_pos_site_id
 _symmetry_equiv_pos_as_xyz
  1  'x, y, z'
loop_
 _atom_site_type_symbol
 _atom_site_label
 _atom_site_symmetry_multiplicity
 _atom_site_fract_x
 _atom_site_fract_y
 _atom_site_fract_z
 _atom_site_occupancy
  Ho  Ho0  1  0.324520  0.137571  0.500001  1
  Ho  Ho1  1  0.824520  0.362429  0.500001  1
  Ho  Ho2  1  0.165040  0.691018  0.500001  1
  Ho  Ho3  1  0.665041  0.808983  0.500001  1
  In  In4  1  0.998223  0.991119  0.000000  1
  In  In5  1  0.498223  0.508881  0.000000  1
  Hg  Hg6  1  0.637895  0.126201  0.000000  1
  Hg  Hg7  1  0.137895  0.373799  0.000000  1
  Pt  Pt8  1  0.874321  0.628953  0.000000  1
  Pt  Pt9  1  0.374322  0.871046  0.000000  1
