# generated using pymatgen
data_Yb4Th4InPd24
_symmetry_space_group_name_H-M   'P 1'
_cell_length_a   8.44341959
_cell_length_b   8.46690262
_cell_length_c   8.46690200
_cell_angle_alpha   89.99483676
_cell_angle_beta   89.96489001
_cell_angle_gamma   89.96488949
_symmetry_Int_Tables_number   1
_chemical_formula_structural   Yb4Th4InPd24
_chemical_formula_sum   'Yb4 Th4 In1 Pd24'
_cell_volume   605.29530435
_cell_formula_units_Z   1
loop_
 _symmetry_equiv_pos_site_id
 _symmetry_equiv_pos_as_xyz
  1  'x, y, z'
loop_
 _atom_site_type_symbol
 _atom_site_label
 _atom_site_symmetry_multiplicity
 _atom_site_fract_x
 _atom_site_fract_y
 _atom_site_fract_z
 _atom_site_occupancy
  Yb  Yb0  1  0.251100  0.251569  0.748439  1
  Yb  Yb1  1  0.251100  0.748439  0.251569  1
  Yb  Yb2  1  0.250869  0.748939  0.748939  1
  Yb  Yb3  1  0.748804  0.250618  0.250618  1
  Th  Th4  1  0.253921  0.254482  0.254482  1
  Th  Th5  1  0.745663  0.746560  0.746560  1
  Th  Th6  1  0.747027  0.747679  0.252615  1
  Th  Th7  1  0.747027  0.252615  0.747679  1
  In  In8  1  0.003252  0.999895  0.999895  1
  Pd  Pd9  1  0.265495  0.499575  0.000961  1
  Pd  Pd10  1  0.735281  0.499230  0.001546  1
  Pd  Pd11  1  0.998330  0.264541  0.500178  1
  Pd  Pd12  1  0.500632  0.264952  0.999388  1
  Pd  Pd13  1  0.999499  0.734758  0.499348  1
  Pd  Pd14  1  0.499780  0.735021  0.000936  1
  Pd  Pd15  1  0.500632  0.999388  0.264952  1
  Pd  Pd16  1  0.265495  0.000961  0.499575  1
  Pd  Pd17  1  0.499780  0.000936  0.735021  1
  Pd  Pd18  1  0.735281  0.001546  0.499230  1
  Pd  Pd19  1  0.998330  0.500178  0.264541  1
  Pd  Pd20  1  0.999499  0.499348  0.734758  1
  Pd  Pd21  1  0.253541  0.500584  0.500584  1
  Pd  Pd22  1  0.744508  0.497830  0.497830  1
  Pd  Pd23  1  0.501431  0.254518  0.500895  1
  Pd  Pd24  1  0.497894  0.745845  0.499387  1
  Pd  Pd25  1  0.501431  0.500895  0.254518  1
  Pd  Pd26  1  0.497894  0.499387  0.745845  1
  Pd  Pd27  1  0.311082  0.999383  0.999383  1
  Pd  Pd28  1  0.691372  0.001212  0.001212  1
  Pd  Pd29  1  0.999893  0.309406  0.999290  1
  Pd  Pd30  1  0.002131  0.690337  0.000083  1
  Pd  Pd31  1  0.999893  0.999290  0.309406  1
  Pd  Pd32  1  0.002131  0.000083  0.690337  1
