# generated using pymatgen
data_Dy5Y3(CoAg)2
_symmetry_space_group_name_H-M   'P 1'
_cell_length_a   9.40887075
_cell_length_b   9.40872612
_cell_length_c   9.41097646
_cell_angle_alpha   60.42001952
_cell_angle_beta   60.25608000
_cell_angle_gamma   60.43179064
_symmetry_Int_Tables_number   1
_chemical_formula_structural   Dy5Y3(CoAg)2
_chemical_formula_sum   'Dy10 Y6 Co4 Ag4'
_cell_volume   594.01602474
_cell_formula_units_Z   2
loop_
 _symmetry_equiv_pos_site_id
 _symmetry_equiv_pos_as_xyz
  1  'x, y, z'
loop_
 _atom_site_type_symbol
 _atom_site_label
 _atom_site_symmetry_multiplicity
 _atom_site_fract_x
 _atom_site_fract_y
 _atom_site_fract_z
 _atom_site_occupancy
  Dy  Dy0  1  0.348295  0.348492  0.348260  1
  Dy  Dy1  1  0.348696  0.348243  0.956453  1
  Dy  Dy2  1  0.348191  0.958448  0.348339  1
  Dy  Dy3  1  0.957510  0.347883  0.348559  1
  Dy  Dy4  1  0.811675  0.186887  0.186559  1
  Dy  Dy5  1  0.187285  0.811109  0.810977  1
  Dy  Dy6  1  0.186189  0.812184  0.185960  1
  Dy  Dy7  1  0.810997  0.187327  0.811344  1
  Dy  Dy8  1  0.186975  0.187148  0.811908  1
  Dy  Dy9  1  0.810760  0.811245  0.187210  1
  Y  Y10  1  0.936959  0.561994  0.562590  1
  Y  Y11  1  0.562215  0.936316  0.938414  1
  Y  Y12  1  0.562688  0.937402  0.562522  1
  Y  Y13  1  0.936972  0.561503  0.937621  1
  Y  Y14  1  0.562180  0.561384  0.936821  1
  Y  Y15  1  0.938009  0.936399  0.562570  1
  Co  Co16  1  0.141574  0.141511  0.141087  1
  Co  Co17  1  0.142066  0.143010  0.576286  1
  Co  Co18  1  0.142527  0.575776  0.142556  1
  Co  Co19  1  0.576217  0.143054  0.141967  1
  Ag  Ag20  1  0.581830  0.581987  0.581739  1
  Ag  Ag21  1  0.580500  0.581554  0.258529  1
  Ag  Ag22  1  0.581597  0.257334  0.581254  1
  Ag  Ag23  1  0.258094  0.581810  0.580475  1
