# generated using pymatgen
data_Tb2Dy(ThSn2)2
_symmetry_space_group_name_H-M   'P 1'
_cell_length_a   8.13066100
_cell_length_b   8.24518500
_cell_length_c   15.55833300
_cell_angle_alpha   90.00000000
_cell_angle_beta   90.00000000
_cell_angle_gamma   90.00000000
_symmetry_Int_Tables_number   1
_chemical_formula_structural   Tb2Dy(ThSn2)2
_chemical_formula_sum   'Tb8 Dy4 Th8 Sn16'
_cell_volume   1043.01203838
_cell_formula_units_Z   4
loop_
 _symmetry_equiv_pos_site_id
 _symmetry_equiv_pos_as_xyz
  1  'x, y, z'
loop_
 _atom_site_type_symbol
 _atom_site_label
 _atom_site_symmetry_multiplicity
 _atom_site_fract_x
 _atom_site_fract_y
 _atom_site_fract_z
 _atom_site_occupancy
  Tb  Tb0  1  0.360165  0.836648  0.876495  1
  Tb  Tb1  1  0.860165  0.663352  0.623505  1
  Tb  Tb2  1  0.639835  0.163352  0.376495  1
  Tb  Tb3  1  0.139835  0.336648  0.123505  1
  Tb  Tb4  1  0.639835  0.163352  0.123505  1
  Tb  Tb5  1  0.139835  0.336648  0.376495  1
  Tb  Tb6  1  0.360165  0.836648  0.623505  1
  Tb  Tb7  1  0.860165  0.663352  0.876495  1
  Dy  Dy8  1  0.189754  0.497739  0.750000  1
  Dy  Dy9  1  0.689754  0.002261  0.750000  1
  Dy  Dy10  1  0.810246  0.502261  0.250000  1
  Dy  Dy11  1  0.310246  0.997739  0.250000  1
  Th  Th12  1  0.517348  0.321062  0.904374  1
  Th  Th13  1  0.017348  0.178938  0.595626  1
  Th  Th14  1  0.482652  0.678938  0.404374  1
  Th  Th15  1  0.982652  0.821062  0.095626  1
  Th  Th16  1  0.482652  0.678938  0.095626  1
  Th  Th17  1  0.982652  0.821062  0.404374  1
  Th  Th18  1  0.517348  0.321062  0.595626  1
  Th  Th19  1  0.017348  0.178938  0.904374  1
  Sn  Sn20  1  0.299475  0.038501  0.042444  1
  Sn  Sn21  1  0.799475  0.461499  0.457556  1
  Sn  Sn22  1  0.700525  0.961499  0.542444  1
  Sn  Sn23  1  0.200525  0.538501  0.957556  1
  Sn  Sn24  1  0.700525  0.961499  0.957556  1
  Sn  Sn25  1  0.200525  0.538501  0.542444  1
  Sn  Sn26  1  0.299475  0.038501  0.457556  1
  Sn  Sn27  1  0.799475  0.461499  0.042444  1
  Sn  Sn28  1  0.556078  0.618818  0.750000  1
  Sn  Sn29  1  0.056078  0.881182  0.750000  1
  Sn  Sn30  1  0.443922  0.381182  0.250000  1
  Sn  Sn31  1  0.943922  0.118818  0.250000  1
  Sn  Sn32  1  0.323153  0.143908  0.750000  1
  Sn  Sn33  1  0.823153  0.356092  0.750000  1
  Sn  Sn34  1  0.676847  0.856092  0.250000  1
  Sn  Sn35  1  0.176847  0.643908  0.250000  1
