# generated using pymatgen
data_PrNdZn5Si
_symmetry_space_group_name_H-M   'P 1'
_cell_length_a   8.37673756
_cell_length_b   8.37673713
_cell_length_c   8.84195700
_cell_angle_alpha   90.00000000
_cell_angle_beta   90.00000000
_cell_angle_gamma   149.18439508
_symmetry_Int_Tables_number   1
_chemical_formula_structural   PrNdZn5Si
_chemical_formula_sum   'Pr2 Nd2 Zn10 Si2'
_cell_volume   317.83584499
_cell_formula_units_Z   2
loop_
 _symmetry_equiv_pos_site_id
 _symmetry_equiv_pos_as_xyz
  1  'x, y, z'
loop_
 _atom_site_type_symbol
 _atom_site_label
 _atom_site_symmetry_multiplicity
 _atom_site_fract_x
 _atom_site_fract_y
 _atom_site_fract_z
 _atom_site_occupancy
  Pr  Pr0  1  0.000000  0.000000  0.500000  1
  Pr  Pr1  1  0.000000  0.000000  0.000000  1
  Nd  Nd2  1  0.204273  0.795727  0.250000  1
  Nd  Nd3  1  0.795727  0.204273  0.750000  1
  Zn  Zn4  1  0.813932  0.186068  0.393427  1
  Zn  Zn5  1  0.186068  0.813932  0.606573  1
  Zn  Zn6  1  0.813932  0.186068  0.106573  1
  Zn  Zn7  1  0.186068  0.813932  0.893427  1
  Zn  Zn8  1  0.649097  0.350903  0.476329  1
  Zn  Zn9  1  0.350903  0.649097  0.523671  1
  Zn  Zn10  1  0.649097  0.350903  0.023671  1
  Zn  Zn11  1  0.350903  0.649097  0.976329  1
  Zn  Zn12  1  0.406370  0.593630  0.250000  1
  Zn  Zn13  1  0.593630  0.406370  0.750000  1
  Si  Si14  1  0.558220  0.441780  0.250000  1
  Si  Si15  1  0.441780  0.558220  0.750000  1
