# generated using pymatgen
data_Eu3AsO6
_symmetry_space_group_name_H-M   'P 1'
_cell_length_a   5.75405200
_cell_length_b   7.63546827
_cell_length_c   7.63546883
_cell_angle_alpha   103.57259059
_cell_angle_beta   90.00000000
_cell_angle_gamma   90.00000000
_symmetry_Int_Tables_number   1
_chemical_formula_structural   Eu3AsO6
_chemical_formula_sum   'Eu6 As2 O12'
_cell_volume   326.09505792
_cell_formula_units_Z   2
loop_
 _symmetry_equiv_pos_site_id
 _symmetry_equiv_pos_as_xyz
  1  'x, y, z'
loop_
 _atom_site_type_symbol
 _atom_site_label
 _atom_site_symmetry_multiplicity
 _atom_site_fract_x
 _atom_site_fract_y
 _atom_site_fract_z
 _atom_site_occupancy
  Eu  Eu0  1  0.458226  0.197825  0.395871  1
  Eu  Eu1  1  0.458226  0.604129  0.802175  1
  Eu  Eu2  1  0.958226  0.802175  0.604129  1
  Eu  Eu3  1  0.958226  0.395871  0.197825  1
  Eu  Eu4  1  0.490481  0.093477  0.906523  1
  Eu  Eu5  1  0.990481  0.906523  0.093477  1
  As  As6  1  0.912366  0.308015  0.691985  1
  As  As7  1  0.412366  0.691985  0.308015  1
  O  O8  1  0.223216  0.852134  0.829167  1
  O  O9  1  0.223216  0.170833  0.147866  1
  O  O10  1  0.723216  0.147866  0.170833  1
  O  O11  1  0.723216  0.829167  0.852134  1
  O  O12  1  0.280254  0.899504  0.389956  1
  O  O13  1  0.280254  0.610044  0.100496  1
  O  O14  1  0.780254  0.100496  0.610044  1
  O  O15  1  0.780254  0.389956  0.899504  1
  O  O16  1  0.313076  0.554479  0.445521  1
  O  O17  1  0.813076  0.445521  0.554479  1
  O  O18  1  0.211995  0.296406  0.703594  1
  O  O19  1  0.711995  0.703594  0.296406  1
