# generated using pymatgen
data_Nd4HoBi3O14
_symmetry_space_group_name_H-M   'P 1'
_cell_length_a   6.71680971
_cell_length_b   6.77251763
_cell_length_c   7.90570479
_cell_angle_alpha   106.70398434
_cell_angle_beta   89.70348874
_cell_angle_gamma   98.37831973
_symmetry_Int_Tables_number   1
_chemical_formula_structural   Nd4HoBi3O14
_chemical_formula_sum   'Nd4 Ho1 Bi3 O14'
_cell_volume   340.52090605
_cell_formula_units_Z   1
loop_
 _symmetry_equiv_pos_site_id
 _symmetry_equiv_pos_as_xyz
  1  'x, y, z'
loop_
 _atom_site_type_symbol
 _atom_site_label
 _atom_site_symmetry_multiplicity
 _atom_site_fract_x
 _atom_site_fract_y
 _atom_site_fract_z
 _atom_site_occupancy
  Nd  Nd0  1  0.538136  0.000985  0.749342  1
  Nd  Nd1  1  0.268257  0.536312  0.883825  1
  Nd  Nd2  1  0.741544  0.460617  0.116357  1
  Nd  Nd3  1  0.750054  0.481753  0.616321  1
  Ho  Ho4  1  0.458100  0.008668  0.255266  1
  Bi  Bi5  1  0.994334  0.999322  0.498183  1
  Bi  Bi6  1  0.998587  0.995524  0.000176  1
  Bi  Bi7  1  0.286155  0.536824  0.386352  1
  O  O8  1  0.448758  0.660537  0.176532  1
  O  O9  1  0.559841  0.360574  0.836990  1
  O  O10  1  0.300769  0.926202  0.959660  1
  O  O11  1  0.700072  0.068288  0.056086  1
  O  O12  1  0.294951  0.931345  0.508460  1
  O  O13  1  0.700821  0.080822  0.483172  1
  O  O14  1  0.539738  0.355319  0.340768  1
  O  O15  1  0.453925  0.638209  0.649857  1
  O  O16  1  0.926829  0.665923  0.946749  1
  O  O17  1  0.068110  0.317968  0.028920  1
  O  O18  1  0.066949  0.329334  0.626272  1
  O  O19  1  0.905582  0.669555  0.386363  1
  O  O20  1  0.881286  0.908085  0.727511  1
  O  O21  1  0.117200  0.067835  0.266833  1
