# generated using pymatgen
data_Hf8Fe2IrRh
_symmetry_space_group_name_H-M   'P 1'
_cell_length_a   8.60771490
_cell_length_b   8.60924881
_cell_length_c   8.60873401
_cell_angle_alpha   60.00481797
_cell_angle_beta   59.99873946
_cell_angle_gamma   59.98570413
_symmetry_Int_Tables_number   1
_chemical_formula_structural   Hf8Fe2IrRh
_chemical_formula_sum   'Hf16 Fe4 Ir2 Rh2'
_cell_volume   451.06813890
_cell_formula_units_Z   2
loop_
 _symmetry_equiv_pos_site_id
 _symmetry_equiv_pos_as_xyz
  1  'x, y, z'
loop_
 _atom_site_type_symbol
 _atom_site_label
 _atom_site_symmetry_multiplicity
 _atom_site_fract_x
 _atom_site_fract_y
 _atom_site_fract_z
 _atom_site_occupancy
  Hf  Hf0  1  0.684650  0.104680  0.105394  1
  Hf  Hf1  1  0.104706  0.683915  0.105753  1
  Hf  Hf2  1  0.104682  0.105034  0.684784  1
  Hf  Hf3  1  0.104616  0.104945  0.105538  1
  Hf  Hf4  1  0.311790  0.311765  0.688210  1
  Hf  Hf5  1  0.688198  0.688275  0.311746  1
  Hf  Hf6  1  0.311702  0.689517  0.311558  1
  Hf  Hf7  1  0.689342  0.311793  0.687170  1
  Hf  Hf8  1  0.689324  0.311828  0.311694  1
  Hf  Hf9  1  0.311651  0.689556  0.687246  1
  Hf  Hf10  1  0.945778  0.945874  0.554099  1
  Hf  Hf11  1  0.555237  0.554986  0.944893  1
  Hf  Hf12  1  0.944749  0.554888  0.946049  1
  Hf  Hf13  1  0.554992  0.944898  0.554006  1
  Hf  Hf14  1  0.554875  0.944932  0.946154  1
  Hf  Hf15  1  0.944708  0.555013  0.554282  1
  Fe  Fe16  1  0.325391  0.891211  0.891695  1
  Fe  Fe17  1  0.891334  0.325423  0.891623  1
  Fe  Fe18  1  0.892027  0.891806  0.323927  1
  Fe  Fe19  1  0.892016  0.891774  0.892219  1
  Ir  Ir20  1  0.996244  0.333754  0.335019  1
  Ir  Ir21  1  0.333853  0.996204  0.334984  1
  Rh  Rh22  1  0.334071  0.333964  0.996617  1
  Rh  Rh23  1  0.334060  0.333962  0.335337  1
