# generated using pymatgen
data_IrPd3(Pb2O7)2
_symmetry_space_group_name_H-M   'P 1'
_cell_length_a   7.39825806
_cell_length_b   7.40181211
_cell_length_c   7.40181200
_cell_angle_alpha   60.00000050
_cell_angle_beta   59.98410806
_cell_angle_gamma   59.98410186
_symmetry_Int_Tables_number   1
_chemical_formula_structural   IrPd3(Pb2O7)2
_chemical_formula_sum   'Ir1 Pd3 Pb4 O14'
_cell_volume   286.54062526
_cell_formula_units_Z   1
loop_
 _symmetry_equiv_pos_site_id
 _symmetry_equiv_pos_as_xyz
  1  'x, y, z'
loop_
 _atom_site_type_symbol
 _atom_site_label
 _atom_site_symmetry_multiplicity
 _atom_site_fract_x
 _atom_site_fract_y
 _atom_site_fract_z
 _atom_site_occupancy
  Ir  Ir0  1  0.125000  0.625000  0.625000  1
  Pd  Pd1  1  0.625000  0.125000  0.625000  1
  Pd  Pd2  1  0.625000  0.625000  0.125000  1
  Pd  Pd3  1  0.625000  0.625000  0.625000  1
  Pb  Pb4  1  0.625000  0.125000  0.125000  1
  Pb  Pb5  1  0.125000  0.625000  0.125000  1
  Pb  Pb6  1  0.125000  0.125000  0.625000  1
  Pb  Pb7  1  0.125000  0.125000  0.125000  1
  O  O8  1  0.709987  0.704039  0.292987  1
  O  O9  1  0.288250  0.300645  0.705553  1
  O  O10  1  0.709987  0.292987  0.704039  1
  O  O11  1  0.288250  0.705553  0.300645  1
  O  O12  1  0.288250  0.705553  0.705553  1
  O  O13  1  0.709987  0.292987  0.292987  1
  O  O14  1  0.540013  0.545961  0.957013  1
  O  O15  1  0.961750  0.949355  0.544447  1
  O  O16  1  0.540013  0.957013  0.545961  1
  O  O17  1  0.961750  0.544447  0.949355  1
  O  O18  1  0.961750  0.544447  0.544447  1
  O  O19  1  0.540013  0.957013  0.957013  1
  O  O20  1  0.242300  0.252567  0.252567  1
  O  O21  1  0.007700  0.997433  0.997433  1
