# generated using pymatgen
data_Ti2MnCu2
_symmetry_space_group_name_H-M   'P 1'
_cell_length_a   3.05417415
_cell_length_b   3.05417446
_cell_length_c   7.42770958
_cell_angle_alpha   101.86422061
_cell_angle_beta   101.86421834
_cell_angle_gamma   90.00000120
_symmetry_Int_Tables_number   1
_chemical_formula_structural   Ti2MnCu2
_chemical_formula_sum   'Ti2 Mn1 Cu2'
_cell_volume   66.29227798
_cell_formula_units_Z   1
loop_
 _symmetry_equiv_pos_site_id
 _symmetry_equiv_pos_as_xyz
  1  'x, y, z'
loop_
 _atom_site_type_symbol
 _atom_site_label
 _atom_site_symmetry_multiplicity
 _atom_site_fract_x
 _atom_site_fract_y
 _atom_site_fract_z
 _atom_site_occupancy
  Ti  Ti0  1  0.599041  0.599041  0.198084  1
  Ti  Ti1  1  0.400957  0.400957  0.801915  1
  Mn  Mn2  1  0.000000  0.000000  0.000000  1
  Cu  Cu3  1  0.204872  0.204872  0.409744  1
  Cu  Cu4  1  0.795127  0.795127  0.590257  1
