# generated using pymatgen
data_NdErNp2(NiAs)4
_symmetry_space_group_name_H-M   'P 1'
_cell_length_a   4.07738900
_cell_length_b   4.07738799
_cell_length_c   15.43514800
_cell_angle_alpha   90.00000000
_cell_angle_beta   90.00000000
_cell_angle_gamma   120.00001631
_symmetry_Int_Tables_number   1
_chemical_formula_structural   NdErNp2(NiAs)4
_chemical_formula_sum   'Nd1 Er1 Np2 Ni4 As4'
_cell_volume   222.23146267
_cell_formula_units_Z   1
loop_
 _symmetry_equiv_pos_site_id
 _symmetry_equiv_pos_as_xyz
  1  'x, y, z'
loop_
 _atom_site_type_symbol
 _atom_site_label
 _atom_site_symmetry_multiplicity
 _atom_site_fract_x
 _atom_site_fract_y
 _atom_site_fract_z
 _atom_site_occupancy
  Nd  Nd0  1  0.000000  0.000000  0.250000  1
  Er  Er1  1  0.000000  0.000000  0.750000  1
  Np  Np2  1  0.000000  0.000000  0.994704  1
  Np  Np3  1  0.000000  0.000000  0.505296  1
  Ni  Ni4  1  0.333333  0.666667  0.113039  1
  Ni  Ni5  1  0.666667  0.333333  0.855290  1
  Ni  Ni6  1  0.666667  0.333333  0.644710  1
  Ni  Ni7  1  0.333333  0.666667  0.386961  1
  As  As8  1  0.333333  0.666667  0.622628  1
  As  As9  1  0.666667  0.333333  0.381481  1
  As  As10  1  0.666667  0.333333  0.118519  1
  As  As11  1  0.333333  0.666667  0.877372  1
