# generated using pymatgen
data_Sm6RuPtBr6
_symmetry_space_group_name_H-M   'P 1'
_cell_length_a   10.31362863
_cell_length_b   10.31361913
_cell_length_c   10.40456300
_cell_angle_alpha   109.44345712
_cell_angle_beta   109.44359694
_cell_angle_gamma   109.16457747
_symmetry_Int_Tables_number   1
_chemical_formula_structural   Sm6RuPtBr6
_chemical_formula_sum   'Sm12 Ru2 Pt2 Br12'
_cell_volume   855.75076272
_cell_formula_units_Z   2
loop_
 _symmetry_equiv_pos_site_id
 _symmetry_equiv_pos_as_xyz
  1  'x, y, z'
loop_
 _atom_site_type_symbol
 _atom_site_label
 _atom_site_symmetry_multiplicity
 _atom_site_fract_x
 _atom_site_fract_y
 _atom_site_fract_z
 _atom_site_occupancy
  Sm  Sm0  1  0.467949  0.479543  0.237967  1
  Sm  Sm1  1  0.741573  0.229981  0.262030  1
  Sm  Sm2  1  0.741710  0.010415  0.479220  1
  Sm  Sm3  1  0.237508  0.468810  0.479229  1
  Sm  Sm4  1  0.270020  0.758427  0.237971  1
  Sm  Sm5  1  0.031190  0.262491  0.020771  1
  Sm  Sm6  1  0.020457  0.032051  0.262033  1
  Sm  Sm7  1  0.489584  0.758289  0.020780  1
  Sm  Sm8  1  0.483977  0.233971  0.467952  1
  Sm  Sm9  1  0.014819  0.485182  0.750001  1
  Sm  Sm10  1  0.266029  0.016024  0.032049  1
  Sm  Sm11  1  0.235186  0.264812  0.749999  1
  Ru  Ru12  1  0.249865  0.250135  0.250000  1
  Ru  Ru13  1  0.500136  0.999865  0.250000  1
  Pt  Pt14  1  0.999988  0.249988  0.499984  1
  Pt  Pt15  1  0.250012  0.500012  0.000017  1
  Br  Br16  1  0.250134  0.754095  0.745913  1
  Br  Br17  1  0.508180  0.504218  0.754090  1
  Br  Br18  1  0.989258  0.744082  0.994193  1
  Br  Br19  1  0.745904  0.249867  0.754086  1
  Br  Br20  1  0.995782  0.991818  0.745909  1
  Br  Br21  1  0.249888  0.995062  0.505818  1
  Br  Br22  1  0.755918  0.510742  0.505807  1
  Br  Br23  1  0.504938  0.250112  0.994182  1
  Br  Br24  1  0.754620  0.745379  0.250000  1
  Br  Br25  1  0.744550  0.994550  0.989098  1
  Br  Br26  1  0.995375  0.504626  0.250000  1
  Br  Br27  1  0.505450  0.755450  0.510902  1
