# generated using pymatgen
data_HfSc5Ni20P13
_symmetry_space_group_name_H-M   'P 1'
_cell_length_a   12.45959034
_cell_length_b   12.46868231
_cell_length_c   3.63979200
_cell_angle_alpha   90.00000000
_cell_angle_beta   90.00000000
_cell_angle_gamma   120.05201185
_symmetry_Int_Tables_number   1
_chemical_formula_structural   HfSc5Ni20P13
_chemical_formula_sum   'Hf1 Sc5 Ni20 P13'
_cell_volume   489.44474031
_cell_formula_units_Z   1
loop_
 _symmetry_equiv_pos_site_id
 _symmetry_equiv_pos_as_xyz
  1  'x, y, z'
loop_
 _atom_site_type_symbol
 _atom_site_label
 _atom_site_symmetry_multiplicity
 _atom_site_fract_x
 _atom_site_fract_y
 _atom_site_fract_z
 _atom_site_occupancy
  Hf  Hf0  1  0.809392  0.283679  0.500000  1
  Sc  Sc1  1  0.716464  0.524953  0.500000  1
  Sc  Sc2  1  0.474701  0.191655  0.500000  1
  Sc  Sc3  1  0.191436  0.718429  0.000000  1
  Sc  Sc4  1  0.281391  0.472542  0.000000  1
  Sc  Sc5  1  0.526939  0.809487  0.000000  1
  Ni  Ni6  1  0.419520  0.981060  0.000000  1
  Ni  Ni7  1  0.019892  0.439762  0.000000  1
  Ni  Ni8  1  0.586705  0.022235  0.500000  1
  Ni  Ni9  1  0.560965  0.580259  0.000000  1
  Ni  Ni10  1  0.979090  0.563796  0.500000  1
  Ni  Ni11  1  0.923795  0.077546  0.500000  1
  Ni  Ni12  1  0.154791  0.075411  0.500000  1
  Ni  Ni13  1  0.919661  0.843286  0.500000  1
  Ni  Ni14  1  0.095063  0.895953  0.000000  1
  Ni  Ni15  1  0.800402  0.904239  0.000000  1
  Ni  Ni16  1  0.103052  0.198706  0.000000  1
  Ni  Ni17  1  0.334077  0.667675  0.500000  1
  Ni  Ni18  1  0.667188  0.333038  0.000000  1
  Ni  Ni19  1  0.677025  0.747210  0.500000  1
  Ni  Ni20  1  0.252182  0.929765  0.500000  1
  Ni  Ni21  1  0.921887  0.676047  0.000000  1
  Ni  Ni22  1  0.323042  0.245230  0.000000  1
  Ni  Ni23  1  0.755887  0.079265  0.000000  1
  Ni  Ni24  1  0.435242  0.415120  0.500000  1
  Ni  Ni25  1  0.069592  0.322857  0.500000  1
  P  P26  1  0.999631  0.999480  0.000000  1
  P  P27  1  0.232121  0.285911  0.500000  1
  P  P28  1  0.714014  0.946542  0.500000  1
  P  P29  1  0.053331  0.767034  0.500000  1
  P  P30  1  0.765407  0.710239  0.000000  1
  P  P31  1  0.289339  0.054891  0.000000  1
  P  P32  1  0.471350  0.612313  0.500000  1
  P  P33  1  0.388351  0.860337  0.500000  1
  P  P34  1  0.858966  0.473395  0.000000  1
  P  P35  1  0.526412  0.384693  0.000000  1
  P  P36  1  0.614974  0.141227  0.000000  1
  P  P37  1  0.945310  0.235706  0.000000  1
  P  P38  1  0.141412  0.529020  0.500000  1
