# generated using pymatgen
data_Ta5Nb7Al8(RhC)4
_symmetry_space_group_name_H-M   'P 1'
_cell_length_a   8.34102322
_cell_length_b   8.34105192
_cell_length_c   8.34450800
_cell_angle_alpha   59.98617891
_cell_angle_beta   59.98349920
_cell_angle_gamma   59.97262077
_symmetry_Int_Tables_number   1
_chemical_formula_structural   Ta5Nb7Al8(RhC)4
_chemical_formula_sum   'Ta5 Nb7 Al8 Rh4 C4'
_cell_volume   410.33298450
_cell_formula_units_Z   1
loop_
 _symmetry_equiv_pos_site_id
 _symmetry_equiv_pos_as_xyz
  1  'x, y, z'
loop_
 _atom_site_type_symbol
 _atom_site_label
 _atom_site_symmetry_multiplicity
 _atom_site_fract_x
 _atom_site_fract_y
 _atom_site_fract_z
 _atom_site_occupancy
  Ta  Ta0  1  0.936403  0.563883  0.564226  1
  Ta  Ta1  1  0.564041  0.935881  0.936055  1
  Ta  Ta2  1  0.935798  0.935229  0.564572  1
  Ta  Ta3  1  0.686135  0.314132  0.685719  1
  Ta  Ta4  1  0.935439  0.564699  0.935056  1
  Nb  Nb5  1  0.564599  0.935486  0.564753  1
  Nb  Nb6  1  0.314852  0.685469  0.685372  1
  Nb  Nb7  1  0.685785  0.314439  0.314732  1
  Nb  Nb8  1  0.314014  0.686262  0.313886  1
  Nb  Nb9  1  0.685937  0.685674  0.314442  1
  Nb  Nb10  1  0.314554  0.314119  0.685811  1
  Nb  Nb11  1  0.564257  0.564131  0.936103  1
  Al  Al12  1  0.917572  0.915992  0.916908  1
  Al  Al13  1  0.000338  0.333365  0.332284  1
  Al  Al14  1  0.333321  0.000204  0.333969  1
  Al  Al15  1  0.332416  0.334107  0.000293  1
  Al  Al16  1  0.916568  0.249622  0.917663  1
  Al  Al17  1  0.915845  0.917552  0.249653  1
  Al  Al18  1  0.249726  0.916635  0.915993  1
  Al  Al19  1  0.334090  0.332586  0.333149  1
  Rh  Rh20  1  0.125393  0.124942  0.125129  1
  Rh  Rh21  1  0.625535  0.124799  0.121230  1
  Rh  Rh22  1  0.122901  0.624837  0.126364  1
  Rh  Rh23  1  0.120325  0.127403  0.625152  1
  C  C24  1  0.627558  0.622932  0.625303  1
  C  C25  1  0.122772  0.625728  0.626025  1
  C  C26  1  0.627102  0.123717  0.626890  1
  C  C27  1  0.626726  0.626177  0.123270  1
