# generated using pymatgen
data_Tb16In4PtRh3
_symmetry_space_group_name_H-M   'P 1'
_cell_length_a   9.73242623
_cell_length_b   9.72433053
_cell_length_c   9.73242600
_cell_angle_alpha   59.97246423
_cell_angle_beta   60.00000758
_cell_angle_gamma   59.97245973
_symmetry_Int_Tables_number   1
_chemical_formula_structural   Tb16In4PtRh3
_chemical_formula_sum   'Tb16 In4 Pt1 Rh3'
_cell_volume   651.03760532
_cell_formula_units_Z   1
loop_
 _symmetry_equiv_pos_site_id
 _symmetry_equiv_pos_as_xyz
  1  'x, y, z'
loop_
 _atom_site_type_symbol
 _atom_site_label
 _atom_site_symmetry_multiplicity
 _atom_site_fract_x
 _atom_site_fract_y
 _atom_site_fract_z
 _atom_site_occupancy
  Tb  Tb0  1  0.811562  0.811132  0.188653  1
  Tb  Tb1  1  0.810790  0.185466  0.810790  1
  Tb  Tb2  1  0.192954  0.185466  0.810790  1
  Tb  Tb3  1  0.650634  0.048099  0.650634  1
  Tb  Tb4  1  0.061724  0.062114  0.438081  1
  Tb  Tb5  1  0.437531  0.438455  0.062007  1
  Tb  Tb6  1  0.648734  0.652679  0.648734  1
  Tb  Tb7  1  0.810790  0.185466  0.192954  1
  Tb  Tb8  1  0.188653  0.811132  0.811562  1
  Tb  Tb9  1  0.049853  0.652679  0.648734  1
  Tb  Tb10  1  0.438081  0.062114  0.061724  1
  Tb  Tb11  1  0.438081  0.062114  0.438081  1
  Tb  Tb12  1  0.062007  0.438455  0.062007  1
  Tb  Tb13  1  0.648734  0.652679  0.049853  1
  Tb  Tb14  1  0.188653  0.811132  0.188653  1
  Tb  Tb15  1  0.062007  0.438455  0.437531  1
  In  In16  1  0.416827  0.417517  0.416827  1
  In  In17  1  0.416827  0.417517  0.748829  1
  In  In18  1  0.417307  0.748078  0.417307  1
  In  In19  1  0.748829  0.417517  0.416827  1
  Pt  Pt20  1  0.857110  0.428670  0.857110  1
  Rh  Rh21  1  0.857488  0.857689  0.857488  1
  Rh  Rh22  1  0.857488  0.857689  0.427337  1
  Rh  Rh23  1  0.427337  0.857689  0.857488  1
