# generated using pymatgen
data_La8Pr3Nd9Si16
_symmetry_space_group_name_H-M   'P 1'
_cell_length_a   7.94137714
_cell_length_b   7.94111212
_cell_length_c   15.38294748
_cell_angle_alpha   89.98054502
_cell_angle_beta   89.97914530
_cell_angle_gamma   89.99656391
_symmetry_Int_Tables_number   1
_chemical_formula_structural   La8Pr3Nd9Si16
_chemical_formula_sum   'La8 Pr3 Nd9 Si16'
_cell_volume   970.10032803
_cell_formula_units_Z   1
loop_
 _symmetry_equiv_pos_site_id
 _symmetry_equiv_pos_as_xyz
  1  'x, y, z'
loop_
 _atom_site_type_symbol
 _atom_site_label
 _atom_site_symmetry_multiplicity
 _atom_site_fract_x
 _atom_site_fract_y
 _atom_site_fract_z
 _atom_site_occupancy
  La  La0  1  0.987111  0.621758  0.052512  1
  La  La1  1  0.012888  0.378267  0.552662  1
  La  La2  1  0.621751  0.987115  0.947370  1
  La  La3  1  0.121710  0.512888  0.802570  1
  La  La4  1  0.878292  0.487254  0.302504  1
  La  La5  1  0.512755  0.121635  0.197406  1
  La  La6  1  0.487134  0.878301  0.697455  1
  La  La7  1  0.378278  0.012742  0.447538  1
  Pr  Pr8  1  0.373714  0.480753  0.373422  1
  Pr  Pr9  1  0.873622  0.019273  0.376709  1
  Pr  Pr10  1  0.980793  0.126331  0.123236  1
  Nd  Nd11  1  0.018971  0.873541  0.623482  1
  Nd  Nd12  1  0.626397  0.518999  0.873380  1
  Nd  Nd13  1  0.481032  0.373550  0.626702  1
  Nd  Nd14  1  0.519086  0.626463  0.126492  1
  Nd  Nd15  1  0.126508  0.980980  0.876572  1
  Nd  Nd16  1  0.691907  0.691786  0.500074  1
  Nd  Nd17  1  0.808191  0.191801  0.750009  1
  Nd  Nd18  1  0.192000  0.808060  0.249961  1
  Nd  Nd19  1  0.308277  0.308213  0.999951  1
  Si  Si20  1  0.079592  0.713310  0.439892  1
  Si  Si21  1  0.920249  0.286794  0.939384  1
  Si  Si22  1  0.713265  0.079706  0.560640  1
  Si  Si23  1  0.213522  0.420653  0.189485  1
  Si  Si24  1  0.786543  0.579601  0.689635  1
  Si  Si25  1  0.420385  0.213474  0.810367  1
  Si  Si26  1  0.579519  0.786648  0.310155  1
  Si  Si27  1  0.286968  0.920072  0.060238  1
  Si  Si28  1  0.830590  0.806022  0.796072  1
  Si  Si29  1  0.169804  0.194026  0.295894  1
  Si  Si30  1  0.805572  0.829834  0.203878  1
  Si  Si31  1  0.305915  0.669663  0.546334  1
  Si  Si32  1  0.693535  0.330981  0.045872  1
  Si  Si33  1  0.669510  0.306115  0.454323  1
  Si  Si34  1  0.330634  0.693969  0.953892  1
  Si  Si35  1  0.193982  0.169425  0.703931  1
