# generated using pymatgen
data_DyYHo2(Si3Rh)2
_symmetry_space_group_name_H-M   'P 1'
_cell_length_a   8.17248801
_cell_length_b   8.17317733
_cell_length_c   7.89316400
_cell_angle_alpha   90.00000000
_cell_angle_beta   90.00000000
_cell_angle_gamma   120.00279303
_symmetry_Int_Tables_number   1
_chemical_formula_structural   DyYHo2(Si3Rh)2
_chemical_formula_sum   'Dy2 Y2 Ho4 Si12 Rh4'
_cell_volume   456.57775475
_cell_formula_units_Z   2
loop_
 _symmetry_equiv_pos_site_id
 _symmetry_equiv_pos_as_xyz
  1  'x, y, z'
loop_
 _atom_site_type_symbol
 _atom_site_label
 _atom_site_symmetry_multiplicity
 _atom_site_fract_x
 _atom_site_fract_y
 _atom_site_fract_z
 _atom_site_occupancy
  Dy  Dy0  1  0.508995  0.491069  0.250000  1
  Dy  Dy1  1  0.508995  0.017924  0.250000  1
  Y  Y2  1  0.999966  0.999983  0.250000  1
  Y  Y3  1  0.000045  0.000022  0.750000  1
  Ho  Ho4  1  0.982182  0.491091  0.250000  1
  Ho  Ho5  1  0.491029  0.508953  0.750000  1
  Ho  Ho6  1  0.491029  0.982078  0.750000  1
  Ho  Ho7  1  0.017907  0.508954  0.750000  1
  Si  Si8  1  0.167003  0.832884  0.499691  1
  Si  Si9  1  0.167003  0.334117  0.499691  1
  Si  Si10  1  0.665930  0.832964  0.499723  1
  Si  Si11  1  0.833028  0.167131  0.500488  1
  Si  Si12  1  0.833028  0.665900  0.500488  1
  Si  Si13  1  0.334029  0.167015  0.500584  1
  Si  Si14  1  0.833028  0.167131  0.999512  1
  Si  Si15  1  0.833028  0.665900  0.999512  1
  Si  Si16  1  0.334029  0.167015  0.999416  1
  Si  Si17  1  0.167003  0.832884  0.000309  1
  Si  Si18  1  0.167003  0.334117  0.000309  1
  Si  Si19  1  0.665930  0.832964  0.000277  1
  Rh  Rh20  1  0.333117  0.666559  0.466532  1
  Rh  Rh21  1  0.666789  0.333394  0.533986  1
  Rh  Rh22  1  0.666789  0.333394  0.966014  1
  Rh  Rh23  1  0.333117  0.666559  0.033468  1
