# generated using pymatgen
data_Be8CrReRu2
_symmetry_space_group_name_H-M   'P 1'
_cell_length_a   4.31089700
_cell_length_b   4.31089698
_cell_length_c   7.06765300
_cell_angle_alpha   90.00000000
_cell_angle_beta   90.00000000
_cell_angle_gamma   120.00000785
_symmetry_Int_Tables_number   1
_chemical_formula_structural   Be8CrReRu2
_chemical_formula_sum   'Be8 Cr1 Re1 Ru2'
_cell_volume   113.74730262
_cell_formula_units_Z   1
loop_
 _symmetry_equiv_pos_site_id
 _symmetry_equiv_pos_as_xyz
  1  'x, y, z'
loop_
 _atom_site_type_symbol
 _atom_site_label
 _atom_site_symmetry_multiplicity
 _atom_site_fract_x
 _atom_site_fract_y
 _atom_site_fract_z
 _atom_site_occupancy
  Be  Be0  1  0.000000  0.000000  0.499173  1
  Be  Be1  1  0.000000  0.000000  0.001834  1
  Be  Be2  1  0.830393  0.169607  0.248166  1
  Be  Be3  1  0.830393  0.660785  0.248166  1
  Be  Be4  1  0.339215  0.169607  0.248166  1
  Be  Be5  1  0.168949  0.831051  0.750819  1
  Be  Be6  1  0.168949  0.337897  0.750819  1
  Be  Be7  1  0.662103  0.831051  0.750819  1
  Cr  Cr8  1  0.333333  0.666667  0.441392  1
  Re  Re9  1  0.666667  0.333333  0.553845  1
  Ru  Ru10  1  0.666667  0.333333  0.933425  1
  Ru  Ru11  1  0.333333  0.666667  0.073375  1
