# generated using pymatgen
data_Tm2B2SbRh5
_symmetry_space_group_name_H-M   'P 1'
_cell_length_a   9.51953900
_cell_length_b   9.51953900
_cell_length_c   3.30434000
_cell_angle_alpha   90.00000000
_cell_angle_beta   90.00000000
_cell_angle_gamma   90.00000000
_symmetry_Int_Tables_number   1
_chemical_formula_structural   Tm2B2SbRh5
_chemical_formula_sum   'Tm4 B4 Sb2 Rh10'
_cell_volume   299.44465299
_cell_formula_units_Z   2
loop_
 _symmetry_equiv_pos_site_id
 _symmetry_equiv_pos_as_xyz
  1  'x, y, z'
loop_
 _atom_site_type_symbol
 _atom_site_label
 _atom_site_symmetry_multiplicity
 _atom_site_fract_x
 _atom_site_fract_y
 _atom_site_fract_z
 _atom_site_occupancy
  Tm  Tm0  1  0.825377  0.325377  0.000000  1
  Tm  Tm1  1  0.325377  0.174623  0.000000  1
  Tm  Tm2  1  0.674623  0.825377  0.000000  1
  Tm  Tm3  1  0.174623  0.674623  0.000000  1
  B  B4  1  0.620071  0.120071  0.000000  1
  B  B5  1  0.120071  0.379929  0.000000  1
  B  B6  1  0.879929  0.620071  0.000000  1
  B  B7  1  0.379929  0.879929  0.000000  1
  Sb  Sb8  1  0.000000  0.000000  0.000000  1
  Sb  Sb9  1  0.500000  0.500000  0.000000  1
  Rh  Rh10  1  0.071440  0.223692  0.500000  1
  Rh  Rh11  1  0.223692  0.928560  0.500000  1
  Rh  Rh12  1  0.776308  0.071440  0.500000  1
  Rh  Rh13  1  0.928560  0.776308  0.500000  1
  Rh  Rh14  1  0.428560  0.723692  0.500000  1
  Rh  Rh15  1  0.571440  0.276308  0.500000  1
  Rh  Rh16  1  0.723692  0.571440  0.500000  1
  Rh  Rh17  1  0.276308  0.428560  0.500000  1
  Rh  Rh18  1  0.500000  0.000000  0.500000  1
  Rh  Rh19  1  0.000000  0.500000  0.500000  1
