# generated using pymatgen
data_Tb3Y3Ho2(HgIr)2
_symmetry_space_group_name_H-M   'P 1'
_cell_length_a   9.60344692
_cell_length_b   9.58496177
_cell_length_c   9.58707400
_cell_angle_alpha   60.20285472
_cell_angle_beta   60.10012076
_cell_angle_gamma   60.07151840
_symmetry_Int_Tables_number   1
_chemical_formula_structural   Tb3Y3Ho2(HgIr)2
_chemical_formula_sum   'Tb6 Y6 Ho4 Hg4 Ir4'
_cell_volume   625.76864882
_cell_formula_units_Z   2
loop_
 _symmetry_equiv_pos_site_id
 _symmetry_equiv_pos_as_xyz
  1  'x, y, z'
loop_
 _atom_site_type_symbol
 _atom_site_label
 _atom_site_symmetry_multiplicity
 _atom_site_fract_x
 _atom_site_fract_y
 _atom_site_fract_z
 _atom_site_occupancy
  Tb  Tb0  1  0.350370  0.351269  0.350908  1
  Tb  Tb1  1  0.352541  0.351087  0.945795  1
  Tb  Tb2  1  0.352503  0.945800  0.350847  1
  Tb  Tb3  1  0.946266  0.352250  0.352022  1
  Tb  Tb4  1  0.809662  0.190058  0.190218  1
  Tb  Tb5  1  0.188290  0.810075  0.810197  1
  Y  Y6  1  0.939044  0.561271  0.561531  1
  Y  Y7  1  0.560410  0.938613  0.938568  1
  Y  Y8  1  0.560858  0.939927  0.560969  1
  Y  Y9  1  0.938821  0.559717  0.939013  1
  Y  Y10  1  0.561054  0.561056  0.939852  1
  Y  Y11  1  0.938758  0.939015  0.559799  1
  Ho  Ho12  1  0.190369  0.809330  0.190400  1
  Ho  Ho13  1  0.809606  0.188522  0.809681  1
  Ho  Ho14  1  0.190369  0.190346  0.809435  1
  Ho  Ho15  1  0.809543  0.809466  0.188639  1
  Hg  Hg16  1  0.584382  0.584226  0.584330  1
  Hg  Hg17  1  0.585234  0.585525  0.245054  1
  Hg  Hg18  1  0.585226  0.245098  0.585550  1
  Hg  Hg19  1  0.244574  0.585410  0.585438  1
  Ir  Ir20  1  0.142140  0.140988  0.140901  1
  Ir  Ir21  1  0.142233  0.143553  0.575343  1
  Ir  Ir22  1  0.142188  0.575308  0.143442  1
  Ir  Ir23  1  0.575560  0.142092  0.142073  1
