# generated using pymatgen
data_CeEr(CuAs2)2
_symmetry_space_group_name_H-M   'P 1'
_cell_length_a   3.94817800
_cell_length_b   3.95048000
_cell_length_c   9.78450900
_cell_angle_alpha   90.00000000
_cell_angle_beta   90.00000000
_cell_angle_gamma   90.00000000
_symmetry_Int_Tables_number   1
_chemical_formula_structural   CeEr(CuAs2)2
_chemical_formula_sum   'Ce1 Er1 Cu2 As4'
_cell_volume   152.61092641
_cell_formula_units_Z   1
loop_
 _symmetry_equiv_pos_site_id
 _symmetry_equiv_pos_as_xyz
  1  'x, y, z'
loop_
 _atom_site_type_symbol
 _atom_site_label
 _atom_site_symmetry_multiplicity
 _atom_site_fract_x
 _atom_site_fract_y
 _atom_site_fract_z
 _atom_site_occupancy
  Ce  Ce0  1  0.000000  0.500000  0.764384  1
  Er  Er1  1  0.500000  0.000000  0.237012  1
  Cu  Cu2  1  0.500000  0.500000  0.495901  1
  Cu  Cu3  1  0.000000  0.000000  0.496265  1
  As  As4  1  0.000000  0.000000  0.004691  1
  As  As5  1  0.500000  0.500000  0.004935  1
  As  As6  1  0.000000  0.500000  0.338133  1
  As  As7  1  0.500000  0.000000  0.658678  1
