# generated using pymatgen
data_CaAg(AuO2)4
_symmetry_space_group_name_H-M   'P 1'
_cell_length_a   6.74237739
_cell_length_b   6.74237655
_cell_length_c   6.74237728
_cell_angle_alpha   126.58214568
_cell_angle_beta   126.58214715
_cell_angle_gamma   78.93343053
_symmetry_Int_Tables_number   1
_chemical_formula_structural   CaAg(AuO2)4
_chemical_formula_sum   'Ca1 Ag1 Au4 O8'
_cell_volume   191.20163115
_cell_formula_units_Z   1
loop_
 _symmetry_equiv_pos_site_id
 _symmetry_equiv_pos_as_xyz
  1  'x, y, z'
loop_
 _atom_site_type_symbol
 _atom_site_label
 _atom_site_symmetry_multiplicity
 _atom_site_fract_x
 _atom_site_fract_y
 _atom_site_fract_z
 _atom_site_occupancy
  Ca  Ca0  1  0.000000  0.000000  0.000000  1
  Ag  Ag1  1  0.750000  0.250000  0.500000  1
  Au  Au2  1  0.377610  0.628434  0.755119  1
  Au  Au3  1  0.371566  0.126685  0.749177  1
  Au  Au4  1  0.873315  0.622492  0.244881  1
  Au  Au5  1  0.377508  0.622390  0.250823  1
  O  O6  1  0.039052  0.409348  0.034075  1
  O  O7  1  0.746578  0.287378  0.117300  1
  O  O8  1  0.170078  0.629277  0.882700  1
  O  O9  1  0.375272  0.004977  0.965925  1
  O  O10  1  0.712622  0.829922  0.459199  1
  O  O11  1  0.995023  0.960948  0.370296  1
  O  O12  1  0.370723  0.253422  0.540801  1
  O  O13  1  0.590652  0.624728  0.629704  1
