# generated using pymatgen
data_Na2LiZr(H6Ir)2
_symmetry_space_group_name_H-M   'P 1'
_cell_length_a   7.11972300
_cell_length_b   7.11972300
_cell_length_c   6.83264400
_cell_angle_alpha   90.00000000
_cell_angle_beta   90.00000000
_cell_angle_gamma   90.00000000
_symmetry_Int_Tables_number   1
_chemical_formula_structural   Na2LiZr(H6Ir)2
_chemical_formula_sum   'Na4 Li2 Zr2 H24 Ir4'
_cell_volume   346.34983729
_cell_formula_units_Z   2
loop_
 _symmetry_equiv_pos_site_id
 _symmetry_equiv_pos_as_xyz
  1  'x, y, z'
loop_
 _atom_site_type_symbol
 _atom_site_label
 _atom_site_symmetry_multiplicity
 _atom_site_fract_x
 _atom_site_fract_y
 _atom_site_fract_z
 _atom_site_occupancy
  Na  Na0  1  0.000000  0.000000  0.500000  1
  Na  Na1  1  0.000000  0.500000  0.000000  1
  Na  Na2  1  0.500000  0.000000  0.000000  1
  Na  Na3  1  0.000000  0.000000  0.000000  1
  Li  Li4  1  0.000000  0.500000  0.500000  1
  Li  Li5  1  0.500000  0.000000  0.500000  1
  Zr  Zr6  1  0.500000  0.500000  0.500000  1
  Zr  Zr7  1  0.500000  0.500000  0.000000  1
  H  H8  1  0.734445  0.734445  0.502773  1
  H  H9  1  0.265555  0.265555  0.502773  1
  H  H10  1  0.037279  0.740960  0.738828  1
  H  H11  1  0.259040  0.962721  0.738828  1
  H  H12  1  0.740960  0.037279  0.738828  1
  H  H13  1  0.962721  0.259040  0.738828  1
  H  H14  1  0.735710  0.510201  0.745999  1
  H  H15  1  0.510201  0.735710  0.745999  1
  H  H16  1  0.489799  0.264290  0.745999  1
  H  H17  1  0.264290  0.489799  0.745999  1
  H  H18  1  0.264904  0.735096  0.988138  1
  H  H19  1  0.735096  0.264904  0.988138  1
  H  H20  1  0.735096  0.735096  0.011862  1
  H  H21  1  0.264904  0.264904  0.011862  1
  H  H22  1  0.264290  0.510201  0.254001  1
  H  H23  1  0.489799  0.735710  0.254001  1
  H  H24  1  0.510201  0.264290  0.254001  1
  H  H25  1  0.735710  0.489799  0.254001  1
  H  H26  1  0.962721  0.740960  0.261172  1
  H  H27  1  0.740960  0.962721  0.261172  1
  H  H28  1  0.259040  0.037279  0.261172  1
  H  H29  1  0.037279  0.259040  0.261172  1
  H  H30  1  0.265555  0.734445  0.497227  1
  H  H31  1  0.734445  0.265555  0.497227  1
  Ir  Ir32  1  0.270655  0.729345  0.741969  1
  Ir  Ir33  1  0.729345  0.270655  0.741969  1
  Ir  Ir34  1  0.729345  0.729345  0.258031  1
  Ir  Ir35  1  0.270655  0.270655  0.258031  1
