# generated using pymatgen
data_Pr2Th(AgSn)4
_symmetry_space_group_name_H-M   'P 1'
_cell_length_a   8.95831149
_cell_length_b   8.95831144
_cell_length_c   8.95831261
_cell_angle_alpha   149.37668484
_cell_angle_beta   130.83786840
_cell_angle_gamma   59.03892739
_symmetry_Int_Tables_number   1
_chemical_formula_structural   Pr2Th(AgSn)4
_chemical_formula_sum   'Pr2 Th1 Ag4 Sn4'
_cell_volume   274.87957190
_cell_formula_units_Z   1
loop_
 _symmetry_equiv_pos_site_id
 _symmetry_equiv_pos_as_xyz
  1  'x, y, z'
loop_
 _atom_site_type_symbol
 _atom_site_label
 _atom_site_symmetry_multiplicity
 _atom_site_fract_x
 _atom_site_fract_y
 _atom_site_fract_z
 _atom_site_occupancy
  Pr  Pr0  1  0.499718  0.999718  0.500000  1
  Pr  Pr1  1  0.129070  0.129070  0.000000  1
  Th  Th2  1  0.870475  0.870475  0.000000  1
  Ag  Ag3  1  0.475804  0.670056  0.805749  1
  Ag  Ag4  1  0.864307  0.670056  0.194251  1
  Ag  Ag5  1  0.135901  0.330344  0.805556  1
  Ag  Ag6  1  0.524789  0.330344  0.194444  1
  Sn  Sn7  1  0.284822  0.784822  0.500000  1
  Sn  Sn8  1  0.716267  0.216267  0.500000  1
  Sn  Sn9  1  0.806307  0.499424  0.306883  1
  Sn  Sn10  1  0.192541  0.499424  0.693117  1
