# generated using pymatgen
data_Rb7Hg8F24
_symmetry_space_group_name_H-M   'P 1'
_cell_length_a   11.10299076
_cell_length_b   11.10299152
_cell_length_c   9.00641000
_cell_angle_alpha   66.04092152
_cell_angle_beta   66.04091414
_cell_angle_gamma   109.50386319
_symmetry_Int_Tables_number   1
_chemical_formula_structural   Rb7Hg8F24
_chemical_formula_sum   'Rb7 Hg8 F24'
_cell_volume   743.64468082
_cell_formula_units_Z   1
loop_
 _symmetry_equiv_pos_site_id
 _symmetry_equiv_pos_as_xyz
  1  'x, y, z'
loop_
 _atom_site_type_symbol
 _atom_site_label
 _atom_site_symmetry_multiplicity
 _atom_site_fract_x
 _atom_site_fract_y
 _atom_site_fract_z
 _atom_site_occupancy
  Rb  Rb0  1  0.386063  0.886386  0.980619  1
  Rb  Rb1  1  0.117226  0.117226  0.518509  1
  Rb  Rb2  1  0.380759  0.883882  0.489539  1
  Rb  Rb3  1  0.886386  0.386063  0.980619  1
  Rb  Rb4  1  0.619450  0.619450  0.515720  1
  Rb  Rb5  1  0.883882  0.380759  0.489539  1
  Rb  Rb6  1  0.616857  0.616857  0.006509  1
  Hg  Hg7  1  0.752410  0.999840  0.000827  1
  Hg  Hg8  1  0.499722  0.252220  0.500320  1
  Hg  Hg9  1  0.755856  0.003571  0.491951  1
  Hg  Hg10  1  0.249157  0.498763  0.999122  1
  Hg  Hg11  1  0.999840  0.752410  0.000827  1
  Hg  Hg12  1  0.003571  0.755856  0.491951  1
  Hg  Hg13  1  0.252220  0.499722  0.500320  1
  Hg  Hg14  1  0.498763  0.249157  0.999122  1
  F  F15  1  0.757742  0.037021  0.727137  1
  F  F16  1  0.604826  0.105583  0.495123  1
  F  F17  1  0.247469  0.004574  0.751181  1
  F  F18  1  0.004574  0.247469  0.751181  1
  F  F19  1  0.460774  0.240356  0.273797  1
  F  F20  1  0.645589  0.145227  0.010730  1
  F  F21  1  0.849252  0.849252  0.986966  1
  F  F22  1  0.264297  0.548256  0.718464  1
  F  F23  1  0.037021  0.757742  0.727137  1
  F  F24  1  0.488827  0.763087  0.222510  1
  F  F25  1  0.272318  0.980861  0.235380  1
  F  F26  1  0.884379  0.884379  0.533661  1
  F  F27  1  0.105583  0.604826  0.495123  1
  F  F28  1  0.745008  0.508427  0.772776  1
  F  F29  1  0.508427  0.745008  0.772776  1
  F  F30  1  0.948491  0.715504  0.292636  1
  F  F31  1  0.715504  0.948491  0.292636  1
  F  F32  1  0.145227  0.645589  0.010730  1
  F  F33  1  0.382371  0.382371  0.978409  1
  F  F34  1  0.548256  0.264297  0.718464  1
  F  F35  1  0.980861  0.272318  0.235380  1
  F  F36  1  0.763087  0.488827  0.222510  1
  F  F37  1  0.421961  0.421961  0.464710  1
  F  F38  1  0.240356  0.460774  0.273797  1
