# generated using pymatgen
data_Y10In5PbBr2
_symmetry_space_group_name_H-M   'P 1'
_cell_length_a   9.19211800
_cell_length_b   9.19857263
_cell_length_c   6.83995300
_cell_angle_alpha   90.00000000
_cell_angle_beta   90.00000000
_cell_angle_gamma   119.97679068
_symmetry_Int_Tables_number   1
_chemical_formula_structural   Y10In5PbBr2
_chemical_formula_sum   'Y10 In5 Pb1 Br2'
_cell_volume   500.98105618
_cell_formula_units_Z   1
loop_
 _symmetry_equiv_pos_site_id
 _symmetry_equiv_pos_as_xyz
  1  'x, y, z'
loop_
 _atom_site_type_symbol
 _atom_site_label
 _atom_site_symmetry_multiplicity
 _atom_site_fract_x
 _atom_site_fract_y
 _atom_site_fract_z
 _atom_site_occupancy
  Y  Y0  1  0.734690  0.735406  0.250000  1
  Y  Y1  1  0.996758  0.734007  0.750000  1
  Y  Y2  1  0.737828  0.000000  0.750000  1
  Y  Y3  1  0.333196  0.664311  0.498118  1
  Y  Y4  1  0.262751  0.265993  0.750000  1
  Y  Y5  1  0.999284  0.264594  0.250000  1
  Y  Y6  1  0.668886  0.335689  0.498118  1
  Y  Y7  1  0.263751  0.000000  0.250000  1
  Y  Y8  1  0.333196  0.664311  0.001882  1
  Y  Y9  1  0.668886  0.335689  0.001882  1
  In  In10  1  0.000401  0.606680  0.250000  1
  In  In11  1  0.607251  0.000000  0.250000  1
  In  In12  1  0.999910  0.393942  0.750000  1
  In  In13  1  0.393720  0.393320  0.250000  1
  In  In14  1  0.605968  0.606058  0.750000  1
  Pb  Pb15  1  0.392306  0.000000  0.750000  1
  Br  Br16  1  0.000608  0.000000  0.500899  1
  Br  Br17  1  0.000608  0.000000  0.999101  1
