# generated using pymatgen
data_LuZr2PtF15
_symmetry_space_group_name_H-M   'P 1'
_cell_length_a   8.07843434
_cell_length_b   8.07843345
_cell_length_c   8.08277163
_cell_angle_alpha   79.87534989
_cell_angle_beta   79.87535161
_cell_angle_gamma   100.10188229
_symmetry_Int_Tables_number   1
_chemical_formula_structural   LuZr2PtF15
_chemical_formula_sum   'Lu2 Zr4 Pt2 F30'
_cell_volume   499.47260986
_cell_formula_units_Z   2
loop_
 _symmetry_equiv_pos_site_id
 _symmetry_equiv_pos_as_xyz
  1  'x, y, z'
loop_
 _atom_site_type_symbol
 _atom_site_label
 _atom_site_symmetry_multiplicity
 _atom_site_fract_x
 _atom_site_fract_y
 _atom_site_fract_z
 _atom_site_occupancy
  Lu  Lu0  1  0.677006  0.322994  0.750000  1
  Lu  Lu1  1  0.322994  0.677006  0.250000  1
  Zr  Zr2  1  0.823204  0.748676  0.327025  1
  Zr  Zr3  1  0.251324  0.176796  0.172975  1
  Zr  Zr4  1  0.176796  0.251324  0.672975  1
  Zr  Zr5  1  0.748676  0.823204  0.827025  1
  Pt  Pt6  1  0.249636  0.750364  0.750000  1
  Pt  Pt7  1  0.750364  0.249636  0.250000  1
  F  F8  1  0.149718  0.185780  0.946321  1
  F  F9  1  0.687808  0.561223  0.847486  1
  F  F10  1  0.044283  0.652863  0.314454  1
  F  F11  1  0.652863  0.044283  0.814454  1
  F  F12  1  0.561223  0.687808  0.347486  1
  F  F13  1  0.185780  0.149718  0.446321  1
  F  F14  1  0.850282  0.814220  0.053679  1
  F  F15  1  0.312192  0.438777  0.152514  1
  F  F16  1  0.955717  0.347137  0.685546  1
  F  F17  1  0.347137  0.955717  0.185546  1
  F  F18  1  0.438777  0.312192  0.652514  1
  F  F19  1  0.814220  0.850282  0.553679  1
  F  F20  1  0.967108  0.032892  0.750000  1
  F  F21  1  0.540456  0.751827  0.030931  1
  F  F22  1  0.248173  0.459544  0.469069  1
  F  F23  1  0.459544  0.248173  0.969069  1
  F  F24  1  0.751827  0.540456  0.530931  1
  F  F25  1  0.032892  0.967108  0.250000  1
  F  F26  1  0.214843  0.726944  0.001107  1
  F  F27  1  0.227036  0.498163  0.787240  1
  F  F28  1  0.996982  0.715215  0.773954  1
  F  F29  1  0.715215  0.996982  0.273954  1
  F  F30  1  0.498163  0.227036  0.287240  1
  F  F31  1  0.726944  0.214843  0.501107  1
  F  F32  1  0.785157  0.273056  0.998893  1
  F  F33  1  0.772964  0.501837  0.212760  1
  F  F34  1  0.003018  0.284785  0.226046  1
  F  F35  1  0.284785  0.003018  0.726046  1
  F  F36  1  0.501837  0.772964  0.712760  1
  F  F37  1  0.273056  0.785157  0.498893  1
