# generated using pymatgen
data_YbCe(ZnRh)2
_symmetry_space_group_name_H-M   'P 1'
_cell_length_a   3.98938000
_cell_length_b   7.02011346
_cell_length_c   8.25654632
_cell_angle_alpha   90.47257326
_cell_angle_beta   90.00000000
_cell_angle_gamma   90.00000000
_symmetry_Int_Tables_number   1
_chemical_formula_structural   YbCe(ZnRh)2
_chemical_formula_sum   'Yb2 Ce2 Zn4 Rh4'
_cell_volume   231.22414728
_cell_formula_units_Z   2
loop_
 _symmetry_equiv_pos_site_id
 _symmetry_equiv_pos_as_xyz
  1  'x, y, z'
loop_
 _atom_site_type_symbol
 _atom_site_label
 _atom_site_symmetry_multiplicity
 _atom_site_fract_x
 _atom_site_fract_y
 _atom_site_fract_z
 _atom_site_occupancy
  Yb  Yb0  1  0.750000  0.964923  0.681253  1
  Yb  Yb1  1  0.250000  0.034708  0.318524  1
  Ce  Ce2  1  0.250000  0.531778  0.189569  1
  Ce  Ce3  1  0.750000  0.468411  0.810159  1
  Zn  Zn4  1  0.250000  0.647720  0.558507  1
  Zn  Zn5  1  0.750000  0.352028  0.442004  1
  Zn  Zn6  1  0.750000  0.875958  0.063288  1
  Zn  Zn7  1  0.250000  0.124568  0.937004  1
  Rh  Rh8  1  0.250000  0.744105  0.876532  1
  Rh  Rh9  1  0.750000  0.256452  0.123856  1
  Rh  Rh10  1  0.750000  0.728846  0.359056  1
  Rh  Rh11  1  0.250000  0.270503  0.640247  1
