# generated using pymatgen
data_Tb3YCo18(P6Ru)2
_symmetry_space_group_name_H-M   'P 1'
_cell_length_a   3.68116300
_cell_length_b   10.35334901
_cell_length_c   11.77380001
_cell_angle_alpha   89.99612074
_cell_angle_beta   90.00000000
_cell_angle_gamma   90.00000000
_symmetry_Int_Tables_number   1
_chemical_formula_structural   Tb3YCo18(P6Ru)2
_chemical_formula_sum   'Tb3 Y1 Co18 P12 Ru2'
_cell_volume   448.72736564
_cell_formula_units_Z   1
loop_
 _symmetry_equiv_pos_site_id
 _symmetry_equiv_pos_as_xyz
  1  'x, y, z'
loop_
 _atom_site_type_symbol
 _atom_site_label
 _atom_site_symmetry_multiplicity
 _atom_site_fract_x
 _atom_site_fract_y
 _atom_site_fract_z
 _atom_site_occupancy
  Tb  Tb0  1  0.250000  0.582488  0.702106  1
  Tb  Tb1  1  0.250000  0.917457  0.202126  1
  Tb  Tb2  1  0.750000  0.086080  0.795630  1
  Y  Y3  1  0.750000  0.413899  0.295637  1
  Co  Co4  1  0.750000  0.283953  0.009038  1
  Co  Co5  1  0.750000  0.216036  0.509078  1
  Co  Co6  1  0.250000  0.406230  0.488111  1
  Co  Co7  1  0.250000  0.093784  0.988202  1
  Co  Co8  1  0.750000  0.591328  0.509903  1
  Co  Co9  1  0.750000  0.908663  0.009926  1
  Co  Co10  1  0.250000  0.220772  0.176485  1
  Co  Co11  1  0.250000  0.279356  0.676464  1
  Co  Co12  1  0.750000  0.778327  0.823166  1
  Co  Co13  1  0.750000  0.721642  0.323151  1
  Co  Co14  1  0.250000  0.886526  0.701460  1
  Co  Co15  1  0.250000  0.613414  0.201531  1
  Co  Co16  1  0.750000  0.116876  0.301297  1
  Co  Co17  1  0.750000  0.383150  0.801309  1
  Co  Co18  1  0.250000  0.464405  0.932569  1
  Co  Co19  1  0.250000  0.035604  0.432524  1
  Co  Co20  1  0.750000  0.532639  0.068732  1
  Co  Co21  1  0.750000  0.967332  0.568662  1
  P  P22  1  0.250000  0.417091  0.111864  1
  P  P23  1  0.250000  0.082893  0.611744  1
  P  P24  1  0.750000  0.578447  0.887200  1
  P  P25  1  0.750000  0.921537  0.387173  1
  P  P26  1  0.250000  0.270811  0.869287  1
  P  P27  1  0.250000  0.229434  0.369255  1
  P  P28  1  0.750000  0.727945  0.132751  1
  P  P29  1  0.750000  0.772066  0.632762  1
  P  P30  1  0.250000  0.595305  0.390573  1
  P  P31  1  0.250000  0.904545  0.890628  1
  P  P32  1  0.750000  0.396627  0.608483  1
  P  P33  1  0.750000  0.103352  0.108435  1
  Ru  Ru34  1  0.250000  0.714785  0.991385  1
  Ru  Ru35  1  0.250000  0.785202  0.491353  1
