# generated using pymatgen
data_Tb2ThAs4Pd7
_symmetry_space_group_name_H-M   'P 1'
_cell_length_a   8.19344024
_cell_length_b   8.19344203
_cell_length_c   9.72063066
_cell_angle_alpha   55.35939452
_cell_angle_beta   55.35938431
_cell_angle_gamma   29.35687451
_symmetry_Int_Tables_number   1
_chemical_formula_structural   Tb2ThAs4Pd7
_chemical_formula_sum   'Tb2 Th1 As4 Pd7'
_cell_volume   258.86356147
_cell_formula_units_Z   1
loop_
 _symmetry_equiv_pos_site_id
 _symmetry_equiv_pos_as_xyz
  1  'x, y, z'
loop_
 _atom_site_type_symbol
 _atom_site_label
 _atom_site_symmetry_multiplicity
 _atom_site_fract_x
 _atom_site_fract_y
 _atom_site_fract_z
 _atom_site_occupancy
  Tb  Tb0  1  0.676505  0.676505  0.330502  1
  Tb  Tb1  1  0.323495  0.323495  0.669498  1
  Th  Th2  1  0.000000  0.000000  0.000000  1
  As  As3  1  0.339253  0.339253  0.253111  1
  As  As4  1  0.660747  0.660747  0.746889  1
  As  As5  1  0.892578  0.892578  0.821428  1
  As  As6  1  0.107422  0.107422  0.178572  1
  Pd  Pd7  1  0.306731  0.306731  0.025017  1
  Pd  Pd8  1  0.693269  0.693269  0.974983  1
  Pd  Pd9  1  0.511683  0.511683  0.708405  1
  Pd  Pd10  1  0.834173  0.834173  0.426512  1
  Pd  Pd11  1  0.488317  0.488317  0.291595  1
  Pd  Pd12  1  0.165827  0.165827  0.573488  1
  Pd  Pd13  1  0.000000  0.000000  0.500000  1
