# generated using pymatgen
data_Ac8GaPd24
_symmetry_space_group_name_H-M   'P 1'
_cell_length_a   8.72444100
_cell_length_b   8.72444100
_cell_length_c   8.72444100
_cell_angle_alpha   90.00000000
_cell_angle_beta   90.00000000
_cell_angle_gamma   90.00000000
_symmetry_Int_Tables_number   1
_chemical_formula_structural   Ac8GaPd24
_chemical_formula_sum   'Ac8 Ga1 Pd24'
_cell_volume   664.06842363
_cell_formula_units_Z   1
loop_
 _symmetry_equiv_pos_site_id
 _symmetry_equiv_pos_as_xyz
  1  'x, y, z'
loop_
 _atom_site_type_symbol
 _atom_site_label
 _atom_site_symmetry_multiplicity
 _atom_site_fract_x
 _atom_site_fract_y
 _atom_site_fract_z
 _atom_site_occupancy
  Ac  Ac0  1  0.251881  0.251881  0.748119  1
  Ac  Ac1  1  0.251881  0.748119  0.251881  1
  Ac  Ac2  1  0.748119  0.251881  0.251881  1
  Ac  Ac3  1  0.748119  0.748119  0.748119  1
  Ac  Ac4  1  0.748119  0.748119  0.251881  1
  Ac  Ac5  1  0.748119  0.251881  0.748119  1
  Ac  Ac6  1  0.251881  0.748119  0.748119  1
  Ac  Ac7  1  0.251881  0.251881  0.251881  1
  Ga  Ga8  1  0.000000  0.000000  0.000000  1
  Pd  Pd9  1  0.500000  0.500000  0.746252  1
  Pd  Pd10  1  0.500000  0.253748  0.500000  1
  Pd  Pd11  1  0.253748  0.500000  0.500000  1
  Pd  Pd12  1  0.500000  0.500000  0.253748  1
  Pd  Pd13  1  0.500000  0.746252  0.500000  1
  Pd  Pd14  1  0.746252  0.500000  0.500000  1
  Pd  Pd15  1  0.000000  0.000000  0.705335  1
  Pd  Pd16  1  0.000000  0.294665  0.000000  1
  Pd  Pd17  1  0.294665  0.000000  0.000000  1
  Pd  Pd18  1  0.000000  0.000000  0.294665  1
  Pd  Pd19  1  0.000000  0.705335  0.000000  1
  Pd  Pd20  1  0.705335  0.000000  0.000000  1
  Pd  Pd21  1  0.000000  0.500000  0.739238  1
  Pd  Pd22  1  0.500000  0.260762  0.000000  1
  Pd  Pd23  1  0.260762  0.000000  0.500000  1
  Pd  Pd24  1  0.000000  0.260762  0.500000  1
  Pd  Pd25  1  0.500000  0.000000  0.739238  1
  Pd  Pd26  1  0.260762  0.500000  0.000000  1
  Pd  Pd27  1  0.000000  0.500000  0.260762  1
  Pd  Pd28  1  0.500000  0.739238  0.000000  1
  Pd  Pd29  1  0.000000  0.739238  0.500000  1
  Pd  Pd30  1  0.500000  0.000000  0.260762  1
  Pd  Pd31  1  0.739238  0.000000  0.500000  1
  Pd  Pd32  1  0.739238  0.500000  0.000000  1
