# generated using pymatgen
data_Lu2Ti4Pb5
_symmetry_space_group_name_H-M   'P 1'
_cell_length_a   5.89377874
_cell_length_b   8.92638262
_cell_length_c   10.90231887
_cell_angle_alpha   114.16589732
_cell_angle_beta   105.68207678
_cell_angle_gamma   90.00000227
_symmetry_Int_Tables_number   1
_chemical_formula_structural   Lu2Ti4Pb5
_chemical_formula_sum   'Lu4 Ti8 Pb10'
_cell_volume   499.81367345
_cell_formula_units_Z   2
loop_
 _symmetry_equiv_pos_site_id
 _symmetry_equiv_pos_as_xyz
  1  'x, y, z'
loop_
 _atom_site_type_symbol
 _atom_site_label
 _atom_site_symmetry_multiplicity
 _atom_site_fract_x
 _atom_site_fract_y
 _atom_site_fract_z
 _atom_site_occupancy
  Lu  Lu0  1  0.144613  0.254341  0.289226  1
  Lu  Lu1  1  0.855387  0.745659  0.710774  1
  Lu  Lu2  1  0.644613  0.034884  0.289226  1
  Lu  Lu3  1  0.355387  0.965116  0.710774  1
  Ti  Ti4  1  0.559266  0.309266  0.618532  1
  Ti  Ti5  1  0.440734  0.690734  0.381468  1
  Ti  Ti6  1  0.940734  0.690734  0.381468  1
  Ti  Ti7  1  0.059266  0.309266  0.618532  1
  Ti  Ti8  1  0.436995  0.675698  0.873990  1
  Ti  Ti9  1  0.563005  0.324302  0.126010  1
  Ti  Ti10  1  0.936995  0.198292  0.873990  1
  Ti  Ti11  1  0.063005  0.801708  0.126010  1
  Pb  Pb12  1  0.290417  0.587274  0.580835  1
  Pb  Pb13  1  0.709583  0.412726  0.419165  1
  Pb  Pb14  1  0.790417  0.993561  0.580835  1
  Pb  Pb15  1  0.209583  0.006439  0.419165  1
  Pb  Pb16  1  0.250000  0.000000  0.000000  1
  Pb  Pb17  1  0.750000  0.000000  0.000000  1
  Pb  Pb18  1  0.069040  0.469108  0.138081  1
  Pb  Pb19  1  0.930960  0.530892  0.861919  1
  Pb  Pb20  1  0.569040  0.668973  0.138081  1
  Pb  Pb21  1  0.430960  0.331027  0.861919  1
