# generated using pymatgen
data_SmY5MgCo17P12
_symmetry_space_group_name_H-M   'P 1'
_cell_length_a   3.72390700
_cell_length_b   10.58673200
_cell_length_c   12.26108700
_cell_angle_alpha   90.00000000
_cell_angle_beta   90.00000000
_cell_angle_gamma   90.00000000
_symmetry_Int_Tables_number   1
_chemical_formula_structural   SmY5MgCo17P12
_chemical_formula_sum   'Sm1 Y5 Mg1 Co17 P12'
_cell_volume   483.38116012
_cell_formula_units_Z   1
loop_
 _symmetry_equiv_pos_site_id
 _symmetry_equiv_pos_as_xyz
  1  'x, y, z'
loop_
 _atom_site_type_symbol
 _atom_site_label
 _atom_site_symmetry_multiplicity
 _atom_site_fract_x
 _atom_site_fract_y
 _atom_site_fract_z
 _atom_site_occupancy
  Sm  Sm0  1  0.500000  0.000000  0.478159  1
  Y  Y1  1  0.000000  0.500000  0.524930  1
  Y  Y2  1  0.500000  0.821002  0.206864  1
  Y  Y3  1  0.500000  0.178998  0.206864  1
  Y  Y4  1  0.000000  0.682891  0.794625  1
  Y  Y5  1  0.000000  0.317109  0.794625  1
  Mg  Mg6  1  0.500000  0.500000  0.152989  1
  Co  Co7  1  0.000000  0.000000  0.839723  1
  Co  Co8  1  0.500000  0.500000  0.704297  1
  Co  Co9  1  0.000000  0.000000  0.295045  1
  Co  Co10  1  0.000000  0.500000  0.985969  1
  Co  Co11  1  0.500000  0.000000  0.012138  1
  Co  Co12  1  0.500000  0.329244  0.992867  1
  Co  Co13  1  0.500000  0.670756  0.992867  1
  Co  Co14  1  0.000000  0.163102  0.001829  1
  Co  Co15  1  0.000000  0.836898  0.001829  1
  Co  Co16  1  0.500000  0.296451  0.432698  1
  Co  Co17  1  0.500000  0.703549  0.432698  1
  Co  Co18  1  0.000000  0.203315  0.570925  1
  Co  Co19  1  0.000000  0.796685  0.570925  1
  Co  Co20  1  0.500000  0.880106  0.709594  1
  Co  Co21  1  0.500000  0.119894  0.709594  1
  Co  Co22  1  0.000000  0.622315  0.293059  1
  Co  Co23  1  0.000000  0.377685  0.293059  1
  P  P24  1  0.500000  0.500000  0.883269  1
  P  P25  1  0.000000  0.000000  0.115946  1
  P  P26  1  0.500000  0.500000  0.353383  1
  P  P27  1  0.000000  0.000000  0.657502  1
  P  P28  1  0.500000  0.309214  0.617113  1
  P  P29  1  0.500000  0.690786  0.617113  1
  P  P30  1  0.000000  0.191068  0.385455  1
  P  P31  1  0.000000  0.808932  0.385455  1
  P  P32  1  0.500000  0.849704  0.890643  1
  P  P33  1  0.500000  0.150296  0.890643  1
  P  P34  1  0.000000  0.662654  0.102652  1
  P  P35  1  0.000000  0.337346  0.102652  1
