# generated using pymatgen
data_La7Sm13Si15Au
_symmetry_space_group_name_H-M   'P 1'
_cell_length_a   7.97875231
_cell_length_b   7.92924174
_cell_length_c   14.69831300
_cell_angle_alpha   90.02668519
_cell_angle_beta   89.72438325
_cell_angle_gamma   90.23011898
_symmetry_Int_Tables_number   1
_chemical_formula_structural   La7Sm13Si15Au
_chemical_formula_sum   'La7 Sm13 Si15 Au1'
_cell_volume   929.87712152
_cell_formula_units_Z   1
loop_
 _symmetry_equiv_pos_site_id
 _symmetry_equiv_pos_as_xyz
  1  'x, y, z'
loop_
 _atom_site_type_symbol
 _atom_site_label
 _atom_site_symmetry_multiplicity
 _atom_site_fract_x
 _atom_site_fract_y
 _atom_site_fract_z
 _atom_site_occupancy
  La  La0  1  0.007814  0.353233  0.542337  1
  La  La1  1  0.641799  0.991475  0.958783  1
  La  La2  1  0.141123  0.508965  0.792915  1
  La  La3  1  0.850739  0.485856  0.287865  1
  La  La4  1  0.504895  0.138513  0.204526  1
  La  La5  1  0.494288  0.859929  0.709110  1
  La  La6  1  0.364484  0.012086  0.459609  1
  Sm  Sm7  1  0.365403  0.491460  0.376173  1
  Sm  Sm8  1  0.854470  0.014619  0.368813  1
  Sm  Sm9  1  0.992906  0.136104  0.123803  1
  Sm  Sm10  1  0.015350  0.863993  0.625854  1
  Sm  Sm11  1  0.640767  0.512907  0.877297  1
  Sm  Sm12  1  0.494935  0.358979  0.626122  1
  Sm  Sm13  1  0.509501  0.635483  0.123033  1
  Sm  Sm14  1  0.134458  0.991071  0.877022  1
  Sm  Sm15  1  0.997345  0.634777  0.043707  1
  Sm  Sm16  1  0.682296  0.690796  0.500419  1
  Sm  Sm17  1  0.816659  0.182792  0.750729  1
  Sm  Sm18  1  0.174114  0.810652  0.250030  1
  Sm  Sm19  1  0.314058  0.320170  0.998567  1
  Si  Si20  1  0.935168  0.295328  0.940167  1
  Si  Si21  1  0.709180  0.065642  0.560540  1
  Si  Si22  1  0.208570  0.434194  0.189233  1
  Si  Si23  1  0.791637  0.567890  0.690013  1
  Si  Si24  1  0.434159  0.209132  0.811649  1
  Si  Si25  1  0.564377  0.791253  0.307879  1
  Si  Si26  1  0.291336  0.930311  0.060985  1
  Si  Si27  1  0.846599  0.795944  0.808693  1
  Si  Si28  1  0.152418  0.207749  0.308299  1
  Si  Si29  1  0.792554  0.845160  0.186373  1
  Si  Si30  1  0.300338  0.648960  0.563930  1
  Si  Si31  1  0.710804  0.348702  0.058811  1
  Si  Si32  1  0.653507  0.295794  0.441964  1
  Si  Si33  1  0.342829  0.703808  0.942946  1
  Si  Si34  1  0.207134  0.154941  0.694179  1
  Au  Au35  1  0.061985  0.711329  0.437627  1
