# generated using pymatgen
data_Gd4MgScSi4
_symmetry_space_group_name_H-M   'P 1'
_cell_length_a   7.25364400
_cell_length_b   7.25364400
_cell_length_c   4.27914100
_cell_angle_alpha   90.00000000
_cell_angle_beta   90.00000000
_cell_angle_gamma   90.00000000
_symmetry_Int_Tables_number   1
_chemical_formula_structural   Gd4MgScSi4
_chemical_formula_sum   'Gd4 Mg1 Sc1 Si4'
_cell_volume   225.14850689
_cell_formula_units_Z   1
loop_
 _symmetry_equiv_pos_site_id
 _symmetry_equiv_pos_as_xyz
  1  'x, y, z'
loop_
 _atom_site_type_symbol
 _atom_site_label
 _atom_site_symmetry_multiplicity
 _atom_site_fract_x
 _atom_site_fract_y
 _atom_site_fract_z
 _atom_site_occupancy
  Gd  Gd0  1  0.673381  0.181698  0.500000  1
  Gd  Gd1  1  0.326619  0.818302  0.500000  1
  Gd  Gd2  1  0.181698  0.326619  0.500000  1
  Gd  Gd3  1  0.818302  0.673381  0.500000  1
  Mg  Mg4  1  0.500000  0.500000  0.000000  1
  Sc  Sc5  1  0.000000  0.000000  0.000000  1
  Si  Si6  1  0.112410  0.624535  0.000000  1
  Si  Si7  1  0.887590  0.375465  0.000000  1
  Si  Si8  1  0.624535  0.887590  0.000000  1
  Si  Si9  1  0.375465  0.112410  0.000000  1
