# generated using pymatgen
data_CaSm4Ho2CoI12
_symmetry_space_group_name_H-M   'P 1'
_cell_length_a   9.81093738
_cell_length_b   9.87132619
_cell_length_c   9.87916724
_cell_angle_alpha   106.80209034
_cell_angle_beta   106.95894752
_cell_angle_gamma   106.69257339
_symmetry_Int_Tables_number   1
_chemical_formula_structural   CaSm4Ho2CoI12
_chemical_formula_sum   'Ca1 Sm4 Ho2 Co1 I12'
_cell_volume   800.72738559
_cell_formula_units_Z   1
loop_
 _symmetry_equiv_pos_site_id
 _symmetry_equiv_pos_as_xyz
  1  'x, y, z'
loop_
 _atom_site_type_symbol
 _atom_site_label
 _atom_site_symmetry_multiplicity
 _atom_site_fract_x
 _atom_site_fract_y
 _atom_site_fract_z
 _atom_site_occupancy
  Ca  Ca0  1  0.499673  0.500328  0.500072  1
  Sm  Sm1  1  0.285472  0.023782  0.093996  1
  Sm  Sm2  1  0.976844  0.904100  0.699684  1
  Sm  Sm3  1  0.902818  0.699582  0.976239  1
  Sm  Sm4  1  0.715395  0.977870  0.909012  1
  Ho  Ho5  1  0.024060  0.097013  0.292629  1
  Ho  Ho6  1  0.095217  0.292574  0.024737  1
  Co  Co7  1  0.000488  0.000154  0.000459  1
  I  I8  1  0.148354  0.452404  0.374215  1
  I  I9  1  0.452823  0.379305  0.150889  1
  I  I10  1  0.374538  0.152655  0.457171  1
  I  I11  1  0.847818  0.541020  0.619843  1
  I  I12  1  0.540385  0.620853  0.846390  1
  I  I13  1  0.619008  0.847474  0.543058  1
  I  I14  1  0.685743  0.074405  0.228099  1
  I  I15  1  0.073723  0.228374  0.682091  1
  I  I16  1  0.226673  0.677306  0.073793  1
  I  I17  1  0.322067  0.928051  0.777257  1
  I  I18  1  0.929224  0.782355  0.322259  1
  I  I19  1  0.779674  0.320391  0.928108  1
