# generated using pymatgen
data_Tm4Ga2ReRu5
_symmetry_space_group_name_H-M   'P 1'
_cell_length_a   5.21793781
_cell_length_b   5.44804409
_cell_length_c   8.85527900
_cell_angle_alpha   90.00000000
_cell_angle_beta   90.00000000
_cell_angle_gamma   121.46983400
_symmetry_Int_Tables_number   1
_chemical_formula_structural   Tm4Ga2ReRu5
_chemical_formula_sum   'Tm4 Ga2 Re1 Ru5'
_cell_volume   214.70768279
_cell_formula_units_Z   1
loop_
 _symmetry_equiv_pos_site_id
 _symmetry_equiv_pos_as_xyz
  1  'x, y, z'
loop_
 _atom_site_type_symbol
 _atom_site_label
 _atom_site_symmetry_multiplicity
 _atom_site_fract_x
 _atom_site_fract_y
 _atom_site_fract_z
 _atom_site_occupancy
  Tm  Tm0  1  0.339431  0.669716  0.441633  1
  Tm  Tm1  1  0.657672  0.328835  0.565493  1
  Tm  Tm2  1  0.657672  0.328835  0.934507  1
  Tm  Tm3  1  0.339431  0.669716  0.058367  1
  Ga  Ga4  1  0.830427  0.168788  0.250000  1
  Ga  Ga5  1  0.830427  0.661638  0.250000  1
  Re  Re6  1  0.667898  0.833949  0.750000  1
  Ru  Ru7  1  0.986345  0.993173  0.500635  1
  Ru  Ru8  1  0.986345  0.993173  0.999365  1
  Ru  Ru9  1  0.339051  0.169525  0.250000  1
  Ru  Ru10  1  0.182652  0.836372  0.750000  1
  Ru  Ru11  1  0.182652  0.346281  0.750000  1
