# generated using pymatgen
data_CeNdB8Ir7Rh
_symmetry_space_group_name_H-M   'P 1'
_cell_length_a   7.69757065
_cell_length_b   7.70021081
_cell_length_c   3.97919021
_cell_angle_alpha   89.91312379
_cell_angle_beta   89.97951521
_cell_angle_gamma   90.17088497
_symmetry_Int_Tables_number   1
_chemical_formula_structural   CeNdB8Ir7Rh
_chemical_formula_sum   'Ce1 Nd1 B8 Ir7 Rh1'
_cell_volume   235.85687426
_cell_formula_units_Z   1
loop_
 _symmetry_equiv_pos_site_id
 _symmetry_equiv_pos_as_xyz
  1  'x, y, z'
loop_
 _atom_site_type_symbol
 _atom_site_label
 _atom_site_symmetry_multiplicity
 _atom_site_fract_x
 _atom_site_fract_y
 _atom_site_fract_z
 _atom_site_occupancy
  Ce  Ce0  1  0.500220  0.499017  0.001106  1
  Nd  Nd1  1  0.000204  0.000128  0.496205  1
  B  B2  1  0.658398  0.780243  0.607952  1
  B  B3  1  0.160365  0.281206  0.887584  1
  B  B4  1  0.282364  0.838909  0.111678  1
  B  B5  1  0.717771  0.159278  0.112256  1
  B  B6  1  0.343634  0.223315  0.606025  1
  B  B7  1  0.841253  0.721069  0.889837  1
  B  B8  1  0.220660  0.658293  0.393899  1
  B  B9  1  0.778524  0.340550  0.392672  1
  Ir  Ir10  1  0.660009  0.890570  0.107425  1
  Ir  Ir11  1  0.607168  0.159416  0.614905  1
  Ir  Ir12  1  0.108837  0.659696  0.892436  1
  Ir  Ir13  1  0.161226  0.390744  0.386335  1
  Ir  Ir14  1  0.837539  0.607784  0.389385  1
  Ir  Ir15  1  0.891371  0.339522  0.892173  1
  Ir  Ir16  1  0.391133  0.840365  0.612558  1
  Rh  Rh17  1  0.339325  0.109895  0.105570  1
