# generated using pymatgen
data_Hf18Ti2Fe2MoIr5
_symmetry_space_group_name_H-M   'P 1'
_cell_length_a   8.51357800
_cell_length_b   8.55749981
_cell_length_c   8.54620802
_cell_angle_alpha   119.95739261
_cell_angle_beta   90.00000000
_cell_angle_gamma   90.00000000
_symmetry_Int_Tables_number   1
_chemical_formula_structural   Hf18Ti2Fe2MoIr5
_chemical_formula_sum   'Hf18 Ti2 Fe2 Mo1 Ir5'
_cell_volume   539.44777876
_cell_formula_units_Z   1
loop_
 _symmetry_equiv_pos_site_id
 _symmetry_equiv_pos_as_xyz
  1  'x, y, z'
loop_
 _atom_site_type_symbol
 _atom_site_label
 _atom_site_symmetry_multiplicity
 _atom_site_fract_x
 _atom_site_fract_y
 _atom_site_fract_z
 _atom_site_occupancy
  Hf  Hf0  1  0.561010  0.798343  0.595162  1
  Hf  Hf1  1  0.561009  0.798359  0.203170  1
  Hf  Hf2  1  0.555456  0.399598  0.199795  1
  Hf  Hf3  1  0.440336  0.203688  0.404854  1
  Hf  Hf4  1  0.440342  0.203666  0.798826  1
  Hf  Hf5  1  0.439641  0.596038  0.798024  1
  Hf  Hf6  1  0.059664  0.203688  0.404854  1
  Hf  Hf7  1  0.059658  0.203666  0.798826  1
  Hf  Hf8  1  0.060359  0.596038  0.798024  1
  Hf  Hf9  1  0.938990  0.798343  0.595162  1
  Hf  Hf10  1  0.938991  0.798359  0.203170  1
  Hf  Hf11  1  0.944544  0.399598  0.199795  1
  Hf  Hf12  1  0.750000  0.460791  0.920236  1
  Hf  Hf13  1  0.750000  0.460800  0.540572  1
  Hf  Hf14  1  0.750000  0.084216  0.542108  1
  Hf  Hf15  1  0.250000  0.541291  0.081717  1
  Hf  Hf16  1  0.250000  0.541311  0.459574  1
  Hf  Hf17  1  0.250000  0.919416  0.459697  1
  Ti  Ti18  1  0.501351  0.996886  0.998439  1
  Ti  Ti19  1  0.998649  0.996886  0.998439  1
  Fe  Fe20  1  0.750000  0.666737  0.333340  1
  Fe  Fe21  1  0.250000  0.335498  0.667779  1
  Mo  Mo22  1  0.250000  0.227508  0.113778  1
  Ir  Ir23  1  0.750000  0.111878  0.227932  1
  Ir  Ir24  1  0.750000  0.111844  0.883939  1
  Ir  Ir25  1  0.750000  0.770782  0.885385  1
  Ir  Ir26  1  0.250000  0.887378  0.771371  1
  Ir  Ir27  1  0.250000  0.887395  0.116034  1
