# generated using pymatgen
data_Dy12SiTc3
_symmetry_space_group_name_H-M   'P 1'
_cell_length_a   6.24241189
_cell_length_b   7.54069779
_cell_length_c   9.15530500
_cell_angle_alpha   90.00000000
_cell_angle_beta   90.00000000
_cell_angle_gamma   89.74749273
_symmetry_Int_Tables_number   1
_chemical_formula_structural   Dy12SiTc3
_chemical_formula_sum   'Dy12 Si1 Tc3'
_cell_volume   430.95562791
_cell_formula_units_Z   1
loop_
 _symmetry_equiv_pos_site_id
 _symmetry_equiv_pos_as_xyz
  1  'x, y, z'
loop_
 _atom_site_type_symbol
 _atom_site_label
 _atom_site_symmetry_multiplicity
 _atom_site_fract_x
 _atom_site_fract_y
 _atom_site_fract_z
 _atom_site_occupancy
  Dy  Dy0  1  0.337842  0.673217  0.063150  1
  Dy  Dy1  1  0.160333  0.180670  0.435143  1
  Dy  Dy2  1  0.656810  0.312979  0.560735  1
  Dy  Dy3  1  0.850529  0.833551  0.938247  1
  Dy  Dy4  1  0.656810  0.312979  0.939265  1
  Dy  Dy5  1  0.850529  0.833551  0.561753  1
  Dy  Dy6  1  0.337842  0.673217  0.436850  1
  Dy  Dy7  1  0.160333  0.180670  0.064857  1
  Dy  Dy8  1  0.867998  0.542374  0.250000  1
  Dy  Dy9  1  0.621804  0.033268  0.250000  1
  Dy  Dy10  1  0.119169  0.456974  0.750000  1
  Dy  Dy11  1  0.369451  0.968561  0.750000  1
  Si  Si12  1  0.560713  0.616457  0.750000  1
  Tc  Tc13  1  0.042241  0.882043  0.250000  1
  Tc  Tc14  1  0.458968  0.379786  0.250000  1
  Tc  Tc15  1  0.948625  0.119704  0.750000  1
