# generated using pymatgen
data_Tm2Fe11NiP7
_symmetry_space_group_name_H-M   'P 1'
_cell_length_a   8.95861025
_cell_length_b   8.94897065
_cell_length_c   3.62156000
_cell_angle_alpha   90.00000000
_cell_angle_beta   90.00000000
_cell_angle_gamma   119.78187715
_symmetry_Int_Tables_number   1
_chemical_formula_structural   Tm2Fe11NiP7
_chemical_formula_sum   'Tm2 Fe11 Ni1 P7'
_cell_volume   251.99412226
_cell_formula_units_Z   1
loop_
 _symmetry_equiv_pos_site_id
 _symmetry_equiv_pos_as_xyz
  1  'x, y, z'
loop_
 _atom_site_type_symbol
 _atom_site_label
 _atom_site_symmetry_multiplicity
 _atom_site_fract_x
 _atom_site_fract_y
 _atom_site_fract_z
 _atom_site_occupancy
  Tm  Tm0  1  0.999160  0.999400  0.000000  1
  Tm  Tm1  1  0.334866  0.668673  0.500000  1
  Fe  Fe2  1  0.297401  0.906369  0.000000  1
  Fe  Fe3  1  0.608246  0.702637  0.000000  1
  Fe  Fe4  1  0.819808  0.605690  0.000000  1
  Fe  Fe5  1  0.784930  0.177196  0.000000  1
  Fe  Fe6  1  0.391256  0.212956  0.000000  1
  Fe  Fe7  1  0.051201  0.768351  0.500000  1
  Fe  Fe8  1  0.713891  0.945401  0.500000  1
  Fe  Fe9  1  0.231314  0.285317  0.500000  1
  Fe  Fe10  1  0.891064  0.432622  0.500000  1
  Fe  Fe11  1  0.545797  0.116525  0.500000  1
  Fe  Fe12  1  0.569552  0.451827  0.500000  1
  Ni  Ni13  1  0.097644  0.395712  0.000000  1
  P  P14  1  0.077631  0.637781  0.000000  1
  P  P15  1  0.554406  0.922965  0.000000  1
  P  P16  1  0.373378  0.446944  0.000000  1
  P  P17  1  0.779640  0.734401  0.500000  1
  P  P18  1  0.949576  0.212382  0.500000  1
  P  P19  1  0.263379  0.044802  0.500000  1
  P  P20  1  0.665858  0.332049  0.000000  1
