# generated using pymatgen
data_DyLu3Pt4F28
_symmetry_space_group_name_H-M   'P 1'
_cell_length_a   5.48690512
_cell_length_b   8.75193255
_cell_length_c   11.85707367
_cell_angle_alpha   62.73634641
_cell_angle_beta   89.91142353
_cell_angle_gamma   90.00269126
_symmetry_Int_Tables_number   1
_chemical_formula_structural   DyLu3Pt4F28
_chemical_formula_sum   'Dy1 Lu3 Pt4 F28'
_cell_volume   506.13348705
_cell_formula_units_Z   1
loop_
 _symmetry_equiv_pos_site_id
 _symmetry_equiv_pos_as_xyz
  1  'x, y, z'
loop_
 _atom_site_type_symbol
 _atom_site_label
 _atom_site_symmetry_multiplicity
 _atom_site_fract_x
 _atom_site_fract_y
 _atom_site_fract_z
 _atom_site_occupancy
  Dy  Dy0  1  0.260641  0.815691  0.264503  1
  Lu  Lu1  1  0.738643  0.184031  0.736089  1
  Lu  Lu2  1  0.762536  0.187202  0.235800  1
  Lu  Lu3  1  0.238943  0.816143  0.764118  1
  Pt  Pt4  1  0.758028  0.727220  0.040872  1
  Pt  Pt5  1  0.238970  0.273917  0.955502  1
  Pt  Pt6  1  0.260650  0.269694  0.457805  1
  Pt  Pt7  1  0.740981  0.727247  0.545791  1
  F  F8  1  0.937757  0.701836  0.416956  1
  F  F9  1  0.060229  0.297127  0.584738  1
  F  F10  1  0.438837  0.299652  0.083075  1
  F  F11  1  0.561137  0.701190  0.912716  1
  F  F12  1  0.462192  0.723390  0.134922  1
  F  F13  1  0.531842  0.275201  0.859495  1
  F  F14  1  0.966523  0.274840  0.361477  1
  F  F15  1  0.035502  0.725279  0.640501  1
  F  F16  1  0.945859  0.745608  0.175463  1
  F  F17  1  0.044317  0.253222  0.823228  1
  F  F18  1  0.454866  0.250616  0.324582  1
  F  F19  1  0.548121  0.746894  0.678668  1
  F  F20  1  0.775330  0.475221  0.141797  1
  F  F21  1  0.222331  0.525772  0.856247  1
  F  F22  1  0.278766  0.520877  0.358114  1
  F  F23  1  0.725800  0.474717  0.644379  1
  F  F24  1  0.936593  0.278378  0.044557  1
  F  F25  1  0.063898  0.723625  0.954048  1
  F  F26  1  0.438640  0.721495  0.458862  1
  F  F27  1  0.563121  0.274810  0.546035  1
  F  F28  1  0.745760  0.978856  0.450307  1
  F  F29  1  0.253892  0.018053  0.552534  1
  F  F30  1  0.244802  0.022521  0.049759  1
  F  F31  1  0.752026  0.978863  0.947243  1
  F  F32  1  0.587884  0.975380  0.232465  1
  F  F33  1  0.421707  0.027182  0.766410  1
  F  F34  1  0.080490  0.035039  0.267331  1
  F  F35  1  0.922387  0.973210  0.733610  1
