# generated using pymatgen
data_Nd3SiSe2
_symmetry_space_group_name_H-M   'P 1'
_cell_length_a   7.41578588
_cell_length_b   7.41578603
_cell_length_c   7.41578610
_cell_angle_alpha   146.62465817
_cell_angle_beta   132.45492222
_cell_angle_gamma   59.32986527
_symmetry_Int_Tables_number   1
_chemical_formula_structural   Nd3SiSe2
_chemical_formula_sum   'Nd3 Si1 Se2'
_cell_volume   164.07944169
_cell_formula_units_Z   1
loop_
 _symmetry_equiv_pos_site_id
 _symmetry_equiv_pos_as_xyz
  1  'x, y, z'
loop_
 _atom_site_type_symbol
 _atom_site_label
 _atom_site_symmetry_multiplicity
 _atom_site_fract_x
 _atom_site_fract_y
 _atom_site_fract_z
 _atom_site_occupancy
  Nd  Nd0  1  0.842016  0.342016  0.500000  1
  Nd  Nd1  1  0.500000  0.000000  0.500000  1
  Nd  Nd2  1  0.157984  0.657984  0.500000  1
  Si  Si3  1  0.000000  0.000000  0.000000  1
  Se  Se4  1  0.667645  0.667645  0.000000  1
  Se  Se5  1  0.332355  0.332355  0.000000  1
