# generated using pymatgen
data_YHo3Ir3RhO14
_symmetry_space_group_name_H-M   'P 1'
_cell_length_a   7.23621546
_cell_length_b   7.23830957
_cell_length_c   7.23621515
_cell_angle_alpha   60.02432828
_cell_angle_beta   60.01031624
_cell_angle_gamma   60.02432607
_symmetry_Int_Tables_number   1
_chemical_formula_structural   YHo3Ir3RhO14
_chemical_formula_sum   'Y1 Ho3 Ir3 Rh1 O14'
_cell_volume   268.12578692
_cell_formula_units_Z   1
loop_
 _symmetry_equiv_pos_site_id
 _symmetry_equiv_pos_as_xyz
  1  'x, y, z'
loop_
 _atom_site_type_symbol
 _atom_site_label
 _atom_site_symmetry_multiplicity
 _atom_site_fract_x
 _atom_site_fract_y
 _atom_site_fract_z
 _atom_site_occupancy
  Y  Y0  1  0.125000  0.625000  0.125000  1
  Ho  Ho1  1  0.625000  0.125000  0.125000  1
  Ho  Ho2  1  0.125000  0.125000  0.625000  1
  Ho  Ho3  1  0.125000  0.125000  0.125000  1
  Ir  Ir4  1  0.125000  0.625000  0.625000  1
  Ir  Ir5  1  0.625000  0.125000  0.625000  1
  Ir  Ir6  1  0.625000  0.625000  0.125000  1
  Rh  Rh7  1  0.625000  0.625000  0.625000  1
  O  O8  1  0.713287  0.715207  0.283305  1
  O  O9  1  0.288822  0.288763  0.714854  1
  O  O10  1  0.714712  0.282806  0.714712  1
  O  O11  1  0.289260  0.715268  0.289260  1
  O  O12  1  0.283305  0.715207  0.713287  1
  O  O13  1  0.714854  0.288763  0.288822  1
  O  O14  1  0.536713  0.534793  0.966695  1
  O  O15  1  0.961178  0.961237  0.535146  1
  O  O16  1  0.535288  0.967194  0.535288  1
  O  O17  1  0.960740  0.534732  0.960740  1
  O  O18  1  0.966695  0.534793  0.536713  1
  O  O19  1  0.535146  0.961237  0.961178  1
  O  O20  1  0.250004  0.247402  0.250004  1
  O  O21  1  0.999996  0.002598  0.999996  1
