# generated using pymatgen
data_HfZr3Sc6(Sb3Se)2
_symmetry_space_group_name_H-M   'P 1'
_cell_length_a   8.59167500
_cell_length_b   8.59167491
_cell_length_c   6.13206800
_cell_angle_alpha   90.00000000
_cell_angle_beta   90.00000000
_cell_angle_gamma   119.99999648
_symmetry_Int_Tables_number   1
_chemical_formula_structural   HfZr3Sc6(Sb3Se)2
_chemical_formula_sum   'Hf1 Zr3 Sc6 Sb6 Se2'
_cell_volume   392.00651589
_cell_formula_units_Z   1
loop_
 _symmetry_equiv_pos_site_id
 _symmetry_equiv_pos_as_xyz
  1  'x, y, z'
loop_
 _atom_site_type_symbol
 _atom_site_label
 _atom_site_symmetry_multiplicity
 _atom_site_fract_x
 _atom_site_fract_y
 _atom_site_fract_z
 _atom_site_occupancy
  Hf  Hf0  1  0.666667  0.333333  0.500000  1
  Zr  Zr1  1  0.333333  0.666667  0.500000  1
  Zr  Zr2  1  0.333333  0.666667  0.000000  1
  Zr  Zr3  1  0.666667  0.333333  0.000000  1
  Sc  Sc4  1  0.738711  0.738603  0.250098  1
  Sc  Sc5  1  0.261397  0.000108  0.250098  1
  Sc  Sc6  1  0.999892  0.261289  0.250098  1
  Sc  Sc7  1  0.261397  0.261289  0.749902  1
  Sc  Sc8  1  0.738711  0.000108  0.749902  1
  Sc  Sc9  1  0.999892  0.738603  0.749902  1
  Sb  Sb10  1  0.395056  0.394576  0.250571  1
  Sb  Sb11  1  0.605424  0.000480  0.250571  1
  Sb  Sb12  1  0.999520  0.604944  0.250571  1
  Sb  Sb13  1  0.605424  0.604944  0.749429  1
  Sb  Sb14  1  0.395056  0.000480  0.749429  1
  Sb  Sb15  1  0.999520  0.394576  0.749429  1
  Se  Se16  1  0.000000  0.000000  0.500000  1
  Se  Se17  1  0.000000  0.000000  0.000000  1
