# generated using pymatgen
data_Lu10Hg3Ir
_symmetry_space_group_name_H-M   'P 1'
_cell_length_a   9.44851654
_cell_length_b   9.45346167
_cell_length_c   9.44785400
_cell_angle_alpha   90.00000000
_cell_angle_beta   90.00000000
_cell_angle_gamma   120.01308894
_symmetry_Int_Tables_number   1
_chemical_formula_structural   Lu10Hg3Ir
_chemical_formula_sum   'Lu20 Hg6 Ir2'
_cell_volume   730.73684386
_cell_formula_units_Z   2
loop_
 _symmetry_equiv_pos_site_id
 _symmetry_equiv_pos_as_xyz
  1  'x, y, z'
loop_
 _atom_site_type_symbol
 _atom_site_label
 _atom_site_symmetry_multiplicity
 _atom_site_fract_x
 _atom_site_fract_y
 _atom_site_fract_z
 _atom_site_occupancy
  Lu  Lu0  1  0.000000  0.000000  0.500000  1
  Lu  Lu1  1  0.000000  0.000000  0.000000  1
  Lu  Lu2  1  0.208944  0.791044  0.441015  1
  Lu  Lu3  1  0.208947  0.417906  0.441032  1
  Lu  Lu4  1  0.582059  0.791026  0.440992  1
  Lu  Lu5  1  0.791056  0.208956  0.558985  1
  Lu  Lu6  1  0.791053  0.582094  0.558968  1
  Lu  Lu7  1  0.417941  0.208974  0.559008  1
  Lu  Lu8  1  0.791056  0.208956  0.941015  1
  Lu  Lu9  1  0.791053  0.582094  0.941032  1
  Lu  Lu10  1  0.417941  0.208974  0.940992  1
  Lu  Lu11  1  0.208944  0.791044  0.058985  1
  Lu  Lu12  1  0.208947  0.417906  0.058968  1
  Lu  Lu13  1  0.582059  0.791026  0.059008  1
  Lu  Lu14  1  0.540803  0.459094  0.250000  1
  Lu  Lu15  1  0.540820  0.081713  0.250000  1
  Lu  Lu16  1  0.918315  0.459153  0.250000  1
  Lu  Lu17  1  0.459197  0.540906  0.750000  1
  Lu  Lu18  1  0.459180  0.918287  0.750000  1
  Lu  Lu19  1  0.081685  0.540847  0.750000  1
  Hg  Hg20  1  0.881955  0.118402  0.250000  1
  Hg  Hg21  1  0.881946  0.763557  0.250000  1
  Hg  Hg22  1  0.236430  0.118212  0.250000  1
  Hg  Hg23  1  0.118045  0.881598  0.750000  1
  Hg  Hg24  1  0.118054  0.236443  0.750000  1
  Hg  Hg25  1  0.763570  0.881788  0.750000  1
  Ir  Ir26  1  0.333044  0.666483  0.250000  1
  Ir  Ir27  1  0.666956  0.333517  0.750000  1
