# generated using pymatgen
data_Er2CoIrI2
_symmetry_space_group_name_H-M   'P 1'
_cell_length_a   4.11464600
_cell_length_b   4.11464690
_cell_length_c   12.27147900
_cell_angle_alpha   90.00000000
_cell_angle_beta   90.00000000
_cell_angle_gamma   119.99999278
_symmetry_Int_Tables_number   1
_chemical_formula_structural   Er2CoIrI2
_chemical_formula_sum   'Er2 Co1 Ir1 I2'
_cell_volume   179.92545953
_cell_formula_units_Z   1
loop_
 _symmetry_equiv_pos_site_id
 _symmetry_equiv_pos_as_xyz
  1  'x, y, z'
loop_
 _atom_site_type_symbol
 _atom_site_label
 _atom_site_symmetry_multiplicity
 _atom_site_fract_x
 _atom_site_fract_y
 _atom_site_fract_z
 _atom_site_occupancy
  Er  Er0  1  0.000000  0.000000  0.147412  1
  Er  Er1  1  0.000000  0.000000  0.853046  1
  Co  Co2  1  0.333333  0.666666  0.996791  1
  Ir  Ir3  1  0.666667  0.333334  0.002807  1
  I  I4  1  0.333333  0.666666  0.319073  1
  I  I5  1  0.666667  0.333334  0.680871  1
