# generated using pymatgen
data_Gd3Tm2(TcO6)2
_symmetry_space_group_name_H-M   'P 1'
_cell_length_a   6.83304359
_cell_length_b   6.83304253
_cell_length_c   7.57497655
_cell_angle_alpha   74.20322846
_cell_angle_beta   74.20321977
_cell_angle_gamma   49.04571817
_symmetry_Int_Tables_number   1
_chemical_formula_structural   Gd3Tm2(TcO6)2
_chemical_formula_sum   'Gd3 Tm2 Tc2 O12'
_cell_volume   254.87259143
_cell_formula_units_Z   1
loop_
 _symmetry_equiv_pos_site_id
 _symmetry_equiv_pos_as_xyz
  1  'x, y, z'
loop_
 _atom_site_type_symbol
 _atom_site_label
 _atom_site_symmetry_multiplicity
 _atom_site_fract_x
 _atom_site_fract_y
 _atom_site_fract_z
 _atom_site_occupancy
  Gd  Gd0  1  0.806347  0.806347  0.355641  1
  Gd  Gd1  1  0.193653  0.193653  0.644359  1
  Gd  Gd2  1  0.500000  0.500000  0.500000  1
  Tm  Tm3  1  0.186296  0.186296  0.171422  1
  Tm  Tm4  1  0.813704  0.813704  0.828578  1
  Tc  Tc5  1  0.285955  0.714045  0.000000  1
  Tc  Tc6  1  0.714045  0.285955  0.000000  1
  O  O7  1  0.415943  0.912993  0.921602  1
  O  O8  1  0.087007  0.584057  0.078398  1
  O  O9  1  0.584057  0.087007  0.078398  1
  O  O10  1  0.912993  0.415943  0.921602  1
  O  O11  1  0.599544  0.089044  0.582944  1
  O  O12  1  0.910956  0.400456  0.417056  1
  O  O13  1  0.400456  0.910956  0.417056  1
  O  O14  1  0.998142  0.998142  0.824145  1
  O  O15  1  0.001858  0.001858  0.175855  1
  O  O16  1  0.501512  0.501512  0.795989  1
  O  O17  1  0.498488  0.498488  0.204011  1
  O  O18  1  0.089044  0.599544  0.582944  1
