# generated using pymatgen
data_Ac12Ru3Rh
_symmetry_space_group_name_H-M   'P 1'
_cell_length_a   6.88073500
_cell_length_b   7.75575328
_cell_length_c   10.56125600
_cell_angle_alpha   90.00000000
_cell_angle_beta   90.00000000
_cell_angle_gamma   90.01535127
_symmetry_Int_Tables_number   1
_chemical_formula_structural   Ac12Ru3Rh
_chemical_formula_sum   'Ac12 Ru3 Rh1'
_cell_volume   563.60439540
_cell_formula_units_Z   1
loop_
 _symmetry_equiv_pos_site_id
 _symmetry_equiv_pos_as_xyz
  1  'x, y, z'
loop_
 _atom_site_type_symbol
 _atom_site_label
 _atom_site_symmetry_multiplicity
 _atom_site_fract_x
 _atom_site_fract_y
 _atom_site_fract_z
 _atom_site_occupancy
  Ac  Ac0  1  0.327745  0.672139  0.070666  1
  Ac  Ac1  1  0.174040  0.175439  0.429559  1
  Ac  Ac2  1  0.675991  0.327062  0.572594  1
  Ac  Ac3  1  0.824284  0.827499  0.926631  1
  Ac  Ac4  1  0.675991  0.327062  0.927406  1
  Ac  Ac5  1  0.824284  0.827499  0.573369  1
  Ac  Ac6  1  0.327745  0.672139  0.429334  1
  Ac  Ac7  1  0.174040  0.175439  0.070441  1
  Ac  Ac8  1  0.838510  0.544356  0.250000  1
  Ac  Ac9  1  0.657367  0.048494  0.250000  1
  Ac  Ac10  1  0.159611  0.452981  0.750000  1
  Ac  Ac11  1  0.338715  0.952387  0.750000  1
  Ru  Ru12  1  0.443200  0.383156  0.250000  1
  Ru  Ru13  1  0.944883  0.115833  0.750000  1
  Ru  Ru14  1  0.554337  0.617211  0.750000  1
  Rh  Rh15  1  0.059257  0.881305  0.250000  1
