# generated using pymatgen
data_Ho3Er4Tm13Pt16
_symmetry_space_group_name_H-M   'P 1'
_cell_length_a   7.41521626
_cell_length_b   7.49851052
_cell_length_c   14.60406700
_cell_angle_alpha   90.18002119
_cell_angle_beta   89.98470869
_cell_angle_gamma   89.94458999
_symmetry_Int_Tables_number   1
_chemical_formula_structural   Ho3Er4Tm13Pt16
_chemical_formula_sum   'Ho3 Er4 Tm13 Pt16'
_cell_volume   812.02664739
_cell_formula_units_Z   1
loop_
 _symmetry_equiv_pos_site_id
 _symmetry_equiv_pos_as_xyz
  1  'x, y, z'
loop_
 _atom_site_type_symbol
 _atom_site_label
 _atom_site_symmetry_multiplicity
 _atom_site_fract_x
 _atom_site_fract_y
 _atom_site_fract_z
 _atom_site_occupancy
  Ho  Ho0  1  0.499574  0.322035  0.906996  1
  Ho  Ho1  1  0.500299  0.678225  0.407444  1
  Ho  Ho2  1  0.000324  0.821960  0.092725  1
  Er  Er3  1  0.499286  0.679250  0.093504  1
  Er  Er4  1  0.500249  0.320279  0.593279  1
  Er  Er5  1  0.000444  0.179481  0.906462  1
  Er  Er6  1  0.999634  0.178098  0.592548  1
  Tm  Tm7  1  0.682097  0.990157  0.250437  1
  Tm  Tm8  1  0.182125  0.510083  0.250421  1
  Tm  Tm9  1  0.817613  0.490159  0.749386  1
  Tm  Tm10  1  0.318254  0.009614  0.749602  1
  Tm  Tm11  1  0.655706  0.832978  0.622107  1
  Tm  Tm12  1  0.154997  0.667113  0.877061  1
  Tm  Tm13  1  0.845443  0.332711  0.377837  1
  Tm  Tm14  1  0.344870  0.167465  0.122573  1
  Tm  Tm15  1  0.345105  0.167214  0.378255  1
  Tm  Tm16  1  0.845191  0.332570  0.122271  1
  Tm  Tm17  1  0.154437  0.667846  0.621720  1
  Tm  Tm18  1  0.654956  0.832250  0.877702  1
  Tm  Tm19  1  0.999859  0.821512  0.406823  1
  Pt  Pt20  1  0.819736  0.644268  0.251467  1
  Pt  Pt21  1  0.319095  0.856109  0.250576  1
  Pt  Pt22  1  0.681006  0.143773  0.748936  1
  Pt  Pt23  1  0.179847  0.355601  0.749029  1
  Pt  Pt24  1  0.548516  0.385546  0.250391  1
  Pt  Pt25  1  0.048139  0.114416  0.250696  1
  Pt  Pt26  1  0.952020  0.885958  0.749799  1
  Pt  Pt27  1  0.451226  0.614342  0.749066  1
  Pt  Pt28  1  0.815033  0.531713  0.542353  1
  Pt  Pt29  1  0.314742  0.966720  0.958153  1
  Pt  Pt30  1  0.686466  0.033295  0.458842  1
  Pt  Pt31  1  0.185129  0.467299  0.041721  1
  Pt  Pt32  1  0.183291  0.467266  0.458215  1
  Pt  Pt33  1  0.683207  0.032751  0.042043  1
  Pt  Pt34  1  0.315346  0.967524  0.541835  1
  Pt  Pt35  1  0.816746  0.532420  0.957724  1
