# generated using pymatgen
data_La5Pr11Cd4Pd3Ru
_symmetry_space_group_name_H-M   'P 1'
_cell_length_a   10.10271424
_cell_length_b   10.14788550
_cell_length_c   10.14788357
_cell_angle_alpha   59.64321946
_cell_angle_beta   59.73964274
_cell_angle_gamma   59.73964323
_symmetry_Int_Tables_number   1
_chemical_formula_structural   La5Pr11Cd4Pd3Ru
_chemical_formula_sum   'La5 Pr11 Cd4 Pd3 Ru1'
_cell_volume   730.76595062
_cell_formula_units_Z   1
loop_
 _symmetry_equiv_pos_site_id
 _symmetry_equiv_pos_as_xyz
  1  'x, y, z'
loop_
 _atom_site_type_symbol
 _atom_site_label
 _atom_site_symmetry_multiplicity
 _atom_site_fract_x
 _atom_site_fract_y
 _atom_site_fract_z
 _atom_site_occupancy
  La  La0  1  0.352169  0.352902  0.352902  1
  La  La1  1  0.345758  0.345955  0.953290  1
  La  La2  1  0.345758  0.953290  0.345955  1
  La  La3  1  0.953088  0.346438  0.346438  1
  La  La4  1  0.820401  0.187764  0.187764  1
  Pr  Pr5  1  0.190748  0.807861  0.807861  1
  Pr  Pr6  1  0.190041  0.815219  0.188608  1
  Pr  Pr7  1  0.807665  0.191096  0.806811  1
  Pr  Pr8  1  0.190041  0.188608  0.815219  1
  Pr  Pr9  1  0.807665  0.806811  0.191096  1
  Pr  Pr10  1  0.933782  0.565170  0.565170  1
  Pr  Pr11  1  0.559950  0.935824  0.935824  1
  Pr  Pr12  1  0.564460  0.933603  0.565595  1
  Pr  Pr13  1  0.936611  0.560338  0.935424  1
  Pr  Pr14  1  0.564460  0.565595  0.933603  1
  Pr  Pr15  1  0.936611  0.935424  0.560338  1
  Cd  Cd16  1  0.579618  0.579766  0.579766  1
  Cd  Cd17  1  0.579676  0.580952  0.259543  1
  Cd  Cd18  1  0.579676  0.259543  0.580952  1
  Cd  Cd19  1  0.259340  0.580180  0.580180  1
  Pd  Pd20  1  0.145787  0.145549  0.570218  1
  Pd  Pd21  1  0.145787  0.570218  0.145549  1
  Pd  Pd22  1  0.571335  0.145969  0.145969  1
  Ru  Ru23  1  0.139576  0.145929  0.145929  1
