# generated using pymatgen
data_Pr4MnS6O
_symmetry_space_group_name_H-M   'P 1'
_cell_length_a   9.47105000
_cell_length_b   9.47108535
_cell_length_c   6.78404600
_cell_angle_alpha   89.99994991
_cell_angle_beta   90.00004133
_cell_angle_gamma   119.99989130
_symmetry_Int_Tables_number   1
_chemical_formula_structural   Pr4MnS6O
_chemical_formula_sum   'Pr8 Mn2 S12 O2'
_cell_volume   527.00868361
_cell_formula_units_Z   2
loop_
 _symmetry_equiv_pos_site_id
 _symmetry_equiv_pos_as_xyz
  1  'x, y, z'
loop_
 _atom_site_type_symbol
 _atom_site_label
 _atom_site_symmetry_multiplicity
 _atom_site_fract_x
 _atom_site_fract_y
 _atom_site_fract_z
 _atom_site_occupancy
  Pr  Pr0  1  0.396799  0.198396  0.167193  1
  Pr  Pr1  1  0.801600  0.198397  0.167195  1
  Pr  Pr2  1  0.801603  0.603206  0.167200  1
  Pr  Pr3  1  0.333314  0.666619  0.193428  1
  Pr  Pr4  1  0.198401  0.801604  0.667197  1
  Pr  Pr5  1  0.603202  0.801601  0.667198  1
  Pr  Pr6  1  0.198396  0.396792  0.667200  1
  Pr  Pr7  1  0.666691  0.333383  0.693424  1
  Mn  Mn8  1  0.999990  0.999999  0.490989  1
  Mn  Mn9  1  0.000006  0.999998  0.990977  1
  S  S10  1  0.125307  0.250613  0.265397  1
  S  S11  1  0.125304  0.874703  0.265401  1
  S  S12  1  0.749393  0.874698  0.265397  1
  S  S13  1  0.531300  0.062599  0.442558  1
  S  S14  1  0.531283  0.468723  0.442525  1
  S  S15  1  0.937439  0.468724  0.442525  1
  S  S16  1  0.874694  0.749388  0.765396  1
  S  S17  1  0.250604  0.125299  0.765400  1
  S  S18  1  0.874695  0.125297  0.765402  1
  S  S19  1  0.468700  0.937402  0.942558  1
  S  S20  1  0.062563  0.531279  0.942527  1
  S  S21  1  0.468717  0.531279  0.942524  1
  O  O22  1  0.666668  0.333337  0.041042  1
  O  O23  1  0.333332  0.666664  0.541046  1
