# generated using pymatgen
data_Li2Tb7Sm(SiB4)4
_symmetry_space_group_name_H-M   'P 1'
_cell_length_a   7.18756908
_cell_length_b   7.18756908
_cell_length_c   7.94196811
_cell_angle_alpha   90.01336118
_cell_angle_beta   90.01336118
_cell_angle_gamma   89.98952466
_symmetry_Int_Tables_number   1
_chemical_formula_structural   Li2Tb7Sm(SiB4)4
_chemical_formula_sum   'Li2 Tb7 Sm1 Si4 B16'
_cell_volume   410.29117071
_cell_formula_units_Z   1
loop_
 _symmetry_equiv_pos_site_id
 _symmetry_equiv_pos_as_xyz
  1  'x, y, z'
loop_
 _atom_site_type_symbol
 _atom_site_label
 _atom_site_symmetry_multiplicity
 _atom_site_fract_x
 _atom_site_fract_y
 _atom_site_fract_z
 _atom_site_occupancy
  Li  Li0  1  0.000455  0.999732  0.500480  1
  Li  Li1  1  0.499732  0.500455  0.500480  1
  Tb  Tb2  1  0.316304  0.816304  0.764604  1
  Tb  Tb3  1  0.316143  0.816143  0.235404  1
  Tb  Tb4  1  0.816584  0.683632  0.235358  1
  Tb  Tb5  1  0.816442  0.683676  0.764682  1
  Tb  Tb6  1  0.683570  0.183570  0.764637  1
  Tb  Tb7  1  0.183676  0.316442  0.764682  1
  Tb  Tb8  1  0.183632  0.316584  0.235358  1
  Sm  Sm9  1  0.683641  0.183641  0.238344  1
  Si  Si10  1  0.115012  0.615012  0.500263  1
  Si  Si11  1  0.886789  0.386789  0.501755  1
  Si  Si12  1  0.384168  0.113475  0.501414  1
  Si  Si13  1  0.613475  0.884168  0.501414  1
  B  B14  1  0.174118  0.039658  0.999473  1
  B  B15  1  0.826535  0.959621  0.999352  1
  B  B16  1  0.960677  0.173620  0.999460  1
  B  B17  1  0.325891  0.540112  0.999561  1
  B  B18  1  0.040112  0.825891  0.999561  1
  B  B19  1  0.673620  0.460677  0.999460  1
  B  B20  1  0.539658  0.674118  0.999473  1
  B  B21  1  0.459621  0.326535  0.999352  1
  B  B22  1  0.089037  0.589037  0.999807  1
  B  B23  1  0.911046  0.411046  0.999739  1
  B  B24  1  0.410704  0.089002  0.999098  1
  B  B25  1  0.589002  0.910704  0.999098  1
  B  B26  1  0.001030  0.999445  0.157835  1
  B  B27  1  0.000081  0.999801  0.841009  1
  B  B28  1  0.499801  0.500081  0.841009  1
  B  B29  1  0.499445  0.501030  0.157835  1
