# generated using pymatgen
data_Lu2PaGa5Tc
_symmetry_space_group_name_H-M   'P 1'
_cell_length_a   6.70397400
_cell_length_b   6.94584125
_cell_length_c   4.35247400
_cell_angle_alpha   90.00000000
_cell_angle_beta   90.00000000
_cell_angle_gamma   118.85464401
_symmetry_Int_Tables_number   1
_chemical_formula_structural   Lu2PaGa5Tc
_chemical_formula_sum   'Lu2 Pa1 Ga5 Tc1'
_cell_volume   177.50946679
_cell_formula_units_Z   1
loop_
 _symmetry_equiv_pos_site_id
 _symmetry_equiv_pos_as_xyz
  1  'x, y, z'
loop_
 _atom_site_type_symbol
 _atom_site_label
 _atom_site_symmetry_multiplicity
 _atom_site_fract_x
 _atom_site_fract_y
 _atom_site_fract_z
 _atom_site_occupancy
  Lu  Lu0  1  0.006015  0.593444  0.000000  1
  Lu  Lu1  1  0.412571  0.406556  0.000000  1
  Pa  Pa2  1  0.603350  0.000000  0.000000  1
  Ga  Ga3  1  0.235616  0.000000  0.500000  1
  Ga  Ga4  1  0.012355  0.249120  0.500000  1
  Ga  Ga5  1  0.763235  0.750880  0.500000  1
  Ga  Ga6  1  0.336942  0.667309  0.500000  1
  Ga  Ga7  1  0.669634  0.332691  0.500000  1
  Tc  Tc8  1  0.960280  0.000000  0.000000  1
