# generated using pymatgen
data_Tm4MgP12Ru19
_symmetry_space_group_name_H-M   'P 1'
_cell_length_a   12.45736300
_cell_length_b   12.48102479
_cell_length_c   3.98129000
_cell_angle_alpha   90.00000000
_cell_angle_beta   90.00000000
_cell_angle_gamma   120.06284862
_symmetry_Int_Tables_number   1
_chemical_formula_structural   Tm4MgP12Ru19
_chemical_formula_sum   'Tm4 Mg1 P12 Ru19'
_cell_volume   535.74166254
_cell_formula_units_Z   1
loop_
 _symmetry_equiv_pos_site_id
 _symmetry_equiv_pos_as_xyz
  1  'x, y, z'
loop_
 _atom_site_type_symbol
 _atom_site_label
 _atom_site_symmetry_multiplicity
 _atom_site_fract_x
 _atom_site_fract_y
 _atom_site_fract_z
 _atom_site_occupancy
  Tm  Tm0  1  0.816763  0.816109  0.500000  1
  Tm  Tm1  1  0.183237  0.999346  0.500000  1
  Tm  Tm2  1  0.672909  0.332721  0.000000  1
  Tm  Tm3  1  0.327091  0.659813  0.000000  1
  Mg  Mg4  1  0.000000  0.189777  0.500000  1
  P  P5  1  0.000000  0.827609  0.000000  1
  P  P6  1  0.193979  0.180525  0.000000  1
  P  P7  1  0.806021  0.986546  0.000000  1
  P  P8  1  0.698405  0.169751  0.500000  1
  P  P9  1  0.830449  0.524518  0.500000  1
  P  P10  1  0.481563  0.306848  0.500000  1
  P  P11  1  0.169551  0.694068  0.500000  1
  P  P12  1  0.518437  0.825285  0.500000  1
  P  P13  1  0.301595  0.471346  0.500000  1
  P  P14  1  0.000000  0.380851  0.000000  1
  P  P15  1  0.625712  0.626486  0.000000  1
  P  P16  1  0.374288  0.000773  0.000000  1
  Ru  Ru17  1  0.000000  0.560449  0.000000  1
  Ru  Ru18  1  0.439846  0.446029  0.000000  1
  Ru  Ru19  1  0.560154  0.006183  0.000000  1
  Ru  Ru20  1  0.000000  0.722417  0.500000  1
  Ru  Ru21  1  0.283237  0.279173  0.500000  1
  Ru  Ru22  1  0.716763  0.995936  0.500000  1
  Ru  Ru23  1  0.825172  0.182768  0.000000  1
  Ru  Ru24  1  0.815172  0.627901  0.000000  1
  Ru  Ru25  1  0.384501  0.194529  0.000000  1
  Ru  Ru26  1  0.184828  0.812728  0.000000  1
  Ru  Ru27  1  0.615499  0.810027  0.000000  1
  Ru  Ru28  1  0.174828  0.357596  0.000000  1
  Ru  Ru29  1  0.873418  0.364759  0.500000  1
  Ru  Ru30  1  0.633822  0.508222  0.500000  1
  Ru  Ru31  1  0.497200  0.127577  0.500000  1
  Ru  Ru32  1  0.366178  0.874400  0.500000  1
  Ru  Ru33  1  0.502800  0.630377  0.500000  1
  Ru  Ru34  1  0.126582  0.491342  0.500000  1
  Ru  Ru35  1  0.000000  0.015210  0.000000  1
