# generated using pymatgen
data_Ca4LaPrV2O12
_symmetry_space_group_name_H-M   'P 1'
_cell_length_a   7.43184809
_cell_length_b   7.43184818
_cell_length_c   5.66120211
_cell_angle_alpha   90.01746689
_cell_angle_beta   89.98253341
_cell_angle_gamma   104.46568891
_symmetry_Int_Tables_number   1
_chemical_formula_structural   Ca4LaPrV2O12
_chemical_formula_sum   'Ca4 La1 Pr1 V2 O12'
_cell_volume   302.76875029
_cell_formula_units_Z   1
loop_
 _symmetry_equiv_pos_site_id
 _symmetry_equiv_pos_as_xyz
  1  'x, y, z'
loop_
 _atom_site_type_symbol
 _atom_site_label
 _atom_site_symmetry_multiplicity
 _atom_site_fract_x
 _atom_site_fract_y
 _atom_site_fract_z
 _atom_site_occupancy
  Ca  Ca0  1  0.297601  0.100526  0.765559  1
  Ca  Ca1  1  0.702882  0.898404  0.266412  1
  Ca  Ca2  1  0.101596  0.297118  0.266412  1
  Ca  Ca3  1  0.899474  0.702399  0.765559  1
  La  La4  1  0.401208  0.598792  0.741429  1
  Pr  Pr5  1  0.600212  0.399788  0.240734  1
  V  V6  1  0.188483  0.811517  0.301743  1
  V  V7  1  0.810398  0.189602  0.801723  1
  O  O8  1  0.651857  0.667252  0.005573  1
  O  O9  1  0.202414  0.797586  0.990613  1
  O  O10  1  0.402627  0.898461  0.439563  1
  O  O11  1  0.597345  0.102524  0.942184  1
  O  O12  1  0.668887  0.650356  0.505143  1
  O  O13  1  0.047338  0.952662  0.395337  1
  O  O14  1  0.332748  0.348143  0.005573  1
  O  O15  1  0.349644  0.331113  0.505143  1
  O  O16  1  0.951612  0.048388  0.893561  1
  O  O17  1  0.794657  0.205343  0.489990  1
  O  O18  1  0.897476  0.402655  0.942184  1
  O  O19  1  0.101539  0.597373  0.439563  1
