# generated using pymatgen
data_Lu4ZnB4SbRh10
_symmetry_space_group_name_H-M   'P 1'
_cell_length_a   9.43145700
_cell_length_b   9.43145700
_cell_length_c   3.23966500
_cell_angle_alpha   90.00000000
_cell_angle_beta   90.00000000
_cell_angle_gamma   90.00000000
_symmetry_Int_Tables_number   1
_chemical_formula_structural   Lu4ZnB4SbRh10
_chemical_formula_sum   'Lu4 Zn1 B4 Sb1 Rh10'
_cell_volume   288.17591586
_cell_formula_units_Z   1
loop_
 _symmetry_equiv_pos_site_id
 _symmetry_equiv_pos_as_xyz
  1  'x, y, z'
loop_
 _atom_site_type_symbol
 _atom_site_label
 _atom_site_symmetry_multiplicity
 _atom_site_fract_x
 _atom_site_fract_y
 _atom_site_fract_z
 _atom_site_occupancy
  Lu  Lu0  1  0.828604  0.322550  0.000000  1
  Lu  Lu1  1  0.322550  0.171396  0.000000  1
  Lu  Lu2  1  0.677450  0.828604  0.000000  1
  Lu  Lu3  1  0.171396  0.677450  0.000000  1
  Zn  Zn4  1  0.000000  0.000000  0.000000  1
  B  B5  1  0.625391  0.118164  0.000000  1
  B  B6  1  0.118164  0.374609  0.000000  1
  B  B7  1  0.881836  0.625391  0.000000  1
  B  B8  1  0.374609  0.881836  0.000000  1
  Sb  Sb9  1  0.500000  0.500000  0.000000  1
  Rh  Rh10  1  0.071413  0.218755  0.500000  1
  Rh  Rh11  1  0.218755  0.928587  0.500000  1
  Rh  Rh12  1  0.781245  0.071413  0.500000  1
  Rh  Rh13  1  0.928587  0.781245  0.500000  1
  Rh  Rh14  1  0.428101  0.722130  0.500000  1
  Rh  Rh15  1  0.571899  0.277870  0.500000  1
  Rh  Rh16  1  0.722130  0.571899  0.500000  1
  Rh  Rh17  1  0.277870  0.428101  0.500000  1
  Rh  Rh18  1  0.500000  0.000000  0.500000  1
  Rh  Rh19  1  0.000000  0.500000  0.500000  1
