# generated using pymatgen
data_Cs4Er4Bi3(SbSe4)5
_symmetry_space_group_name_H-M   'P 1'
_cell_length_a   4.12861200
_cell_length_b   12.38324834
_cell_length_c   22.96765420
_cell_angle_alpha   90.23364825
_cell_angle_beta   90.00000000
_cell_angle_gamma   90.00000000
_symmetry_Int_Tables_number   1
_chemical_formula_structural   Cs4Er4Bi3(SbSe4)5
_chemical_formula_sum   'Cs4 Er4 Bi3 Sb5 Se20'
_cell_volume   1174.22597453
_cell_formula_units_Z   1
loop_
 _symmetry_equiv_pos_site_id
 _symmetry_equiv_pos_as_xyz
  1  'x, y, z'
loop_
 _atom_site_type_symbol
 _atom_site_label
 _atom_site_symmetry_multiplicity
 _atom_site_fract_x
 _atom_site_fract_y
 _atom_site_fract_z
 _atom_site_occupancy
  Cs  Cs0  1  0.250000  0.492783  0.210130  1
  Cs  Cs1  1  0.750000  0.510260  0.790537  1
  Cs  Cs2  1  0.750000  0.992273  0.290594  1
  Cs  Cs3  1  0.250000  0.009076  0.708462  1
  Er  Er4  1  0.250000  0.366186  0.023127  1
  Er  Er5  1  0.750000  0.634233  0.977402  1
  Er  Er6  1  0.750000  0.863998  0.477455  1
  Er  Er7  1  0.250000  0.133436  0.521788  1
  Bi  Bi8  1  0.750000  0.403535  0.571645  1
  Bi  Bi9  1  0.750000  0.096107  0.072302  1
  Bi  Bi10  1  0.250000  0.904510  0.927782  1
  Sb  Sb11  1  0.250000  0.807912  0.121986  1
  Sb  Sb12  1  0.750000  0.192727  0.878040  1
  Sb  Sb13  1  0.750000  0.310220  0.378699  1
  Sb  Sb14  1  0.250000  0.691810  0.620876  1
  Sb  Sb15  1  0.250000  0.596459  0.428950  1
  Se  Se16  1  0.250000  0.802567  0.394381  1
  Se  Se17  1  0.750000  0.187828  0.605210  1
  Se  Se18  1  0.750000  0.312102  0.106102  1
  Se  Se19  1  0.250000  0.688402  0.894322  1
  Se  Se20  1  0.250000  0.257063  0.305156  1
  Se  Se21  1  0.750000  0.746699  0.694029  1
  Se  Se22  1  0.750000  0.754583  0.195196  1
  Se  Se23  1  0.250000  0.246218  0.805028  1
  Se  Se24  1  0.250000  0.352662  0.480601  1
  Se  Se25  1  0.750000  0.644430  0.517740  1
  Se  Se26  1  0.750000  0.854374  0.019409  1
  Se  Se27  1  0.250000  0.146088  0.980931  1
  Se  Se28  1  0.250000  0.022566  0.154594  1
  Se  Se29  1  0.750000  0.977845  0.845571  1
  Se  Se30  1  0.750000  0.525756  0.348820  1
  Se  Se31  1  0.250000  0.478391  0.654143  1
  Se  Se32  1  0.250000  0.584414  0.057946  1
  Se  Se33  1  0.750000  0.416092  0.942555  1
  Se  Se34  1  0.750000  0.081097  0.441353  1
  Se  Se35  1  0.250000  0.915301  0.557138  1
