# generated using pymatgen
data_Dy6Y2Ho11Lu(Cd3Ru)2
_symmetry_space_group_name_H-M   'P 1'
_cell_length_a   9.56937302
_cell_length_b   9.56942353
_cell_length_c   9.81552201
_cell_angle_alpha   89.99537766
_cell_angle_beta   90.00485589
_cell_angle_gamma   119.99608867
_symmetry_Int_Tables_number   1
_chemical_formula_structural   Dy6Y2Ho11Lu(Cd3Ru)2
_chemical_formula_sum   'Dy6 Y2 Ho11 Lu1 Cd6 Ru2'
_cell_volume   778.44943292
_cell_formula_units_Z   1
loop_
 _symmetry_equiv_pos_site_id
 _symmetry_equiv_pos_as_xyz
  1  'x, y, z'
loop_
 _atom_site_type_symbol
 _atom_site_label
 _atom_site_symmetry_multiplicity
 _atom_site_fract_x
 _atom_site_fract_y
 _atom_site_fract_z
 _atom_site_occupancy
  Dy  Dy0  1  0.209891  0.419681  0.059966  1
  Dy  Dy1  1  0.580321  0.790109  0.059966  1
  Dy  Dy2  1  0.541111  0.458890  0.250312  1
  Dy  Dy3  1  0.541021  0.082077  0.250248  1
  Dy  Dy4  1  0.917926  0.458982  0.250248  1
  Dy  Dy5  1  0.459278  0.540720  0.749614  1
  Y  Y6  1  0.458988  0.918033  0.749699  1
  Y  Y7  1  0.081967  0.541013  0.749703  1
  Ho  Ho8  1  0.000029  0.999971  0.999898  1
  Ho  Ho9  1  0.209298  0.790699  0.439781  1
  Ho  Ho10  1  0.209418  0.418660  0.440029  1
  Ho  Ho11  1  0.581348  0.790584  0.440027  1
  Ho  Ho12  1  0.790560  0.209442  0.559862  1
  Ho  Ho13  1  0.790450  0.581220  0.560007  1
  Ho  Ho14  1  0.418775  0.209549  0.560010  1
  Ho  Ho15  1  0.789920  0.210081  0.940181  1
  Ho  Ho16  1  0.789883  0.579949  0.940082  1
  Ho  Ho17  1  0.420048  0.210117  0.940080  1
  Ho  Ho18  1  0.209753  0.790245  0.060067  1
  Lu  Lu19  1  0.999996  0.000008  0.500044  1
  Cd  Cd20  1  0.886073  0.113926  0.251455  1
  Cd  Cd21  1  0.886084  0.772126  0.251404  1
  Cd  Cd22  1  0.227872  0.113916  0.251403  1
  Cd  Cd23  1  0.113878  0.886123  0.748589  1
  Cd  Cd24  1  0.114102  0.227848  0.748537  1
  Cd  Cd25  1  0.772147  0.885896  0.748534  1
  Ru  Ru26  1  0.333307  0.666704  0.250409  1
  Ru  Ru27  1  0.666556  0.333431  0.749847  1
