# generated using pymatgen
data_TmLu7Tc(B8Os)3
_symmetry_space_group_name_H-M   'P 1'
_cell_length_a   3.60518100
_cell_length_b   9.03882024
_cell_length_c   11.41175004
_cell_angle_alpha   89.95650580
_cell_angle_beta   90.00000000
_cell_angle_gamma   90.00000000
_symmetry_Int_Tables_number   1
_chemical_formula_structural   TmLu7Tc(B8Os)3
_chemical_formula_sum   'Tm1 Lu7 Tc1 B24 Os3'
_cell_volume   371.86983269
_cell_formula_units_Z   1
loop_
 _symmetry_equiv_pos_site_id
 _symmetry_equiv_pos_as_xyz
  1  'x, y, z'
loop_
 _atom_site_type_symbol
 _atom_site_label
 _atom_site_symmetry_multiplicity
 _atom_site_fract_x
 _atom_site_fract_y
 _atom_site_fract_z
 _atom_site_occupancy
  Tm  Tm0  1  0.000000  0.323343  0.413001  1
  Lu  Lu1  1  0.000000  0.678039  0.583166  1
  Lu  Lu2  1  0.000000  0.819151  0.088243  1
  Lu  Lu3  1  0.000000  0.178582  0.914993  1
  Lu  Lu4  1  0.000000  0.942826  0.372706  1
  Lu  Lu5  1  0.000000  0.056570  0.627245  1
  Lu  Lu6  1  0.000000  0.444865  0.127965  1
  Lu  Lu7  1  0.000000  0.556425  0.872573  1
  Tc  Tc8  1  0.000000  0.637930  0.320992  1
  B  B9  1  0.500000  0.552885  0.433789  1
  B  B10  1  0.500000  0.446743  0.566845  1
  B  B11  1  0.500000  0.053414  0.066258  1
  B  B12  1  0.500000  0.946576  0.933898  1
  B  B13  1  0.500000  0.749291  0.420069  1
  B  B14  1  0.500000  0.250854  0.580076  1
  B  B15  1  0.500000  0.249497  0.079690  1
  B  B16  1  0.500000  0.750652  0.920228  1
  B  B17  1  0.500000  0.792384  0.265502  1
  B  B18  1  0.500000  0.207872  0.734543  1
  B  B19  1  0.500000  0.291850  0.233668  1
  B  B20  1  0.500000  0.708302  0.765500  1
  B  B21  1  0.500000  0.631022  0.184704  1
  B  B22  1  0.500000  0.368763  0.815833  1
  B  B23  1  0.500000  0.130811  0.314936  1
  B  B24  1  0.500000  0.869258  0.684400  1
  B  B25  1  0.500000  0.981474  0.212774  1
  B  B26  1  0.500000  0.018445  0.787446  1
  B  B27  1  0.500000  0.481247  0.287035  1
  B  B28  1  0.500000  0.518248  0.713061  1
  B  B29  1  0.500000  0.605060  0.028631  1
  B  B30  1  0.500000  0.394813  0.970822  1
  B  B31  1  0.500000  0.105252  0.470983  1
  B  B32  1  0.500000  0.895655  0.529300  1
  Os  Os33  1  0.000000  0.361910  0.679803  1
  Os  Os34  1  0.000000  0.137398  0.178139  1
  Os  Os35  1  0.000000  0.862588  0.821182  1
