# generated using pymatgen
data_GdTh7(CoSi3)4
_symmetry_space_group_name_H-M   'P 1'
_cell_length_a   8.03361400
_cell_length_b   8.03359932
_cell_length_c   8.47661200
_cell_angle_alpha   90.00000000
_cell_angle_beta   90.00000000
_cell_angle_gamma   120.00025810
_symmetry_Int_Tables_number   1
_chemical_formula_structural   GdTh7(CoSi3)4
_chemical_formula_sum   'Gd1 Th7 Co4 Si12'
_cell_volume   473.77586690
_cell_formula_units_Z   1
loop_
 _symmetry_equiv_pos_site_id
 _symmetry_equiv_pos_as_xyz
  1  'x, y, z'
loop_
 _atom_site_type_symbol
 _atom_site_label
 _atom_site_symmetry_multiplicity
 _atom_site_fract_x
 _atom_site_fract_y
 _atom_site_fract_z
 _atom_site_occupancy
  Gd  Gd0  1  0.000000  0.999999  0.750000  1
  Th  Th1  1  0.500057  0.000114  0.250000  1
  Th  Th2  1  0.499960  0.999920  0.750000  1
  Th  Th3  1  0.999884  0.499945  0.250000  1
  Th  Th4  1  0.000078  0.500039  0.750000  1
  Th  Th5  1  0.500060  0.499946  0.250000  1
  Th  Th6  1  0.499958  0.500035  0.750000  1
  Th  Th7  1  0.000001  0.000001  0.250000  1
  Co  Co8  1  0.333321  0.666658  0.000711  1
  Co  Co9  1  0.666680  0.333342  0.999817  1
  Co  Co10  1  0.666680  0.333342  0.500183  1
  Co  Co11  1  0.333321  0.666658  0.499289  1
  Si  Si12  1  0.170803  0.341587  0.998259  1
  Si  Si13  1  0.829226  0.658469  0.998022  1
  Si  Si14  1  0.658405  0.829205  0.998296  1
  Si  Si15  1  0.829226  0.658469  0.501978  1
  Si  Si16  1  0.341540  0.170768  0.998050  1
  Si  Si17  1  0.170803  0.341587  0.501741  1
  Si  Si18  1  0.170805  0.829215  0.998267  1
  Si  Si19  1  0.341540  0.170768  0.501950  1
  Si  Si20  1  0.829222  0.170756  0.998028  1
  Si  Si21  1  0.658405  0.829205  0.501704  1
  Si  Si22  1  0.829222  0.170756  0.501972  1
  Si  Si23  1  0.170805  0.829215  0.501733  1
