# generated using pymatgen
data_TbHo11(TmRh3)2
_symmetry_space_group_name_H-M   'P 1'
_cell_length_a   9.74600216
_cell_length_b   9.74600209
_cell_length_c   6.16097300
_cell_angle_alpha   89.99729723
_cell_angle_beta   90.00270048
_cell_angle_gamma   119.97923871
_symmetry_Int_Tables_number   1
_chemical_formula_structural   TbHo11(TmRh3)2
_chemical_formula_sum   'Tb1 Ho11 Tm2 Rh6'
_cell_volume   506.90171271
_cell_formula_units_Z   1
loop_
 _symmetry_equiv_pos_site_id
 _symmetry_equiv_pos_as_xyz
  1  'x, y, z'
loop_
 _atom_site_type_symbol
 _atom_site_label
 _atom_site_symmetry_multiplicity
 _atom_site_fract_x
 _atom_site_fract_y
 _atom_site_fract_z
 _atom_site_occupancy
  Tb  Tb0  1  0.123736  0.876264  0.253170  1
  Ho  Ho1  1  0.752135  0.876211  0.253674  1
  Ho  Ho2  1  0.123789  0.247865  0.253674  1
  Ho  Ho3  1  0.876211  0.123789  0.753657  1
  Ho  Ho4  1  0.247716  0.124032  0.753671  1
  Ho  Ho5  1  0.875968  0.752284  0.753671  1
  Ho  Ho6  1  0.540810  0.459190  0.447802  1
  Ho  Ho7  1  0.918303  0.459004  0.447573  1
  Ho  Ho8  1  0.540996  0.081697  0.447573  1
  Ho  Ho9  1  0.459215  0.540785  0.947627  1
  Ho  Ho10  1  0.081626  0.540638  0.947439  1
  Ho  Ho11  1  0.459362  0.918374  0.947439  1
  Tm  Tm12  1  0.333408  0.666592  0.456708  1
  Tm  Tm13  1  0.666673  0.333327  0.956642  1
  Rh  Rh14  1  0.809491  0.190509  0.180466  1
  Rh  Rh15  1  0.381390  0.191012  0.180412  1
  Rh  Rh16  1  0.808988  0.618610  0.180412  1
  Rh  Rh17  1  0.190638  0.809362  0.681019  1
  Rh  Rh18  1  0.619017  0.809473  0.680458  1
  Rh  Rh19  1  0.190527  0.380983  0.680458  1
