# generated using pymatgen
data_Ta6Tc5B6Rh
_symmetry_space_group_name_H-M   'P 1'
_cell_length_a   3.16818400
_cell_length_b   9.06393099
_cell_length_c   15.68991490
_cell_angle_alpha   89.63220558
_cell_angle_beta   90.00000000
_cell_angle_gamma   90.00000000
_symmetry_Int_Tables_number   1
_chemical_formula_structural   Ta6Tc5B6Rh
_chemical_formula_sum   'Ta12 Tc10 B12 Rh2'
_cell_volume   450.54546955
_cell_formula_units_Z   2
loop_
 _symmetry_equiv_pos_site_id
 _symmetry_equiv_pos_as_xyz
  1  'x, y, z'
loop_
 _atom_site_type_symbol
 _atom_site_label
 _atom_site_symmetry_multiplicity
 _atom_site_fract_x
 _atom_site_fract_y
 _atom_site_fract_z
 _atom_site_occupancy
  Ta  Ta0  1  0.000000  0.804266  0.494239  1
  Ta  Ta1  1  0.000000  0.195734  0.505761  1
  Ta  Ta2  1  0.000000  0.304493  0.007412  1
  Ta  Ta3  1  0.000000  0.695507  0.992588  1
  Ta  Ta4  1  0.000000  0.515341  0.595586  1
  Ta  Ta5  1  0.000000  0.484659  0.404414  1
  Ta  Ta6  1  0.000000  0.016095  0.905331  1
  Ta  Ta7  1  0.000000  0.983905  0.094669  1
  Ta  Ta8  1  0.000000  0.676494  0.206346  1
  Ta  Ta9  1  0.000000  0.323506  0.793654  1
  Ta  Ta10  1  0.000000  0.186443  0.295599  1
  Ta  Ta11  1  0.000000  0.813557  0.704401  1
  Tc  Tc12  1  0.500000  0.719521  0.357150  1
  Tc  Tc13  1  0.500000  0.280479  0.642850  1
  Tc  Tc14  1  0.500000  0.214715  0.142947  1
  Tc  Tc15  1  0.500000  0.785285  0.857053  1
  Tc  Tc16  1  0.500000  0.518745  0.095104  1
  Tc  Tc17  1  0.500000  0.481255  0.904896  1
  Tc  Tc18  1  0.500000  0.018477  0.403394  1
  Tc  Tc19  1  0.500000  0.981523  0.596606  1
  Tc  Tc20  1  0.500000  0.568406  0.732231  1
  Tc  Tc21  1  0.500000  0.431594  0.267769  1
  B  B22  1  0.500000  0.605201  0.494154  1
  B  B23  1  0.500000  0.394799  0.505846  1
  B  B24  1  0.500000  0.104447  0.004478  1
  B  B25  1  0.500000  0.895553  0.995522  1
  B  B26  1  0.000000  0.610323  0.832814  1
  B  B27  1  0.000000  0.389677  0.167186  1
  B  B28  1  0.000000  0.111994  0.663175  1
  B  B29  1  0.000000  0.888006  0.336825  1
  B  B30  1  0.500000  0.716124  0.601806  1
  B  B31  1  0.500000  0.283876  0.398194  1
  B  B32  1  0.500000  0.218192  0.899903  1
  B  B33  1  0.500000  0.781808  0.100097  1
  Rh  Rh34  1  0.500000  0.068512  0.767245  1
  Rh  Rh35  1  0.500000  0.931488  0.232755  1
