# generated using pymatgen
data_Ca2Tb2AlNi13
_symmetry_space_group_name_H-M   'P 1'
_cell_length_a   4.98544235
_cell_length_b   4.93515469
_cell_length_c   12.51884117
_cell_angle_alpha   78.56677195
_cell_angle_beta   78.51463978
_cell_angle_gamma   59.66235273
_symmetry_Int_Tables_number   1
_chemical_formula_structural   Ca2Tb2AlNi13
_chemical_formula_sum   'Ca2 Tb2 Al1 Ni13'
_cell_volume   258.76922039
_cell_formula_units_Z   1
loop_
 _symmetry_equiv_pos_site_id
 _symmetry_equiv_pos_as_xyz
  1  'x, y, z'
loop_
 _atom_site_type_symbol
 _atom_site_label
 _atom_site_symmetry_multiplicity
 _atom_site_fract_x
 _atom_site_fract_y
 _atom_site_fract_z
 _atom_site_occupancy
  Ca  Ca0  1  0.850381  0.850666  0.448574  1
  Ca  Ca1  1  0.149619  0.149334  0.551426  1
  Tb  Tb2  1  0.944550  0.944307  0.166594  1
  Tb  Tb3  1  0.055450  0.055693  0.833406  1
  Al  Al4  1  0.500000  0.000000  0.000000  1
  Ni  Ni5  1  0.500000  0.500000  0.500000  1
  Ni  Ni6  1  0.722478  0.719786  0.835256  1
  Ni  Ni7  1  0.277522  0.280214  0.164744  1
  Ni  Ni8  1  0.612577  0.611362  0.163482  1
  Ni  Ni9  1  0.387423  0.388638  0.836518  1
  Ni  Ni10  1  0.000000  0.500000  0.000000  1
  Ni  Ni11  1  0.500000  0.500000  0.000000  1
  Ni  Ni12  1  0.392554  0.391536  0.326714  1
  Ni  Ni13  1  0.889196  0.391536  0.326714  1
  Ni  Ni14  1  0.391526  0.890207  0.326741  1
  Ni  Ni15  1  0.607446  0.608464  0.673286  1
  Ni  Ni16  1  0.110804  0.608464  0.673286  1
  Ni  Ni17  1  0.608474  0.109793  0.673259  1
