# generated using pymatgen
data_GdNp6BiF30
_symmetry_space_group_name_H-M   'P 1'
_cell_length_a   8.64890992
_cell_length_b   8.64890973
_cell_length_c   8.67835000
_cell_angle_alpha   79.47244000
_cell_angle_beta   79.47244022
_cell_angle_gamma   100.03095708
_symmetry_Int_Tables_number   1
_chemical_formula_structural   GdNp6BiF30
_chemical_formula_sum   'Gd1 Np6 Bi1 F30'
_cell_volume   612.86370770
_cell_formula_units_Z   1
loop_
 _symmetry_equiv_pos_site_id
 _symmetry_equiv_pos_as_xyz
  1  'x, y, z'
loop_
 _atom_site_type_symbol
 _atom_site_label
 _atom_site_symmetry_multiplicity
 _atom_site_fract_x
 _atom_site_fract_y
 _atom_site_fract_z
 _atom_site_occupancy
  Gd  Gd0  1  0.177466  0.822534  0.250000  1
  Np  Np1  1  0.749370  0.250630  0.250000  1
  Np  Np2  1  0.250368  0.749632  0.750000  1
  Np  Np3  1  0.754398  0.677696  0.676902  1
  Np  Np4  1  0.322304  0.245602  0.823098  1
  Np  Np5  1  0.246309  0.322450  0.322162  1
  Np  Np6  1  0.677550  0.753691  0.177838  1
  Bi  Bi7  1  0.822111  0.177889  0.750000  1
  F  F8  1  0.467317  0.532683  0.250000  1
  F  F9  1  0.754798  0.962109  0.972065  1
  F  F10  1  0.037891  0.245202  0.527935  1
  F  F11  1  0.245469  0.035912  0.029468  1
  F  F12  1  0.964088  0.754531  0.470532  1
  F  F13  1  0.534404  0.465596  0.750000  1
  F  F14  1  0.220509  0.490116  0.779643  1
  F  F15  1  0.222713  0.718850  0.006644  1
  F  F16  1  0.987493  0.721239  0.784898  1
  F  F17  1  0.720858  0.987311  0.285509  1
  F  F18  1  0.715577  0.224577  0.506412  1
  F  F19  1  0.489555  0.220307  0.279681  1
  F  F20  1  0.779694  0.510445  0.220319  1
  F  F21  1  0.775423  0.284423  0.993588  1
  F  F22  1  0.012689  0.279142  0.214491  1
  F  F23  1  0.278761  0.012507  0.715102  1
  F  F24  1  0.281150  0.777287  0.493356  1
  F  F25  1  0.509884  0.779491  0.720357  1
  F  F26  1  0.542718  0.151396  0.824381  1
  F  F27  1  0.186858  0.058687  0.340040  1
  F  F28  1  0.656717  0.675709  0.449501  1
  F  F29  1  0.676674  0.656166  0.949493  1
  F  F30  1  0.058056  0.186362  0.845104  1
  F  F31  1  0.156386  0.547236  0.319737  1
  F  F32  1  0.452764  0.843614  0.180263  1
  F  F33  1  0.813638  0.941944  0.654896  1
  F  F34  1  0.343834  0.323326  0.550507  1
  F  F35  1  0.324291  0.343283  0.050499  1
  F  F36  1  0.941313  0.813142  0.159960  1
  F  F37  1  0.848604  0.457282  0.675619  1
