# generated using pymatgen
data_K4HfZr5FeI18
_symmetry_space_group_name_H-M   'P 1'
_cell_length_a   11.32510310
_cell_length_b   11.45123287
_cell_length_c   11.56970665
_cell_angle_alpha   118.60664264
_cell_angle_beta   100.12393273
_cell_angle_gamma   103.60042805
_symmetry_Int_Tables_number   1
_chemical_formula_structural   K4HfZr5FeI18
_chemical_formula_sum   'K4 Hf1 Zr5 Fe1 I18'
_cell_volume   1205.01024848
_cell_formula_units_Z   1
loop_
 _symmetry_equiv_pos_site_id
 _symmetry_equiv_pos_as_xyz
  1  'x, y, z'
loop_
 _atom_site_type_symbol
 _atom_site_label
 _atom_site_symmetry_multiplicity
 _atom_site_fract_x
 _atom_site_fract_y
 _atom_site_fract_z
 _atom_site_occupancy
  K  K0  1  0.647045  0.536586  0.225172  1
  K  K1  1  0.352497  0.462880  0.774769  1
  K  K2  1  0.680815  0.223275  0.562560  1
  K  K3  1  0.319174  0.775891  0.437186  1
  Hf  Hf4  1  0.860198  0.770465  0.956716  1
  Zr  Zr5  1  0.145933  0.053694  0.223523  1
  Zr  Zr6  1  0.853974  0.946110  0.776477  1
  Zr  Zr7  1  0.866462  0.124174  0.130143  1
  Zr  Zr8  1  0.133516  0.875832  0.869916  1
  Zr  Zr9  1  0.142153  0.233571  0.044041  1
  Fe  Fe10  1  0.000915  0.001310  0.000242  1
  I  I11  1  0.008175  0.412358  0.198530  1
  I  I12  1  0.989222  0.588502  0.803152  1
  I  I13  1  0.329746  0.333750  0.312706  1
  I  I14  1  0.671453  0.666026  0.690322  1
  I  I15  1  0.323584  0.524184  0.099849  1
  I  I16  1  0.680136  0.480923  0.901121  1
  I  I17  1  0.001946  0.792770  0.207105  1
  I  I18  1  0.994996  0.205307  0.789368  1
  I  I19  1  0.701900  0.278730  0.291493  1
  I  I20  1  0.296871  0.719396  0.708123  1
  I  I21  1  0.316939  0.125752  0.901091  1
  I  I22  1  0.684145  0.871542  0.096839  1
  I  I23  1  0.015221  0.205487  0.410385  1
  I  I24  1  0.984321  0.793845  0.589444  1
  I  I25  1  0.321417  0.920675  0.109150  1
  I  I26  1  0.678171  0.078694  0.890708  1
  I  I27  1  0.334201  0.120178  0.504421  1
  I  I28  1  0.664876  0.878093  0.495447  1
