# generated using pymatgen
data_Ho4Os7W
_symmetry_space_group_name_H-M   'P 1'
_cell_length_a   5.29899561
_cell_length_b   5.29899560
_cell_length_c   8.86458800
_cell_angle_alpha   90.00000000
_cell_angle_beta   90.00000000
_cell_angle_gamma   118.05205973
_symmetry_Int_Tables_number   1
_chemical_formula_structural   Ho4Os7W
_chemical_formula_sum   'Ho4 Os7 W1'
_cell_volume   219.66990138
_cell_formula_units_Z   1
loop_
 _symmetry_equiv_pos_site_id
 _symmetry_equiv_pos_as_xyz
  1  'x, y, z'
loop_
 _atom_site_type_symbol
 _atom_site_label
 _atom_site_symmetry_multiplicity
 _atom_site_fract_x
 _atom_site_fract_y
 _atom_site_fract_z
 _atom_site_occupancy
  Ho  Ho0  1  0.329331  0.670669  0.437667  1
  Ho  Ho1  1  0.666875  0.333125  0.566476  1
  Ho  Ho2  1  0.666875  0.333125  0.933524  1
  Ho  Ho3  1  0.329331  0.670669  0.062333  1
  Os  Os4  1  0.992702  0.007298  0.502492  1
  Os  Os5  1  0.992702  0.007298  0.997508  1
  Os  Os6  1  0.825970  0.650136  0.250000  1
  Os  Os7  1  0.349864  0.174030  0.250000  1
  Os  Os8  1  0.176886  0.823114  0.750000  1
  Os  Os9  1  0.173513  0.339947  0.750000  1
  Os  Os10  1  0.660053  0.826487  0.750000  1
  W  W11  1  0.835898  0.164102  0.250000  1
