# generated using pymatgen
data_Pr20IrRh11
_symmetry_space_group_name_H-M   'P 1'
_cell_length_a   11.34018956
_cell_length_b   11.34018956
_cell_length_c   6.65333567
_cell_angle_alpha   90.05733125
_cell_angle_beta   90.05733125
_cell_angle_gamma   89.98157458
_symmetry_Int_Tables_number   1
_chemical_formula_structural   Pr20IrRh11
_chemical_formula_sum   'Pr20 Ir1 Rh11'
_cell_volume   855.61739643
_cell_formula_units_Z   1
loop_
 _symmetry_equiv_pos_site_id
 _symmetry_equiv_pos_as_xyz
  1  'x, y, z'
loop_
 _atom_site_type_symbol
 _atom_site_label
 _atom_site_symmetry_multiplicity
 _atom_site_fract_x
 _atom_site_fract_y
 _atom_site_fract_z
 _atom_site_occupancy
  Pr  Pr0  1  0.291732  0.090752  0.382925  1
  Pr  Pr1  1  0.292153  0.907328  0.883211  1
  Pr  Pr2  1  0.708141  0.090549  0.882702  1
  Pr  Pr3  1  0.707706  0.908972  0.382595  1
  Pr  Pr4  1  0.589031  0.790845  0.882545  1
  Pr  Pr5  1  0.591054  0.208388  0.383393  1
  Pr  Pr6  1  0.408301  0.791015  0.384506  1
  Pr  Pr7  1  0.408895  0.207891  0.882728  1
  Pr  Pr8  1  0.209155  0.410969  0.617455  1
  Pr  Pr9  1  0.208985  0.591699  0.115494  1
  Pr  Pr10  1  0.791612  0.408946  0.116607  1
  Pr  Pr11  1  0.792109  0.591105  0.617272  1
  Pr  Pr12  1  0.909248  0.708268  0.117075  1
  Pr  Pr13  1  0.909451  0.291859  0.617298  1
  Pr  Pr14  1  0.092672  0.707847  0.616789  1
  Pr  Pr15  1  0.091028  0.292294  0.117405  1
  Pr  Pr16  1  0.999758  0.999726  0.500302  1
  Pr  Pr17  1  0.000274  0.000242  0.999698  1
  Pr  Pr18  1  0.499735  0.499643  0.000719  1
  Pr  Pr19  1  0.500357  0.500265  0.499281  1
  Ir  Ir20  1  0.346257  0.653743  0.750000  1
  Rh  Rh21  1  0.846025  0.153975  0.250000  1
  Rh  Rh22  1  0.845687  0.846214  0.750159  1
  Rh  Rh23  1  0.153786  0.154313  0.749841  1
  Rh  Rh24  1  0.153330  0.846670  0.250000  1
  Rh  Rh25  1  0.653832  0.346168  0.750000  1
  Rh  Rh26  1  0.654973  0.654595  0.250394  1
  Rh  Rh27  1  0.345405  0.345027  0.249606  1
  Rh  Rh28  1  0.500362  0.000398  0.119148  1
  Rh  Rh29  1  0.500418  0.001074  0.618473  1
  Rh  Rh30  1  0.998926  0.499582  0.881527  1
  Rh  Rh31  1  0.999602  0.499638  0.380852  1
