# generated using pymatgen
data_Y4ScSi12Ir19
_symmetry_space_group_name_H-M   'P 1'
_cell_length_a   12.82092997
_cell_length_b   12.82093014
_cell_length_c   3.98030300
_cell_angle_alpha   90.00000000
_cell_angle_beta   90.00000000
_cell_angle_gamma   119.92200051
_symmetry_Int_Tables_number   1
_chemical_formula_structural   Y4ScSi12Ir19
_chemical_formula_sum   'Y4 Sc1 Si12 Ir19'
_cell_volume   567.05689494
_cell_formula_units_Z   1
loop_
 _symmetry_equiv_pos_site_id
 _symmetry_equiv_pos_as_xyz
  1  'x, y, z'
loop_
 _atom_site_type_symbol
 _atom_site_label
 _atom_site_symmetry_multiplicity
 _atom_site_fract_x
 _atom_site_fract_y
 _atom_site_fract_z
 _atom_site_occupancy
  Y  Y0  1  0.332751  0.666486  0.000000  1
  Y  Y1  1  0.666486  0.332751  0.000000  1
  Y  Y2  1  0.815411  0.000167  0.500000  1
  Y  Y3  1  0.000167  0.815411  0.500000  1
  Sc  Sc4  1  0.185575  0.185575  0.500000  1
  Si  Si5  1  0.181831  0.002871  0.000000  1
  Si  Si6  1  0.002871  0.181831  0.000000  1
  Si  Si7  1  0.819355  0.819355  0.000000  1
  Si  Si8  1  0.168758  0.480588  0.500000  1
  Si  Si9  1  0.518564  0.687122  0.500000  1
  Si  Si10  1  0.311769  0.832201  0.500000  1
  Si  Si11  1  0.687122  0.518564  0.500000  1
  Si  Si12  1  0.832201  0.311769  0.500000  1
  Si  Si13  1  0.480588  0.168758  0.500000  1
  Si  Si14  1  0.631953  0.999946  0.000000  1
  Si  Si15  1  0.999946  0.631953  0.000000  1
  Si  Si16  1  0.366066  0.366066  0.000000  1
  Ir  Ir17  1  0.447135  0.000778  0.000000  1
  Ir  Ir18  1  0.000778  0.447135  0.000000  1
  Ir  Ir19  1  0.552036  0.552036  0.000000  1
  Ir  Ir20  1  0.360830  0.486768  0.500000  1
  Ir  Ir21  1  0.511688  0.873524  0.500000  1
  Ir  Ir22  1  0.126132  0.638724  0.500000  1
  Ir  Ir23  1  0.873524  0.511688  0.500000  1
  Ir  Ir24  1  0.638724  0.126132  0.500000  1
  Ir  Ir25  1  0.486768  0.360830  0.500000  1
  Ir  Ir26  1  0.182955  0.374871  0.000000  1
  Ir  Ir27  1  0.623106  0.805526  0.000000  1
  Ir  Ir28  1  0.194031  0.818451  0.000000  1
  Ir  Ir29  1  0.805526  0.623106  0.000000  1
  Ir  Ir30  1  0.818451  0.194031  0.000000  1
  Ir  Ir31  1  0.374871  0.182955  0.000000  1
  Ir  Ir32  1  0.282136  0.001458  0.500000  1
  Ir  Ir33  1  0.001458  0.282136  0.500000  1
  Ir  Ir34  1  0.716948  0.716948  0.500000  1
  Ir  Ir35  1  0.001489  0.001489  0.000000  1
