# generated using pymatgen
data_Ho16GaHg5Pt2
_symmetry_space_group_name_H-M   'P 1'
_cell_length_a   10.19770800
_cell_length_b   10.20955640
_cell_length_c   7.15477600
_cell_angle_alpha   90.10529194
_cell_angle_beta   90.00000000
_cell_angle_gamma   119.96161770
_symmetry_Int_Tables_number   1
_chemical_formula_structural   Ho16GaHg5Pt2
_chemical_formula_sum   'Ho16 Ga1 Hg5 Pt2'
_cell_volume   645.36139302
_cell_formula_units_Z   1
loop_
 _symmetry_equiv_pos_site_id
 _symmetry_equiv_pos_as_xyz
  1  'x, y, z'
loop_
 _atom_site_type_symbol
 _atom_site_label
 _atom_site_symmetry_multiplicity
 _atom_site_fract_x
 _atom_site_fract_y
 _atom_site_fract_z
 _atom_site_occupancy
  Ho  Ho0  1  0.169567  0.827923  0.513793  1
  Ho  Ho1  1  0.658356  0.827923  0.513793  1
  Ho  Ho2  1  0.170019  0.340036  0.513706  1
  Ho  Ho3  1  0.831444  0.172282  0.014914  1
  Ho  Ho4  1  0.340838  0.172282  0.014914  1
  Ho  Ho5  1  0.828890  0.657779  0.016434  1
  Ho  Ho6  1  0.332791  0.665584  0.831958  1
  Ho  Ho7  1  0.668413  0.336825  0.335194  1
  Ho  Ho8  1  0.466597  0.535924  0.206352  1
  Ho  Ho9  1  0.069326  0.535924  0.206352  1
  Ho  Ho10  1  0.465391  0.930782  0.206375  1
  Ho  Ho11  1  0.537683  0.466509  0.705131  1
  Ho  Ho12  1  0.928828  0.466509  0.705131  1
  Ho  Ho13  1  0.535924  0.071846  0.706801  1
  Ho  Ho14  1  0.995844  0.991686  0.234676  1
  Ho  Ho15  1  0.997053  0.994106  0.732541  1
  Ga  Ga16  1  0.836409  0.672818  0.456019  1
  Hg  Hg17  1  0.165687  0.833905  0.953879  1
  Hg  Hg18  1  0.668218  0.833905  0.953879  1
  Hg  Hg19  1  0.166661  0.333323  0.952482  1
  Hg  Hg20  1  0.832326  0.165450  0.453824  1
  Hg  Hg21  1  0.333123  0.165450  0.453824  1
  Pt  Pt22  1  0.333233  0.666467  0.445454  1
  Pt  Pt23  1  0.667382  0.334764  0.947411  1
