# generated using pymatgen
data_Ba2ScUSe6
_symmetry_space_group_name_H-M   'P 1'
_cell_length_a   7.39656006
_cell_length_b   7.65401102
_cell_length_c   12.94265884
_cell_angle_alpha   89.99634305
_cell_angle_beta   124.75762313
_cell_angle_gamma   89.99675071
_symmetry_Int_Tables_number   1
_chemical_formula_structural   Ba2ScUSe6
_chemical_formula_sum   'Ba4 Sc2 U2 Se12'
_cell_volume   601.98756640
_cell_formula_units_Z   2
loop_
 _symmetry_equiv_pos_site_id
 _symmetry_equiv_pos_as_xyz
  1  'x, y, z'
loop_
 _atom_site_type_symbol
 _atom_site_label
 _atom_site_symmetry_multiplicity
 _atom_site_fract_x
 _atom_site_fract_y
 _atom_site_fract_z
 _atom_site_occupancy
  Ba  Ba0  1  0.764464  0.936532  0.248634  1
  Ba  Ba1  1  0.235467  0.436521  0.251341  1
  Ba  Ba2  1  0.764533  0.563480  0.748659  1
  Ba  Ba3  1  0.235536  0.063468  0.751366  1
  Sc  Sc4  1  0.500000  0.500001  0.000000  1
  Sc  Sc5  1  0.500000  0.000000  0.500000  1
  U  U6  1  0.000000  0.000000  0.000000  1
  U  U7  1  0.000000  0.500001  0.500000  1
  Se  Se8  1  0.832718  0.703874  0.038623  1
  Se  Se9  1  0.741196  0.208218  0.038324  1
  Se  Se10  1  0.325304  0.009502  0.251644  1
  Se  Se11  1  0.674769  0.509468  0.248442  1
  Se  Se12  1  0.258754  0.708202  0.461703  1
  Se  Se13  1  0.167287  0.203984  0.461401  1
  Se  Se14  1  0.832714  0.796015  0.538599  1
  Se  Se15  1  0.741246  0.291798  0.538298  1
  Se  Se16  1  0.325231  0.490532  0.751558  1
  Se  Se17  1  0.674696  0.990498  0.748355  1
  Se  Se18  1  0.258803  0.791782  0.961676  1
  Se  Se19  1  0.167281  0.296127  0.961377  1
