# generated using pymatgen
data_K7Nb(SeO4)6
_symmetry_space_group_name_H-M   'P 1'
_cell_length_a   9.76825632
_cell_length_b   9.76825659
_cell_length_c   9.76825711
_cell_angle_alpha   109.38904609
_cell_angle_beta   109.38905688
_cell_angle_gamma   109.38905732
_symmetry_Int_Tables_number   1
_chemical_formula_structural   K7Nb(SeO4)6
_chemical_formula_sum   'K7 Nb1 Se6 O24'
_cell_volume   719.68672424
_cell_formula_units_Z   1
loop_
 _symmetry_equiv_pos_site_id
 _symmetry_equiv_pos_as_xyz
  1  'x, y, z'
loop_
 _atom_site_type_symbol
 _atom_site_label
 _atom_site_symmetry_multiplicity
 _atom_site_fract_x
 _atom_site_fract_y
 _atom_site_fract_z
 _atom_site_occupancy
  K  K0  1  0.318313  0.659826  0.161802  1
  K  K1  1  0.659827  0.161802  0.318313  1
  K  K2  1  0.838197  0.681687  0.340174  1
  K  K3  1  0.500000  0.500000  0.500000  1
  K  K4  1  0.161803  0.318313  0.659826  1
  K  K5  1  0.340173  0.838198  0.681687  1
  K  K6  1  0.681687  0.340174  0.838197  1
  Nb  Nb7  1  0.000000  0.000000  0.000000  1
  Se  Se8  1  0.383939  0.257227  0.030942  1
  Se  Se9  1  0.030943  0.383939  0.257228  1
  Se  Se10  1  0.257228  0.030943  0.383939  1
  Se  Se11  1  0.742772  0.969057  0.616061  1
  Se  Se12  1  0.969057  0.616061  0.742772  1
  Se  Se13  1  0.616061  0.742773  0.969058  1
  O  O14  1  0.697248  0.633582  0.025173  1
  O  O15  1  0.228983  0.095165  0.025223  1
  O  O16  1  0.563834  0.838642  0.099795  1
  O  O17  1  0.025224  0.228983  0.095164  1
  O  O18  1  0.900205  0.436166  0.161358  1
  O  O19  1  0.538129  0.367455  0.228338  1
  O  O20  1  0.095165  0.025224  0.228982  1
  O  O21  1  0.366418  0.974827  0.302752  1
  O  O22  1  0.974827  0.302751  0.366418  1
  O  O23  1  0.228338  0.538128  0.367455  1
  O  O24  1  0.161358  0.900205  0.436166  1
  O  O25  1  0.632545  0.771662  0.461871  1
  O  O26  1  0.367455  0.228338  0.538129  1
  O  O27  1  0.838642  0.099795  0.563834  1
  O  O28  1  0.771662  0.461872  0.632545  1
  O  O29  1  0.025173  0.697249  0.633582  1
  O  O30  1  0.633583  0.025173  0.697248  1
  O  O31  1  0.904835  0.974776  0.771018  1
  O  O32  1  0.461872  0.632545  0.771662  1
  O  O33  1  0.099795  0.563834  0.838642  1
  O  O34  1  0.974776  0.771017  0.904836  1
  O  O35  1  0.436167  0.161358  0.900205  1
  O  O36  1  0.771017  0.904835  0.974777  1
  O  O37  1  0.302752  0.366418  0.974827  1
