# generated using pymatgen
data_ErHf(Si7Ir3)2
_symmetry_space_group_name_H-M   'P 1'
_cell_length_a   7.99628908
_cell_length_b   7.99628916
_cell_length_c   7.99628850
_cell_angle_alpha   56.66567064
_cell_angle_beta   56.66566708
_cell_angle_gamma   56.66566958
_symmetry_Int_Tables_number   1
_chemical_formula_structural   ErHf(Si7Ir3)2
_chemical_formula_sum   'Er1 Hf1 Si14 Ir6'
_cell_volume   333.69418172
_cell_formula_units_Z   1
loop_
 _symmetry_equiv_pos_site_id
 _symmetry_equiv_pos_as_xyz
  1  'x, y, z'
loop_
 _atom_site_type_symbol
 _atom_site_label
 _atom_site_symmetry_multiplicity
 _atom_site_fract_x
 _atom_site_fract_y
 _atom_site_fract_z
 _atom_site_occupancy
  Er  Er0  1  0.000000  0.000000  0.000000  1
  Hf  Hf1  1  0.500000  0.500000  0.500000  1
  Si  Si2  1  0.750487  0.750487  0.750487  1
  Si  Si3  1  0.249513  0.249513  0.249513  1
  Si  Si4  1  0.850544  0.067167  0.670797  1
  Si  Si5  1  0.670797  0.850544  0.067167  1
  Si  Si6  1  0.067167  0.670797  0.850544  1
  Si  Si7  1  0.648060  0.825402  0.437281  1
  Si  Si8  1  0.437281  0.648060  0.825402  1
  Si  Si9  1  0.825402  0.437281  0.648060  1
  Si  Si10  1  0.174598  0.562719  0.351940  1
  Si  Si11  1  0.562719  0.351940  0.174598  1
  Si  Si12  1  0.351940  0.174598  0.562719  1
  Si  Si13  1  0.932833  0.329203  0.149456  1
  Si  Si14  1  0.329203  0.149456  0.932833  1
  Si  Si15  1  0.149456  0.932833  0.329203  1
  Ir  Ir16  1  0.073123  0.429665  0.747981  1
  Ir  Ir17  1  0.252019  0.926877  0.570335  1
  Ir  Ir18  1  0.570335  0.252019  0.926877  1
  Ir  Ir19  1  0.926877  0.570335  0.252019  1
  Ir  Ir20  1  0.429665  0.747981  0.073123  1
  Ir  Ir21  1  0.747981  0.073123  0.429665  1
