# generated using pymatgen
data_Hf3ScSi4Mo3W
_symmetry_space_group_name_H-M   'P 1'
_cell_length_a   3.50514500
_cell_length_b   6.97831173
_cell_length_c   8.22666987
_cell_angle_alpha   90.22333840
_cell_angle_beta   90.00000000
_cell_angle_gamma   90.00000000
_symmetry_Int_Tables_number   1
_chemical_formula_structural   Hf3ScSi4Mo3W
_chemical_formula_sum   'Hf3 Sc1 Si4 Mo3 W1'
_cell_volume   201.22277078
_cell_formula_units_Z   1
loop_
 _symmetry_equiv_pos_site_id
 _symmetry_equiv_pos_as_xyz
  1  'x, y, z'
loop_
 _atom_site_type_symbol
 _atom_site_label
 _atom_site_symmetry_multiplicity
 _atom_site_fract_x
 _atom_site_fract_y
 _atom_site_fract_z
 _atom_site_occupancy
  Hf  Hf0  1  0.750000  0.956546  0.667908  1
  Hf  Hf1  1  0.250000  0.543622  0.165834  1
  Hf  Hf2  1  0.750000  0.456285  0.833216  1
  Sc  Sc3  1  0.250000  0.042825  0.333793  1
  Si  Si4  1  0.250000  0.257811  0.636435  1
  Si  Si5  1  0.750000  0.742773  0.361785  1
  Si  Si6  1  0.250000  0.757067  0.863695  1
  Si  Si7  1  0.750000  0.241165  0.137969  1
  Mo  Mo8  1  0.750000  0.368883  0.438391  1
  Mo  Mo9  1  0.750000  0.866021  0.062200  1
  Mo  Mo10  1  0.250000  0.134176  0.935985  1
  W  W11  1  0.250000  0.632827  0.562789  1
