# generated using pymatgen
data_Ta7Rh
_symmetry_space_group_name_H-M   'P 1'
_cell_length_a   3.30839702
_cell_length_b   6.54654344
_cell_length_c   7.32348123
_cell_angle_alpha   90.03087829
_cell_angle_beta   116.78068107
_cell_angle_gamma   90.00192635
_symmetry_Int_Tables_number   1
_chemical_formula_structural   Ta7Rh
_chemical_formula_sum   'Ta7 Rh1'
_cell_volume   141.60255376
_cell_formula_units_Z   1
loop_
 _symmetry_equiv_pos_site_id
 _symmetry_equiv_pos_as_xyz
  1  'x, y, z'
loop_
 _atom_site_type_symbol
 _atom_site_label
 _atom_site_symmetry_multiplicity
 _atom_site_fract_x
 _atom_site_fract_y
 _atom_site_fract_z
 _atom_site_occupancy
  Ta  Ta0  1  0.538153  0.069726  0.470543  1
  Ta  Ta1  1  0.033619  0.564533  0.965599  1
  Ta  Ta2  1  0.786524  0.317544  0.218854  1
  Ta  Ta3  1  0.786004  0.817172  0.217770  1
  Ta  Ta4  1  0.538333  0.565378  0.470500  1
  Ta  Ta5  1  0.286049  0.817667  0.718233  1
  Ta  Ta6  1  0.034301  0.070068  0.966588  1
  Rh  Rh7  1  0.285002  0.317028  0.718741  1
