# generated using pymatgen
data_Nb2OsSe6
_symmetry_space_group_name_H-M   'P 1'
_cell_length_a   5.86864388
_cell_length_b   5.86864352
_cell_length_c   7.85188050
_cell_angle_alpha   82.84888810
_cell_angle_beta   82.84887919
_cell_angle_gamma   119.99542500
_symmetry_Int_Tables_number   1
_chemical_formula_structural   Nb2OsSe6
_chemical_formula_sum   'Nb2 Os1 Se6'
_cell_volume   226.83290198
_cell_formula_units_Z   1
loop_
 _symmetry_equiv_pos_site_id
 _symmetry_equiv_pos_as_xyz
  1  'x, y, z'
loop_
 _atom_site_type_symbol
 _atom_site_label
 _atom_site_symmetry_multiplicity
 _atom_site_fract_x
 _atom_site_fract_y
 _atom_site_fract_z
 _atom_site_occupancy
  Nb  Nb0  1  0.833333  0.500003  0.500026  1
  Nb  Nb1  1  0.500003  0.833333  0.500026  1
  Os  Os2  1  0.166618  0.166618  0.500109  1
  Se  Se3  1  0.563745  0.240096  0.279334  1
  Se  Se4  1  0.240096  0.563745  0.279334  1
  Se  Se5  1  0.916513  0.916513  0.279397  1
  Se  Se6  1  0.769514  0.769514  0.720692  1
  Se  Se7  1  0.416853  0.093228  0.720691  1
  Se  Se8  1  0.093228  0.416853  0.720691  1
