# generated using pymatgen
data_Lu3Hg2Os
_symmetry_space_group_name_H-M   'P 1'
_cell_length_a   3.45998000
_cell_length_b   3.45998000
_cell_length_c   11.25894300
_cell_angle_alpha   90.00000000
_cell_angle_beta   90.00000000
_cell_angle_gamma   90.00000000
_symmetry_Int_Tables_number   1
_chemical_formula_structural   Lu3Hg2Os
_chemical_formula_sum   'Lu3 Hg2 Os1'
_cell_volume   134.78600379
_cell_formula_units_Z   1
loop_
 _symmetry_equiv_pos_site_id
 _symmetry_equiv_pos_as_xyz
  1  'x, y, z'
loop_
 _atom_site_type_symbol
 _atom_site_label
 _atom_site_symmetry_multiplicity
 _atom_site_fract_x
 _atom_site_fract_y
 _atom_site_fract_z
 _atom_site_occupancy
  Lu  Lu0  1  0.000000  0.000000  0.000000  1
  Lu  Lu1  1  0.000000  0.000000  0.358886  1
  Lu  Lu2  1  0.000000  0.000000  0.641113  1
  Hg  Hg3  1  0.500001  0.500001  0.171742  1
  Hg  Hg4  1  0.500001  0.500001  0.828257  1
  Os  Os5  1  0.500001  0.500001  0.500000  1
