# generated using pymatgen
data_Ho3Ni8Ir
_symmetry_space_group_name_H-M   'P 1'
_cell_length_a   8.76864212
_cell_length_b   8.76864183
_cell_length_c   8.76864153
_cell_angle_alpha   32.75204203
_cell_angle_beta   32.75204476
_cell_angle_gamma   32.75204315
_symmetry_Int_Tables_number   1
_chemical_formula_structural   Ho3Ni8Ir
_chemical_formula_sum   'Ho3 Ni8 Ir1'
_cell_volume   175.53868077
_cell_formula_units_Z   1
loop_
 _symmetry_equiv_pos_site_id
 _symmetry_equiv_pos_as_xyz
  1  'x, y, z'
loop_
 _atom_site_type_symbol
 _atom_site_label
 _atom_site_symmetry_multiplicity
 _atom_site_fract_x
 _atom_site_fract_y
 _atom_site_fract_z
 _atom_site_occupancy
  Ho  Ho0  1  0.861649  0.861649  0.861649  1
  Ho  Ho1  1  0.138351  0.138351  0.138351  1
  Ho  Ho2  1  0.000000  0.000000  0.000000  1
  Ni  Ni3  1  0.418501  0.418501  0.922267  1
  Ni  Ni4  1  0.922267  0.418501  0.418501  1
  Ni  Ni5  1  0.418501  0.922267  0.418501  1
  Ni  Ni6  1  0.333215  0.333215  0.333215  1
  Ni  Ni7  1  0.666785  0.666785  0.666785  1
  Ni  Ni8  1  0.077733  0.581499  0.581499  1
  Ni  Ni9  1  0.581499  0.581499  0.077733  1
  Ni  Ni10  1  0.581499  0.077733  0.581499  1
  Ir  Ir11  1  0.500000  0.500000  0.500000  1
