# generated using pymatgen
data_Ho3ThAlIr
_symmetry_space_group_name_H-M   'P 1'
_cell_length_a   9.63904626
_cell_length_b   9.63904594
_cell_length_c   9.63904600
_cell_angle_alpha   59.99999981
_cell_angle_beta   60.00000088
_cell_angle_gamma   59.99999952
_symmetry_Int_Tables_number   1
_chemical_formula_structural   Ho3ThAlIr
_chemical_formula_sum   'Ho12 Th4 Al4 Ir4'
_cell_volume   633.26745670
_cell_formula_units_Z   4
loop_
 _symmetry_equiv_pos_site_id
 _symmetry_equiv_pos_as_xyz
  1  'x, y, z'
loop_
 _atom_site_type_symbol
 _atom_site_label
 _atom_site_symmetry_multiplicity
 _atom_site_fract_x
 _atom_site_fract_y
 _atom_site_fract_z
 _atom_site_occupancy
  Ho  Ho0  1  0.808852  0.191148  0.191148  1
  Ho  Ho1  1  0.191148  0.808852  0.808852  1
  Ho  Ho2  1  0.191148  0.808852  0.191148  1
  Ho  Ho3  1  0.808852  0.191148  0.808852  1
  Ho  Ho4  1  0.191148  0.191148  0.808852  1
  Ho  Ho5  1  0.808852  0.808852  0.191148  1
  Ho  Ho6  1  0.935594  0.564406  0.564406  1
  Ho  Ho7  1  0.564406  0.935594  0.935594  1
  Ho  Ho8  1  0.564406  0.935594  0.564406  1
  Ho  Ho9  1  0.935594  0.564406  0.935594  1
  Ho  Ho10  1  0.564406  0.564406  0.935594  1
  Ho  Ho11  1  0.935594  0.935594  0.564406  1
  Th  Th12  1  0.351275  0.351275  0.351275  1
  Th  Th13  1  0.351275  0.351275  0.946175  1
  Th  Th14  1  0.351275  0.946175  0.351275  1
  Th  Th15  1  0.946175  0.351275  0.351275  1
  Al  Al16  1  0.579884  0.579884  0.579884  1
  Al  Al17  1  0.579884  0.579884  0.260348  1
  Al  Al18  1  0.579884  0.260348  0.579884  1
  Al  Al19  1  0.260348  0.579884  0.579884  1
  Ir  Ir20  1  0.142520  0.142520  0.142520  1
  Ir  Ir21  1  0.142520  0.142520  0.572443  1
  Ir  Ir22  1  0.142520  0.572443  0.142520  1
  Ir  Ir23  1  0.572443  0.142520  0.142520  1
