# generated using pymatgen
data_Hf10Al12Co7
_symmetry_space_group_name_H-M   'P 1'
_cell_length_a   8.65636142
_cell_length_b   8.65673900
_cell_length_c   8.65632511
_cell_angle_alpha   59.99810398
_cell_angle_beta   60.00150514
_cell_angle_gamma   59.99873866
_symmetry_Int_Tables_number   1
_chemical_formula_structural   Hf10Al12Co7
_chemical_formula_sum   'Hf10 Al12 Co7'
_cell_volume   458.67264764
_cell_formula_units_Z   1
loop_
 _symmetry_equiv_pos_site_id
 _symmetry_equiv_pos_as_xyz
  1  'x, y, z'
loop_
 _atom_site_type_symbol
 _atom_site_label
 _atom_site_symmetry_multiplicity
 _atom_site_fract_x
 _atom_site_fract_y
 _atom_site_fract_z
 _atom_site_occupancy
  Hf  Hf0  1  0.687183  0.687095  0.312893  1
  Hf  Hf1  1  0.312914  0.687011  0.312958  1
  Hf  Hf2  1  0.687134  0.312868  0.312848  1
  Hf  Hf3  1  0.312818  0.312879  0.687109  1
  Hf  Hf4  1  0.687092  0.312983  0.687028  1
  Hf  Hf5  1  0.312889  0.687108  0.687134  1
  Hf  Hf6  1  0.881872  0.881851  0.354447  1
  Hf  Hf7  1  0.881837  0.354470  0.881841  1
  Hf  Hf8  1  0.354419  0.881852  0.881875  1
  Hf  Hf9  1  0.881863  0.881872  0.881844  1
  Al  Al10  1  0.121446  0.121418  0.635646  1
  Al  Al11  1  0.121462  0.635643  0.121430  1
  Al  Al12  1  0.635680  0.121425  0.121421  1
  Al  Al13  1  0.121454  0.121412  0.121447  1
  Al  Al14  1  0.662486  0.662483  0.012642  1
  Al  Al15  1  0.662409  0.012675  0.662453  1
  Al  Al16  1  0.012600  0.662478  0.662527  1
  Al  Al17  1  0.662431  0.662546  0.662453  1
  Al  Al18  1  0.335142  0.335137  0.994561  1
  Al  Al19  1  0.335152  0.994519  0.335161  1
  Al  Al20  1  0.994614  0.335105  0.335119  1
  Al  Al21  1  0.335145  0.335105  0.335115  1
  Co  Co22  1  0.999986  0.000020  0.000019  1
  Co  Co23  1  0.998385  0.998383  0.501619  1
  Co  Co24  1  0.501612  0.998381  0.501630  1
  Co  Co25  1  0.998365  0.501645  0.501632  1
  Co  Co26  1  0.501610  0.501641  0.998377  1
  Co  Co27  1  0.998386  0.501621  0.998391  1
  Co  Co28  1  0.501618  0.998373  0.998378  1
