# generated using pymatgen
data_Er4LuIrRh2
_symmetry_space_group_name_H-M   'P 1'
_cell_length_a   10.78540300
_cell_length_b   10.78540300
_cell_length_c   6.31544900
_cell_angle_alpha   90.00000000
_cell_angle_beta   90.00000000
_cell_angle_gamma   90.00000000
_symmetry_Int_Tables_number   1
_chemical_formula_structural   Er4LuIrRh2
_chemical_formula_sum   'Er16 Lu4 Ir4 Rh8'
_cell_volume   734.64408625
_cell_formula_units_Z   4
loop_
 _symmetry_equiv_pos_site_id
 _symmetry_equiv_pos_as_xyz
  1  'x, y, z'
loop_
 _atom_site_type_symbol
 _atom_site_label
 _atom_site_symmetry_multiplicity
 _atom_site_fract_x
 _atom_site_fract_y
 _atom_site_fract_z
 _atom_site_occupancy
  Er  Er0  1  0.290715  0.088692  0.377716  1
  Er  Er1  1  0.290715  0.911308  0.877716  1
  Er  Er2  1  0.709285  0.088692  0.877716  1
  Er  Er3  1  0.709285  0.911308  0.377716  1
  Er  Er4  1  0.587278  0.789864  0.878384  1
  Er  Er5  1  0.587278  0.210136  0.378384  1
  Er  Er6  1  0.412722  0.789864  0.378384  1
  Er  Er7  1  0.412722  0.210136  0.878384  1
  Er  Er8  1  0.210136  0.412722  0.621616  1
  Er  Er9  1  0.210136  0.587278  0.121616  1
  Er  Er10  1  0.789864  0.412722  0.121616  1
  Er  Er11  1  0.789864  0.587278  0.621616  1
  Er  Er12  1  0.911308  0.709285  0.122284  1
  Er  Er13  1  0.911308  0.290715  0.622284  1
  Er  Er14  1  0.088692  0.709285  0.622284  1
  Er  Er15  1  0.088692  0.290715  0.122284  1
  Lu  Lu16  1  0.000000  0.000000  0.500000  1
  Lu  Lu17  1  0.000000  0.000000  0.000000  1
  Lu  Lu18  1  0.500000  0.500000  0.000000  1
  Lu  Lu19  1  0.500000  0.500000  0.500000  1
  Ir  Ir20  1  0.653138  0.346862  0.750000  1
  Ir  Ir21  1  0.653138  0.653138  0.250000  1
  Ir  Ir22  1  0.346862  0.346862  0.250000  1
  Ir  Ir23  1  0.346862  0.653138  0.750000  1
  Rh  Rh24  1  0.847734  0.152266  0.250000  1
  Rh  Rh25  1  0.847734  0.847734  0.750000  1
  Rh  Rh26  1  0.152266  0.152266  0.750000  1
  Rh  Rh27  1  0.152266  0.847734  0.250000  1
  Rh  Rh28  1  0.500000  0.000000  0.121547  1
  Rh  Rh29  1  0.500000  0.000000  0.621547  1
  Rh  Rh30  1  0.000000  0.500000  0.878453  1
  Rh  Rh31  1  0.000000  0.500000  0.378453  1
