# generated using pymatgen
data_Dy6Tm2Sc12Si15Pt
_symmetry_space_group_name_H-M   'P 1'
_cell_length_a   7.07712113
_cell_length_b   7.42573548
_cell_length_c   13.97169645
_cell_angle_alpha   89.93432151
_cell_angle_beta   89.98279859
_cell_angle_gamma   90.20157761
_symmetry_Int_Tables_number   1
_chemical_formula_structural   Dy6Tm2Sc12Si15Pt
_chemical_formula_sum   'Dy6 Tm2 Sc12 Si15 Pt1'
_cell_volume   734.24712088
_cell_formula_units_Z   1
loop_
 _symmetry_equiv_pos_site_id
 _symmetry_equiv_pos_as_xyz
  1  'x, y, z'
loop_
 _atom_site_type_symbol
 _atom_site_label
 _atom_site_symmetry_multiplicity
 _atom_site_fract_x
 _atom_site_fract_y
 _atom_site_fract_z
 _atom_site_occupancy
  Dy  Dy0  1  0.488747  0.676435  0.904871  1
  Dy  Dy1  1  0.990335  0.822196  0.594481  1
  Dy  Dy2  1  0.511263  0.323169  0.096785  1
  Dy  Dy3  1  0.011622  0.177821  0.403648  1
  Dy  Dy4  1  0.511043  0.323255  0.403034  1
  Dy  Dy5  1  0.489008  0.676377  0.595377  1
  Tm  Tm6  1  0.011645  0.178272  0.096645  1
  Tm  Tm7  1  0.990359  0.822071  0.905035  1
  Sc  Sc8  1  0.158741  0.503098  0.750116  1
  Sc  Sc9  1  0.838482  0.497635  0.249834  1
  Sc  Sc10  1  0.338931  0.004536  0.249830  1
  Sc  Sc11  1  0.666089  0.998807  0.750187  1
  Sc  Sc12  1  0.323999  0.173946  0.625113  1
  Sc  Sc13  1  0.671566  0.825558  0.373418  1
  Sc  Sc14  1  0.170539  0.676938  0.373619  1
  Sc  Sc15  1  0.671604  0.825812  0.126519  1
  Sc  Sc16  1  0.830643  0.323609  0.625132  1
  Sc  Sc17  1  0.323330  0.173606  0.875078  1
  Sc  Sc18  1  0.830999  0.323323  0.874976  1
  Sc  Sc19  1  0.170325  0.677327  0.126198  1
  Si  Si20  1  0.969632  0.885841  0.249712  1
  Si  Si21  1  0.468356  0.615537  0.249919  1
  Si  Si22  1  0.531453  0.386907  0.750062  1
  Si  Si23  1  0.287430  0.868323  0.750317  1
  Si  Si24  1  0.714132  0.130335  0.249593  1
  Si  Si25  1  0.211938  0.371384  0.249591  1
  Si  Si26  1  0.781040  0.626071  0.750350  1
  Si  Si27  1  0.159141  0.466389  0.537867  1
  Si  Si28  1  0.841867  0.535879  0.460547  1
  Si  Si29  1  0.344991  0.965136  0.460502  1
  Si  Si30  1  0.842384  0.535943  0.039434  1
  Si  Si31  1  0.658257  0.034081  0.538499  1
  Si  Si32  1  0.158706  0.466551  0.962155  1
  Si  Si33  1  0.659524  0.033441  0.961362  1
  Si  Si34  1  0.343610  0.965654  0.039606  1
  Pt  Pt35  1  0.028271  0.108735  0.750588  1
