# generated using pymatgen
data_Y12Ho4MgIn2HgIr4
_symmetry_space_group_name_H-M   'P 1'
_cell_length_a   9.65162099
_cell_length_b   9.64707703
_cell_length_c   9.64707700
_cell_angle_alpha   59.99999668
_cell_angle_beta   60.01556931
_cell_angle_gamma   60.01557298
_symmetry_Int_Tables_number   1
_chemical_formula_structural   Y12Ho4MgIn2HgIr4
_chemical_formula_sum   'Y12 Ho4 Mg1 In2 Hg1 Ir4'
_cell_volume   635.30008901
_cell_formula_units_Z   1
loop_
 _symmetry_equiv_pos_site_id
 _symmetry_equiv_pos_as_xyz
  1  'x, y, z'
loop_
 _atom_site_type_symbol
 _atom_site_label
 _atom_site_symmetry_multiplicity
 _atom_site_fract_x
 _atom_site_fract_y
 _atom_site_fract_z
 _atom_site_occupancy
  Y  Y0  1  0.058078  0.441640  0.441039  1
  Y  Y1  1  0.438084  0.061309  0.061587  1
  Y  Y2  1  0.438084  0.061309  0.439019  1
  Y  Y3  1  0.058078  0.441640  0.059243  1
  Y  Y4  1  0.437043  0.438883  0.062036  1
  Y  Y5  1  0.057927  0.058816  0.441629  1
  Y  Y6  1  0.188416  0.812232  0.811606  1
  Y  Y7  1  0.811596  0.190769  0.186296  1
  Y  Y8  1  0.811596  0.190769  0.811337  1
  Y  Y9  1  0.188416  0.812232  0.187747  1
  Y  Y10  1  0.811316  0.811991  0.188346  1
  Y  Y11  1  0.187436  0.188933  0.811816  1
  Ho  Ho12  1  0.599361  0.598064  0.598159  1
  Ho  Ho13  1  0.599361  0.598064  0.204416  1
  Ho  Ho14  1  0.599361  0.204867  0.597886  1
  Ho  Ho15  1  0.195705  0.601229  0.601533  1
  Mg  Mg16  1  0.531262  0.821501  0.823620  1
  In  In17  1  0.832357  0.834598  0.835046  1
  In  In18  1  0.832357  0.834598  0.498001  1
  Hg  Hg19  1  0.832377  0.494866  0.836379  1
  Ir  Ir20  1  0.389668  0.393717  0.393945  1
  Ir  Ir21  1  0.389668  0.393717  0.822667  1
  Ir  Ir22  1  0.390241  0.821756  0.394000  1
  Ir  Ir23  1  0.822213  0.392497  0.392645  1
