# generated using pymatgen
data_Dy5Co18Si12Rh
_symmetry_space_group_name_H-M   'P 1'
_cell_length_a   12.20073700
_cell_length_b   12.17797266
_cell_length_c   3.78678600
_cell_angle_alpha   90.00000000
_cell_angle_beta   90.00000000
_cell_angle_gamma   119.93829630
_symmetry_Int_Tables_number   1
_chemical_formula_structural   Dy5Co18Si12Rh
_chemical_formula_sum   'Dy5 Co18 Si12 Rh1'
_cell_volume   487.56458136
_cell_formula_units_Z   1
loop_
 _symmetry_equiv_pos_site_id
 _symmetry_equiv_pos_as_xyz
  1  'x, y, z'
loop_
 _atom_site_type_symbol
 _atom_site_label
 _atom_site_symmetry_multiplicity
 _atom_site_fract_x
 _atom_site_fract_y
 _atom_site_fract_z
 _atom_site_occupancy
  Dy  Dy0  1  0.333848  0.667044  0.500000  1
  Dy  Dy1  1  0.666152  0.333195  0.500000  1
  Dy  Dy2  1  0.000000  0.815742  0.000000  1
  Dy  Dy3  1  0.186649  0.186394  0.000000  1
  Dy  Dy4  1  0.813351  0.999745  0.000000  1
  Co  Co5  1  0.519548  0.878375  0.000000  1
  Co  Co6  1  0.122638  0.643109  0.000000  1
  Co  Co7  1  0.359786  0.480751  0.000000  1
  Co  Co8  1  0.480452  0.358828  0.000000  1
  Co  Co9  1  0.877362  0.520471  0.000000  1
  Co  Co10  1  0.640214  0.120965  0.000000  1
  Co  Co11  1  0.560704  0.560446  0.500000  1
  Co  Co12  1  0.439296  0.999744  0.500000  1
  Co  Co13  1  0.000000  0.279950  0.000000  1
  Co  Co14  1  0.717792  0.718084  0.000000  1
  Co  Co15  1  0.282208  0.000293  0.000000  1
  Co  Co16  1  0.620776  0.802280  0.500000  1
  Co  Co17  1  0.198013  0.819423  0.500000  1
  Co  Co18  1  0.183427  0.377309  0.500000  1
  Co  Co19  1  0.379224  0.181506  0.500000  1
  Co  Co20  1  0.801987  0.621411  0.500000  1
  Co  Co21  1  0.816573  0.193882  0.500000  1
  Co  Co22  1  0.000000  0.999248  0.500000  1
  Si  Si23  1  0.000000  0.632505  0.500000  1
  Si  Si24  1  0.373939  0.373088  0.500000  1
  Si  Si25  1  0.626061  0.999149  0.500000  1
  Si  Si26  1  0.522414  0.684909  0.000000  1
  Si  Si27  1  0.315707  0.837922  0.000000  1
  Si  Si28  1  0.164963  0.477152  0.000000  1
  Si  Si29  1  0.477586  0.162494  0.000000  1
  Si  Si30  1  0.684293  0.522216  0.000000  1
  Si  Si31  1  0.835037  0.312190  0.000000  1
  Si  Si32  1  0.000000  0.184076  0.500000  1
  Si  Si33  1  0.814127  0.814617  0.500000  1
  Si  Si34  1  0.185873  0.000492  0.500000  1
  Rh  Rh35  1  0.000000  0.440993  0.500000  1
