# generated using pymatgen
data_Yb3Ho(GaNi)4
_symmetry_space_group_name_H-M   'P 1'
_cell_length_a   4.01421800
_cell_length_b   6.83063381
_cell_length_c   7.64638569
_cell_angle_alpha   90.47787554
_cell_angle_beta   90.00000000
_cell_angle_gamma   90.00000000
_symmetry_Int_Tables_number   1
_chemical_formula_structural   Yb3Ho(GaNi)4
_chemical_formula_sum   'Yb3 Ho1 Ga4 Ni4'
_cell_volume   209.65395146
_cell_formula_units_Z   1
loop_
 _symmetry_equiv_pos_site_id
 _symmetry_equiv_pos_as_xyz
  1  'x, y, z'
loop_
 _atom_site_type_symbol
 _atom_site_label
 _atom_site_symmetry_multiplicity
 _atom_site_fract_x
 _atom_site_fract_y
 _atom_site_fract_z
 _atom_site_occupancy
  Yb  Yb0  1  0.250000  0.529136  0.179849  1
  Yb  Yb1  1  0.750000  0.970037  0.682816  1
  Yb  Yb2  1  0.750000  0.469780  0.818949  1
  Ho  Ho3  1  0.250000  0.031577  0.317752  1
  Ga  Ga4  1  0.250000  0.147346  0.934751  1
  Ga  Ga5  1  0.250000  0.646404  0.564397  1
  Ga  Ga6  1  0.750000  0.851210  0.062937  1
  Ga  Ga7  1  0.750000  0.356171  0.436023  1
  Ni  Ni8  1  0.250000  0.276368  0.622177  1
  Ni  Ni9  1  0.250000  0.778806  0.878869  1
  Ni  Ni10  1  0.750000  0.724093  0.376965  1
  Ni  Ni11  1  0.750000  0.219073  0.124517  1
