# generated using pymatgen
data_Y4Zn2Os5Ru
_symmetry_space_group_name_H-M   'P 1'
_cell_length_a   5.36677717
_cell_length_b   5.36677803
_cell_length_c   8.82200500
_cell_angle_alpha   90.00000000
_cell_angle_beta   90.00000000
_cell_angle_gamma   119.97717522
_symmetry_Int_Tables_number   1
_chemical_formula_structural   Y4Zn2Os5Ru
_chemical_formula_sum   'Y4 Zn2 Os5 Ru1'
_cell_volume   220.10249642
_cell_formula_units_Z   1
loop_
 _symmetry_equiv_pos_site_id
 _symmetry_equiv_pos_as_xyz
  1  'x, y, z'
loop_
 _atom_site_type_symbol
 _atom_site_label
 _atom_site_symmetry_multiplicity
 _atom_site_fract_x
 _atom_site_fract_y
 _atom_site_fract_z
 _atom_site_occupancy
  Y  Y0  1  0.338926  0.661074  0.431081  1
  Y  Y1  1  0.672214  0.327786  0.556281  1
  Y  Y2  1  0.672214  0.327786  0.943719  1
  Y  Y3  1  0.338926  0.661074  0.068919  1
  Zn  Zn4  1  0.159765  0.350204  0.750000  1
  Zn  Zn5  1  0.649796  0.840235  0.750000  1
  Os  Os6  1  0.010218  0.989782  0.501087  1
  Os  Os7  1  0.010218  0.989782  0.998913  1
  Os  Os8  1  0.823601  0.176399  0.250000  1
  Os  Os9  1  0.837299  0.666624  0.250000  1
  Os  Os10  1  0.333376  0.162701  0.250000  1
  Ru  Ru11  1  0.153447  0.846553  0.750000  1
