# generated using pymatgen
data_Ho3HfAl16(GaIr3)2
_symmetry_space_group_name_H-M   'P 1'
_cell_length_a   7.51756395
_cell_length_b   7.51048234
_cell_length_c   9.42941000
_cell_angle_alpha   90.00000000
_cell_angle_beta   90.00000000
_cell_angle_gamma   119.54348663
_symmetry_Int_Tables_number   1
_chemical_formula_structural   Ho3HfAl16(GaIr3)2
_chemical_formula_sum   'Ho3 Hf1 Al16 Ga2 Ir6'
_cell_volume   463.16912249
_cell_formula_units_Z   1
loop_
 _symmetry_equiv_pos_site_id
 _symmetry_equiv_pos_as_xyz
  1  'x, y, z'
loop_
 _atom_site_type_symbol
 _atom_site_label
 _atom_site_symmetry_multiplicity
 _atom_site_fract_x
 _atom_site_fract_y
 _atom_site_fract_z
 _atom_site_occupancy
  Ho  Ho0  1  0.002604  0.324002  0.750000  1
  Ho  Ho1  1  0.671790  0.997644  0.250000  1
  Ho  Ho2  1  0.329515  0.009337  0.750000  1
  Hf  Hf3  1  0.998076  0.672993  0.250000  1
  Al  Al4  1  0.126679  0.124301  0.250000  1
  Al  Al5  1  0.000630  0.338269  0.079259  1
  Al  Al6  1  0.999358  0.664992  0.930195  1
  Al  Al7  1  0.999358  0.664992  0.569805  1
  Al  Al8  1  0.332964  0.998095  0.421050  1
  Al  Al9  1  0.000630  0.338269  0.420741  1
  Al  Al10  1  0.663940  0.996817  0.573893  1
  Al  Al11  1  0.663940  0.996817  0.926107  1
  Al  Al12  1  0.332964  0.998095  0.078950  1
  Al  Al13  1  0.333942  0.334641  0.548309  1
  Al  Al14  1  0.669250  0.667142  0.438351  1
  Al  Al15  1  0.669250  0.667142  0.061649  1
  Al  Al16  1  0.333942  0.334641  0.951691  1
  Al  Al17  1  0.335346  0.549675  0.250000  1
  Al  Al18  1  0.554954  0.343633  0.250000  1
  Al  Al19  1  0.448310  0.658393  0.750000  1
  Ga  Ga20  1  0.869788  0.867793  0.750000  1
  Ga  Ga21  1  0.660129  0.453233  0.750000  1
  Ir  Ir22  1  0.672891  0.328137  0.002955  1
  Ir  Ir23  1  0.328571  0.672236  0.001391  1
  Ir  Ir24  1  0.328571  0.672236  0.498609  1
  Ir  Ir25  1  0.672891  0.328137  0.497045  1
  Ir  Ir26  1  0.999858  0.999169  0.003308  1
  Ir  Ir27  1  0.999858  0.999169  0.496692  1
