# generated using pymatgen
data_Nd3In3GaCuIr
_symmetry_space_group_name_H-M   'P 1'
_cell_length_a   7.75198600
_cell_length_b   7.75198567
_cell_length_c   4.05588800
_cell_angle_alpha   90.00000000
_cell_angle_beta   90.00000000
_cell_angle_gamma   119.99999288
_symmetry_Int_Tables_number   1
_chemical_formula_structural   Nd3In3GaCuIr
_chemical_formula_sum   'Nd3 In3 Ga1 Cu1 Ir1'
_cell_volume   211.07779926
_cell_formula_units_Z   1
loop_
 _symmetry_equiv_pos_site_id
 _symmetry_equiv_pos_as_xyz
  1  'x, y, z'
loop_
 _atom_site_type_symbol
 _atom_site_label
 _atom_site_symmetry_multiplicity
 _atom_site_fract_x
 _atom_site_fract_y
 _atom_site_fract_z
 _atom_site_occupancy
  Nd  Nd0  1  0.017202  0.596172  0.500000  1
  Nd  Nd1  1  0.403828  0.421029  0.500000  1
  Nd  Nd2  1  0.578971  0.982798  0.500000  1
  In  In3  1  0.751655  0.754303  0.000000  1
  In  In4  1  0.002648  0.248345  0.000000  1
  In  In5  1  0.245697  0.997352  0.000000  1
  Ga  Ga6  1  0.666667  0.333333  0.000000  1
  Cu  Cu7  1  0.000000  0.000000  0.500000  1
  Ir  Ir8  1  0.333333  0.666667  0.000000  1
