# generated using pymatgen
data_LiIn10AgIr4
_symmetry_space_group_name_H-M   'P 1'
_cell_length_a   7.17670100
_cell_length_b   7.14737121
_cell_length_c   7.16192000
_cell_angle_alpha   90.00000000
_cell_angle_beta   90.00000000
_cell_angle_gamma   89.78310129
_symmetry_Int_Tables_number   1
_chemical_formula_structural   LiIn10AgIr4
_chemical_formula_sum   'Li1 In10 Ag1 Ir4'
_cell_volume   367.36480354
_cell_formula_units_Z   1
loop_
 _symmetry_equiv_pos_site_id
 _symmetry_equiv_pos_as_xyz
  1  'x, y, z'
loop_
 _atom_site_type_symbol
 _atom_site_label
 _atom_site_symmetry_multiplicity
 _atom_site_fract_x
 _atom_site_fract_y
 _atom_site_fract_z
 _atom_site_occupancy
  Li  Li0  1  0.000000  0.500000  0.000000  1
  In  In1  1  0.320207  0.356959  0.263336  1
  In  In2  1  0.145345  0.820955  0.765740  1
  In  In3  1  0.145345  0.820955  0.234260  1
  In  In4  1  0.854655  0.179045  0.234260  1
  In  In5  1  0.854655  0.179045  0.765740  1
  In  In6  1  0.500000  0.000000  0.000000  1
  In  In7  1  0.679793  0.643041  0.263336  1
  In  In8  1  0.679793  0.643041  0.736664  1
  In  In9  1  0.320207  0.356959  0.736664  1
  In  In10  1  0.500000  0.000000  0.500000  1
  Ag  Ag11  1  0.000000  0.500000  0.500000  1
  Ir  Ir12  1  0.156179  0.145722  0.000000  1
  Ir  Ir13  1  0.640417  0.338617  0.500000  1
  Ir  Ir14  1  0.359583  0.661383  0.500000  1
  Ir  Ir15  1  0.843821  0.854278  0.000000  1
