# generated using pymatgen
data_Cr2ReTcIr4
_symmetry_space_group_name_H-M   'P 1'
_cell_length_a   5.41632600
_cell_length_b   5.46349775
_cell_length_c   4.31757300
_cell_angle_alpha   90.00000000
_cell_angle_beta   90.00000000
_cell_angle_gamma   119.71479876
_symmetry_Int_Tables_number   1
_chemical_formula_structural   Cr2ReTcIr4
_chemical_formula_sum   'Cr2 Re1 Tc1 Ir4'
_cell_volume   110.96520867
_cell_formula_units_Z   1
loop_
 _symmetry_equiv_pos_site_id
 _symmetry_equiv_pos_as_xyz
  1  'x, y, z'
loop_
 _atom_site_type_symbol
 _atom_site_label
 _atom_site_symmetry_multiplicity
 _atom_site_fract_x
 _atom_site_fract_y
 _atom_site_fract_z
 _atom_site_occupancy
  Cr  Cr0  1  0.331402  0.662805  0.750000  1
  Cr  Cr1  1  0.667026  0.334052  0.250000  1
  Re  Re2  1  0.830069  0.660141  0.750000  1
  Tc  Tc3  1  0.170080  0.340159  0.250000  1
  Ir  Ir4  1  0.659945  0.825595  0.250000  1
  Ir  Ir5  1  0.165650  0.825595  0.250000  1
  Ir  Ir6  1  0.339518  0.175828  0.750000  1
  Ir  Ir7  1  0.836308  0.175828  0.750000  1
