# generated using pymatgen
data_Pr8Ho12BiPb15
_symmetry_space_group_name_H-M   'P 1'
_cell_length_a   8.30743473
_cell_length_b   8.41218950
_cell_length_c   15.79589236
_cell_angle_alpha   89.92763587
_cell_angle_beta   90.29164775
_cell_angle_gamma   90.09464913
_symmetry_Int_Tables_number   1
_chemical_formula_structural   Pr8Ho12BiPb15
_chemical_formula_sum   'Pr8 Ho12 Bi1 Pb15'
_cell_volume   1103.85896693
_cell_formula_units_Z   1
loop_
 _symmetry_equiv_pos_site_id
 _symmetry_equiv_pos_as_xyz
  1  'x, y, z'
loop_
 _atom_site_type_symbol
 _atom_site_label
 _atom_site_symmetry_multiplicity
 _atom_site_fract_x
 _atom_site_fract_y
 _atom_site_fract_z
 _atom_site_occupancy
  Pr  Pr0  1  0.476158  0.676143  0.598118  1
  Pr  Pr1  1  0.978809  0.822518  0.902981  1
  Pr  Pr2  1  0.521467  0.323328  0.097373  1
  Pr  Pr3  1  0.026895  0.177806  0.401286  1
  Pr  Pr4  1  0.523751  0.324728  0.402275  1
  Pr  Pr5  1  0.021876  0.177356  0.097207  1
  Pr  Pr6  1  0.478350  0.677856  0.903060  1
  Pr  Pr7  1  0.978729  0.821494  0.598274  1
  Ho  Ho8  1  0.635120  0.159576  0.622967  1
  Ho  Ho9  1  0.136789  0.341090  0.876729  1
  Ho  Ho10  1  0.362435  0.841654  0.123607  1
  Ho  Ho11  1  0.865831  0.656134  0.376804  1
  Ho  Ho12  1  0.359715  0.841796  0.377564  1
  Ho  Ho13  1  0.861664  0.658398  0.123585  1
  Ho  Ho14  1  0.637882  0.158359  0.876886  1
  Ho  Ho15  1  0.136117  0.341443  0.622741  1
  Ho  Ho16  1  0.803173  0.495681  0.750340  1
  Ho  Ho17  1  0.303220  0.004481  0.749453  1
  Ho  Ho18  1  0.197248  0.504402  0.249142  1
  Ho  Ho19  1  0.696978  0.996243  0.248228  1
  Bi  Bi20  1  0.705132  0.958926  0.455786  1
  Pb  Pb21  1  0.202180  0.542094  0.043315  1
  Pb  Pb22  1  0.297422  0.042553  0.956955  1
  Pb  Pb23  1  0.795335  0.459483  0.543354  1
  Pb  Pb24  1  0.292873  0.040554  0.543655  1
  Pb  Pb25  1  0.797198  0.458120  0.956974  1
  Pb  Pb26  1  0.701785  0.958151  0.043355  1
  Pb  Pb27  1  0.204871  0.539934  0.456011  1
  Pb  Pb28  1  0.440752  0.370346  0.749918  1
  Pb  Pb29  1  0.940238  0.127974  0.749145  1
  Pb  Pb30  1  0.558478  0.631178  0.251755  1
  Pb  Pb31  1  0.058262  0.870804  0.250259  1
  Pb  Pb32  1  0.666808  0.849474  0.750232  1
  Pb  Pb33  1  0.166204  0.649650  0.750419  1
  Pb  Pb34  1  0.335465  0.150831  0.250256  1
  Pb  Pb35  1  0.834788  0.349441  0.249990  1
