# generated using pymatgen
data_Tm3Co2AgSn3
_symmetry_space_group_name_H-M   'P 1'
_cell_length_a   7.54859400
_cell_length_b   7.54859299
_cell_length_c   3.72283800
_cell_angle_alpha   90.00000000
_cell_angle_beta   90.00000000
_cell_angle_gamma   120.00000443
_symmetry_Int_Tables_number   1
_chemical_formula_structural   Tm3Co2AgSn3
_chemical_formula_sum   'Tm3 Co2 Ag1 Sn3'
_cell_volume   183.71170486
_cell_formula_units_Z   1
loop_
 _symmetry_equiv_pos_site_id
 _symmetry_equiv_pos_as_xyz
  1  'x, y, z'
loop_
 _atom_site_type_symbol
 _atom_site_label
 _atom_site_symmetry_multiplicity
 _atom_site_fract_x
 _atom_site_fract_y
 _atom_site_fract_z
 _atom_site_occupancy
  Tm  Tm0  1  0.972739  0.386359  0.500000  1
  Tm  Tm1  1  0.613641  0.586379  0.500000  1
  Tm  Tm2  1  0.413621  0.027261  0.500000  1
  Co  Co3  1  0.666667  0.333333  0.000000  1
  Co  Co4  1  0.000000  0.000000  0.500000  1
  Ag  Ag5  1  0.333333  0.666667  0.000000  1
  Sn  Sn6  1  0.000489  0.744830  0.000000  1
  Sn  Sn7  1  0.255170  0.255658  0.000000  1
  Sn  Sn8  1  0.744342  0.999511  0.000000  1
