# generated using pymatgen
data_NdSm3(WN3)4
_symmetry_space_group_name_H-M   'P 1'
_cell_length_a   7.42015561
_cell_length_b   7.42015617
_cell_length_c   6.36108882
_cell_angle_alpha   74.59458264
_cell_angle_beta   74.59457983
_cell_angle_gamma   83.04882341
_symmetry_Int_Tables_number   1
_chemical_formula_structural   NdSm3(WN3)4
_chemical_formula_sum   'Nd1 Sm3 W4 N12'
_cell_volume   325.03792990
_cell_formula_units_Z   1
loop_
 _symmetry_equiv_pos_site_id
 _symmetry_equiv_pos_as_xyz
  1  'x, y, z'
loop_
 _atom_site_type_symbol
 _atom_site_label
 _atom_site_symmetry_multiplicity
 _atom_site_fract_x
 _atom_site_fract_y
 _atom_site_fract_z
 _atom_site_occupancy
  Nd  Nd0  1  0.299752  0.700248  0.750000  1
  Sm  Sm1  1  0.908023  0.091977  0.750000  1
  Sm  Sm2  1  0.702249  0.297751  0.250000  1
  Sm  Sm3  1  0.089696  0.910304  0.250000  1
  W  W4  1  0.798646  0.619868  0.762269  1
  W  W5  1  0.201958  0.379722  0.238732  1
  W  W6  1  0.620278  0.798042  0.261268  1
  W  W7  1  0.380132  0.201354  0.737731  1
  N  N8  1  0.219734  0.004656  0.846935  1
  N  N9  1  0.352097  0.356733  0.455804  1
  N  N10  1  0.650807  0.643300  0.542579  1
  N  N11  1  0.618957  0.113426  0.654240  1
  N  N12  1  0.995344  0.780266  0.653065  1
  N  N13  1  0.776875  0.998442  0.153514  1
  N  N14  1  0.116648  0.619295  0.156546  1
  N  N15  1  0.886574  0.381043  0.845760  1
  N  N16  1  0.001558  0.223125  0.346486  1
  N  N17  1  0.356700  0.349193  0.957421  1
  N  N18  1  0.643267  0.647903  0.044196  1
  N  N19  1  0.380705  0.883352  0.343454  1
