# generated using pymatgen
data_Sc22Tc4Os3Au
_symmetry_space_group_name_H-M   'P 1'
_cell_length_a   9.48597941
_cell_length_b   9.54775548
_cell_length_c   9.54775517
_cell_angle_alpha   59.63416043
_cell_angle_beta   60.32980393
_cell_angle_gamma   60.32981214
_symmetry_Int_Tables_number   1
_chemical_formula_structural   Sc22Tc4Os3Au
_chemical_formula_sum   'Sc22 Tc4 Os3 Au1'
_cell_volume   612.75934872
_cell_formula_units_Z   1
loop_
 _symmetry_equiv_pos_site_id
 _symmetry_equiv_pos_as_xyz
  1  'x, y, z'
loop_
 _atom_site_type_symbol
 _atom_site_label
 _atom_site_symmetry_multiplicity
 _atom_site_fract_x
 _atom_site_fract_y
 _atom_site_fract_z
 _atom_site_occupancy
  Sc  Sc0  1  0.853494  0.838039  0.838039  1
  Sc  Sc1  1  0.529605  0.160991  0.160991  1
  Sc  Sc2  1  0.155189  0.154486  0.530968  1
  Sc  Sc3  1  0.155189  0.530968  0.154486  1
  Sc  Sc4  1  0.844811  0.845514  0.469032  1
  Sc  Sc5  1  0.844811  0.469032  0.845514  1
  Sc  Sc6  1  0.470395  0.839009  0.839009  1
  Sc  Sc7  1  0.146506  0.161961  0.161961  1
  Sc  Sc8  1  0.195086  0.801074  0.198941  1
  Sc  Sc9  1  0.197379  0.802243  0.802243  1
  Sc  Sc10  1  0.802621  0.197757  0.197757  1
  Sc  Sc11  1  0.804914  0.801059  0.198926  1
  Sc  Sc12  1  0.195086  0.198941  0.801074  1
  Sc  Sc13  1  0.804914  0.198926  0.801059  1
  Sc  Sc14  1  0.378975  0.384703  0.384703  1
  Sc  Sc15  1  0.150317  0.615484  0.615484  1
  Sc  Sc16  1  0.621181  0.152487  0.607181  1
  Sc  Sc17  1  0.621181  0.607181  0.152487  1
  Sc  Sc18  1  0.378819  0.847513  0.392819  1
  Sc  Sc19  1  0.378819  0.392819  0.847513  1
  Sc  Sc20  1  0.849683  0.384516  0.384516  1
  Sc  Sc21  1  0.621025  0.615297  0.615297  1
  Tc  Tc22  1  0.500000  0.500000  0.000000  1
  Tc  Tc23  1  0.500000  0.000000  0.500000  1
  Tc  Tc24  1  0.000000  0.500000  0.500000  1
  Tc  Tc25  1  0.000000  0.000000  0.000000  1
  Os  Os26  1  0.000000  0.000000  0.500000  1
  Os  Os27  1  0.000000  0.500000  0.000000  1
  Os  Os28  1  0.500000  0.500000  0.500000  1
  Au  Au29  1  0.500000  0.000000  0.000000  1
