# generated using pymatgen
data_CaTm(SiTc2)4
_symmetry_space_group_name_H-M   'P 1'
_cell_length_a   7.30993342
_cell_length_b   7.30993342
_cell_length_c   4.17989300
_cell_angle_alpha   90.00000000
_cell_angle_beta   90.00000000
_cell_angle_gamma   89.68045709
_symmetry_Int_Tables_number   1
_chemical_formula_structural   CaTm(SiTc2)4
_chemical_formula_sum   'Ca1 Tm1 Si4 Tc8'
_cell_volume   223.34963814
_cell_formula_units_Z   1
loop_
 _symmetry_equiv_pos_site_id
 _symmetry_equiv_pos_as_xyz
  1  'x, y, z'
loop_
 _atom_site_type_symbol
 _atom_site_label
 _atom_site_symmetry_multiplicity
 _atom_site_fract_x
 _atom_site_fract_y
 _atom_site_fract_z
 _atom_site_occupancy
  Ca  Ca0  1  0.500000  0.500000  0.500000  1
  Tm  Tm1  1  0.000000  0.000000  0.000000  1
  Si  Si2  1  0.792543  0.207457  0.500000  1
  Si  Si3  1  0.207457  0.792543  0.500000  1
  Si  Si4  1  0.290591  0.290591  0.000000  1
  Si  Si5  1  0.709409  0.709409  0.000000  1
  Tc  Tc6  1  0.657280  0.906211  0.500000  1
  Tc  Tc7  1  0.342720  0.093789  0.500000  1
  Tc  Tc8  1  0.153153  0.599707  0.000000  1
  Tc  Tc9  1  0.846847  0.400293  0.000000  1
  Tc  Tc10  1  0.906211  0.657280  0.500000  1
  Tc  Tc11  1  0.093789  0.342720  0.500000  1
  Tc  Tc12  1  0.599707  0.153153  0.000000  1
  Tc  Tc13  1  0.400293  0.846847  0.000000  1
