# generated using pymatgen
data_Lu5Nb(SnRu2)6
_symmetry_space_group_name_H-M   'P 1'
_cell_length_a   4.59171701
_cell_length_b   6.52840602
_cell_length_c   13.82161302
_cell_angle_alpha   90.00594003
_cell_angle_beta   90.00172319
_cell_angle_gamma   89.99394625
_symmetry_Int_Tables_number   1
_chemical_formula_structural   Lu5Nb(SnRu2)6
_chemical_formula_sum   'Lu5 Nb1 Sn6 Ru12'
_cell_volume   414.32486329
_cell_formula_units_Z   1
loop_
 _symmetry_equiv_pos_site_id
 _symmetry_equiv_pos_as_xyz
  1  'x, y, z'
loop_
 _atom_site_type_symbol
 _atom_site_label
 _atom_site_symmetry_multiplicity
 _atom_site_fract_x
 _atom_site_fract_y
 _atom_site_fract_z
 _atom_site_occupancy
  Lu  Lu0  1  0.000086  0.999788  0.998074  1
  Lu  Lu1  1  0.499959  0.500101  0.166465  1
  Lu  Lu2  1  0.000034  0.999896  0.333336  1
  Lu  Lu3  1  0.499924  0.500014  0.500205  1
  Lu  Lu4  1  0.000151  0.999955  0.668536  1
  Nb  Nb5  1  0.500020  0.499976  0.833324  1
  Sn  Sn6  1  0.000752  0.499604  0.001057  1
  Sn  Sn7  1  0.500433  0.000777  0.164593  1
  Sn  Sn8  1  0.998872  0.499989  0.333451  1
  Sn  Sn9  1  0.500031  0.000207  0.502332  1
  Sn  Sn10  1  0.000807  0.500096  0.665642  1
  Sn  Sn11  1  0.499104  0.999871  0.833486  1
  Ru  Ru12  1  0.500069  0.256734  0.993268  1
  Ru  Ru13  1  0.500295  0.743042  0.993259  1
  Ru  Ru14  1  0.000093  0.248746  0.165184  1
  Ru  Ru15  1  0.999775  0.751193  0.165177  1
  Ru  Ru16  1  0.499273  0.247806  0.333359  1
  Ru  Ru17  1  0.500485  0.752424  0.333297  1
  Ru  Ru18  1  0.000016  0.248734  0.501402  1
  Ru  Ru19  1  0.999677  0.751172  0.501425  1
  Ru  Ru20  1  0.500097  0.256748  0.673327  1
  Ru  Ru21  1  0.500359  0.743169  0.673328  1
  Ru  Ru22  1  0.000216  0.265247  0.833213  1
  Ru  Ru23  1  0.999473  0.734715  0.833263  1
