# generated using pymatgen
data_Li3Dy5AsP11Ir16
_symmetry_space_group_name_H-M   'P 1'
_cell_length_a   12.78180421
_cell_length_b   12.75828036
_cell_length_c   3.96401600
_cell_angle_alpha   90.00000000
_cell_angle_beta   90.00000000
_cell_angle_gamma   119.93913874
_symmetry_Int_Tables_number   1
_chemical_formula_structural   Li3Dy5AsP11Ir16
_chemical_formula_sum   'Li3 Dy5 As1 P11 Ir16'
_cell_volume   560.16548957
_cell_formula_units_Z   1
loop_
 _symmetry_equiv_pos_site_id
 _symmetry_equiv_pos_as_xyz
  1  'x, y, z'
loop_
 _atom_site_type_symbol
 _atom_site_label
 _atom_site_symmetry_multiplicity
 _atom_site_fract_x
 _atom_site_fract_y
 _atom_site_fract_z
 _atom_site_occupancy
  Li  Li0  1  0.000000  0.436700  0.500000  1
  Li  Li1  1  0.557606  0.558539  0.500000  1
  Li  Li2  1  0.442394  0.000933  0.500000  1
  Dy  Dy3  1  0.334436  0.666861  0.500000  1
  Dy  Dy4  1  0.665564  0.332424  0.500000  1
  Dy  Dy5  1  0.000000  0.810566  0.000000  1
  Dy  Dy6  1  0.191603  0.191607  0.000000  1
  Dy  Dy7  1  0.808397  0.000004  0.000000  1
  As  As8  1  0.000000  0.628476  0.500000  1
  P  P9  1  0.369304  0.368978  0.500000  1
  P  P10  1  0.630696  0.999674  0.500000  1
  P  P11  1  0.516303  0.687707  0.000000  1
  P  P12  1  0.314154  0.830670  0.000000  1
  P  P13  1  0.172131  0.482592  0.000000  1
  P  P14  1  0.483697  0.171405  0.000000  1
  P  P15  1  0.685846  0.516516  0.000000  1
  P  P16  1  0.827869  0.310461  0.000000  1
  P  P17  1  0.000000  0.179028  0.500000  1
  P  P18  1  0.819895  0.821277  0.500000  1
  P  P19  1  0.180105  0.001382  0.500000  1
  Ir  Ir20  1  0.510318  0.869307  0.000000  1
  Ir  Ir21  1  0.137459  0.642086  0.000000  1
  Ir  Ir22  1  0.359566  0.490254  0.000000  1
  Ir  Ir23  1  0.489682  0.358988  0.000000  1
  Ir  Ir24  1  0.862541  0.504626  0.000000  1
  Ir  Ir25  1  0.640434  0.130688  0.000000  1
  Ir  Ir26  1  0.000000  0.279660  0.000000  1
  Ir  Ir27  1  0.719494  0.722488  0.000000  1
  Ir  Ir28  1  0.280506  0.002994  0.000000  1
  Ir  Ir29  1  0.626562  0.807534  0.500000  1
  Ir  Ir30  1  0.202165  0.826432  0.500000  1
  Ir  Ir31  1  0.180111  0.372341  0.500000  1
  Ir  Ir32  1  0.373438  0.180972  0.500000  1
  Ir  Ir33  1  0.797835  0.624266  0.500000  1
  Ir  Ir34  1  0.819889  0.192230  0.500000  1
  Ir  Ir35  1  0.000000  0.999336  0.500000  1
