# generated using pymatgen
data_YErBeSi3
_symmetry_space_group_name_H-M   'P 1'
_cell_length_a   7.83744824
_cell_length_b   7.83146978
_cell_length_c   8.02613800
_cell_angle_alpha   90.00000000
_cell_angle_beta   90.00000000
_cell_angle_gamma   119.97476970
_symmetry_Int_Tables_number   1
_chemical_formula_structural   YErBeSi3
_chemical_formula_sum   'Y4 Er4 Be4 Si12'
_cell_volume   426.74218264
_cell_formula_units_Z   4
loop_
 _symmetry_equiv_pos_site_id
 _symmetry_equiv_pos_as_xyz
  1  'x, y, z'
loop_
 _atom_site_type_symbol
 _atom_site_label
 _atom_site_symmetry_multiplicity
 _atom_site_fract_x
 _atom_site_fract_y
 _atom_site_fract_z
 _atom_site_occupancy
  Y  Y0  1  0.000087  0.000044  0.250000  1
  Y  Y1  1  0.000019  0.000009  0.750000  1
  Y  Y2  1  0.499369  0.500768  0.250000  1
  Y  Y3  1  0.499369  0.998602  0.250000  1
  Er  Er4  1  0.001119  0.500559  0.250000  1
  Er  Er5  1  0.500380  0.499644  0.750000  1
  Er  Er6  1  0.998979  0.499489  0.750000  1
  Er  Er7  1  0.500380  0.000736  0.750000  1
  Be  Be8  1  0.666842  0.333421  0.500386  1
  Be  Be9  1  0.666842  0.333421  0.999614  1
  Be  Be10  1  0.333317  0.666659  0.995788  1
  Be  Be11  1  0.333317  0.666659  0.504212  1
  Si  Si12  1  0.827321  0.173242  0.501271  1
  Si  Si13  1  0.827321  0.654080  0.501271  1
  Si  Si14  1  0.345348  0.172675  0.501880  1
  Si  Si15  1  0.827321  0.173242  0.998729  1
  Si  Si16  1  0.827321  0.654080  0.998729  1
  Si  Si17  1  0.345348  0.172675  0.998120  1
  Si  Si18  1  0.172684  0.826845  0.999088  1
  Si  Si19  1  0.654632  0.827316  0.998334  1
  Si  Si20  1  0.172684  0.345838  0.999088  1
  Si  Si21  1  0.172684  0.826845  0.500912  1
  Si  Si22  1  0.654632  0.827316  0.501666  1
  Si  Si23  1  0.172684  0.345838  0.500912  1
