# generated using pymatgen
data_Sr2MnN3
_symmetry_space_group_name_H-M   'P 1'
_cell_length_a   6.19310815
_cell_length_b   6.19310770
_cell_length_c   12.24239300
_cell_angle_alpha   90.00000000
_cell_angle_beta   90.00000000
_cell_angle_gamma   126.04795646
_symmetry_Int_Tables_number   1
_chemical_formula_structural   Sr2MnN3
_chemical_formula_sum   'Sr8 Mn4 N12'
_cell_volume   379.64433599
_cell_formula_units_Z   4
loop_
 _symmetry_equiv_pos_site_id
 _symmetry_equiv_pos_as_xyz
  1  'x, y, z'
loop_
 _atom_site_type_symbol
 _atom_site_label
 _atom_site_symmetry_multiplicity
 _atom_site_fract_x
 _atom_site_fract_y
 _atom_site_fract_z
 _atom_site_occupancy
  Sr  Sr0  1  0.859402  0.140598  0.421994  1
  Sr  Sr1  1  0.359402  0.640598  0.078006  1
  Sr  Sr2  1  0.640598  0.359402  0.921994  1
  Sr  Sr3  1  0.140598  0.859402  0.578006  1
  Sr  Sr4  1  0.442549  0.557451  0.644011  1
  Sr  Sr5  1  0.557451  0.442549  0.355989  1
  Sr  Sr6  1  0.057451  0.942549  0.144011  1
  Sr  Sr7  1  0.942549  0.057451  0.855989  1
  Mn  Mn8  1  0.756140  0.243860  0.664414  1
  Mn  Mn9  1  0.743860  0.256140  0.164414  1
  Mn  Mn10  1  0.243860  0.756140  0.335586  1
  Mn  Mn11  1  0.256140  0.743860  0.835586  1
  N  N12  1  0.974939  0.525061  0.750000  1
  N  N13  1  0.525061  0.974939  0.250000  1
  N  N14  1  0.025061  0.474939  0.250000  1
  N  N15  1  0.474939  0.025061  0.750000  1
  N  N16  1  0.414288  0.585712  0.866337  1
  N  N17  1  0.585712  0.414288  0.133663  1
  N  N18  1  0.085712  0.914288  0.366337  1
  N  N19  1  0.660769  0.339231  0.549498  1
  N  N20  1  0.160769  0.839231  0.950502  1
  N  N21  1  0.839231  0.160769  0.049498  1
  N  N22  1  0.339231  0.660769  0.450502  1
  N  N23  1  0.914288  0.085712  0.633663  1
