# generated using pymatgen
data_Nb12Al9FeNi2CN3
_symmetry_space_group_name_H-M   'P 1'
_cell_length_a   8.24935781
_cell_length_b   8.24754109
_cell_length_c   8.28853609
_cell_angle_alpha   59.87315321
_cell_angle_beta   59.88148434
_cell_angle_gamma   59.82161733
_symmetry_Int_Tables_number   1
_chemical_formula_structural   Nb12Al9FeNi2CN3
_chemical_formula_sum   'Nb12 Al9 Fe1 Ni2 C1 N3'
_cell_volume   397.47783031
_cell_formula_units_Z   1
loop_
 _symmetry_equiv_pos_site_id
 _symmetry_equiv_pos_as_xyz
  1  'x, y, z'
loop_
 _atom_site_type_symbol
 _atom_site_label
 _atom_site_symmetry_multiplicity
 _atom_site_fract_x
 _atom_site_fract_y
 _atom_site_fract_z
 _atom_site_occupancy
  Nb  Nb0  1  0.808067  0.808066  0.187881  1
  Nb  Nb1  1  0.183704  0.183718  0.817531  1
  Nb  Nb2  1  0.810305  0.190969  0.814634  1
  Nb  Nb3  1  0.198174  0.809616  0.181153  1
  Nb  Nb4  1  0.190900  0.810316  0.814673  1
  Nb  Nb5  1  0.809635  0.198141  0.181161  1
  Nb  Nb6  1  0.441933  0.441934  0.062119  1
  Nb  Nb7  1  0.066296  0.066282  0.432469  1
  Nb  Nb8  1  0.439695  0.059031  0.435366  1
  Nb  Nb9  1  0.051826  0.440384  0.068847  1
  Nb  Nb10  1  0.059100  0.439684  0.435327  1
  Nb  Nb11  1  0.440365  0.051859  0.068839  1
  Al  Al12  1  0.625000  0.625000  0.125000  1
  Al  Al13  1  0.746698  0.409690  0.433968  1
  Al  Al14  1  0.409556  0.746639  0.434050  1
  Al  Al15  1  0.415330  0.415484  0.754437  1
  Al  Al16  1  0.407782  0.408053  0.432283  1
  Al  Al17  1  0.503302  0.840310  0.816032  1
  Al  Al18  1  0.840444  0.503361  0.815950  1
  Al  Al19  1  0.834670  0.834516  0.495563  1
  Al  Al20  1  0.842218  0.841947  0.817717  1
  Fe  Fe21  1  0.625000  0.625000  0.625000  1
  Ni  Ni22  1  0.125000  0.625000  0.625000  1
  Ni  Ni23  1  0.625000  0.125000  0.625000  1
  C  C24  1  0.125000  0.125000  0.625000  1
  N  N25  1  0.625000  0.125000  0.125000  1
  N  N26  1  0.125000  0.625000  0.125000  1
  N  N27  1  0.125000  0.125000  0.125000  1
