# generated using pymatgen
data_Nd4Cd3Cu20Au
_symmetry_space_group_name_H-M   'P 1'
_cell_length_a   5.13302200
_cell_length_b   8.33719821
_cell_length_c   10.49577655
_cell_angle_alpha   89.93791359
_cell_angle_beta   90.00000000
_cell_angle_gamma   90.00000000
_symmetry_Int_Tables_number   1
_chemical_formula_structural   Nd4Cd3Cu20Au
_chemical_formula_sum   'Nd4 Cd3 Cu20 Au1'
_cell_volume   449.16672321
_cell_formula_units_Z   1
loop_
 _symmetry_equiv_pos_site_id
 _symmetry_equiv_pos_as_xyz
  1  'x, y, z'
loop_
 _atom_site_type_symbol
 _atom_site_label
 _atom_site_symmetry_multiplicity
 _atom_site_fract_x
 _atom_site_fract_y
 _atom_site_fract_z
 _atom_site_occupancy
  Nd  Nd0  1  0.250000  0.253209  0.570686  1
  Nd  Nd1  1  0.250000  0.760507  0.936822  1
  Nd  Nd2  1  0.750000  0.744287  0.438388  1
  Nd  Nd3  1  0.750000  0.242992  0.054204  1
  Cd  Cd4  1  0.250000  0.637906  0.637106  1
  Cd  Cd5  1  0.750000  0.862373  0.137546  1
  Cd  Cd6  1  0.750000  0.361373  0.361944  1
  Cu  Cu7  1  0.250000  0.815660  0.255602  1
  Cu  Cu8  1  0.250000  0.315421  0.244804  1
  Cu  Cu9  1  0.750000  0.184484  0.745843  1
  Cu  Cu10  1  0.750000  0.683857  0.754753  1
  Cu  Cu11  1  0.250000  0.553903  0.390632  1
  Cu  Cu12  1  0.250000  0.057284  0.108459  1
  Cu  Cu13  1  0.750000  0.444384  0.609293  1
  Cu  Cu14  1  0.750000  0.944202  0.890802  1
  Cu  Cu15  1  0.250000  0.915884  0.483343  1
  Cu  Cu16  1  0.250000  0.413492  0.016362  1
  Cu  Cu17  1  0.750000  0.085022  0.516814  1
  Cu  Cu18  1  0.750000  0.586255  0.982952  1
  Cu  Cu19  1  0.001162  0.431820  0.814331  1
  Cu  Cu20  1  0.498779  0.932565  0.687090  1
  Cu  Cu21  1  0.500682  0.567427  0.185590  1
  Cu  Cu22  1  0.999016  0.067880  0.313356  1
  Cu  Cu23  1  0.999318  0.567427  0.185590  1
  Cu  Cu24  1  0.500984  0.067880  0.313356  1
  Cu  Cu25  1  0.498838  0.431820  0.814331  1
  Cu  Cu26  1  0.001221  0.932565  0.687090  1
  Au  Au27  1  0.250000  0.138124  0.862913  1
