# generated using pymatgen
data_Dy8Ta11Si16Pt
_symmetry_space_group_name_H-M   'P 1'
_cell_length_a   7.04256936
_cell_length_b   7.04256908
_cell_length_c   12.95697332
_cell_angle_alpha   89.75577381
_cell_angle_beta   90.24422986
_cell_angle_gamma   89.63299720
_symmetry_Int_Tables_number   1
_chemical_formula_structural   Dy8Ta11Si16Pt
_chemical_formula_sum   'Dy8 Ta11 Si16 Pt1'
_cell_volume   642.61219340
_cell_formula_units_Z   1
loop_
 _symmetry_equiv_pos_site_id
 _symmetry_equiv_pos_as_xyz
  1  'x, y, z'
loop_
 _atom_site_type_symbol
 _atom_site_label
 _atom_site_symmetry_multiplicity
 _atom_site_fract_x
 _atom_site_fract_y
 _atom_site_fract_z
 _atom_site_occupancy
  Dy  Dy0  1  0.996948  0.658945  0.032338  1
  Dy  Dy1  1  0.000129  0.344233  0.531838  1
  Dy  Dy2  1  0.658945  0.996948  0.967662  1
  Dy  Dy3  1  0.158796  0.504768  0.781265  1
  Dy  Dy4  1  0.841641  0.497956  0.283987  1
  Dy  Dy5  1  0.504768  0.158796  0.218735  1
  Dy  Dy6  1  0.497956  0.841641  0.716013  1
  Dy  Dy7  1  0.344233  0.000129  0.468162  1
  Ta  Ta8  1  0.344642  0.504449  0.376589  1
  Ta  Ta9  1  0.849749  0.993448  0.376197  1
  Ta  Ta10  1  0.007239  0.151579  0.126345  1
  Ta  Ta11  1  0.993448  0.849749  0.623803  1
  Ta  Ta12  1  0.504449  0.344642  0.623411  1
  Ta  Ta13  1  0.151579  0.007239  0.873655  1
  Ta  Ta14  1  0.826484  0.173169  0.748250  1
  Ta  Ta15  1  0.173169  0.826484  0.251750  1
  Ta  Ta16  1  0.328980  0.328980  0.000000  1
  Ta  Ta17  1  0.495278  0.651615  0.125037  1
  Ta  Ta18  1  0.651615  0.495278  0.874963  1
  Si  Si19  1  0.053392  0.710413  0.437268  1
  Si  Si20  1  0.954667  0.294818  0.935758  1
  Si  Si21  1  0.710413  0.053392  0.562732  1
  Si  Si22  1  0.206010  0.454920  0.186699  1
  Si  Si23  1  0.792159  0.548642  0.685547  1
  Si  Si24  1  0.454920  0.206010  0.813301  1
  Si  Si25  1  0.548642  0.792159  0.314453  1
  Si  Si26  1  0.294818  0.954667  0.064242  1
  Si  Si27  1  0.797797  0.864129  0.183345  1
  Si  Si28  1  0.288831  0.630088  0.568945  1
  Si  Si29  1  0.704742  0.364860  0.068035  1
  Si  Si30  1  0.630088  0.288831  0.431055  1
  Si  Si31  1  0.364860  0.704742  0.931965  1
  Si  Si32  1  0.134527  0.202972  0.318028  1
  Si  Si33  1  0.202972  0.134527  0.681972  1
  Si  Si34  1  0.864129  0.797797  0.816655  1
  Pt  Pt35  1  0.666980  0.666980  0.500000  1
