# generated using pymatgen
data_PmTiGeF
_symmetry_space_group_name_H-M   'P 1'
_cell_length_a   4.02035100
_cell_length_b   4.02035100
_cell_length_c   9.11132300
_cell_angle_alpha   90.00000000
_cell_angle_beta   90.00000000
_cell_angle_gamma   90.00000000
_symmetry_Int_Tables_number   1
_chemical_formula_structural   PmTiGeF
_chemical_formula_sum   'Pm2 Ti2 Ge2 F2'
_cell_volume   147.26833785
_cell_formula_units_Z   2
loop_
 _symmetry_equiv_pos_site_id
 _symmetry_equiv_pos_as_xyz
  1  'x, y, z'
loop_
 _atom_site_type_symbol
 _atom_site_label
 _atom_site_symmetry_multiplicity
 _atom_site_fract_x
 _atom_site_fract_y
 _atom_site_fract_z
 _atom_site_occupancy
  Pm  Pm0  1  0.250001  0.250001  0.169007  1
  Pm  Pm1  1  0.750001  0.750001  0.830994  1
  Ti  Ti2  1  0.750001  0.250001  0.499999  1
  Ti  Ti3  1  0.250001  0.750001  0.499999  1
  Ge  Ge4  1  0.750001  0.750001  0.311763  1
  Ge  Ge5  1  0.250001  0.250001  0.688236  1
  F  F6  1  0.750001  0.250001  0.000000  1
  F  F7  1  0.250001  0.750001  0.000000  1
