# generated using pymatgen
data_LiCeNdAgAs4
_symmetry_space_group_name_H-M   'P 1'
_cell_length_a   4.04459500
_cell_length_b   4.03899100
_cell_length_c   10.50000300
_cell_angle_alpha   90.00000000
_cell_angle_beta   90.00000000
_cell_angle_gamma   90.00000000
_symmetry_Int_Tables_number   1
_chemical_formula_structural   LiCeNdAgAs4
_chemical_formula_sum   'Li1 Ce1 Nd1 Ag1 As4'
_cell_volume   171.52891845
_cell_formula_units_Z   1
loop_
 _symmetry_equiv_pos_site_id
 _symmetry_equiv_pos_as_xyz
  1  'x, y, z'
loop_
 _atom_site_type_symbol
 _atom_site_label
 _atom_site_symmetry_multiplicity
 _atom_site_fract_x
 _atom_site_fract_y
 _atom_site_fract_z
 _atom_site_occupancy
  Li  Li0  1  0.500000  0.500000  0.999017  1
  Ce  Ce1  1  0.000000  0.500000  0.273039  1
  Nd  Nd2  1  0.500000  0.000000  0.725911  1
  Ag  Ag3  1  0.000000  0.000000  0.002418  1
  As  As4  1  0.000000  0.500000  0.832169  1
  As  As5  1  0.500000  0.000000  0.177611  1
  As  As6  1  0.500000  0.500000  0.494987  1
  As  As7  1  0.000000  0.000000  0.494849  1
