# generated using pymatgen
data_Pu5Np3(B6Mo)4
_symmetry_space_group_name_H-M   'P 1'
_cell_length_a   3.66258300
_cell_length_b   9.32549307
_cell_length_c   11.36341908
_cell_angle_alpha   89.98614263
_cell_angle_beta   90.00000000
_cell_angle_gamma   90.00000000
_symmetry_Int_Tables_number   1
_chemical_formula_structural   Pu5Np3(B6Mo)4
_chemical_formula_sum   'Pu5 Np3 B24 Mo4'
_cell_volume   388.12202619
_cell_formula_units_Z   1
loop_
 _symmetry_equiv_pos_site_id
 _symmetry_equiv_pos_as_xyz
  1  'x, y, z'
loop_
 _atom_site_type_symbol
 _atom_site_label
 _atom_site_symmetry_multiplicity
 _atom_site_fract_x
 _atom_site_fract_y
 _atom_site_fract_z
 _atom_site_occupancy
  Pu  Pu0  1  0.000000  0.338322  0.406921  1
  Pu  Pu1  1  0.000000  0.663191  0.593109  1
  Pu  Pu2  1  0.000000  0.836835  0.093427  1
  Pu  Pu3  1  0.000000  0.162328  0.907527  1
  Pu  Pu4  1  0.000000  0.958044  0.398308  1
  Np  Np5  1  0.000000  0.042375  0.602170  1
  Np  Np6  1  0.000000  0.458605  0.100104  1
  Np  Np7  1  0.000000  0.541225  0.900371  1
  B  B8  1  0.500000  0.551974  0.432593  1
  B  B9  1  0.500000  0.447736  0.567828  1
  B  B10  1  0.500000  0.051994  0.067615  1
  B  B11  1  0.500000  0.947951  0.932346  1
  B  B12  1  0.500000  0.744484  0.423992  1
  B  B13  1  0.500000  0.254056  0.576174  1
  B  B14  1  0.500000  0.245867  0.075972  1
  B  B15  1  0.500000  0.754791  0.923999  1
  B  B16  1  0.500000  0.805313  0.273715  1
  B  B17  1  0.500000  0.193646  0.725839  1
  B  B18  1  0.500000  0.306417  0.225709  1
  B  B19  1  0.500000  0.693792  0.774208  1
  B  B20  1  0.500000  0.644703  0.186909  1
  B  B21  1  0.500000  0.354803  0.813137  1
  B  B22  1  0.500000  0.145867  0.312705  1
  B  B23  1  0.500000  0.855474  0.686832  1
  B  B24  1  0.500000  0.988598  0.219723  1
  B  B25  1  0.500000  0.012118  0.779042  1
  B  B26  1  0.500000  0.487831  0.278916  1
  B  B27  1  0.500000  0.511736  0.720931  1
  B  B28  1  0.500000  0.640115  0.038944  1
  B  B29  1  0.500000  0.360012  0.961222  1
  B  B30  1  0.500000  0.141245  0.461013  1
  B  B31  1  0.500000  0.859104  0.539329  1
  Mo  Mo32  1  0.000000  0.645666  0.318325  1
  Mo  Mo33  1  0.000000  0.352686  0.681589  1
  Mo  Mo34  1  0.000000  0.148325  0.180442  1
  Mo  Mo35  1  0.000000  0.852774  0.819014  1
