# generated using pymatgen
data_Sr(Pb2Au3)2
_symmetry_space_group_name_H-M   'P 1'
_cell_length_a   16.30709614
_cell_length_b   16.30709741
_cell_length_c   4.40921600
_cell_angle_alpha   90.00000000
_cell_angle_beta   90.00000000
_cell_angle_gamma   166.19777663
_symmetry_Int_Tables_number   1
_chemical_formula_structural   Sr(Pb2Au3)2
_chemical_formula_sum   'Sr1 Pb4 Au6'
_cell_volume   279.72583704
_cell_formula_units_Z   1
loop_
 _symmetry_equiv_pos_site_id
 _symmetry_equiv_pos_as_xyz
  1  'x, y, z'
loop_
 _atom_site_type_symbol
 _atom_site_label
 _atom_site_symmetry_multiplicity
 _atom_site_fract_x
 _atom_site_fract_y
 _atom_site_fract_z
 _atom_site_occupancy
  Sr  Sr0  1  0.000000  0.000000  0.000000  1
  Pb  Pb1  1  0.621448  0.378552  0.000000  1
  Pb  Pb2  1  0.378552  0.621448  0.000000  1
  Pb  Pb3  1  0.803319  0.196680  0.500000  1
  Pb  Pb4  1  0.196680  0.803319  0.500000  1
  Au  Au5  1  0.717379  0.282621  0.000000  1
  Au  Au6  1  0.282621  0.717379  0.000000  1
  Au  Au7  1  0.896810  0.103190  0.500000  1
  Au  Au8  1  0.541514  0.458485  0.500000  1
  Au  Au9  1  0.458485  0.541514  0.500000  1
  Au  Au10  1  0.103190  0.896810  0.500000  1
