# generated using pymatgen
data_Li2Tb3Pa(ZnRh2)2
_symmetry_space_group_name_H-M   'P 1'
_cell_length_a   3.89769200
_cell_length_b   7.06046334
_cell_length_c   8.40888021
_cell_angle_alpha   90.60857972
_cell_angle_beta   90.00000000
_cell_angle_gamma   90.00000000
_symmetry_Int_Tables_number   1
_chemical_formula_structural   Li2Tb3Pa(ZnRh2)2
_chemical_formula_sum   'Li2 Tb3 Pa1 Zn2 Rh4'
_cell_volume   231.39522182
_cell_formula_units_Z   1
loop_
 _symmetry_equiv_pos_site_id
 _symmetry_equiv_pos_as_xyz
  1  'x, y, z'
loop_
 _atom_site_type_symbol
 _atom_site_label
 _atom_site_symmetry_multiplicity
 _atom_site_fract_x
 _atom_site_fract_y
 _atom_site_fract_z
 _atom_site_occupancy
  Li  Li0  1  0.250000  0.129476  0.944960  1
  Li  Li1  1  0.250000  0.616597  0.553636  1
  Tb  Tb2  1  0.750000  0.447522  0.810048  1
  Tb  Tb3  1  0.250000  0.048877  0.320410  1
  Tb  Tb4  1  0.750000  0.943945  0.686893  1
  Pa  Pa5  1  0.250000  0.551483  0.178332  1
  Zn  Zn6  1  0.750000  0.895676  0.061945  1
  Zn  Zn7  1  0.750000  0.369620  0.445755  1
  Rh  Rh8  1  0.750000  0.737851  0.351368  1
  Rh  Rh9  1  0.250000  0.231506  0.622562  1
  Rh  Rh10  1  0.750000  0.285635  0.128289  1
  Rh  Rh11  1  0.250000  0.741811  0.895802  1
