# generated using pymatgen
data_TbErGa7Ni2Ag
_symmetry_space_group_name_H-M   'P 1'
_cell_length_a   4.10745934
_cell_length_b   6.48156163
_cell_length_c   8.01585158
_cell_angle_alpha   90.59560280
_cell_angle_beta   104.84521497
_cell_angle_gamma   90.00000749
_symmetry_Int_Tables_number   1
_chemical_formula_structural   TbErGa7Ni2Ag
_chemical_formula_sum   'Tb1 Er1 Ga7 Ni2 Ag1'
_cell_volume   206.26898512
_cell_formula_units_Z   1
loop_
 _symmetry_equiv_pos_site_id
 _symmetry_equiv_pos_as_xyz
  1  'x, y, z'
loop_
 _atom_site_type_symbol
 _atom_site_label
 _atom_site_symmetry_multiplicity
 _atom_site_fract_x
 _atom_site_fract_y
 _atom_site_fract_z
 _atom_site_occupancy
  Tb  Tb0  1  0.122331  0.237891  0.244662  1
  Er  Er1  1  0.877349  0.761943  0.754698  1
  Ga  Ga2  1  0.499299  0.998832  0.998598  1
  Ga  Ga3  1  0.068271  0.740148  0.136541  1
  Ga  Ga4  1  0.931096  0.260183  0.862194  1
  Ga  Ga5  1  0.684436  0.544889  0.368873  1
  Ga  Ga6  1  0.316376  0.456174  0.632751  1
  Ga  Ga7  1  0.687486  0.946809  0.374972  1
  Ga  Ga8  1  0.313701  0.051617  0.627402  1
  Ni  Ni9  1  0.221583  0.749886  0.443167  1
  Ni  Ni10  1  0.778945  0.249625  0.557888  1
  Ag  Ag11  1  0.499126  0.502003  0.998253  1
