# generated using pymatgen
data_LaThGa12Ir
_symmetry_space_group_name_H-M   'P 1'
_cell_length_a   6.16360800
_cell_length_b   6.16360800
_cell_length_c   15.75490200
_cell_angle_alpha   90.00000000
_cell_angle_beta   90.00000000
_cell_angle_gamma   90.00000000
_symmetry_Int_Tables_number   1
_chemical_formula_structural   LaThGa12Ir
_chemical_formula_sum   'La2 Th2 Ga24 Ir2'
_cell_volume   598.52972864
_cell_formula_units_Z   2
loop_
 _symmetry_equiv_pos_site_id
 _symmetry_equiv_pos_as_xyz
  1  'x, y, z'
loop_
 _atom_site_type_symbol
 _atom_site_label
 _atom_site_symmetry_multiplicity
 _atom_site_fract_x
 _atom_site_fract_y
 _atom_site_fract_z
 _atom_site_occupancy
  La  La0  1  0.750000  0.250000  0.241390  1
  La  La1  1  0.250000  0.750000  0.241390  1
  Th  Th2  1  0.250000  0.750000  0.759136  1
  Th  Th3  1  0.750000  0.250000  0.759136  1
  Ga  Ga4  1  0.250000  0.250000  0.187656  1
  Ga  Ga5  1  0.750000  0.750000  0.187656  1
  Ga  Ga6  1  0.750000  0.750000  0.809775  1
  Ga  Ga7  1  0.250000  0.250000  0.809775  1
  Ga  Ga8  1  0.250000  0.250000  0.346540  1
  Ga  Ga9  1  0.750000  0.750000  0.346540  1
  Ga  Ga10  1  0.750000  0.750000  0.653400  1
  Ga  Ga11  1  0.250000  0.250000  0.653400  1
  Ga  Ga12  1  0.500303  0.000303  0.911883  1
  Ga  Ga13  1  0.000303  0.999697  0.911883  1
  Ga  Ga14  1  0.499697  0.500303  0.911883  1
  Ga  Ga15  1  0.999697  0.499697  0.911883  1
  Ga  Ga16  1  0.499956  0.999956  0.085097  1
  Ga  Ga17  1  0.999956  0.000044  0.085097  1
  Ga  Ga18  1  0.500044  0.499956  0.085097  1
  Ga  Ga19  1  0.000044  0.500044  0.085097  1
  Ga  Ga20  1  0.575397  0.075397  0.434071  1
  Ga  Ga21  1  0.075397  0.924603  0.434071  1
  Ga  Ga22  1  0.424603  0.575397  0.434071  1
  Ga  Ga23  1  0.924603  0.424603  0.434071  1
  Ga  Ga24  1  0.413140  0.913140  0.571326  1
  Ga  Ga25  1  0.913140  0.086860  0.571326  1
  Ga  Ga26  1  0.586860  0.413140  0.571326  1
  Ga  Ga27  1  0.086860  0.586860  0.571326  1
  Ir  Ir28  1  0.750000  0.250000  0.997347  1
  Ir  Ir29  1  0.250000  0.750000  0.997347  1
