# generated using pymatgen
data_Zr3Ti2SnBi2B
_symmetry_space_group_name_H-M   'P 1'
_cell_length_a   8.49782901
_cell_length_b   8.49782850
_cell_length_c   5.70615100
_cell_angle_alpha   90.00000000
_cell_angle_beta   90.00000000
_cell_angle_gamma   119.73434524
_symmetry_Int_Tables_number   1
_chemical_formula_structural   Zr3Ti2SnBi2B
_chemical_formula_sum   'Zr6 Ti4 Sn2 Bi4 B2'
_cell_volume   357.80482893
_cell_formula_units_Z   2
loop_
 _symmetry_equiv_pos_site_id
 _symmetry_equiv_pos_as_xyz
  1  'x, y, z'
loop_
 _atom_site_type_symbol
 _atom_site_label
 _atom_site_symmetry_multiplicity
 _atom_site_fract_x
 _atom_site_fract_y
 _atom_site_fract_z
 _atom_site_occupancy
  Zr  Zr0  1  0.770671  0.770671  0.750000  1
  Zr  Zr1  1  0.229834  0.998550  0.750000  1
  Zr  Zr2  1  0.998550  0.229834  0.750000  1
  Zr  Zr3  1  0.229932  0.229932  0.250000  1
  Zr  Zr4  1  0.769802  0.005182  0.250000  1
  Zr  Zr5  1  0.005182  0.769802  0.250000  1
  Ti  Ti6  1  0.667376  0.331312  0.004965  1
  Ti  Ti7  1  0.331312  0.667376  0.004965  1
  Ti  Ti8  1  0.331312  0.667376  0.495035  1
  Ti  Ti9  1  0.667376  0.331312  0.495035  1
  Sn  Sn10  1  0.403493  0.000876  0.250000  1
  Sn  Sn11  1  0.000876  0.403493  0.250000  1
  Bi  Bi12  1  0.402719  0.402719  0.750000  1
  Bi  Bi13  1  0.592920  0.999602  0.750000  1
  Bi  Bi14  1  0.999602  0.592920  0.750000  1
  Bi  Bi15  1  0.599608  0.599608  0.250000  1
  B  B16  1  0.999717  0.999717  0.000684  1
  B  B17  1  0.999717  0.999717  0.499316  1
