# generated using pymatgen
data_LiYb4(AsRh)6
_symmetry_space_group_name_H-M   'P 1'
_cell_length_a   7.32750225
_cell_length_b   7.32790732
_cell_length_c   7.32710602
_cell_angle_alpha   109.47189312
_cell_angle_beta   109.47500616
_cell_angle_gamma   109.46353999
_symmetry_Int_Tables_number   1
_chemical_formula_structural   LiYb4(AsRh)6
_chemical_formula_sum   'Li1 Yb4 As6 Rh6'
_cell_volume   302.87524707
_cell_formula_units_Z   1
loop_
 _symmetry_equiv_pos_site_id
 _symmetry_equiv_pos_as_xyz
  1  'x, y, z'
loop_
 _atom_site_type_symbol
 _atom_site_label
 _atom_site_symmetry_multiplicity
 _atom_site_fract_x
 _atom_site_fract_y
 _atom_site_fract_z
 _atom_site_occupancy
  Li  Li0  1  0.000000  0.000000  0.000000  1
  Yb  Yb1  1  0.500000  0.500000  0.500000  1
  Yb  Yb2  1  0.000000  0.500000  0.000000  1
  Yb  Yb3  1  0.500000  0.000000  0.000000  1
  Yb  Yb4  1  0.000000  0.000000  0.500000  1
  As  As5  1  0.669159  0.000003  0.669160  1
  As  As6  1  0.669237  0.669250  0.000004  1
  As  As7  1  0.330763  0.330750  0.999996  1
  As  As8  1  0.000003  0.669161  0.669156  1
  As  As9  1  0.999997  0.330839  0.330844  1
  As  As10  1  0.330841  0.999997  0.330840  1
  Rh  Rh11  1  0.500007  0.750005  0.250012  1
  Rh  Rh12  1  0.750001  0.250003  0.500008  1
  Rh  Rh13  1  0.249999  0.749997  0.499992  1
  Rh  Rh14  1  0.250002  0.499993  0.749989  1
  Rh  Rh15  1  0.499993  0.249995  0.749988  1
  Rh  Rh16  1  0.749998  0.500007  0.250011  1
