# generated using pymatgen
data_KRb3VCl6
_symmetry_space_group_name_H-M   'P 1'
_cell_length_a   8.83899785
_cell_length_b   8.83899710
_cell_length_c   8.83900488
_cell_angle_alpha   90.43322243
_cell_angle_beta   90.43322137
_cell_angle_gamma   90.43317530
_symmetry_Int_Tables_number   1
_chemical_formula_structural   KRb3VCl6
_chemical_formula_sum   'K2 Rb6 V2 Cl12'
_cell_volume   690.51316445
_cell_formula_units_Z   2
loop_
 _symmetry_equiv_pos_site_id
 _symmetry_equiv_pos_as_xyz
  1  'x, y, z'
loop_
 _atom_site_type_symbol
 _atom_site_label
 _atom_site_symmetry_multiplicity
 _atom_site_fract_x
 _atom_site_fract_y
 _atom_site_fract_z
 _atom_site_occupancy
  K  K0  1  0.249999  0.250001  0.250000  1
  K  K1  1  0.750001  0.749999  0.750000  1
  Rb  Rb2  1  0.374073  0.125927  0.750000  1
  Rb  Rb3  1  0.125926  0.750000  0.374074  1
  Rb  Rb4  1  0.750000  0.374074  0.125926  1
  Rb  Rb5  1  0.625927  0.874073  0.250000  1
  Rb  Rb6  1  0.250000  0.625926  0.874074  1
  Rb  Rb7  1  0.874074  0.250000  0.625926  1
  V  V8  1  0.000000  0.000000  0.000000  1
  V  V9  1  0.500000  0.500000  0.500000  1
  Cl  Cl10  1  0.948401  0.070581  0.272831  1
  Cl  Cl11  1  0.070581  0.272831  0.948401  1
  Cl  Cl12  1  0.272831  0.948401  0.070581  1
  Cl  Cl13  1  0.570581  0.448401  0.772831  1
  Cl  Cl14  1  0.772831  0.570581  0.448401  1
  Cl  Cl15  1  0.448401  0.772831  0.570581  1
  Cl  Cl16  1  0.227169  0.429419  0.551599  1
  Cl  Cl17  1  0.429419  0.551599  0.227169  1
  Cl  Cl18  1  0.551599  0.227169  0.429419  1
  Cl  Cl19  1  0.929419  0.727169  0.051599  1
  Cl  Cl20  1  0.051599  0.929419  0.727169  1
  Cl  Cl21  1  0.727169  0.051599  0.929419  1
