# generated using pymatgen
data_Gd8Zr2Ir5Rh
_symmetry_space_group_name_H-M   'P 1'
_cell_length_a   10.88759500
_cell_length_b   10.88759500
_cell_length_c   6.28128300
_cell_angle_alpha   90.00000000
_cell_angle_beta   90.00000000
_cell_angle_gamma   90.00000000
_symmetry_Int_Tables_number   1
_chemical_formula_structural   Gd8Zr2Ir5Rh
_chemical_formula_sum   'Gd16 Zr4 Ir10 Rh2'
_cell_volume   744.58155874
_cell_formula_units_Z   2
loop_
 _symmetry_equiv_pos_site_id
 _symmetry_equiv_pos_as_xyz
  1  'x, y, z'
loop_
 _atom_site_type_symbol
 _atom_site_label
 _atom_site_symmetry_multiplicity
 _atom_site_fract_x
 _atom_site_fract_y
 _atom_site_fract_z
 _atom_site_occupancy
  Gd  Gd0  1  0.288253  0.087220  0.374127  1
  Gd  Gd1  1  0.288253  0.912780  0.874127  1
  Gd  Gd2  1  0.711747  0.087220  0.874127  1
  Gd  Gd3  1  0.711747  0.912780  0.374127  1
  Gd  Gd4  1  0.587220  0.788253  0.874127  1
  Gd  Gd5  1  0.587220  0.211747  0.374127  1
  Gd  Gd6  1  0.412780  0.788253  0.374127  1
  Gd  Gd7  1  0.412780  0.211747  0.874127  1
  Gd  Gd8  1  0.210769  0.412489  0.625712  1
  Gd  Gd9  1  0.210769  0.587511  0.125712  1
  Gd  Gd10  1  0.789231  0.412489  0.125712  1
  Gd  Gd11  1  0.789231  0.587511  0.625712  1
  Gd  Gd12  1  0.912489  0.710769  0.125712  1
  Gd  Gd13  1  0.912489  0.289231  0.625712  1
  Gd  Gd14  1  0.087511  0.710769  0.625712  1
  Gd  Gd15  1  0.087511  0.289231  0.125712  1
  Zr  Zr16  1  0.000000  0.000000  0.500058  1
  Zr  Zr17  1  0.000000  0.000000  0.000058  1
  Zr  Zr18  1  0.500000  0.500000  0.000058  1
  Zr  Zr19  1  0.500000  0.500000  0.500058  1
  Ir  Ir20  1  0.854762  0.143614  0.249797  1
  Ir  Ir21  1  0.854762  0.856386  0.749797  1
  Ir  Ir22  1  0.145238  0.143614  0.749797  1
  Ir  Ir23  1  0.145238  0.856386  0.249797  1
  Ir  Ir24  1  0.643614  0.354762  0.749797  1
  Ir  Ir25  1  0.643614  0.645238  0.249797  1
  Ir  Ir26  1  0.356386  0.354762  0.249797  1
  Ir  Ir27  1  0.356386  0.645238  0.749797  1
  Ir  Ir28  1  0.000000  0.500000  0.880327  1
  Ir  Ir29  1  0.000000  0.500000  0.380327  1
  Rh  Rh30  1  0.500000  0.000000  0.121016  1
  Rh  Rh31  1  0.500000  0.000000  0.621016  1
