# generated using pymatgen
data_Lu5In3S
_symmetry_space_group_name_H-M   'P 1'
_cell_length_a   8.94277700
_cell_length_b   8.94277670
_cell_length_c   6.57376400
_cell_angle_alpha   90.00000000
_cell_angle_beta   90.00000000
_cell_angle_gamma   119.99999743
_symmetry_Int_Tables_number   1
_chemical_formula_structural   Lu5In3S
_chemical_formula_sum   'Lu10 In6 S2'
_cell_volume   455.29149675
_cell_formula_units_Z   2
loop_
 _symmetry_equiv_pos_site_id
 _symmetry_equiv_pos_as_xyz
  1  'x, y, z'
loop_
 _atom_site_type_symbol
 _atom_site_label
 _atom_site_symmetry_multiplicity
 _atom_site_fract_x
 _atom_site_fract_y
 _atom_site_fract_z
 _atom_site_occupancy
  Lu  Lu0  1  0.757269  0.757269  0.750000  1
  Lu  Lu1  1  0.242731  0.000000  0.750000  1
  Lu  Lu2  1  0.000000  0.242731  0.750000  1
  Lu  Lu3  1  0.242731  0.242731  0.250000  1
  Lu  Lu4  1  0.757269  0.000000  0.250000  1
  Lu  Lu5  1  0.000000  0.757269  0.250000  1
  Lu  Lu6  1  0.666667  0.333333  0.000000  1
  Lu  Lu7  1  0.333333  0.666667  0.000000  1
  Lu  Lu8  1  0.333333  0.666667  0.500000  1
  Lu  Lu9  1  0.666667  0.333333  0.500000  1
  In  In10  1  0.400396  0.400396  0.750000  1
  In  In11  1  0.599604  0.000000  0.750000  1
  In  In12  1  0.000000  0.599604  0.750000  1
  In  In13  1  0.599604  0.599604  0.250000  1
  In  In14  1  0.400396  0.000000  0.250000  1
  In  In15  1  0.000000  0.400396  0.250000  1
  S  S16  1  0.000000  0.000000  0.000000  1
  S  S17  1  0.000000  0.000000  0.500000  1
