# generated using pymatgen
data_Hf2GaSiMo2
_symmetry_space_group_name_H-M   'P 1'
_cell_length_a   3.50701100
_cell_length_b   7.01598725
_cell_length_c   8.34185025
_cell_angle_alpha   90.96047437
_cell_angle_beta   90.00000000
_cell_angle_gamma   90.00000000
_symmetry_Int_Tables_number   1
_chemical_formula_structural   Hf2GaSiMo2
_chemical_formula_sum   'Hf4 Ga2 Si2 Mo4'
_cell_volume   205.22359193
_cell_formula_units_Z   2
loop_
 _symmetry_equiv_pos_site_id
 _symmetry_equiv_pos_as_xyz
  1  'x, y, z'
loop_
 _atom_site_type_symbol
 _atom_site_label
 _atom_site_symmetry_multiplicity
 _atom_site_fract_x
 _atom_site_fract_y
 _atom_site_fract_z
 _atom_site_occupancy
  Hf  Hf0  1  0.250000  0.053217  0.330286  1
  Hf  Hf1  1  0.750000  0.946783  0.669714  1
  Hf  Hf2  1  0.250000  0.543285  0.163729  1
  Hf  Hf3  1  0.750000  0.456715  0.836271  1
  Ga  Ga4  1  0.250000  0.250249  0.638359  1
  Ga  Ga5  1  0.750000  0.749751  0.361641  1
  Si  Si6  1  0.250000  0.756027  0.862408  1
  Si  Si7  1  0.750000  0.243973  0.137592  1
  Mo  Mo8  1  0.750000  0.371790  0.434517  1
  Mo  Mo9  1  0.250000  0.628210  0.565483  1
  Mo  Mo10  1  0.750000  0.869144  0.058633  1
  Mo  Mo11  1  0.250000  0.130856  0.941367  1
