# generated using pymatgen
data_KSm5Tm5(C2I9)2
_symmetry_space_group_name_H-M   'P 1'
_cell_length_a   11.44307981
_cell_length_b   11.48259896
_cell_length_c   11.56543325
_cell_angle_alpha   113.40046657
_cell_angle_beta   87.00827998
_cell_angle_gamma   119.69447995
_symmetry_Int_Tables_number   1
_chemical_formula_structural   KSm5Tm5(C2I9)2
_chemical_formula_sum   'K1 Sm5 Tm5 C4 I18'
_cell_volume   1191.43647027
_cell_formula_units_Z   1
loop_
 _symmetry_equiv_pos_site_id
 _symmetry_equiv_pos_as_xyz
  1  'x, y, z'
loop_
 _atom_site_type_symbol
 _atom_site_label
 _atom_site_symmetry_multiplicity
 _atom_site_fract_x
 _atom_site_fract_y
 _atom_site_fract_z
 _atom_site_occupancy
  K  K0  1  0.500958  0.998344  0.499307  1
  Sm  Sm1  1  0.107461  0.945154  0.001236  1
  Sm  Sm2  1  0.034858  0.961825  0.672082  1
  Sm  Sm3  1  0.328152  0.278213  0.292791  1
  Sm  Sm4  1  0.719650  0.641343  0.982684  1
  Sm  Sm5  1  0.893079  0.056133  0.999884  1
  Tm  Tm6  1  0.678541  0.725120  0.712641  1
  Tm  Tm7  1  0.274183  0.351656  0.019901  1
  Tm  Tm8  1  0.094599  0.388932  0.291538  1
  Tm  Tm9  1  0.966905  0.040682  0.321439  1
  Tm  Tm10  1  0.906095  0.610928  0.708533  1
  C  C11  1  0.152942  0.223993  0.124688  1
  C  C12  1  0.844522  0.774228  0.873439  1
  C  C13  1  0.919663  0.850436  0.798161  1
  C  C14  1  0.077316  0.147746  0.199830  1
  I  I15  1  0.445761  0.531024  0.828320  1
  I  I16  1  0.388892  0.035844  0.158425  1
  I  I17  1  0.769828  0.856282  0.501317  1
  I  I18  1  0.841943  0.317509  0.159038  1
  I  I19  1  0.548720  0.470225  0.166278  1
  I  I20  1  0.219743  0.142136  0.497296  1
  I  I21  1  0.321181  0.103906  0.833624  1
  I  I22  1  0.684911  0.906580  0.175529  1
  I  I23  1  0.976531  0.760448  0.175207  1
  I  I24  1  0.936079  0.296101  0.496751  1
  I  I25  1  0.030535  0.251417  0.835502  1
  I  I26  1  0.065504  0.694394  0.500255  1
  I  I27  1  0.263609  0.621319  0.188065  1
  I  I28  1  0.738994  0.370361  0.803102  1
  I  I29  1  0.645011  0.440483  0.503642  1
  I  I30  1  0.157381  0.682233  0.840878  1
  I  I31  1  0.612361  0.955143  0.837275  1
  I  I32  1  0.354093  0.569862  0.501341  1
