# generated using pymatgen
data_Ba10Ga4Si13P
_symmetry_space_group_name_H-M   'P 1'
_cell_length_a   6.68337406
_cell_length_b   6.68337345
_cell_length_c   18.32102885
_cell_angle_alpha   81.79645771
_cell_angle_beta   81.79644941
_cell_angle_gamma   100.55168455
_symmetry_Int_Tables_number   1
_chemical_formula_structural   Ba10Ga4Si13P
_chemical_formula_sum   'Ba10 Ga4 Si13 P1'
_cell_volume   784.20728954
_cell_formula_units_Z   1
loop_
 _symmetry_equiv_pos_site_id
 _symmetry_equiv_pos_as_xyz
  1  'x, y, z'
loop_
 _atom_site_type_symbol
 _atom_site_label
 _atom_site_symmetry_multiplicity
 _atom_site_fract_x
 _atom_site_fract_y
 _atom_site_fract_z
 _atom_site_occupancy
  Ba  Ba0  1  0.748428  0.253639  0.998725  1
  Ba  Ba1  1  0.117930  0.573205  0.789343  1
  Ba  Ba2  1  0.288823  0.710710  0.500303  1
  Ba  Ba3  1  0.760693  0.760693  0.643969  1
  Ba  Ba4  1  0.240655  0.240655  0.354682  1
  Ba  Ba5  1  0.573205  0.117930  0.789343  1
  Ba  Ba6  1  0.253639  0.748428  0.998725  1
  Ba  Ba7  1  0.710710  0.288823  0.500303  1
  Ba  Ba8  1  0.426927  0.884461  0.210375  1
  Ba  Ba9  1  0.884461  0.426927  0.210375  1
  Ga  Ga10  1  0.224905  0.224905  0.068434  1
  Ga  Ga11  1  0.937562  0.937562  0.261475  1
  Ga  Ga12  1  0.060552  0.060552  0.737469  1
  Ga  Ga13  1  0.780349  0.780349  0.931129  1
  Si  Si14  1  0.349849  0.349849  0.643949  1
  Si  Si15  1  0.292885  0.292885  0.930554  1
  Si  Si16  1  0.936313  0.936313  0.127460  1
  Si  Si17  1  0.649830  0.649830  0.356959  1
  Si  Si18  1  0.426354  0.426354  0.147069  1
  Si  Si19  1  0.065410  0.065410  0.869561  1
  Si  Si20  1  0.817934  0.817934  0.448981  1
  Si  Si21  1  0.332783  0.976211  0.642058  1
  Si  Si22  1  0.668523  0.023239  0.358620  1
  Si  Si23  1  0.183495  0.183495  0.551216  1
  Si  Si24  1  0.976211  0.332783  0.642058  1
  Si  Si25  1  0.023239  0.668523  0.358620  1
  Si  Si26  1  0.704102  0.704102  0.068831  1
  P  P27  1  0.564233  0.564233  0.859419  1
