# generated using pymatgen
data_Hf2Si2IrAu
_symmetry_space_group_name_H-M   'P 1'
_cell_length_a   3.94938400
_cell_length_b   6.64042844
_cell_length_c   7.60516387
_cell_angle_alpha   88.39980206
_cell_angle_beta   90.00000000
_cell_angle_gamma   90.00000000
_symmetry_Int_Tables_number   1
_chemical_formula_structural   Hf2Si2IrAu
_chemical_formula_sum   'Hf4 Si4 Ir2 Au2'
_cell_volume   199.37221768
_cell_formula_units_Z   2
loop_
 _symmetry_equiv_pos_site_id
 _symmetry_equiv_pos_as_xyz
  1  'x, y, z'
loop_
 _atom_site_type_symbol
 _atom_site_label
 _atom_site_symmetry_multiplicity
 _atom_site_fract_x
 _atom_site_fract_y
 _atom_site_fract_z
 _atom_site_occupancy
  Hf  Hf0  1  0.250000  0.521577  0.186036  1
  Hf  Hf1  1  0.750000  0.478423  0.813964  1
  Hf  Hf2  1  0.250000  0.024634  0.330457  1
  Hf  Hf3  1  0.750000  0.975366  0.669543  1
  Si  Si4  1  0.250000  0.750504  0.864654  1
  Si  Si5  1  0.750000  0.249496  0.135346  1
  Si  Si6  1  0.250000  0.269179  0.608283  1
  Si  Si7  1  0.750000  0.730821  0.391717  1
  Ir  Ir8  1  0.750000  0.358927  0.438447  1
  Ir  Ir9  1  0.250000  0.641073  0.561553  1
  Au  Au10  1  0.750000  0.847152  0.066859  1
  Au  Au11  1  0.250000  0.152848  0.933141  1
