# generated using pymatgen
data_TbTa5NbCl18
_symmetry_space_group_name_H-M   'P 1'
_cell_length_a   10.15031268
_cell_length_b   10.14875635
_cell_length_c   10.14645704
_cell_angle_alpha   55.99370673
_cell_angle_beta   56.00221093
_cell_angle_gamma   55.97448155
_symmetry_Int_Tables_number   1
_chemical_formula_structural   TbTa5NbCl18
_chemical_formula_sum   'Tb1 Ta5 Nb1 Cl18'
_cell_volume   670.41898647
_cell_formula_units_Z   1
loop_
 _symmetry_equiv_pos_site_id
 _symmetry_equiv_pos_as_xyz
  1  'x, y, z'
loop_
 _atom_site_type_symbol
 _atom_site_label
 _atom_site_symmetry_multiplicity
 _atom_site_fract_x
 _atom_site_fract_y
 _atom_site_fract_z
 _atom_site_occupancy
  Tb  Tb0  1  0.999845  0.999711  0.000118  1
  Ta  Ta1  1  0.409232  0.302273  0.648366  1
  Ta  Ta2  1  0.351261  0.591440  0.698183  1
  Ta  Ta3  1  0.698444  0.351271  0.591110  1
  Ta  Ta4  1  0.301822  0.649119  0.408573  1
  Ta  Ta5  1  0.649000  0.408965  0.301496  1
  Nb  Nb6  1  0.591463  0.699244  0.350501  1
  Cl  Cl7  1  0.568335  0.161740  0.441963  1
  Cl  Cl8  1  0.223715  0.371463  0.907573  1
  Cl  Cl9  1  0.907458  0.223432  0.371582  1
  Cl  Cl10  1  0.368382  0.908569  0.223434  1
  Cl  Cl11  1  0.777468  0.626660  0.090703  1
  Cl  Cl12  1  0.092426  0.776273  0.628641  1
  Cl  Cl13  1  0.703448  0.958184  0.159989  1
  Cl  Cl14  1  0.954516  0.161891  0.702401  1
  Cl  Cl15  1  0.162311  0.701515  0.955055  1
  Cl  Cl16  1  0.297671  0.046376  0.837128  1
  Cl  Cl17  1  0.045405  0.836781  0.298085  1
  Cl  Cl18  1  0.837698  0.297392  0.045742  1
  Cl  Cl19  1  0.557918  0.431644  0.838307  1
  Cl  Cl20  1  0.161883  0.442132  0.568147  1
  Cl  Cl21  1  0.442006  0.568122  0.161826  1
  Cl  Cl22  1  0.429561  0.838356  0.560966  1
  Cl  Cl23  1  0.840034  0.555150  0.433584  1
  Cl  Cl24  1  0.628697  0.092300  0.776523  1
