# generated using pymatgen
data_Nd(Cd2Ag)4
_symmetry_space_group_name_H-M   'P 1'
_cell_length_a   7.56957220
_cell_length_b   7.56957157
_cell_length_c   7.56957195
_cell_angle_alpha   98.34974333
_cell_angle_beta   98.34974771
_cell_angle_gamma   135.19990120
_symmetry_Int_Tables_number   1
_chemical_formula_structural   Nd(Cd2Ag)4
_chemical_formula_sum   'Nd1 Cd8 Ag4'
_cell_volume   282.55747557
_cell_formula_units_Z   1
loop_
 _symmetry_equiv_pos_site_id
 _symmetry_equiv_pos_as_xyz
  1  'x, y, z'
loop_
 _atom_site_type_symbol
 _atom_site_label
 _atom_site_symmetry_multiplicity
 _atom_site_fract_x
 _atom_site_fract_y
 _atom_site_fract_z
 _atom_site_occupancy
  Nd  Nd0  1  0.000000  0.000000  0.000000  1
  Cd  Cd1  1  0.000000  0.344608  0.344608  1
  Cd  Cd2  1  0.000000  0.655392  0.655392  1
  Cd  Cd3  1  0.655392  0.000000  0.655392  1
  Cd  Cd4  1  0.344608  0.000000  0.344608  1
  Cd  Cd5  1  0.500000  0.283238  0.783238  1
  Cd  Cd6  1  0.500000  0.716762  0.216762  1
  Cd  Cd7  1  0.716762  0.500000  0.216762  1
  Cd  Cd8  1  0.283238  0.500000  0.783238  1
  Ag  Ag9  1  0.000000  0.000000  0.500000  1
  Ag  Ag10  1  0.500000  0.500000  0.500000  1
  Ag  Ag11  1  0.500000  0.000000  0.000000  1
  Ag  Ag12  1  0.000000  0.500000  0.000000  1
