# generated using pymatgen
data_TbHo11Tc4
_symmetry_space_group_name_H-M   'P 1'
_cell_length_a   6.22698000
_cell_length_b   7.36053077
_cell_length_c   9.09313100
_cell_angle_alpha   90.00000000
_cell_angle_beta   90.00000000
_cell_angle_gamma   90.04971764
_symmetry_Int_Tables_number   1
_chemical_formula_structural   TbHo11Tc4
_chemical_formula_sum   'Tb1 Ho11 Tc4'
_cell_volume   416.77329908
_cell_formula_units_Z   1
loop_
 _symmetry_equiv_pos_site_id
 _symmetry_equiv_pos_as_xyz
  1  'x, y, z'
loop_
 _atom_site_type_symbol
 _atom_site_label
 _atom_site_symmetry_multiplicity
 _atom_site_fract_x
 _atom_site_fract_y
 _atom_site_fract_z
 _atom_site_occupancy
  Tb  Tb0  1  0.373163  0.958246  0.750000  1
  Ho  Ho1  1  0.339386  0.675369  0.062606  1
  Ho  Ho2  1  0.160048  0.177117  0.437504  1
  Ho  Ho3  1  0.660996  0.323636  0.562054  1
  Ho  Ho4  1  0.840409  0.823555  0.938023  1
  Ho  Ho5  1  0.660996  0.323636  0.937946  1
  Ho  Ho6  1  0.840409  0.823555  0.561977  1
  Ho  Ho7  1  0.339386  0.675369  0.437394  1
  Ho  Ho8  1  0.160048  0.177117  0.062496  1
  Ho  Ho9  1  0.872151  0.542018  0.250000  1
  Ho  Ho10  1  0.626632  0.040749  0.250000  1
  Ho  Ho11  1  0.127381  0.458732  0.750000  1
  Tc  Tc12  1  0.041196  0.887121  0.250000  1
  Tc  Tc13  1  0.458856  0.386275  0.250000  1
  Tc  Tc14  1  0.958250  0.114047  0.750000  1
  Tc  Tc15  1  0.540689  0.613456  0.750000  1
