# generated using pymatgen
data_Eu6Mn3CrC12
_symmetry_space_group_name_H-M   'P 1'
_cell_length_a   8.23817700
_cell_length_b   8.23817699
_cell_length_c   5.18778900
_cell_angle_alpha   90.00000000
_cell_angle_beta   90.00000000
_cell_angle_gamma   119.99999385
_symmetry_Int_Tables_number   1
_chemical_formula_structural   Eu6Mn3CrC12
_chemical_formula_sum   'Eu6 Mn3 Cr1 C12'
_cell_volume   304.91247953
_cell_formula_units_Z   1
loop_
 _symmetry_equiv_pos_site_id
 _symmetry_equiv_pos_as_xyz
  1  'x, y, z'
loop_
 _atom_site_type_symbol
 _atom_site_label
 _atom_site_symmetry_multiplicity
 _atom_site_fract_x
 _atom_site_fract_y
 _atom_site_fract_z
 _atom_site_occupancy
  Eu  Eu0  1  0.607945  0.688628  0.748437  1
  Eu  Eu1  1  0.919317  0.607945  0.251563  1
  Eu  Eu2  1  0.688628  0.080683  0.251563  1
  Eu  Eu3  1  0.311372  0.919317  0.748437  1
  Eu  Eu4  1  0.080683  0.392055  0.748437  1
  Eu  Eu5  1  0.392055  0.311372  0.251563  1
  Mn  Mn6  1  0.000000  0.000000  0.000000  1
  Mn  Mn7  1  0.666667  0.333333  0.752228  1
  Mn  Mn8  1  0.333333  0.666667  0.247772  1
  Cr  Cr9  1  0.000000  0.000000  0.500000  1
  C  C10  1  0.948980  0.771215  0.746968  1
  C  C11  1  0.177766  0.948980  0.253032  1
  C  C12  1  0.771215  0.822234  0.253032  1
  C  C13  1  0.228785  0.177766  0.746968  1
  C  C14  1  0.822234  0.051020  0.746968  1
  C  C15  1  0.051020  0.228785  0.253032  1
  C  C16  1  0.853769  0.579894  0.752296  1
  C  C17  1  0.273873  0.853769  0.247704  1
  C  C18  1  0.579894  0.726127  0.247704  1
  C  C19  1  0.420106  0.273873  0.752296  1
  C  C20  1  0.146231  0.420106  0.247704  1
  C  C21  1  0.726127  0.146231  0.752296  1
