# generated using pymatgen
data_Yb4DyHo5Ru4
_symmetry_space_group_name_H-M   'P 1'
_cell_length_a   6.42968042
_cell_length_b   7.23837545
_cell_length_c   8.51951309
_cell_angle_alpha   97.13627928
_cell_angle_beta   112.25474445
_cell_angle_gamma   90.09097309
_symmetry_Int_Tables_number   1
_chemical_formula_structural   Yb4DyHo5Ru4
_chemical_formula_sum   'Yb4 Dy1 Ho5 Ru4'
_cell_volume   363.61238959
_cell_formula_units_Z   1
loop_
 _symmetry_equiv_pos_site_id
 _symmetry_equiv_pos_as_xyz
  1  'x, y, z'
loop_
 _atom_site_type_symbol
 _atom_site_label
 _atom_site_symmetry_multiplicity
 _atom_site_fract_x
 _atom_site_fract_y
 _atom_site_fract_z
 _atom_site_occupancy
  Yb  Yb0  1  0.978526  0.919477  0.182679  1
  Yb  Yb1  1  0.795664  0.580422  0.817263  1
  Yb  Yb2  1  0.021691  0.080748  0.817303  1
  Yb  Yb3  1  0.204188  0.419316  0.182725  1
  Dy  Dy4  1  0.635707  0.816658  0.434300  1
  Ho  Ho5  1  0.201367  0.683083  0.565621  1
  Ho  Ho6  1  0.364172  0.183374  0.566026  1
  Ho  Ho7  1  0.799093  0.316815  0.434510  1
  Ho  Ho8  1  0.430576  0.750286  0.999546  1
  Ho  Ho9  1  0.569298  0.249613  0.000068  1
  Ru  Ru10  1  0.816164  0.574014  0.230452  1
  Ru  Ru11  1  0.585095  0.925689  0.769848  1
  Ru  Ru12  1  0.183981  0.425653  0.769118  1
  Ru  Ru13  1  0.414479  0.074853  0.230541  1
