# generated using pymatgen
data_Y8Hf11Si16Au
_symmetry_space_group_name_H-M   'P 1'
_cell_length_a   7.29278425
_cell_length_b   7.29278368
_cell_length_c   13.26682813
_cell_angle_alpha   89.77313089
_cell_angle_beta   90.22686939
_cell_angle_gamma   89.81169037
_symmetry_Int_Tables_number   1
_chemical_formula_structural   Y8Hf11Si16Au
_chemical_formula_sum   'Y8 Hf11 Si16 Au1'
_cell_volume   705.57733726
_cell_formula_units_Z   1
loop_
 _symmetry_equiv_pos_site_id
 _symmetry_equiv_pos_as_xyz
  1  'x, y, z'
loop_
 _atom_site_type_symbol
 _atom_site_label
 _atom_site_symmetry_multiplicity
 _atom_site_fract_x
 _atom_site_fract_y
 _atom_site_fract_z
 _atom_site_occupancy
  Y  Y0  1  0.998061  0.345675  0.210518  1
  Y  Y1  1  0.004920  0.655186  0.716613  1
  Y  Y2  1  0.155061  0.495500  0.464809  1
  Y  Y3  1  0.498296  0.848382  0.032695  1
  Y  Y4  1  0.848382  0.498296  0.967305  1
  Y  Y5  1  0.495500  0.155061  0.535191  1
  Y  Y6  1  0.345675  0.998061  0.789482  1
  Y  Y7  1  0.655186  0.004920  0.283387  1
  Hf  Hf8  1  0.824728  0.824728  0.500000  1
  Hf  Hf9  1  0.322960  0.676919  0.249080  1
  Hf  Hf10  1  0.676919  0.322960  0.750920  1
  Hf  Hf11  1  0.145469  0.996347  0.373856  1
  Hf  Hf12  1  0.857178  0.003290  0.878884  1
  Hf  Hf13  1  0.504339  0.646773  0.626413  1
  Hf  Hf14  1  0.355341  0.491539  0.877800  1
  Hf  Hf15  1  0.491539  0.355341  0.122200  1
  Hf  Hf16  1  0.646773  0.504339  0.373587  1
  Hf  Hf17  1  0.996347  0.145469  0.626144  1
  Hf  Hf18  1  0.003290  0.857178  0.121116  1
  Si  Si19  1  0.359872  0.296025  0.316291  1
  Si  Si20  1  0.639735  0.704321  0.819751  1
  Si  Si21  1  0.207029  0.861292  0.568572  1
  Si  Si22  1  0.131443  0.774761  0.927219  1
  Si  Si23  1  0.774761  0.131443  0.072781  1
  Si  Si24  1  0.861292  0.207029  0.431428  1
  Si  Si25  1  0.296025  0.359872  0.683709  1
  Si  Si26  1  0.704321  0.639735  0.180249  1
  Si  Si27  1  0.295189  0.052066  0.188969  1
  Si  Si28  1  0.704971  0.950388  0.686866  1
  Si  Si29  1  0.450041  0.795327  0.435540  1
  Si  Si30  1  0.210446  0.566670  0.064249  1
  Si  Si31  1  0.566670  0.210446  0.935751  1
  Si  Si32  1  0.795327  0.450041  0.564460  1
  Si  Si33  1  0.052066  0.295189  0.811031  1
  Si  Si34  1  0.950388  0.704971  0.313134  1
  Au  Au35  1  0.174458  0.174458  0.000000  1
