# generated using pymatgen
data_Tb4Al4Ru3Pt
_symmetry_space_group_name_H-M   'P 1'
_cell_length_a   4.19130500
_cell_length_b   6.97604069
_cell_length_c   8.02937654
_cell_angle_alpha   90.23389479
_cell_angle_beta   90.00000000
_cell_angle_gamma   90.00000000
_symmetry_Int_Tables_number   1
_chemical_formula_structural   Tb4Al4Ru3Pt
_chemical_formula_sum   'Tb4 Al4 Ru3 Pt1'
_cell_volume   234.76669002
_cell_formula_units_Z   1
loop_
 _symmetry_equiv_pos_site_id
 _symmetry_equiv_pos_as_xyz
  1  'x, y, z'
loop_
 _atom_site_type_symbol
 _atom_site_label
 _atom_site_symmetry_multiplicity
 _atom_site_fract_x
 _atom_site_fract_y
 _atom_site_fract_z
 _atom_site_occupancy
  Tb  Tb0  1  0.250000  0.027352  0.676315  1
  Tb  Tb1  1  0.250000  0.537229  0.817982  1
  Tb  Tb2  1  0.750000  0.969355  0.318308  1
  Tb  Tb3  1  0.750000  0.470591  0.185052  1
  Al  Al4  1  0.250000  0.139185  0.064494  1
  Al  Al5  1  0.250000  0.641982  0.438852  1
  Al  Al6  1  0.750000  0.853293  0.939697  1
  Al  Al7  1  0.750000  0.359243  0.560909  1
  Ru  Ru8  1  0.250000  0.273210  0.380851  1
  Ru  Ru9  1  0.250000  0.771066  0.118277  1
  Ru  Ru10  1  0.750000  0.731314  0.619034  1
  Pt  Pt11  1  0.750000  0.226182  0.880228  1
