# generated using pymatgen
data_Nd11Sm(Si2Ni)4
_symmetry_space_group_name_H-M   'P 1'
_cell_length_a   4.22183100
_cell_length_b   11.53697471
_cell_length_c   11.64894866
_cell_angle_alpha   90.14814298
_cell_angle_beta   90.00000000
_cell_angle_gamma   90.00000000
_symmetry_Int_Tables_number   1
_chemical_formula_structural   Nd11Sm(Si2Ni)4
_chemical_formula_sum   'Nd11 Sm1 Si8 Ni4'
_cell_volume   567.38528051
_cell_formula_units_Z   1
loop_
 _symmetry_equiv_pos_site_id
 _symmetry_equiv_pos_as_xyz
  1  'x, y, z'
loop_
 _atom_site_type_symbol
 _atom_site_label
 _atom_site_symmetry_multiplicity
 _atom_site_fract_x
 _atom_site_fract_y
 _atom_site_fract_z
 _atom_site_occupancy
  Nd  Nd0  1  0.250000  0.376293  0.558192  1
  Nd  Nd1  1  0.750000  0.559964  0.116913  1
  Nd  Nd2  1  0.750000  0.198130  0.788235  1
  Nd  Nd3  1  0.250000  0.698355  0.711135  1
  Nd  Nd4  1  0.750000  0.622635  0.441455  1
  Nd  Nd5  1  0.750000  0.877699  0.941620  1
  Nd  Nd6  1  0.250000  0.802588  0.211377  1
  Nd  Nd7  1  0.250000  0.439945  0.882694  1
  Nd  Nd8  1  0.750000  0.301209  0.288440  1
  Nd  Nd9  1  0.250000  0.122915  0.059301  1
  Nd  Nd10  1  0.750000  0.939641  0.617045  1
  Sm  Sm11  1  0.250000  0.058416  0.384302  1
  Si  Si12  1  0.250000  0.491485  0.300837  1
  Si  Si13  1  0.250000  0.814250  0.469985  1
  Si  Si14  1  0.250000  0.686669  0.970275  1
  Si  Si15  1  0.750000  0.993760  0.201796  1
  Si  Si16  1  0.750000  0.508369  0.699027  1
  Si  Si17  1  0.250000  0.008388  0.800695  1
  Si  Si18  1  0.750000  0.184773  0.528272  1
  Si  Si19  1  0.750000  0.313273  0.029418  1
  Ni  Ni20  1  0.250000  0.134542  0.628744  1
  Ni  Ni21  1  0.750000  0.865901  0.370846  1
  Ni  Ni22  1  0.250000  0.365384  0.129111  1
  Ni  Ni23  1  0.750000  0.635413  0.870285  1
