# generated using pymatgen
data_Sr20Cd3HgAu8
_symmetry_space_group_name_H-M   'P 1'
_cell_length_a   8.57169400
_cell_length_b   8.57169400
_cell_length_c   15.68196400
_cell_angle_alpha   90.00000000
_cell_angle_beta   90.00000000
_cell_angle_gamma   90.00000000
_symmetry_Int_Tables_number   1
_chemical_formula_structural   Sr20Cd3HgAu8
_chemical_formula_sum   'Sr20 Cd3 Hg1 Au8'
_cell_volume   1152.21565112
_cell_formula_units_Z   1
loop_
 _symmetry_equiv_pos_site_id
 _symmetry_equiv_pos_as_xyz
  1  'x, y, z'
loop_
 _atom_site_type_symbol
 _atom_site_label
 _atom_site_symmetry_multiplicity
 _atom_site_fract_x
 _atom_site_fract_y
 _atom_site_fract_z
 _atom_site_occupancy
  Sr  Sr0  1  0.000000  0.000000  0.754785  1
  Sr  Sr1  1  0.500000  0.500000  0.251057  1
  Sr  Sr2  1  0.000000  0.000000  0.245215  1
  Sr  Sr3  1  0.500000  0.500000  0.748943  1
  Sr  Sr4  1  0.168517  0.660537  0.109939  1
  Sr  Sr5  1  0.664217  0.165325  0.611975  1
  Sr  Sr6  1  0.831483  0.339463  0.109939  1
  Sr  Sr7  1  0.335783  0.834675  0.611975  1
  Sr  Sr8  1  0.339463  0.168517  0.109939  1
  Sr  Sr9  1  0.834675  0.664217  0.611975  1
  Sr  Sr10  1  0.660537  0.831483  0.109939  1
  Sr  Sr11  1  0.165325  0.335783  0.611975  1
  Sr  Sr12  1  0.339463  0.831483  0.890061  1
  Sr  Sr13  1  0.834675  0.335783  0.388025  1
  Sr  Sr14  1  0.660537  0.168517  0.890061  1
  Sr  Sr15  1  0.165325  0.664217  0.388025  1
  Sr  Sr16  1  0.168517  0.339463  0.890061  1
  Sr  Sr17  1  0.664217  0.834675  0.388025  1
  Sr  Sr18  1  0.831483  0.660537  0.890061  1
  Sr  Sr19  1  0.335783  0.165325  0.388025  1
  Cd  Cd20  1  0.000000  0.000000  0.500000  1
  Cd  Cd21  1  0.000000  0.000000  0.000000  1
  Cd  Cd22  1  0.500000  0.500000  0.500000  1
  Hg  Hg23  1  0.500000  0.500000  0.000000  1
  Au  Au24  1  0.628693  0.128647  0.248463  1
  Au  Au25  1  0.128647  0.628693  0.751537  1
  Au  Au26  1  0.871353  0.371307  0.751537  1
  Au  Au27  1  0.371307  0.871353  0.248463  1
  Au  Au28  1  0.371307  0.128647  0.751537  1
  Au  Au29  1  0.871353  0.628693  0.248463  1
  Au  Au30  1  0.128647  0.371307  0.248463  1
  Au  Au31  1  0.628693  0.871353  0.751537  1
