# generated using pymatgen
data_Dy2Ho2Er(ReO6)2
_symmetry_space_group_name_H-M   'P 1'
_cell_length_a   6.82438038
_cell_length_b   6.82438156
_cell_length_c   7.52513332
_cell_angle_alpha   73.81460015
_cell_angle_beta   73.81460917
_cell_angle_gamma   49.06741920
_symmetry_Int_Tables_number   1
_chemical_formula_structural   Dy2Ho2Er(ReO6)2
_chemical_formula_sum   'Dy2 Ho2 Er1 Re2 O12'
_cell_volume   252.03187351
_cell_formula_units_Z   1
loop_
 _symmetry_equiv_pos_site_id
 _symmetry_equiv_pos_as_xyz
  1  'x, y, z'
loop_
 _atom_site_type_symbol
 _atom_site_label
 _atom_site_symmetry_multiplicity
 _atom_site_fract_x
 _atom_site_fract_y
 _atom_site_fract_z
 _atom_site_occupancy
  Dy  Dy0  1  0.696766  0.696766  0.641506  1
  Dy  Dy1  1  0.303234  0.303234  0.358494  1
  Ho  Ho2  1  0.685545  0.685545  0.175612  1
  Ho  Ho3  1  0.314455  0.314455  0.824388  1
  Er  Er4  1  0.000000  0.000000  0.500000  1
  Re  Re5  1  0.785803  0.214197  0.000000  1
  Re  Re6  1  0.214197  0.785803  0.000000  1
  O  O7  1  0.000660  0.000660  0.207718  1
  O  O8  1  0.999340  0.999340  0.792282  1
  O  O9  1  0.581731  0.086888  0.084281  1
  O  O10  1  0.418269  0.913112  0.915719  1
  O  O11  1  0.913112  0.418269  0.915719  1
  O  O12  1  0.086888  0.581731  0.084281  1
  O  O13  1  0.499285  0.499285  0.177740  1
  O  O14  1  0.500715  0.500715  0.822260  1
  O  O15  1  0.404647  0.901536  0.425645  1
  O  O16  1  0.595353  0.098464  0.574355  1
  O  O17  1  0.098464  0.595353  0.574355  1
  O  O18  1  0.901536  0.404647  0.425645  1
