# generated using pymatgen
data_Y20Si12H
_symmetry_space_group_name_H-M   'P 1'
_cell_length_a   14.70765500
_cell_length_b   6.36512928
_cell_length_c   8.43530788
_cell_angle_alpha   89.95972644
_cell_angle_beta   90.00000000
_cell_angle_gamma   90.00000000
_symmetry_Int_Tables_number   1
_chemical_formula_structural   Y20Si12H
_chemical_formula_sum   'Y20 Si12 H1'
_cell_volume   789.68064619
_cell_formula_units_Z   1
loop_
 _symmetry_equiv_pos_site_id
 _symmetry_equiv_pos_as_xyz
  1  'x, y, z'
loop_
 _atom_site_type_symbol
 _atom_site_label
 _atom_site_symmetry_multiplicity
 _atom_site_fract_x
 _atom_site_fract_y
 _atom_site_fract_z
 _atom_site_occupancy
  Y  Y0  1  0.666487  0.500000  0.500000  1
  Y  Y1  1  0.167996  0.500000  0.000000  1
  Y  Y2  1  0.832004  0.500000  0.000000  1
  Y  Y3  1  0.333513  0.500000  0.500000  1
  Y  Y4  1  0.834289  0.000000  0.000000  1
  Y  Y5  1  0.332300  0.000000  0.500000  1
  Y  Y6  1  0.667700  0.000000  0.500000  1
  Y  Y7  1  0.165711  0.000000  0.000000  1
  Y  Y8  1  0.500000  0.248192  0.755415  1
  Y  Y9  1  0.000000  0.251930  0.252650  1
  Y  Y10  1  0.621179  0.250294  0.123036  1
  Y  Y11  1  0.122602  0.247832  0.623905  1
  Y  Y12  1  0.877398  0.247832  0.623905  1
  Y  Y13  1  0.378821  0.250294  0.123036  1
  Y  Y14  1  0.000000  0.748070  0.747350  1
  Y  Y15  1  0.500000  0.751808  0.244585  1
  Y  Y16  1  0.877398  0.752168  0.376095  1
  Y  Y17  1  0.378821  0.749706  0.876964  1
  Y  Y18  1  0.621179  0.749706  0.876964  1
  Y  Y19  1  0.122602  0.752168  0.376095  1
  Si  Si20  1  0.000000  0.252013  0.892723  1
  Si  Si21  1  0.500000  0.248449  0.394678  1
  Si  Si22  1  0.803656  0.249153  0.303725  1
  Si  Si23  1  0.302289  0.248524  0.803018  1
  Si  Si24  1  0.697711  0.248524  0.803018  1
  Si  Si25  1  0.196344  0.249153  0.303725  1
  Si  Si26  1  0.500000  0.751551  0.605322  1
  Si  Si27  1  0.000000  0.747987  0.107277  1
  Si  Si28  1  0.697711  0.751476  0.196982  1
  Si  Si29  1  0.196344  0.750847  0.696275  1
  Si  Si30  1  0.803656  0.750847  0.696275  1
  Si  Si31  1  0.302289  0.751476  0.196982  1
  H  H32  1  0.000000  0.500000  0.500000  1
