# generated using pymatgen
data_TbDy3(AgTe)12
_symmetry_space_group_name_H-M   'P 1'
_cell_length_a   7.25761707
_cell_length_b   8.18728008
_cell_length_c   13.82910400
_cell_angle_alpha   89.99797017
_cell_angle_beta   89.99948246
_cell_angle_gamma   89.98370696
_symmetry_Int_Tables_number   1
_chemical_formula_structural   TbDy3(AgTe)12
_chemical_formula_sum   'Tb1 Dy3 Ag12 Te12'
_cell_volume   821.72731360
_cell_formula_units_Z   1
loop_
 _symmetry_equiv_pos_site_id
 _symmetry_equiv_pos_as_xyz
  1  'x, y, z'
loop_
 _atom_site_type_symbol
 _atom_site_label
 _atom_site_symmetry_multiplicity
 _atom_site_fract_x
 _atom_site_fract_y
 _atom_site_fract_z
 _atom_site_occupancy
  Tb  Tb0  1  0.243588  0.749457  0.832786  1
  Dy  Dy1  1  0.743581  0.250548  0.332903  1
  Dy  Dy2  1  0.743584  0.250550  0.667076  1
  Dy  Dy3  1  0.243581  0.749449  0.167090  1
  Ag  Ag4  1  0.381603  0.121851  0.833939  1
  Ag  Ag5  1  0.633379  0.601453  0.999982  1
  Ag  Ag6  1  0.881496  0.878293  0.666071  1
  Ag  Ag7  1  0.605437  0.624012  0.667131  1
  Ag  Ag8  1  0.858306  0.892854  0.999986  1
  Ag  Ag9  1  0.133429  0.398538  0.499983  1
  Ag  Ag10  1  0.605441  0.624021  0.332868  1
  Ag  Ag11  1  0.358262  0.107157  0.499985  1
  Ag  Ag12  1  0.881486  0.878287  0.333934  1
  Ag  Ag13  1  0.381513  0.121708  0.166070  1
  Ag  Ag14  1  0.105325  0.375850  0.832872  1
  Ag  Ag15  1  0.105413  0.375982  0.167134  1
  Te  Te16  1  0.011266  0.558372  0.331023  1
  Te  Te17  1  0.511253  0.441616  0.168995  1
  Te  Te18  1  0.976016  0.056784  0.168643  1
  Te  Te19  1  0.011005  0.558153  0.668852  1
  Te  Te20  1  0.027768  0.576408  0.000253  1
  Te  Te21  1  0.511568  0.441249  0.830972  1
  Te  Te22  1  0.476003  0.943225  0.331377  1
  Te  Te23  1  0.476242  0.943424  0.668510  1
  Te  Te24  1  0.962765  0.080656  0.499993  1
  Te  Te25  1  0.462996  0.919617  0.000248  1
  Te  Te26  1  0.975685  0.057171  0.831333  1
  Te  Te27  1  0.528003  0.423315  0.499991  1
