# generated using pymatgen
data_SmY5(Ni3As2)6
_symmetry_space_group_name_H-M   'P 1'
_cell_length_a   3.91523500
_cell_length_b   10.90503200
_cell_length_c   12.76119100
_cell_angle_alpha   90.00000000
_cell_angle_beta   90.00000000
_cell_angle_gamma   90.00000000
_symmetry_Int_Tables_number   1
_chemical_formula_structural   SmY5(Ni3As2)6
_chemical_formula_sum   'Sm1 Y5 Ni18 As12'
_cell_volume   544.84878606
_cell_formula_units_Z   1
loop_
 _symmetry_equiv_pos_site_id
 _symmetry_equiv_pos_as_xyz
  1  'x, y, z'
loop_
 _atom_site_type_symbol
 _atom_site_label
 _atom_site_symmetry_multiplicity
 _atom_site_fract_x
 _atom_site_fract_y
 _atom_site_fract_z
 _atom_site_occupancy
  Sm  Sm0  1  0.000000  0.500000  0.523155  1
  Y  Y1  1  0.500000  0.000000  0.476903  1
  Y  Y2  1  0.500000  0.816166  0.206376  1
  Y  Y3  1  0.500000  0.183834  0.206376  1
  Y  Y4  1  0.000000  0.683983  0.793991  1
  Y  Y5  1  0.000000  0.316017  0.793991  1
  Ni  Ni6  1  0.500000  0.500000  0.155646  1
  Ni  Ni7  1  0.000000  0.000000  0.843764  1
  Ni  Ni8  1  0.500000  0.500000  0.700044  1
  Ni  Ni9  1  0.000000  0.000000  0.300759  1
  Ni  Ni10  1  0.000000  0.500000  0.982683  1
  Ni  Ni11  1  0.500000  0.000000  0.017394  1
  Ni  Ni12  1  0.500000  0.333041  0.997502  1
  Ni  Ni13  1  0.500000  0.666959  0.997502  1
  Ni  Ni14  1  0.000000  0.166801  0.002534  1
  Ni  Ni15  1  0.000000  0.833199  0.002534  1
  Ni  Ni16  1  0.500000  0.302375  0.425645  1
  Ni  Ni17  1  0.500000  0.697625  0.425645  1
  Ni  Ni18  1  0.000000  0.196453  0.573978  1
  Ni  Ni19  1  0.000000  0.803547  0.573978  1
  Ni  Ni20  1  0.500000  0.880215  0.707805  1
  Ni  Ni21  1  0.500000  0.119785  0.707805  1
  Ni  Ni22  1  0.000000  0.620377  0.291900  1
  Ni  Ni23  1  0.000000  0.379623  0.291900  1
  As  As24  1  0.500000  0.500000  0.876921  1
  As  As25  1  0.000000  0.000000  0.123452  1
  As  As26  1  0.500000  0.500000  0.342948  1
  As  As27  1  0.000000  0.000000  0.655543  1
  As  As28  1  0.500000  0.313124  0.614008  1
  As  As29  1  0.500000  0.686876  0.614008  1
  As  As30  1  0.000000  0.185714  0.386730  1
  As  As31  1  0.000000  0.814286  0.386730  1
  As  As32  1  0.500000  0.847375  0.890904  1
  As  As33  1  0.500000  0.152625  0.890904  1
  As  As34  1  0.000000  0.652805  0.109021  1
  As  As35  1  0.000000  0.347195  0.109021  1
