# generated using pymatgen
data_Gd4Mg(RhO4)3
_symmetry_space_group_name_H-M   'P 1'
_cell_length_a   5.36217337
_cell_length_b   5.78555105
_cell_length_c   7.75620077
_cell_angle_alpha   90.04519494
_cell_angle_beta   90.31236299
_cell_angle_gamma   90.53919828
_symmetry_Int_Tables_number   1
_chemical_formula_structural   Gd4Mg(RhO4)3
_chemical_formula_sum   'Gd4 Mg1 Rh3 O12'
_cell_volume   240.60729187
_cell_formula_units_Z   1
loop_
 _symmetry_equiv_pos_site_id
 _symmetry_equiv_pos_as_xyz
  1  'x, y, z'
loop_
 _atom_site_type_symbol
 _atom_site_label
 _atom_site_symmetry_multiplicity
 _atom_site_fract_x
 _atom_site_fract_y
 _atom_site_fract_z
 _atom_site_occupancy
  Gd  Gd0  1  0.471440  0.578553  0.740868  1
  Gd  Gd1  1  0.980695  0.926889  0.257723  1
  Gd  Gd2  1  0.019305  0.073111  0.742277  1
  Gd  Gd3  1  0.528560  0.421447  0.259132  1
  Mg  Mg4  1  0.500000  0.000000  0.500000  1
  Rh  Rh5  1  0.000000  0.500000  0.500000  1
  Rh  Rh6  1  0.000000  0.500000  0.000000  1
  Rh  Rh7  1  0.500000  0.000000  0.000000  1
  O  O8  1  0.816882  0.193462  0.445886  1
  O  O9  1  0.312446  0.307195  0.551617  1
  O  O10  1  0.688005  0.696647  0.066350  1
  O  O11  1  0.185069  0.804609  0.936372  1
  O  O12  1  0.183118  0.806538  0.554114  1
  O  O13  1  0.687554  0.692805  0.448383  1
  O  O14  1  0.311995  0.303353  0.933650  1
  O  O15  1  0.814931  0.195391  0.063628  1
  O  O16  1  0.384336  0.042730  0.248615  1
  O  O17  1  0.876189  0.455150  0.749656  1
  O  O18  1  0.123811  0.544850  0.250344  1
  O  O19  1  0.615664  0.957270  0.751385  1
