# generated using pymatgen
data_Rb4UBiSe6
_symmetry_space_group_name_H-M   'P 1'
_cell_length_a   7.77436119
_cell_length_b   7.77436129
_cell_length_c   8.37013026
_cell_angle_alpha   80.90006340
_cell_angle_beta   80.90005992
_cell_angle_gamma   120.10001125
_symmetry_Int_Tables_number   1
_chemical_formula_structural   Rb4UBiSe6
_chemical_formula_sum   'Rb4 U1 Bi1 Se6'
_cell_volume   415.13431224
_cell_formula_units_Z   1
loop_
 _symmetry_equiv_pos_site_id
 _symmetry_equiv_pos_as_xyz
  1  'x, y, z'
loop_
 _atom_site_type_symbol
 _atom_site_label
 _atom_site_symmetry_multiplicity
 _atom_site_fract_x
 _atom_site_fract_y
 _atom_site_fract_z
 _atom_site_occupancy
  Rb  Rb0  1  0.500196  0.499804  0.000000  1
  Rb  Rb1  1  0.655438  0.344562  0.500000  1
  Rb  Rb2  1  0.347882  0.652118  0.500000  1
  Rb  Rb3  1  0.995714  0.004286  0.500000  1
  U  U4  1  0.167660  0.832340  0.000000  1
  Bi  Bi5  1  0.830906  0.169094  0.000000  1
  Se  Se6  1  0.820300  0.799255  0.198239  1
  Se  Se7  1  0.200745  0.179700  0.801761  1
  Se  Se8  1  0.410931  0.042041  0.201992  1
  Se  Se9  1  0.548676  0.936407  0.797994  1
  Se  Se10  1  0.957959  0.589069  0.798008  1
  Se  Se11  1  0.063593  0.451324  0.202006  1
