# generated using pymatgen
data_GaSn3(PPd6)2
_symmetry_space_group_name_H-M   'P 1'
_cell_length_a   3.42878400
_cell_length_b   7.00044678
_cell_length_c   12.07246979
_cell_angle_alpha   90.06158581
_cell_angle_beta   90.00000000
_cell_angle_gamma   90.00000000
_symmetry_Int_Tables_number   1
_chemical_formula_structural   GaSn3(PPd6)2
_chemical_formula_sum   'Ga1 Sn3 P2 Pd12'
_cell_volume   289.77556533
_cell_formula_units_Z   1
loop_
 _symmetry_equiv_pos_site_id
 _symmetry_equiv_pos_as_xyz
  1  'x, y, z'
loop_
 _atom_site_type_symbol
 _atom_site_label
 _atom_site_symmetry_multiplicity
 _atom_site_fract_x
 _atom_site_fract_y
 _atom_site_fract_z
 _atom_site_occupancy
  Ga  Ga0  1  0.000000  0.000122  0.666598  1
  Sn  Sn1  1  0.000000  0.499658  0.166992  1
  Sn  Sn2  1  0.000000  0.501879  0.829409  1
  Sn  Sn3  1  0.000000  0.997695  0.337225  1
  P  P4  1  0.500000  0.001737  0.994885  1
  P  P5  1  0.500000  0.495655  0.504573  1
  Pd  Pd6  1  0.000000  0.755278  0.997538  1
  Pd  Pd7  1  0.000000  0.251117  0.504445  1
  Pd  Pd8  1  0.000000  0.629538  0.622732  1
  Pd  Pd9  1  0.000000  0.121196  0.122420  1
  Pd  Pd10  1  0.000000  0.122228  0.871764  1
  Pd  Pd11  1  0.000000  0.622493  0.380344  1
  Pd  Pd12  1  0.500000  0.896864  0.510497  1
  Pd  Pd13  1  0.500000  0.384309  0.997763  1
  Pd  Pd14  1  0.500000  0.816578  0.798185  1
  Pd  Pd15  1  0.500000  0.305615  0.309585  1
  Pd  Pd16  1  0.500000  0.291305  0.692325  1
  Pd  Pd17  1  0.500000  0.806931  0.192723  1
