# generated using pymatgen
data_Ce3Dy4Tm(CdOs)2
_symmetry_space_group_name_H-M   'P 1'
_cell_length_a   9.56618220
_cell_length_b   9.56174110
_cell_length_c   9.65950494
_cell_angle_alpha   60.12518560
_cell_angle_beta   60.12544382
_cell_angle_gamma   60.49930408
_symmetry_Int_Tables_number   1
_chemical_formula_structural   Ce3Dy4Tm(CdOs)2
_chemical_formula_sum   'Ce6 Dy8 Tm2 Cd4 Os4'
_cell_volume   628.28082779
_cell_formula_units_Z   2
loop_
 _symmetry_equiv_pos_site_id
 _symmetry_equiv_pos_as_xyz
  1  'x, y, z'
loop_
 _atom_site_type_symbol
 _atom_site_label
 _atom_site_symmetry_multiplicity
 _atom_site_fract_x
 _atom_site_fract_y
 _atom_site_fract_z
 _atom_site_occupancy
  Ce  Ce0  1  0.187989  0.811854  0.185107  1
  Ce  Ce1  1  0.811568  0.188386  0.185309  1
  Ce  Ce2  1  0.346741  0.347159  0.959960  1
  Ce  Ce3  1  0.349346  0.959342  0.346188  1
  Ce  Ce4  1  0.959614  0.349655  0.345555  1
  Ce  Ce5  1  0.345082  0.345491  0.354704  1
  Dy  Dy6  1  0.562890  0.934622  0.935087  1
  Dy  Dy7  1  0.939117  0.938475  0.562264  1
  Dy  Dy8  1  0.563748  0.934663  0.563557  1
  Dy  Dy9  1  0.934598  0.563706  0.564660  1
  Dy  Dy10  1  0.190215  0.191278  0.804671  1
  Dy  Dy11  1  0.811248  0.188400  0.808549  1
  Dy  Dy12  1  0.187811  0.811043  0.808585  1
  Dy  Dy13  1  0.808948  0.808536  0.185763  1
  Tm  Tm14  1  0.559402  0.558685  0.940387  1
  Tm  Tm15  1  0.935153  0.562287  0.935098  1
  Cd  Cd16  1  0.583246  0.582190  0.253252  1
  Cd  Cd17  1  0.580565  0.255054  0.583239  1
  Cd  Cd18  1  0.254057  0.580444  0.584247  1
  Cd  Cd19  1  0.580562  0.580305  0.580777  1
  Os  Os20  1  0.141828  0.141715  0.564797  1
  Os  Os21  1  0.154595  0.581741  0.147489  1
  Os  Os22  1  0.582066  0.154521  0.148205  1
  Os  Os23  1  0.129610  0.130449  0.152551  1
