# generated using pymatgen
data_Nb12RePt3
_symmetry_space_group_name_H-M   'P 1'
_cell_length_a   5.20980800
_cell_length_b   5.21443500
_cell_length_c   10.41499800
_cell_angle_alpha   90.00000000
_cell_angle_beta   90.00000000
_cell_angle_gamma   90.00000000
_symmetry_Int_Tables_number   1
_chemical_formula_structural   Nb12RePt3
_chemical_formula_sum   'Nb12 Re1 Pt3'
_cell_volume   282.93597260
_cell_formula_units_Z   1
loop_
 _symmetry_equiv_pos_site_id
 _symmetry_equiv_pos_as_xyz
  1  'x, y, z'
loop_
 _atom_site_type_symbol
 _atom_site_label
 _atom_site_symmetry_multiplicity
 _atom_site_fract_x
 _atom_site_fract_y
 _atom_site_fract_z
 _atom_site_occupancy
  Nb  Nb0  1  0.000000  0.500000  0.374978  1
  Nb  Nb1  1  0.000000  0.500000  0.875954  1
  Nb  Nb2  1  0.500000  0.250770  0.000000  1
  Nb  Nb3  1  0.500000  0.247031  0.500000  1
  Nb  Nb4  1  0.751451  0.000000  0.252545  1
  Nb  Nb5  1  0.751451  0.000000  0.747455  1
  Nb  Nb6  1  0.000000  0.500000  0.124046  1
  Nb  Nb7  1  0.000000  0.500000  0.625022  1
  Nb  Nb8  1  0.500000  0.749230  0.000000  1
  Nb  Nb9  1  0.500000  0.752969  0.500000  1
  Nb  Nb10  1  0.248549  0.000000  0.252545  1
  Nb  Nb11  1  0.248549  0.000000  0.747455  1
  Re  Re12  1  0.000000  0.000000  0.500000  1
  Pt  Pt13  1  0.500000  0.500000  0.248849  1
  Pt  Pt14  1  0.500000  0.500000  0.751151  1
  Pt  Pt15  1  0.000000  0.000000  0.000000  1
