# generated using pymatgen
data_Zr10Sn6Sb
_symmetry_space_group_name_H-M   'P 1'
_cell_length_a   5.96172204
_cell_length_b   8.68708208
_cell_length_c   8.68690804
_cell_angle_alpha   120.00067576
_cell_angle_beta   89.99958794
_cell_angle_gamma   90.00081895
_symmetry_Int_Tables_number   1
_chemical_formula_structural   Zr10Sn6Sb
_chemical_formula_sum   'Zr10 Sn6 Sb1'
_cell_volume   389.61758201
_cell_formula_units_Z   1
loop_
 _symmetry_equiv_pos_site_id
 _symmetry_equiv_pos_as_xyz
  1  'x, y, z'
loop_
 _atom_site_type_symbol
 _atom_site_label
 _atom_site_symmetry_multiplicity
 _atom_site_fract_x
 _atom_site_fract_y
 _atom_site_fract_z
 _atom_site_occupancy
  Zr  Zr0  1  0.499998  0.333336  0.666669  1
  Zr  Zr1  1  0.499998  0.666667  0.333331  1
  Zr  Zr2  1  0.999998  0.666665  0.333325  1
  Zr  Zr3  1  0.999998  0.333341  0.666675  1
  Zr  Zr4  1  0.770284  0.266283  0.000000  1
  Zr  Zr5  1  0.770289  0.733709  0.733718  1
  Zr  Zr6  1  0.770289  0.999990  0.266282  1
  Zr  Zr7  1  0.229705  0.733717  0.000000  1
  Zr  Zr8  1  0.229717  0.266293  0.266286  1
  Zr  Zr9  1  0.229717  0.000007  0.733714  1
  Sn  Sn10  1  0.743952  0.611023  0.000000  1
  Sn  Sn11  1  0.743957  0.388984  0.388986  1
  Sn  Sn12  1  0.743957  0.999997  0.611014  1
  Sn  Sn13  1  0.256046  0.388979  0.000000  1
  Sn  Sn14  1  0.256046  0.611016  0.611016  1
  Sn  Sn15  1  0.256046  0.000000  0.388984  1
  Sb  Sb16  1  0.500001  0.999997  0.000000  1
