# generated using pymatgen
data_Ac8InPb3Au8
_symmetry_space_group_name_H-M   'P 1'
_cell_length_a   8.65646100
_cell_length_b   8.65646100
_cell_length_c   7.80530300
_cell_angle_alpha   90.00000000
_cell_angle_beta   90.00000000
_cell_angle_gamma   90.00000000
_symmetry_Int_Tables_number   1
_chemical_formula_structural   Ac8InPb3Au8
_chemical_formula_sum   'Ac8 In1 Pb3 Au8'
_cell_volume   584.88504963
_cell_formula_units_Z   1
loop_
 _symmetry_equiv_pos_site_id
 _symmetry_equiv_pos_as_xyz
  1  'x, y, z'
loop_
 _atom_site_type_symbol
 _atom_site_label
 _atom_site_symmetry_multiplicity
 _atom_site_fract_x
 _atom_site_fract_y
 _atom_site_fract_z
 _atom_site_occupancy
  Ac  Ac0  1  0.825364  0.172122  0.498948  1
  Ac  Ac1  1  0.174636  0.827878  0.498948  1
  Ac  Ac2  1  0.327878  0.325364  0.001052  1
  Ac  Ac3  1  0.672122  0.674636  0.001052  1
  Ac  Ac4  1  0.682022  0.683912  0.498720  1
  Ac  Ac5  1  0.317978  0.316088  0.498720  1
  Ac  Ac6  1  0.183913  0.817978  0.001280  1
  Ac  Ac7  1  0.816088  0.182023  0.001280  1
  In  In8  1  0.000000  0.500000  0.250000  1
  Pb  Pb9  1  0.500000  0.000000  0.250000  1
  Pb  Pb10  1  0.000000  0.500000  0.750000  1
  Pb  Pb11  1  0.500000  0.000000  0.750000  1
  Au  Au12  1  0.625545  0.385113  0.260423  1
  Au  Au13  1  0.374455  0.614887  0.260423  1
  Au  Au14  1  0.119050  0.120556  0.760523  1
  Au  Au15  1  0.880950  0.879444  0.760523  1
  Au  Au16  1  0.379444  0.619050  0.739477  1
  Au  Au17  1  0.620556  0.380950  0.739477  1
  Au  Au18  1  0.885113  0.874455  0.239577  1
  Au  Au19  1  0.114887  0.125545  0.239577  1
