# generated using pymatgen
data_Nd16MgAg3Rh4
_symmetry_space_group_name_H-M   'P 1'
_cell_length_a   9.88260649
_cell_length_b   9.91067097
_cell_length_c   9.91067100
_cell_angle_alpha   60.00000323
_cell_angle_beta   59.90601936
_cell_angle_gamma   59.90601693
_symmetry_Int_Tables_number   1
_chemical_formula_structural   Nd16MgAg3Rh4
_chemical_formula_sum   'Nd16 Mg1 Ag3 Rh4'
_cell_volume   685.40021961
_cell_formula_units_Z   1
loop_
 _symmetry_equiv_pos_site_id
 _symmetry_equiv_pos_as_xyz
  1  'x, y, z'
loop_
 _atom_site_type_symbol
 _atom_site_label
 _atom_site_symmetry_multiplicity
 _atom_site_fract_x
 _atom_site_fract_y
 _atom_site_fract_z
 _atom_site_occupancy
  Nd  Nd0  1  0.600969  0.599972  0.599972  1
  Nd  Nd1  1  0.600969  0.599972  0.199086  1
  Nd  Nd2  1  0.600969  0.199086  0.599972  1
  Nd  Nd3  1  0.190250  0.603250  0.603250  1
  Nd  Nd4  1  0.060952  0.438633  0.438633  1
  Nd  Nd5  1  0.435829  0.063072  0.063072  1
  Nd  Nd6  1  0.435829  0.063072  0.438027  1
  Nd  Nd7  1  0.060952  0.438633  0.061781  1
  Nd  Nd8  1  0.435829  0.438027  0.063072  1
  Nd  Nd9  1  0.060952  0.061781  0.438633  1
  Nd  Nd10  1  0.183690  0.814757  0.814757  1
  Nd  Nd11  1  0.813520  0.185651  0.185651  1
  Nd  Nd12  1  0.813520  0.185651  0.815178  1
  Nd  Nd13  1  0.183690  0.814757  0.186795  1
  Nd  Nd14  1  0.813520  0.815178  0.185651  1
  Nd  Nd15  1  0.183690  0.186795  0.814757  1
  Mg  Mg16  1  0.535202  0.821600  0.821600  1
  Ag  Ag17  1  0.831305  0.833006  0.833006  1
  Ag  Ag18  1  0.831305  0.833006  0.502685  1
  Ag  Ag19  1  0.831305  0.502685  0.833006  1
  Rh  Rh20  1  0.391260  0.393296  0.393296  1
  Rh  Rh21  1  0.391260  0.393296  0.822147  1
  Rh  Rh22  1  0.391260  0.822147  0.393296  1
  Rh  Rh23  1  0.821968  0.392677  0.392677  1
