# generated using pymatgen
data_Tm16MgCd3Co3Pd
_symmetry_space_group_name_H-M   'P 1'
_cell_length_a   9.44748247
_cell_length_b   9.44881469
_cell_length_c   9.49106747
_cell_angle_alpha   59.67176703
_cell_angle_beta   59.66932101
_cell_angle_gamma   59.47823618
_symmetry_Int_Tables_number   1
_chemical_formula_structural   Tm16MgCd3Co3Pd
_chemical_formula_sum   'Tm16 Mg1 Cd3 Co3 Pd1'
_cell_volume   593.72870651
_cell_formula_units_Z   1
loop_
 _symmetry_equiv_pos_site_id
 _symmetry_equiv_pos_as_xyz
  1  'x, y, z'
loop_
 _atom_site_type_symbol
 _atom_site_label
 _atom_site_symmetry_multiplicity
 _atom_site_fract_x
 _atom_site_fract_y
 _atom_site_fract_z
 _atom_site_occupancy
  Tm  Tm0  1  0.439060  0.439062  0.050881  1
  Tm  Tm1  1  0.594015  0.593927  0.594513  1
  Tm  Tm2  1  0.187410  0.814907  0.813693  1
  Tm  Tm3  1  0.062711  0.062812  0.435297  1
  Tm  Tm4  1  0.437865  0.061157  0.060482  1
  Tm  Tm5  1  0.814903  0.187397  0.813722  1
  Tm  Tm6  1  0.437809  0.053190  0.436596  1
  Tm  Tm7  1  0.603428  0.207120  0.604566  1
  Tm  Tm8  1  0.814994  0.815025  0.185432  1
  Tm  Tm9  1  0.207073  0.603370  0.604626  1
  Tm  Tm10  1  0.812688  0.188729  0.186794  1
  Tm  Tm11  1  0.053131  0.437802  0.436591  1
  Tm  Tm12  1  0.188743  0.812689  0.186809  1
  Tm  Tm13  1  0.605168  0.605054  0.203464  1
  Tm  Tm14  1  0.187990  0.187992  0.812161  1
  Tm  Tm15  1  0.061118  0.437864  0.060529  1
  Mg  Mg16  1  0.824473  0.824477  0.522728  1
  Cd  Cd17  1  0.832008  0.832011  0.831932  1
  Cd  Cd18  1  0.505782  0.830250  0.830831  1
  Cd  Cd19  1  0.830250  0.505781  0.830833  1
  Co  Co20  1  0.825729  0.390695  0.390009  1
  Co  Co21  1  0.390695  0.825727  0.390005  1
  Co  Co22  1  0.390209  0.390208  0.826129  1
  Pd  Pd23  1  0.392749  0.392753  0.391378  1
