# generated using pymatgen
data_Li12Si4NiPd3
_symmetry_space_group_name_H-M   'P 1'
_cell_length_a   6.56959980
_cell_length_b   6.56959980
_cell_length_c   6.56959980
_cell_angle_alpha   89.72118947
_cell_angle_beta   90.27881053
_cell_angle_gamma   90.27881053
_symmetry_Int_Tables_number   1
_chemical_formula_structural   Li12Si4NiPd3
_chemical_formula_sum   'Li12 Si4 Ni1 Pd3'
_cell_volume   283.53153339
_cell_formula_units_Z   1
loop_
 _symmetry_equiv_pos_site_id
 _symmetry_equiv_pos_as_xyz
  1  'x, y, z'
loop_
 _atom_site_type_symbol
 _atom_site_label
 _atom_site_symmetry_multiplicity
 _atom_site_fract_x
 _atom_site_fract_y
 _atom_site_fract_z
 _atom_site_occupancy
  Li  Li0  1  0.125473  0.200239  0.451838  1
  Li  Li1  1  0.373338  0.797967  0.954548  1
  Li  Li2  1  0.876630  0.702115  0.049056  1
  Li  Li3  1  0.450944  0.123370  0.202115  1
  Li  Li4  1  0.625403  0.298220  0.546751  1
  Li  Li5  1  0.953249  0.374597  0.798220  1
  Li  Li6  1  0.048162  0.874527  0.700239  1
  Li  Li7  1  0.545452  0.626662  0.297967  1
  Li  Li8  1  0.202033  0.454548  0.126662  1
  Li  Li9  1  0.701780  0.046751  0.874597  1
  Li  Li10  1  0.297885  0.549056  0.623370  1
  Li  Li11  1  0.799761  0.951838  0.374527  1
  Si  Si12  1  0.068009  0.053675  0.074187  1
  Si  Si13  1  0.425813  0.931991  0.553675  1
  Si  Si14  1  0.946325  0.574187  0.431991  1
  Si  Si15  1  0.562836  0.437164  0.937164  1
  Ni  Ni16  1  0.177963  0.822037  0.322037  1
  Pd  Pd17  1  0.682548  0.683318  0.680286  1
  Pd  Pd18  1  0.819714  0.317452  0.183318  1
  Pd  Pd19  1  0.316682  0.180286  0.817452  1
