# generated using pymatgen
data_Tb8Ho12Si15Te
_symmetry_space_group_name_H-M   'P 1'
_cell_length_a   7.65968612
_cell_length_b   7.70041077
_cell_length_c   14.07923500
_cell_angle_alpha   89.23771643
_cell_angle_beta   89.82404361
_cell_angle_gamma   89.98259936
_symmetry_Int_Tables_number   1
_chemical_formula_structural   Tb8Ho12Si15Te
_chemical_formula_sum   'Tb8 Ho12 Si15 Te1'
_cell_volume   830.35427005
_cell_formula_units_Z   1
loop_
 _symmetry_equiv_pos_site_id
 _symmetry_equiv_pos_as_xyz
  1  'x, y, z'
loop_
 _atom_site_type_symbol
 _atom_site_label
 _atom_site_symmetry_multiplicity
 _atom_site_fract_x
 _atom_site_fract_y
 _atom_site_fract_z
 _atom_site_occupancy
  Tb  Tb0  1  0.988111  0.357180  0.207555  1
  Tb  Tb1  1  0.005658  0.646437  0.711359  1
  Tb  Tb2  1  0.133821  0.513441  0.467316  1
  Tb  Tb3  1  0.507001  0.848874  0.036610  1
  Tb  Tb4  1  0.856977  0.502562  0.959156  1
  Tb  Tb5  1  0.498213  0.143607  0.543213  1
  Tb  Tb6  1  0.357359  0.996658  0.790617  1
  Tb  Tb7  1  0.645760  0.997680  0.288582  1
  Ho  Ho8  1  0.178895  0.177498  0.999194  1
  Ho  Ho9  1  0.820709  0.825921  0.502068  1
  Ho  Ho10  1  0.321514  0.686191  0.248536  1
  Ho  Ho11  1  0.680558  0.320804  0.750562  1
  Ho  Ho12  1  0.137497  0.998641  0.372297  1
  Ho  Ho13  1  0.857284  0.991932  0.876342  1
  Ho  Ho14  1  0.492111  0.645497  0.627543  1
  Ho  Ho15  1  0.357668  0.506636  0.873990  1
  Ho  Ho16  1  0.501870  0.351062  0.124743  1
  Ho  Ho17  1  0.658617  0.508381  0.377992  1
  Ho  Ho18  1  0.006826  0.145656  0.622292  1
  Ho  Ho19  1  0.990325  0.851229  0.120277  1
  Si  Si20  1  0.650315  0.706327  0.815594  1
  Si  Si21  1  0.204375  0.854999  0.565647  1
  Si  Si22  1  0.148989  0.792520  0.931350  1
  Si  Si23  1  0.793658  0.148027  0.065538  1
  Si  Si24  1  0.849653  0.204636  0.430750  1
  Si  Si25  1  0.293368  0.351698  0.684574  1
  Si  Si26  1  0.701179  0.643270  0.183176  1
  Si  Si27  1  0.296521  0.033029  0.175809  1
  Si  Si28  1  0.704481  0.944642  0.689124  1
  Si  Si29  1  0.444521  0.799898  0.438743  1
  Si  Si30  1  0.202811  0.550430  0.062373  1
  Si  Si31  1  0.558772  0.204713  0.938406  1
  Si  Si32  1  0.793976  0.447075  0.565019  1
  Si  Si33  1  0.057846  0.295682  0.810501  1
  Si  Si34  1  0.948907  0.702847  0.311249  1
  Te  Te35  1  0.353852  0.304327  0.331898  1
