# generated using pymatgen
data_Ca6Yb4SnBi5
_symmetry_space_group_name_H-M   'P 1'
_cell_length_a   9.28332901
_cell_length_b   9.30652854
_cell_length_c   7.03696900
_cell_angle_alpha   90.00000000
_cell_angle_beta   90.00000000
_cell_angle_gamma   120.08270629
_symmetry_Int_Tables_number   1
_chemical_formula_structural   Ca6Yb4SnBi5
_chemical_formula_sum   'Ca6 Yb4 Sn1 Bi5'
_cell_volume   526.07199037
_cell_formula_units_Z   1
loop_
 _symmetry_equiv_pos_site_id
 _symmetry_equiv_pos_as_xyz
  1  'x, y, z'
loop_
 _atom_site_type_symbol
 _atom_site_label
 _atom_site_symmetry_multiplicity
 _atom_site_fract_x
 _atom_site_fract_y
 _atom_site_fract_z
 _atom_site_occupancy
  Ca  Ca0  1  0.262324  0.000574  0.250000  1
  Ca  Ca1  1  0.739018  0.006527  0.750000  1
  Ca  Ca2  1  0.000000  0.261632  0.250000  1
  Ca  Ca3  1  0.737676  0.738250  0.250000  1
  Ca  Ca4  1  0.260982  0.267509  0.750000  1
  Ca  Ca5  1  0.000000  0.729188  0.750000  1
  Yb  Yb6  1  0.327771  0.661668  0.997293  1
  Yb  Yb7  1  0.672229  0.333897  0.502707  1
  Yb  Yb8  1  0.672229  0.333897  0.997293  1
  Yb  Yb9  1  0.327771  0.661668  0.502707  1
  Sn  Sn10  1  0.000000  0.383442  0.750000  1
  Bi  Bi11  1  0.613013  0.997503  0.250000  1
  Bi  Bi12  1  0.380262  0.001802  0.750000  1
  Bi  Bi13  1  0.000000  0.616411  0.250000  1
  Bi  Bi14  1  0.386987  0.384489  0.250000  1
  Bi  Bi15  1  0.619738  0.621540  0.750000  1
