# generated using pymatgen
data_La19Nd(Ir2Os)4
_symmetry_space_group_name_H-M   'P 1'
_cell_length_a   11.41219100
_cell_length_b   11.41219100
_cell_length_c   6.67293800
_cell_angle_alpha   90.00000000
_cell_angle_beta   90.00000000
_cell_angle_gamma   90.00000000
_symmetry_Int_Tables_number   1
_chemical_formula_structural   La19Nd(Ir2Os)4
_chemical_formula_sum   'La19 Nd1 Ir8 Os4'
_cell_volume   869.07078936
_cell_formula_units_Z   1
loop_
 _symmetry_equiv_pos_site_id
 _symmetry_equiv_pos_as_xyz
  1  'x, y, z'
loop_
 _atom_site_type_symbol
 _atom_site_label
 _atom_site_symmetry_multiplicity
 _atom_site_fract_x
 _atom_site_fract_y
 _atom_site_fract_z
 _atom_site_occupancy
  La  La0  1  0.294536  0.089428  0.387910  1
  La  La1  1  0.294766  0.910601  0.887136  1
  La  La2  1  0.705234  0.089399  0.887136  1
  La  La3  1  0.705464  0.910572  0.387910  1
  La  La4  1  0.589356  0.795352  0.887289  1
  La  La5  1  0.589697  0.204734  0.387080  1
  La  La6  1  0.410303  0.795266  0.387080  1
  La  La7  1  0.410644  0.204648  0.887289  1
  La  La8  1  0.204734  0.410303  0.612920  1
  La  La9  1  0.204648  0.589356  0.112711  1
  La  La10  1  0.795352  0.410644  0.112711  1
  La  La11  1  0.795266  0.589697  0.612920  1
  La  La12  1  0.910601  0.705234  0.112864  1
  La  La13  1  0.910572  0.294536  0.612090  1
  La  La14  1  0.089428  0.705464  0.612090  1
  La  La15  1  0.089399  0.294766  0.112864  1
  La  La16  1  0.000000  0.000000  0.000000  1
  La  La17  1  0.500000  0.500000  0.000000  1
  La  La18  1  0.500000  0.500000  0.500000  1
  Nd  Nd19  1  0.000000  0.000000  0.500000  1
  Ir  Ir20  1  0.848306  0.151725  0.250011  1
  Ir  Ir21  1  0.848275  0.848306  0.749989  1
  Ir  Ir22  1  0.151725  0.151694  0.749989  1
  Ir  Ir23  1  0.151694  0.848275  0.250011  1
  Ir  Ir24  1  0.651580  0.348372  0.750046  1
  Ir  Ir25  1  0.651628  0.651580  0.249954  1
  Ir  Ir26  1  0.348372  0.348420  0.249954  1
  Ir  Ir27  1  0.348420  0.651628  0.750046  1
  Os  Os28  1  0.500000  0.000000  0.123828  1
  Os  Os29  1  0.500000  0.000000  0.623827  1
  Os  Os30  1  0.000000  0.500000  0.876172  1
  Os  Os31  1  0.000000  0.500000  0.376173  1
