# generated using pymatgen
data_Y8Th4TcRu3
_symmetry_space_group_name_H-M   'P 1'
_cell_length_a   6.38599904
_cell_length_b   7.27050511
_cell_length_c   9.62688200
_cell_angle_alpha   90.00000000
_cell_angle_beta   90.00000000
_cell_angle_gamma   90.04285698
_symmetry_Int_Tables_number   1
_chemical_formula_structural   Y8Th4TcRu3
_chemical_formula_sum   'Y8 Th4 Tc1 Ru3'
_cell_volume   446.97060236
_cell_formula_units_Z   1
loop_
 _symmetry_equiv_pos_site_id
 _symmetry_equiv_pos_as_xyz
  1  'x, y, z'
loop_
 _atom_site_type_symbol
 _atom_site_label
 _atom_site_symmetry_multiplicity
 _atom_site_fract_x
 _atom_site_fract_y
 _atom_site_fract_z
 _atom_site_occupancy
  Y  Y0  1  0.170060  0.174524  0.067249  1
  Y  Y1  1  0.831664  0.825422  0.933052  1
  Y  Y2  1  0.666160  0.325025  0.933566  1
  Y  Y3  1  0.831664  0.825422  0.566948  1
  Y  Y4  1  0.329942  0.675385  0.067616  1
  Y  Y5  1  0.170060  0.174524  0.432751  1
  Y  Y6  1  0.329942  0.675385  0.432384  1
  Y  Y7  1  0.666160  0.325025  0.566434  1
  Th  Th8  1  0.649196  0.049125  0.250000  1
  Th  Th9  1  0.344659  0.950089  0.750000  1
  Th  Th10  1  0.153020  0.450306  0.750000  1
  Th  Th11  1  0.850610  0.548924  0.250000  1
  Tc  Tc12  1  0.485721  0.368768  0.250000  1
  Ru  Ru13  1  0.524061  0.631231  0.750000  1
  Ru  Ru14  1  0.974661  0.130632  0.750000  1
  Ru  Ru15  1  0.022423  0.870214  0.250000  1
