# generated using pymatgen
data_Pr4Lu2Si3Ge
_symmetry_space_group_name_H-M   'P 1'
_cell_length_a   7.57284023
_cell_length_b   7.57284043
_cell_length_c   4.47553000
_cell_angle_alpha   90.00000000
_cell_angle_beta   90.00000000
_cell_angle_gamma   90.35350531
_symmetry_Int_Tables_number   1
_chemical_formula_structural   Pr4Lu2Si3Ge
_chemical_formula_sum   'Pr4 Lu2 Si3 Ge1'
_cell_volume   256.65740959
_cell_formula_units_Z   1
loop_
 _symmetry_equiv_pos_site_id
 _symmetry_equiv_pos_as_xyz
  1  'x, y, z'
loop_
 _atom_site_type_symbol
 _atom_site_label
 _atom_site_symmetry_multiplicity
 _atom_site_fract_x
 _atom_site_fract_y
 _atom_site_fract_z
 _atom_site_occupancy
  Pr  Pr0  1  0.320916  0.823484  0.500000  1
  Pr  Pr1  1  0.824849  0.675151  0.500000  1
  Pr  Pr2  1  0.175983  0.324017  0.500000  1
  Pr  Pr3  1  0.676516  0.179084  0.500000  1
  Lu  Lu4  1  0.003026  0.001289  0.000000  1
  Lu  Lu5  1  0.498711  0.496974  0.000000  1
  Si  Si6  1  0.381719  0.118281  0.000000  1
  Si  Si7  1  0.884458  0.384903  0.000000  1
  Si  Si8  1  0.115097  0.615542  0.000000  1
  Ge  Ge9  1  0.618725  0.881275  0.000000  1
