# generated using pymatgen
data_ZrScSnRh5
_symmetry_space_group_name_H-M   'P 1'
_cell_length_a   5.63578800
_cell_length_b   5.63578720
_cell_length_c   8.26470400
_cell_angle_alpha   90.00000000
_cell_angle_beta   90.00000000
_cell_angle_gamma   96.65681163
_symmetry_Int_Tables_number   1
_chemical_formula_structural   ZrScSnRh5
_chemical_formula_sum   'Zr2 Sc2 Sn2 Rh10'
_cell_volume   260.73464777
_cell_formula_units_Z   2
loop_
 _symmetry_equiv_pos_site_id
 _symmetry_equiv_pos_as_xyz
  1  'x, y, z'
loop_
 _atom_site_type_symbol
 _atom_site_label
 _atom_site_symmetry_multiplicity
 _atom_site_fract_x
 _atom_site_fract_y
 _atom_site_fract_z
 _atom_site_occupancy
  Zr  Zr0  1  0.218411  0.781589  0.500000  1
  Zr  Zr1  1  0.781589  0.218411  0.000000  1
  Sc  Sc2  1  0.781694  0.218306  0.500000  1
  Sc  Sc3  1  0.218306  0.781694  0.000000  1
  Sn  Sn4  1  0.502542  0.502542  0.750000  1
  Sn  Sn5  1  0.497458  0.497458  0.250000  1
  Rh  Rh6  1  0.730446  0.730204  0.001478  1
  Rh  Rh7  1  0.730204  0.730446  0.498522  1
  Rh  Rh8  1  0.269796  0.269554  0.998522  1
  Rh  Rh9  1  0.269554  0.269796  0.501478  1
  Rh  Rh10  1  0.500159  0.000573  0.750002  1
  Rh  Rh11  1  0.499841  0.999427  0.250002  1
  Rh  Rh12  1  0.000358  0.000358  0.250000  1
  Rh  Rh13  1  0.999642  0.999642  0.750000  1
  Rh  Rh14  1  0.000573  0.500159  0.749998  1
  Rh  Rh15  1  0.999427  0.499841  0.249998  1
