# generated using pymatgen
data_LaBr2F
_symmetry_space_group_name_H-M   'P 1'
_cell_length_a   4.23220500
_cell_length_b   4.23220471
_cell_length_c   15.04536000
_cell_angle_alpha   90.00000000
_cell_angle_beta   90.00000000
_cell_angle_gamma   119.99999444
_symmetry_Int_Tables_number   1
_chemical_formula_structural   LaBr2F
_chemical_formula_sum   'La2 Br4 F2'
_cell_volume   233.38159424
_cell_formula_units_Z   2
loop_
 _symmetry_equiv_pos_site_id
 _symmetry_equiv_pos_as_xyz
  1  'x, y, z'
loop_
 _atom_site_type_symbol
 _atom_site_label
 _atom_site_symmetry_multiplicity
 _atom_site_fract_x
 _atom_site_fract_y
 _atom_site_fract_z
 _atom_site_occupancy
  La  La0  1  0.000000  0.000000  0.250000  1
  La  La1  1  0.000000  0.000000  0.750000  1
  Br  Br2  1  0.333333  0.666667  0.118186  1
  Br  Br3  1  0.666667  0.333333  0.881814  1
  Br  Br4  1  0.666667  0.333333  0.618186  1
  Br  Br5  1  0.333333  0.666667  0.381814  1
  F  F6  1  0.333333  0.666667  0.750000  1
  F  F7  1  0.666667  0.333333  0.250000  1
