# generated using pymatgen
data_Lu3Ga2SiAg3
_symmetry_space_group_name_H-M   'P 1'
_cell_length_a   7.13443400
_cell_length_b   7.13443356
_cell_length_c   4.08144200
_cell_angle_alpha   90.00000000
_cell_angle_beta   90.00000000
_cell_angle_gamma   120.00001131
_symmetry_Int_Tables_number   1
_chemical_formula_structural   Lu3Ga2SiAg3
_chemical_formula_sum   'Lu3 Ga2 Si1 Ag3'
_cell_volume   179.91328530
_cell_formula_units_Z   1
loop_
 _symmetry_equiv_pos_site_id
 _symmetry_equiv_pos_as_xyz
  1  'x, y, z'
loop_
 _atom_site_type_symbol
 _atom_site_label
 _atom_site_symmetry_multiplicity
 _atom_site_fract_x
 _atom_site_fract_y
 _atom_site_fract_z
 _atom_site_occupancy
  Lu  Lu0  1  0.419893  0.424165  0.500000  1
  Lu  Lu1  1  0.575835  0.995728  0.500000  1
  Lu  Lu2  1  0.004272  0.580107  0.500000  1
  Ga  Ga3  1  0.666667  0.333333  0.000000  1
  Ga  Ga4  1  0.000000  0.000000  0.500000  1
  Si  Si5  1  0.333333  0.666667  0.000000  1
  Ag  Ag6  1  0.745097  0.749040  0.000000  1
  Ag  Ag7  1  0.250960  0.996057  0.000000  1
  Ag  Ag8  1  0.003943  0.254903  0.000000  1
