# generated using pymatgen
data_Li4Y2Ho2Sn3Sb
_symmetry_space_group_name_H-M   'P 1'
_cell_length_a   9.37653468
_cell_length_b   9.38045210
_cell_length_c   7.23715764
_cell_angle_alpha   90.00054141
_cell_angle_beta   90.06498962
_cell_angle_gamma   120.01165261
_symmetry_Int_Tables_number   1
_chemical_formula_structural   Li4Y2Ho2Sn3Sb
_chemical_formula_sum   'Li8 Y4 Ho4 Sn6 Sb2'
_cell_volume   551.20533974
_cell_formula_units_Z   2
loop_
 _symmetry_equiv_pos_site_id
 _symmetry_equiv_pos_as_xyz
  1  'x, y, z'
loop_
 _atom_site_type_symbol
 _atom_site_label
 _atom_site_symmetry_multiplicity
 _atom_site_fract_x
 _atom_site_fract_y
 _atom_site_fract_z
 _atom_site_occupancy
  Li  Li0  1  0.167225  0.333877  0.285022  1
  Li  Li1  1  0.167151  0.833303  0.285135  1
  Li  Li2  1  0.666218  0.833047  0.285283  1
  Li  Li3  1  0.832207  0.666020  0.785992  1
  Li  Li4  1  0.832321  0.166227  0.785854  1
  Li  Li5  1  0.334278  0.167246  0.787079  1
  Li  Li6  1  0.334301  0.667100  0.674261  1
  Li  Li7  1  0.666622  0.333415  0.176052  1
  Y  Y8  1  0.513769  0.023890  0.492055  1
  Y  Y9  1  0.513733  0.489900  0.492029  1
  Y  Y10  1  0.975605  0.487789  0.490920  1
  Y  Y11  1  0.490359  0.978292  0.995134  1
  Ho  Ho12  1  0.490429  0.512102  0.995229  1
  Ho  Ho13  1  0.019934  0.509963  0.996467  1
  Ho  Ho14  1  0.998081  0.999054  0.496917  1
  Ho  Ho15  1  0.998010  0.999015  0.002808  1
  Sn  Sn16  1  0.666984  0.833331  0.732387  1
  Sn  Sn17  1  0.833995  0.666791  0.231802  1
  Sn  Sn18  1  0.834291  0.167278  0.232166  1
  Sn  Sn19  1  0.333007  0.166666  0.231851  1
  Sn  Sn20  1  0.332385  0.666002  0.259179  1
  Sn  Sn21  1  0.667360  0.333799  0.760495  1
  Sb  Sb22  1  0.166046  0.333070  0.734143  1
  Sb  Sb23  1  0.165689  0.832823  0.733708  1
