# generated using pymatgen
data_Hf3Al3IrPd2
_symmetry_space_group_name_H-M   'P 1'
_cell_length_a   7.30884100
_cell_length_b   7.30884077
_cell_length_c   6.81858300
_cell_angle_alpha   90.00000000
_cell_angle_beta   90.00000000
_cell_angle_gamma   119.99999652
_symmetry_Int_Tables_number   1
_chemical_formula_structural   Hf3Al3IrPd2
_chemical_formula_sum   'Hf6 Al6 Ir2 Pd4'
_cell_volume   315.44365256
_cell_formula_units_Z   2
loop_
 _symmetry_equiv_pos_site_id
 _symmetry_equiv_pos_as_xyz
  1  'x, y, z'
loop_
 _atom_site_type_symbol
 _atom_site_label
 _atom_site_symmetry_multiplicity
 _atom_site_fract_x
 _atom_site_fract_y
 _atom_site_fract_z
 _atom_site_occupancy
  Hf  Hf0  1  0.738587  0.058694  0.000000  1
  Hf  Hf1  1  0.320107  0.261413  0.000000  1
  Hf  Hf2  1  0.941306  0.679893  0.000000  1
  Hf  Hf3  1  0.322973  0.263086  0.500000  1
  Hf  Hf4  1  0.736914  0.059887  0.500000  1
  Hf  Hf5  1  0.940113  0.677027  0.500000  1
  Al  Al6  1  0.595169  0.660835  0.749979  1
  Al  Al7  1  0.065666  0.404831  0.749979  1
  Al  Al8  1  0.339165  0.934334  0.749979  1
  Al  Al9  1  0.595169  0.660835  0.250021  1
  Al  Al10  1  0.065666  0.404831  0.250021  1
  Al  Al11  1  0.339165  0.934334  0.250021  1
  Ir  Ir12  1  0.000000  0.000000  0.251930  1
  Ir  Ir13  1  0.000000  0.000000  0.748070  1
  Pd  Pd14  1  0.333333  0.666667  0.000000  1
  Pd  Pd15  1  0.333333  0.666667  0.500000  1
  Pd  Pd16  1  0.666667  0.333333  0.752251  1
  Pd  Pd17  1  0.666667  0.333333  0.247749  1
