# generated using pymatgen
data_YbPrCdB2Pt7
_symmetry_space_group_name_H-M   'P 1'
_cell_length_a   5.55414400
_cell_length_b   5.55414554
_cell_length_c   7.62757300
_cell_angle_alpha   90.00000000
_cell_angle_beta   90.00000000
_cell_angle_gamma   120.00000275
_symmetry_Int_Tables_number   1
_chemical_formula_structural   YbPrCdB2Pt7
_chemical_formula_sum   'Yb1 Pr1 Cd1 B2 Pt7'
_cell_volume   203.77522599
_cell_formula_units_Z   1
loop_
 _symmetry_equiv_pos_site_id
 _symmetry_equiv_pos_as_xyz
  1  'x, y, z'
loop_
 _atom_site_type_symbol
 _atom_site_label
 _atom_site_symmetry_multiplicity
 _atom_site_fract_x
 _atom_site_fract_y
 _atom_site_fract_z
 _atom_site_occupancy
  Yb  Yb0  1  0.000000  0.000000  0.500000  1
  Pr  Pr1  1  0.000000  0.000000  0.000000  1
  Cd  Cd2  1  0.666667  0.333333  0.000000  1
  B  B3  1  0.666667  0.333333  0.500000  1
  B  B4  1  0.333333  0.666667  0.500000  1
  Pt  Pt5  1  0.499296  0.500704  0.306065  1
  Pt  Pt6  1  0.499296  0.998593  0.306065  1
  Pt  Pt7  1  0.499296  0.998593  0.693935  1
  Pt  Pt8  1  0.499296  0.500704  0.693935  1
  Pt  Pt9  1  0.001407  0.500704  0.693935  1
  Pt  Pt10  1  0.333333  0.666667  0.000000  1
  Pt  Pt11  1  0.001407  0.500704  0.306065  1
