# generated using pymatgen
data_Ce4ThMnFeB6
_symmetry_space_group_name_H-M   'P 1'
_cell_length_a   5.36642957
_cell_length_b   5.36642944
_cell_length_c   8.23825327
_cell_angle_alpha   70.99188557
_cell_angle_beta   70.99189632
_cell_angle_gamma   59.99998262
_symmetry_Int_Tables_number   1
_chemical_formula_structural   Ce4ThMnFeB6
_chemical_formula_sum   'Ce4 Th1 Mn1 Fe1 B6'
_cell_volume   190.37998398
_cell_formula_units_Z   1
loop_
 _symmetry_equiv_pos_site_id
 _symmetry_equiv_pos_as_xyz
  1  'x, y, z'
loop_
 _atom_site_type_symbol
 _atom_site_label
 _atom_site_symmetry_multiplicity
 _atom_site_fract_x
 _atom_site_fract_y
 _atom_site_fract_z
 _atom_site_occupancy
  Ce  Ce0  1  0.744564  0.744564  0.766309  1
  Ce  Ce1  1  0.255344  0.255344  0.233969  1
  Ce  Ce2  1  0.588254  0.588254  0.235237  1
  Ce  Ce3  1  0.411257  0.411257  0.766228  1
  Th  Th4  1  0.999036  0.999036  0.002893  1
  Mn  Mn5  1  0.888137  0.888137  0.335590  1
  Fe  Fe6  1  0.112931  0.112931  0.661206  1
  B  B7  1  0.500082  0.167722  0.499761  1
  B  B8  1  0.832435  0.500082  0.499761  1
  B  B9  1  0.167722  0.832435  0.499761  1
  B  B10  1  0.167722  0.500082  0.499761  1
  B  B11  1  0.832435  0.167722  0.499761  1
  B  B12  1  0.500082  0.832435  0.499761  1
