# generated using pymatgen
data_Ce5Ho11(ZnCo)4
_symmetry_space_group_name_H-M   'P 1'
_cell_length_a   9.23710254
_cell_length_b   9.35700184
_cell_length_c   9.35700104
_cell_angle_alpha   59.75385837
_cell_angle_beta   60.42298551
_cell_angle_gamma   60.42298704
_symmetry_Int_Tables_number   1
_chemical_formula_structural   Ce5Ho11(ZnCo)4
_chemical_formula_sum   'Ce5 Ho11 Zn4 Co4'
_cell_volume   574.40326648
_cell_formula_units_Z   1
loop_
 _symmetry_equiv_pos_site_id
 _symmetry_equiv_pos_as_xyz
  1  'x, y, z'
loop_
 _atom_site_type_symbol
 _atom_site_label
 _atom_site_symmetry_multiplicity
 _atom_site_fract_x
 _atom_site_fract_y
 _atom_site_fract_z
 _atom_site_occupancy
  Ce  Ce0  1  0.343057  0.351659  0.351659  1
  Ce  Ce1  1  0.348466  0.344813  0.958256  1
  Ce  Ce2  1  0.348466  0.958256  0.344813  1
  Ce  Ce3  1  0.953625  0.351659  0.351659  1
  Ce  Ce4  1  0.813570  0.186430  0.186430  1
  Ho  Ho5  1  0.190443  0.809557  0.809557  1
  Ho  Ho6  1  0.194025  0.806536  0.188904  1
  Ho  Ho7  1  0.810534  0.188904  0.806536  1
  Ho  Ho8  1  0.194025  0.188904  0.806536  1
  Ho  Ho9  1  0.810534  0.806536  0.188904  1
  Ho  Ho10  1  0.933992  0.566008  0.566008  1
  Ho  Ho11  1  0.568315  0.931685  0.931685  1
  Ho  Ho12  1  0.563663  0.936412  0.561005  1
  Ho  Ho13  1  0.938918  0.561005  0.936412  1
  Ho  Ho14  1  0.563663  0.561005  0.936412  1
  Ho  Ho15  1  0.938918  0.936412  0.561005  1
  Zn  Zn16  1  0.578614  0.578931  0.578931  1
  Zn  Zn17  1  0.577258  0.582281  0.263202  1
  Zn  Zn18  1  0.577258  0.263202  0.582281  1
  Zn  Zn19  1  0.263523  0.578931  0.578931  1
  Co  Co20  1  0.111667  0.154006  0.154006  1
  Co  Co21  1  0.148570  0.141896  0.560965  1
  Co  Co22  1  0.148570  0.560965  0.141896  1
  Co  Co23  1  0.580323  0.154006  0.154006  1
