# generated using pymatgen
data_NaMgP7Ru12
_symmetry_space_group_name_H-M   'P 1'
_cell_length_a   9.41361800
_cell_length_b   9.41361758
_cell_length_c   3.91702300
_cell_angle_alpha   90.00000000
_cell_angle_beta   90.00000000
_cell_angle_gamma   119.99999959
_symmetry_Int_Tables_number   1
_chemical_formula_structural   NaMgP7Ru12
_chemical_formula_sum   'Na1 Mg1 P7 Ru12'
_cell_volume   300.60754549
_cell_formula_units_Z   1
loop_
 _symmetry_equiv_pos_site_id
 _symmetry_equiv_pos_as_xyz
  1  'x, y, z'
loop_
 _atom_site_type_symbol
 _atom_site_label
 _atom_site_symmetry_multiplicity
 _atom_site_fract_x
 _atom_site_fract_y
 _atom_site_fract_z
 _atom_site_occupancy
  Na  Na0  1  0.333333  0.666667  0.000000  1
  Mg  Mg1  1  0.666667  0.333333  0.500000  1
  P  P2  1  0.601291  0.715493  0.500000  1
  P  P3  1  0.000000  0.000000  0.000000  1
  P  P4  1  0.284507  0.885799  0.500000  1
  P  P5  1  0.114201  0.398709  0.500000  1
  P  P6  1  0.899055  0.586898  0.000000  1
  P  P7  1  0.413102  0.312156  0.000000  1
  P  P8  1  0.687844  0.100945  0.000000  1
  Ru  Ru9  1  0.557654  0.953612  0.500000  1
  Ru  Ru10  1  0.395959  0.442346  0.500000  1
  Ru  Ru11  1  0.913282  0.118076  0.500000  1
  Ru  Ru12  1  0.204795  0.086718  0.500000  1
  Ru  Ru13  1  0.881924  0.795205  0.500000  1
  Ru  Ru14  1  0.725531  0.878180  0.000000  1
  Ru  Ru15  1  0.121820  0.847351  0.000000  1
  Ru  Ru16  1  0.152649  0.274469  0.000000  1
  Ru  Ru17  1  0.434900  0.082799  0.000000  1
  Ru  Ru18  1  0.917201  0.352102  0.000000  1
  Ru  Ru19  1  0.647898  0.565100  0.000000  1
  Ru  Ru20  1  0.046388  0.604041  0.500000  1
