# generated using pymatgen
data_NdY7(Tc3Ge4)4
_symmetry_space_group_name_H-M   'P 1'
_cell_length_a   6.96925913
_cell_length_b   6.96884708
_cell_length_c   13.06820700
_cell_angle_alpha   90.00299270
_cell_angle_beta   89.98895069
_cell_angle_gamma   90.00828805
_symmetry_Int_Tables_number   1
_chemical_formula_structural   NdY7(Tc3Ge4)4
_chemical_formula_sum   'Nd1 Y7 Tc12 Ge16'
_cell_volume   634.69275286
_cell_formula_units_Z   1
loop_
 _symmetry_equiv_pos_site_id
 _symmetry_equiv_pos_as_xyz
  1  'x, y, z'
loop_
 _atom_site_type_symbol
 _atom_site_label
 _atom_site_symmetry_multiplicity
 _atom_site_fract_x
 _atom_site_fract_y
 _atom_site_fract_z
 _atom_site_occupancy
  Nd  Nd0  1  0.336540  0.994347  0.472067  1
  Y  Y1  1  0.007159  0.660145  0.027913  1
  Y  Y2  1  0.992097  0.340155  0.528297  1
  Y  Y3  1  0.659843  0.007108  0.971928  1
  Y  Y4  1  0.160206  0.492885  0.778707  1
  Y  Y5  1  0.839665  0.507643  0.276911  1
  Y  Y6  1  0.492917  0.160707  0.221265  1
  Y  Y7  1  0.507680  0.839755  0.722353  1
  Tc  Tc8  1  0.311793  0.484214  0.376847  1
  Tc  Tc9  1  0.812392  0.019494  0.371982  1
  Tc  Tc10  1  0.979936  0.188267  0.127055  1
  Tc  Tc11  1  0.019135  0.809310  0.629090  1
  Tc  Tc12  1  0.483054  0.312324  0.624091  1
  Tc  Tc13  1  0.187821  0.980025  0.873172  1
  Tc  Tc14  1  0.663835  0.661113  0.500630  1
  Tc  Tc15  1  0.837688  0.162779  0.750609  1
  Tc  Tc16  1  0.161756  0.836915  0.247608  1
  Tc  Tc17  1  0.337204  0.337439  0.000080  1
  Tc  Tc18  1  0.519715  0.687672  0.121500  1
  Tc  Tc19  1  0.688593  0.519632  0.877974  1
  Ge  Ge20  1  0.014165  0.724389  0.434676  1
  Ge  Ge21  1  0.982951  0.273623  0.934885  1
  Ge  Ge22  1  0.730290  0.016305  0.565798  1
  Ge  Ge23  1  0.226327  0.483390  0.184086  1
  Ge  Ge24  1  0.774271  0.517015  0.685477  1
  Ge  Ge25  1  0.483091  0.226444  0.815835  1
  Ge  Ge26  1  0.517975  0.773163  0.313426  1
  Ge  Ge27  1  0.273563  0.982804  0.065165  1
  Ge  Ge28  1  0.811052  0.888044  0.182337  1
  Ge  Ge29  1  0.311099  0.608509  0.568173  1
  Ge  Ge30  1  0.688727  0.387745  0.066766  1
  Ge  Ge31  1  0.613068  0.313593  0.432462  1
  Ge  Ge32  1  0.387950  0.688481  0.932903  1
  Ge  Ge33  1  0.110482  0.191324  0.315152  1
  Ge  Ge34  1  0.187890  0.112111  0.684982  1
  Ge  Ge35  1  0.888068  0.811127  0.817798  1
