# generated using pymatgen
data_Tb7Y2Tm3In20
_symmetry_space_group_name_H-M   'P 1'
_cell_length_a   6.52517354
_cell_length_b   10.41982066
_cell_length_c   12.28199223
_cell_angle_alpha   89.98049607
_cell_angle_beta   90.03375981
_cell_angle_gamma   90.01436593
_symmetry_Int_Tables_number   1
_chemical_formula_structural   Tb7Y2Tm3In20
_chemical_formula_sum   'Tb7 Y2 Tm3 In20'
_cell_volume   835.06641067
_cell_formula_units_Z   1
loop_
 _symmetry_equiv_pos_site_id
 _symmetry_equiv_pos_as_xyz
  1  'x, y, z'
loop_
 _atom_site_type_symbol
 _atom_site_label
 _atom_site_symmetry_multiplicity
 _atom_site_fract_x
 _atom_site_fract_y
 _atom_site_fract_z
 _atom_site_occupancy
  Tb  Tb0  1  0.890454  0.493062  0.141902  1
  Tb  Tb1  1  0.609064  0.006340  0.642347  1
  Tb  Tb2  1  0.109538  0.993015  0.858181  1
  Tb  Tb3  1  0.390163  0.506837  0.358109  1
  Tb  Tb4  1  0.109529  0.507017  0.858103  1
  Tb  Tb5  1  0.390297  0.993168  0.358189  1
  Tb  Tb6  1  0.890442  0.006878  0.141879  1
  Y  Y7  1  0.850316  0.250043  0.443339  1
  Y  Y8  1  0.609211  0.493625  0.642530  1
  Tm  Tm9  1  0.349175  0.749904  0.056330  1
  Tm  Tm10  1  0.151081  0.750139  0.556372  1
  Tm  Tm11  1  0.650834  0.250058  0.943733  1
  In  In12  1  0.615388  0.749847  0.505091  1
  In  In13  1  0.884657  0.749983  0.004806  1
  In  In14  1  0.382924  0.250023  0.495354  1
  In  In15  1  0.115315  0.249986  0.994949  1
  In  In16  1  0.650130  0.749967  0.245381  1
  In  In17  1  0.849755  0.750060  0.745404  1
  In  In18  1  0.349740  0.249945  0.754788  1
  In  In19  1  0.151737  0.249922  0.253656  1
  In  In20  1  0.125435  0.750022  0.284307  1
  In  In21  1  0.374740  0.750091  0.784486  1
  In  In22  1  0.874791  0.250007  0.716188  1
  In  In23  1  0.624672  0.249979  0.214522  1
  In  In24  1  0.875598  0.544511  0.401524  1
  In  In25  1  0.624325  0.956679  0.901652  1
  In  In26  1  0.124449  0.043103  0.598660  1
  In  In27  1  0.375721  0.456689  0.098259  1
  In  In28  1  0.124842  0.457025  0.598527  1
  In  In29  1  0.375746  0.043295  0.098279  1
  In  In30  1  0.875644  0.955441  0.401518  1
  In  In31  1  0.624285  0.543341  0.901634  1
