# generated using pymatgen
data_Tb6Cd15SiAg8
_symmetry_space_group_name_H-M   'P 1'
_cell_length_a   9.86969419
_cell_length_b   9.86969437
_cell_length_c   9.87793400
_cell_angle_alpha   60.02758815
_cell_angle_beta   60.02758755
_cell_angle_gamma   60.00000274
_symmetry_Int_Tables_number   1
_chemical_formula_structural   Tb6Cd15SiAg8
_chemical_formula_sum   'Tb6 Cd15 Si1 Ag8'
_cell_volume   680.67453347
_cell_formula_units_Z   1
loop_
 _symmetry_equiv_pos_site_id
 _symmetry_equiv_pos_as_xyz
  1  'x, y, z'
loop_
 _atom_site_type_symbol
 _atom_site_label
 _atom_site_symmetry_multiplicity
 _atom_site_fract_x
 _atom_site_fract_y
 _atom_site_fract_z
 _atom_site_occupancy
  Tb  Tb0  1  0.799702  0.799702  0.204736  1
  Tb  Tb1  1  0.195859  0.799702  0.204736  1
  Tb  Tb2  1  0.799702  0.195859  0.204736  1
  Tb  Tb3  1  0.202690  0.202690  0.797892  1
  Tb  Tb4  1  0.796729  0.202690  0.797892  1
  Tb  Tb5  1  0.202690  0.796729  0.797892  1
  Cd  Cd6  1  0.834499  0.496950  0.834053  1
  Cd  Cd7  1  0.496950  0.834499  0.834053  1
  Cd  Cd8  1  0.834499  0.834499  0.834053  1
  Cd  Cd9  1  0.165954  0.165954  0.502140  1
  Cd  Cd10  1  0.166160  0.502317  0.165362  1
  Cd  Cd11  1  0.502317  0.166160  0.165362  1
  Cd  Cd12  1  0.166160  0.166160  0.165362  1
  Cd  Cd13  1  0.618896  0.618896  0.143312  1
  Cd  Cd14  1  0.623340  0.135934  0.617387  1
  Cd  Cd15  1  0.135934  0.623340  0.617387  1
  Cd  Cd16  1  0.623340  0.623340  0.617387  1
  Cd  Cd17  1  0.379318  0.379318  0.862045  1
  Cd  Cd18  1  0.382018  0.857863  0.378100  1
  Cd  Cd19  1  0.857863  0.382018  0.378100  1
  Cd  Cd20  1  0.382018  0.382018  0.378100  1
  Si  Si21  1  0.001086  0.001086  0.996742  1
  Ag  Ag22  1  0.832162  0.832162  0.503516  1
  Ag  Ag23  1  0.000045  0.000045  0.498586  1
  Ag  Ag24  1  0.501325  0.000045  0.498586  1
  Ag  Ag25  1  0.000045  0.501325  0.498586  1
  Ag  Ag26  1  0.500476  0.500476  0.999469  1
  Ag  Ag27  1  0.999577  0.500476  0.999469  1
  Ag  Ag28  1  0.500476  0.999577  0.999469  1
  Ag  Ag29  1  0.498172  0.498172  0.505484  1
