# generated using pymatgen
data_Tm2Al7Ga2Ir2Pt
_symmetry_space_group_name_H-M   'P 1'
_cell_length_a   7.54559580
_cell_length_b   7.54721025
_cell_length_c   9.47521000
_cell_angle_alpha   90.00000000
_cell_angle_beta   90.00000000
_cell_angle_gamma   119.68345979
_symmetry_Int_Tables_number   1
_chemical_formula_structural   Tm2Al7Ga2Ir2Pt
_chemical_formula_sum   'Tm4 Al14 Ga4 Ir4 Pt2'
_cell_volume   468.78736660
_cell_formula_units_Z   2
loop_
 _symmetry_equiv_pos_site_id
 _symmetry_equiv_pos_as_xyz
  1  'x, y, z'
loop_
 _atom_site_type_symbol
 _atom_site_label
 _atom_site_symmetry_multiplicity
 _atom_site_fract_x
 _atom_site_fract_y
 _atom_site_fract_z
 _atom_site_occupancy
  Tm  Tm0  1  0.998008  0.673588  0.250000  1
  Tm  Tm1  1  0.001992  0.326412  0.750000  1
  Tm  Tm2  1  0.670184  0.994558  0.250000  1
  Tm  Tm3  1  0.329816  0.005442  0.750000  1
  Al  Al4  1  0.000259  0.337942  0.076335  1
  Al  Al5  1  0.999741  0.662058  0.923665  1
  Al  Al6  1  0.999741  0.662058  0.576335  1
  Al  Al7  1  0.338345  0.000796  0.423949  1
  Al  Al8  1  0.000259  0.337942  0.423665  1
  Al  Al9  1  0.661655  0.999204  0.576051  1
  Al  Al10  1  0.661655  0.999204  0.923949  1
  Al  Al11  1  0.338345  0.000796  0.076051  1
  Al  Al12  1  0.336376  0.336648  0.559598  1
  Al  Al13  1  0.663624  0.663352  0.440402  1
  Al  Al14  1  0.663624  0.663352  0.059598  1
  Al  Al15  1  0.336376  0.336648  0.940402  1
  Al  Al16  1  0.551097  0.338066  0.250000  1
  Al  Al17  1  0.448903  0.661934  0.750000  1
  Ga  Ga18  1  0.133569  0.134486  0.250000  1
  Ga  Ga19  1  0.866431  0.865514  0.750000  1
  Ga  Ga20  1  0.337829  0.547805  0.250000  1
  Ga  Ga21  1  0.662171  0.452195  0.750000  1
  Ir  Ir22  1  0.671411  0.328052  0.002316  1
  Ir  Ir23  1  0.328589  0.671948  0.997684  1
  Ir  Ir24  1  0.328589  0.671948  0.502316  1
  Ir  Ir25  1  0.671411  0.328052  0.497684  1
  Pt  Pt26  1  0.000000  0.000000  0.000000  1
  Pt  Pt27  1  0.000000  0.000000  0.500000  1
