# generated using pymatgen
data_TbLu2Mg(AlPt)4
_symmetry_space_group_name_H-M   'P 1'
_cell_length_a   4.31966600
_cell_length_b   6.76464393
_cell_length_c   7.73735702
_cell_angle_alpha   92.44044424
_cell_angle_beta   90.00000000
_cell_angle_gamma   90.00000000
_symmetry_Int_Tables_number   1
_chemical_formula_structural   TbLu2Mg(AlPt)4
_chemical_formula_sum   'Tb1 Lu2 Mg1 Al4 Pt4'
_cell_volume   225.88826645
_cell_formula_units_Z   1
loop_
 _symmetry_equiv_pos_site_id
 _symmetry_equiv_pos_as_xyz
  1  'x, y, z'
loop_
 _atom_site_type_symbol
 _atom_site_label
 _atom_site_symmetry_multiplicity
 _atom_site_fract_x
 _atom_site_fract_y
 _atom_site_fract_z
 _atom_site_occupancy
  Tb  Tb0  1  0.250000  0.529300  0.819235  1
  Lu  Lu1  1  0.750000  0.972620  0.329334  1
  Lu  Lu2  1  0.750000  0.468121  0.180139  1
  Mg  Mg3  1  0.250000  0.029972  0.673475  1
  Al  Al4  1  0.250000  0.137236  0.054996  1
  Al  Al5  1  0.250000  0.646441  0.441196  1
  Al  Al6  1  0.750000  0.860352  0.939818  1
  Al  Al7  1  0.750000  0.355506  0.560819  1
  Pt  Pt8  1  0.250000  0.269759  0.376997  1
  Pt  Pt9  1  0.250000  0.771783  0.130825  1
  Pt  Pt10  1  0.750000  0.735773  0.619864  1
  Pt  Pt11  1  0.750000  0.223134  0.873302  1
