# generated using pymatgen
data_Ca2Pa2Ge6Ir7
_symmetry_space_group_name_H-M   'P 1'
_cell_length_a   7.28636222
_cell_length_b   7.28636228
_cell_length_c   7.31632587
_cell_angle_alpha   109.28813654
_cell_angle_beta   109.28813833
_cell_angle_gamma   109.67262552
_symmetry_Int_Tables_number   1
_chemical_formula_structural   Ca2Pa2Ge6Ir7
_chemical_formula_sum   'Ca2 Pa2 Ge6 Ir7'
_cell_volume   299.61787724
_cell_formula_units_Z   1
loop_
 _symmetry_equiv_pos_site_id
 _symmetry_equiv_pos_as_xyz
  1  'x, y, z'
loop_
 _atom_site_type_symbol
 _atom_site_label
 _atom_site_symmetry_multiplicity
 _atom_site_fract_x
 _atom_site_fract_y
 _atom_site_fract_z
 _atom_site_occupancy
  Ca  Ca0  1  0.000000  0.500000  0.000000  1
  Ca  Ca1  1  0.500000  0.000000  0.000000  1
  Pa  Pa2  1  0.000000  0.000000  0.500000  1
  Pa  Pa3  1  0.500000  0.500000  0.500000  1
  Ge  Ge4  1  0.682965  0.682965  0.000000  1
  Ge  Ge5  1  0.317552  0.991546  0.309099  1
  Ge  Ge6  1  0.991546  0.317552  0.309099  1
  Ge  Ge7  1  0.317035  0.317035  0.000000  1
  Ge  Ge8  1  0.682448  0.008454  0.690901  1
  Ge  Ge9  1  0.008454  0.682448  0.690901  1
  Ir  Ir10  1  0.750000  0.250000  0.500000  1
  Ir  Ir11  1  0.750216  0.508870  0.259086  1
  Ir  Ir12  1  0.491130  0.249784  0.740914  1
  Ir  Ir13  1  0.249784  0.491130  0.740914  1
  Ir  Ir14  1  0.250000  0.750000  0.500000  1
  Ir  Ir15  1  0.508870  0.750216  0.259086  1
  Ir  Ir16  1  0.000000  0.000000  0.000000  1
