# generated using pymatgen
data_Nd4SiI6
_symmetry_space_group_name_H-M   'P 1'
_cell_length_a   4.35332400
_cell_length_b   14.48125300
_cell_length_c   15.26287200
_cell_angle_alpha   90.00000000
_cell_angle_beta   90.00000000
_cell_angle_gamma   90.00000000
_symmetry_Int_Tables_number   1
_chemical_formula_structural   Nd4SiI6
_chemical_formula_sum   'Nd8 Si2 I12'
_cell_volume   962.19566138
_cell_formula_units_Z   2
loop_
 _symmetry_equiv_pos_site_id
 _symmetry_equiv_pos_as_xyz
  1  'x, y, z'
loop_
 _atom_site_type_symbol
 _atom_site_label
 _atom_site_symmetry_multiplicity
 _atom_site_fract_x
 _atom_site_fract_y
 _atom_site_fract_z
 _atom_site_occupancy
  Nd  Nd0  1  0.500000  0.114778  0.346250  1
  Nd  Nd1  1  0.500000  0.885222  0.653750  1
  Nd  Nd2  1  0.500000  0.614778  0.153750  1
  Nd  Nd3  1  0.500000  0.385222  0.846250  1
  Nd  Nd4  1  0.000000  0.113221  0.575636  1
  Nd  Nd5  1  0.000000  0.886779  0.424364  1
  Nd  Nd6  1  0.000000  0.613221  0.924364  1
  Nd  Nd7  1  0.000000  0.386779  0.075636  1
  Si  Si8  1  0.500000  0.000000  0.500000  1
  Si  Si9  1  0.500000  0.500000  0.000000  1
  I  I10  1  0.500000  0.244233  0.161585  1
  I  I11  1  0.500000  0.755767  0.838415  1
  I  I12  1  0.500000  0.744233  0.338415  1
  I  I13  1  0.500000  0.255767  0.661585  1
  I  I14  1  0.000000  0.258263  0.413599  1
  I  I15  1  0.000000  0.741737  0.586401  1
  I  I16  1  0.000000  0.758263  0.086401  1
  I  I17  1  0.000000  0.241737  0.913599  1
  I  I18  1  0.000000  0.998950  0.240710  1
  I  I19  1  0.000000  0.001050  0.759290  1
  I  I20  1  0.000000  0.498950  0.259290  1
  I  I21  1  0.000000  0.501050  0.740710  1
