# generated using pymatgen
data_DyThTcB6
_symmetry_space_group_name_H-M   'P 1'
_cell_length_a   3.77994000
_cell_length_b   9.25076700
_cell_length_c   11.67160700
_cell_angle_alpha   90.00000000
_cell_angle_beta   90.00000000
_cell_angle_gamma   90.00000000
_symmetry_Int_Tables_number   1
_chemical_formula_structural   DyThTcB6
_chemical_formula_sum   'Dy4 Th4 Tc4 B24'
_cell_volume   408.12509950
_cell_formula_units_Z   4
loop_
 _symmetry_equiv_pos_site_id
 _symmetry_equiv_pos_as_xyz
  1  'x, y, z'
loop_
 _atom_site_type_symbol
 _atom_site_label
 _atom_site_symmetry_multiplicity
 _atom_site_fract_x
 _atom_site_fract_y
 _atom_site_fract_z
 _atom_site_occupancy
  Dy  Dy0  1  0.000000  0.944217  0.371981  1
  Dy  Dy1  1  0.000000  0.055783  0.628019  1
  Dy  Dy2  1  0.000000  0.444217  0.128019  1
  Dy  Dy3  1  0.000000  0.555783  0.871981  1
  Th  Th4  1  0.000000  0.322782  0.414225  1
  Th  Th5  1  0.000000  0.677218  0.585775  1
  Th  Th6  1  0.000000  0.822782  0.085775  1
  Th  Th7  1  0.000000  0.177218  0.914225  1
  Tc  Tc8  1  0.000000  0.638812  0.320178  1
  Tc  Tc9  1  0.000000  0.361188  0.679822  1
  Tc  Tc10  1  0.000000  0.138812  0.179822  1
  Tc  Tc11  1  0.000000  0.861188  0.820178  1
  B  B12  1  0.500000  0.555966  0.430154  1
  B  B13  1  0.500000  0.444034  0.569846  1
  B  B14  1  0.500000  0.055966  0.069846  1
  B  B15  1  0.500000  0.944034  0.930154  1
  B  B16  1  0.500000  0.749182  0.417090  1
  B  B17  1  0.500000  0.250818  0.582910  1
  B  B18  1  0.500000  0.249182  0.082910  1
  B  B19  1  0.500000  0.750818  0.917090  1
  B  B20  1  0.500000  0.790077  0.266564  1
  B  B21  1  0.500000  0.209923  0.733436  1
  B  B22  1  0.500000  0.290077  0.233436  1
  B  B23  1  0.500000  0.709923  0.766564  1
  B  B24  1  0.500000  0.630295  0.186159  1
  B  B25  1  0.500000  0.369705  0.813841  1
  B  B26  1  0.500000  0.130295  0.313841  1
  B  B27  1  0.500000  0.869705  0.686159  1
  B  B28  1  0.500000  0.985138  0.213627  1
  B  B29  1  0.500000  0.014862  0.786373  1
  B  B30  1  0.500000  0.485138  0.286373  1
  B  B31  1  0.500000  0.514862  0.713627  1
  B  B32  1  0.500000  0.603113  0.028504  1
  B  B33  1  0.500000  0.396887  0.971496  1
  B  B34  1  0.500000  0.103113  0.471496  1
  B  B35  1  0.500000  0.896887  0.528504  1
