# generated using pymatgen
data_Ho4Al18Ir3RuAu2
_symmetry_space_group_name_H-M   'P 1'
_cell_length_a   7.61980815
_cell_length_b   7.61980725
_cell_length_c   9.45871728
_cell_angle_alpha   90.02763974
_cell_angle_beta   90.02764588
_cell_angle_gamma   119.49237184
_symmetry_Int_Tables_number   1
_chemical_formula_structural   Ho4Al18Ir3RuAu2
_chemical_formula_sum   'Ho4 Al18 Ir3 Ru1 Au2'
_cell_volume   478.02383541
_cell_formula_units_Z   1
loop_
 _symmetry_equiv_pos_site_id
 _symmetry_equiv_pos_as_xyz
  1  'x, y, z'
loop_
 _atom_site_type_symbol
 _atom_site_label
 _atom_site_symmetry_multiplicity
 _atom_site_fract_x
 _atom_site_fract_y
 _atom_site_fract_z
 _atom_site_occupancy
  Ho  Ho0  1  0.995862  0.676022  0.249711  1
  Ho  Ho1  1  0.004323  0.324379  0.750120  1
  Ho  Ho2  1  0.675621  0.995677  0.249880  1
  Ho  Ho3  1  0.323978  0.004138  0.750289  1
  Al  Al4  1  0.141726  0.142186  0.249827  1
  Al  Al5  1  0.857814  0.858274  0.750173  1
  Al  Al6  1  0.998736  0.345123  0.076613  1
  Al  Al7  1  0.996977  0.652378  0.923560  1
  Al  Al8  1  0.998865  0.655248  0.577739  1
  Al  Al9  1  0.344752  0.001135  0.422261  1
  Al  Al10  1  0.000869  0.345236  0.422438  1
  Al  Al11  1  0.654764  0.999131  0.577562  1
  Al  Al12  1  0.654877  0.001264  0.923387  1
  Al  Al13  1  0.347622  0.003023  0.076440  1
  Al  Al14  1  0.341802  0.341977  0.558697  1
  Al  Al15  1  0.658023  0.658198  0.441303  1
  Al  Al16  1  0.658737  0.655932  0.057053  1
  Al  Al17  1  0.344068  0.341263  0.942947  1
  Al  Al18  1  0.337613  0.551711  0.249651  1
  Al  Al19  1  0.661945  0.446303  0.751881  1
  Al  Al20  1  0.553697  0.338055  0.248119  1
  Al  Al21  1  0.448289  0.662387  0.750349  1
  Ir  Ir22  1  0.328112  0.671888  0.000000  1
  Ir  Ir23  1  0.327780  0.672220  0.500000  1
  Ir  Ir24  1  0.671694  0.328306  0.500000  1
  Ru  Ru25  1  0.671741  0.328259  0.000000  1
  Au  Au26  1  0.000107  0.999893  0.000000  1
  Au  Au27  1  0.999605  0.000395  0.500000  1
