# generated using pymatgen
data_Nd10GaSn2Ir3
_symmetry_space_group_name_H-M   'P 1'
_cell_length_a   9.04224644
_cell_length_b   9.04224699
_cell_length_c   8.97246623
_cell_angle_alpha   126.75173902
_cell_angle_beta   126.75174393
_cell_angle_gamma   79.19525390
_symmetry_Int_Tables_number   1
_chemical_formula_structural   Nd10GaSn2Ir3
_chemical_formula_sum   'Nd10 Ga1 Sn2 Ir3'
_cell_volume   454.03577930
_cell_formula_units_Z   1
loop_
 _symmetry_equiv_pos_site_id
 _symmetry_equiv_pos_as_xyz
  1  'x, y, z'
loop_
 _atom_site_type_symbol
 _atom_site_label
 _atom_site_symmetry_multiplicity
 _atom_site_fract_x
 _atom_site_fract_y
 _atom_site_fract_z
 _atom_site_occupancy
  Nd  Nd0  1  0.496826  0.494948  0.991774  1
  Nd  Nd1  1  0.005052  0.003174  0.008226  1
  Nd  Nd2  1  0.529256  0.035739  0.838507  1
  Nd  Nd3  1  0.190747  0.697230  0.161493  1
  Nd  Nd4  1  0.026731  0.203503  0.500000  1
  Nd  Nd5  1  0.707743  0.519832  0.500000  1
  Nd  Nd6  1  0.464261  0.970744  0.161493  1
  Nd  Nd7  1  0.802770  0.309253  0.838507  1
  Nd  Nd8  1  0.980168  0.792257  0.500000  1
  Nd  Nd9  1  0.296497  0.473269  0.500000  1
  Ga  Ga10  1  0.630012  0.869988  0.500000  1
  Sn  Sn11  1  0.247370  0.252630  0.000000  1
  Sn  Sn12  1  0.747370  0.752630  0.000000  1
  Ir  Ir13  1  0.863255  0.368444  0.231697  1
  Ir  Ir14  1  0.131556  0.636745  0.768303  1
  Ir  Ir15  1  0.380385  0.119615  0.500000  1
