# generated using pymatgen
data_La4PdRh3Pb2
_symmetry_space_group_name_H-M   'P 1'
_cell_length_a   7.92679007
_cell_length_b   7.92679007
_cell_length_c   3.90216300
_cell_angle_alpha   90.00000000
_cell_angle_beta   90.00000000
_cell_angle_gamma   89.74866366
_symmetry_Int_Tables_number   1
_chemical_formula_structural   La4PdRh3Pb2
_chemical_formula_sum   'La4 Pd1 Rh3 Pb2'
_cell_volume   245.18615387
_cell_formula_units_Z   1
loop_
 _symmetry_equiv_pos_site_id
 _symmetry_equiv_pos_as_xyz
  1  'x, y, z'
loop_
 _atom_site_type_symbol
 _atom_site_label
 _atom_site_symmetry_multiplicity
 _atom_site_fract_x
 _atom_site_fract_y
 _atom_site_fract_z
 _atom_site_occupancy
  La  La0  1  0.663320  0.163320  0.500000  1
  La  La1  1  0.180851  0.326639  0.500000  1
  La  La2  1  0.826639  0.680851  0.500000  1
  La  La3  1  0.323782  0.823782  0.500000  1
  Pd  Pd4  1  0.872388  0.372388  0.000000  1
  Rh  Rh5  1  0.367937  0.133819  0.000000  1
  Rh  Rh6  1  0.132323  0.632323  0.000000  1
  Rh  Rh7  1  0.633819  0.867937  0.000000  1
  Pb  Pb8  1  0.000543  0.998398  0.000000  1
  Pb  Pb9  1  0.498398  0.500543  0.000000  1
