# generated using pymatgen
data_SmTh7(Si3Pd)4
_symmetry_space_group_name_H-M   'P 1'
_cell_length_a   8.23799273
_cell_length_b   8.23799315
_cell_length_c   8.50658600
_cell_angle_alpha   90.00000000
_cell_angle_beta   90.00000000
_cell_angle_gamma   119.96584830
_symmetry_Int_Tables_number   1
_chemical_formula_structural   SmTh7(Si3Pd)4
_chemical_formula_sum   'Sm1 Th7 Si12 Pd4'
_cell_volume   500.12448001
_cell_formula_units_Z   1
loop_
 _symmetry_equiv_pos_site_id
 _symmetry_equiv_pos_as_xyz
  1  'x, y, z'
loop_
 _atom_site_type_symbol
 _atom_site_label
 _atom_site_symmetry_multiplicity
 _atom_site_fract_x
 _atom_site_fract_y
 _atom_site_fract_z
 _atom_site_occupancy
  Sm  Sm0  1  0.499810  0.500190  0.750000  1
  Th  Th1  1  0.500174  0.499826  0.250000  1
  Th  Th2  1  0.000376  0.500196  0.750000  1
  Th  Th3  1  0.999652  0.499831  0.250000  1
  Th  Th4  1  0.499804  0.999624  0.750000  1
  Th  Th5  1  0.500169  0.000348  0.250000  1
  Th  Th6  1  0.000000  0.000000  0.750000  1
  Th  Th7  1  0.999995  0.000005  0.250000  1
  Si  Si8  1  0.834301  0.165699  0.999537  1
  Si  Si9  1  0.165695  0.834305  0.000849  1
  Si  Si10  1  0.331647  0.165852  0.998606  1
  Si  Si11  1  0.165695  0.834305  0.499151  1
  Si  Si12  1  0.668373  0.834158  0.999905  1
  Si  Si13  1  0.834301  0.165699  0.500463  1
  Si  Si14  1  0.834148  0.668353  0.998606  1
  Si  Si15  1  0.668373  0.834158  0.500095  1
  Si  Si16  1  0.165842  0.331627  0.999905  1
  Si  Si17  1  0.331647  0.165852  0.501394  1
  Si  Si18  1  0.165842  0.331627  0.500095  1
  Si  Si19  1  0.834148  0.668353  0.501394  1
  Pd  Pd20  1  0.666356  0.333644  0.998219  1
  Pd  Pd21  1  0.333649  0.666351  0.998548  1
  Pd  Pd22  1  0.333649  0.666351  0.501452  1
  Pd  Pd23  1  0.666356  0.333644  0.501781  1
