# generated using pymatgen
data_Nd4ErRu2
_symmetry_space_group_name_H-M   'P 1'
_cell_length_a   6.54804107
_cell_length_b   7.33015330
_cell_length_c   8.82990748
_cell_angle_alpha   96.32076299
_cell_angle_beta   111.76420390
_cell_angle_gamma   90.00000293
_symmetry_Int_Tables_number   1
_chemical_formula_structural   Nd4ErRu2
_chemical_formula_sum   'Nd8 Er2 Ru4'
_cell_volume   390.83291423
_cell_formula_units_Z   2
loop_
 _symmetry_equiv_pos_site_id
 _symmetry_equiv_pos_as_xyz
  1  'x, y, z'
loop_
 _atom_site_type_symbol
 _atom_site_label
 _atom_site_symmetry_multiplicity
 _atom_site_fract_x
 _atom_site_fract_y
 _atom_site_fract_z
 _atom_site_occupancy
  Nd  Nd0  1  0.794681  0.583928  0.817316  1
  Nd  Nd1  1  0.977365  0.916072  0.182684  1
  Nd  Nd2  1  0.205319  0.416072  0.182684  1
  Nd  Nd3  1  0.022635  0.083928  0.817316  1
  Nd  Nd4  1  0.207766  0.686716  0.569830  1
  Nd  Nd5  1  0.637936  0.813284  0.430170  1
  Nd  Nd6  1  0.792234  0.313284  0.430170  1
  Nd  Nd7  1  0.362064  0.186716  0.569830  1
  Er  Er8  1  0.429510  0.750000  0.000000  1
  Er  Er9  1  0.570490  0.250000  0.000000  1
  Ru  Ru10  1  0.601139  0.927499  0.786056  1
  Ru  Ru11  1  0.815082  0.572501  0.213944  1
  Ru  Ru12  1  0.398861  0.072501  0.213944  1
  Ru  Ru13  1  0.184918  0.427499  0.786056  1
