# generated using pymatgen
data_Tm3MgZn2Si2Au
_symmetry_space_group_name_H-M   'P 1'
_cell_length_a   6.89731737
_cell_length_b   6.89731846
_cell_length_c   4.29047900
_cell_angle_alpha   90.00000000
_cell_angle_beta   90.00000000
_cell_angle_gamma   119.68917846
_symmetry_Int_Tables_number   1
_chemical_formula_structural   Tm3MgZn2Si2Au
_chemical_formula_sum   'Tm3 Mg1 Zn2 Si2 Au1'
_cell_volume   177.31628658
_cell_formula_units_Z   1
loop_
 _symmetry_equiv_pos_site_id
 _symmetry_equiv_pos_as_xyz
  1  'x, y, z'
loop_
 _atom_site_type_symbol
 _atom_site_label
 _atom_site_symmetry_multiplicity
 _atom_site_fract_x
 _atom_site_fract_y
 _atom_site_fract_z
 _atom_site_occupancy
  Tm  Tm0  1  0.572759  0.999006  0.000000  1
  Tm  Tm1  1  0.999006  0.572759  0.000000  1
  Tm  Tm2  1  0.417394  0.417394  0.000000  1
  Mg  Mg3  1  0.764770  0.764770  0.500000  1
  Zn  Zn4  1  0.252760  0.000245  0.500000  1
  Zn  Zn5  1  0.000245  0.252760  0.500000  1
  Si  Si6  1  0.326246  0.663423  0.500000  1
  Si  Si7  1  0.663423  0.326246  0.500000  1
  Au  Au8  1  0.003396  0.003396  0.000000  1
