# generated using pymatgen
data_Ce3Nd7C4Cl17
_symmetry_space_group_name_H-M   'P 1'
_cell_length_a   8.84650556
_cell_length_b   9.48495772
_cell_length_c   11.92917400
_cell_angle_alpha   104.58188440
_cell_angle_beta   96.15377391
_cell_angle_gamma   110.90705257
_symmetry_Int_Tables_number   1
_chemical_formula_structural   Ce3Nd7C4Cl17
_chemical_formula_sum   'Ce3 Nd7 C4 Cl17'
_cell_volume   883.18544045
_cell_formula_units_Z   1
loop_
 _symmetry_equiv_pos_site_id
 _symmetry_equiv_pos_as_xyz
  1  'x, y, z'
loop_
 _atom_site_type_symbol
 _atom_site_label
 _atom_site_symmetry_multiplicity
 _atom_site_fract_x
 _atom_site_fract_y
 _atom_site_fract_z
 _atom_site_occupancy
  Ce  Ce0  1  0.652395  0.485256  0.438519  1
  Ce  Ce1  1  0.349726  0.514453  0.559920  1
  Ce  Ce2  1  0.075783  0.424751  0.268617  1
  Nd  Nd3  1  0.922198  0.575219  0.731004  1
  Nd  Nd4  1  0.409705  0.367962  0.135405  1
  Nd  Nd5  1  0.590582  0.632298  0.865282  1
  Nd  Nd6  1  0.492964  0.782813  0.340722  1
  Nd  Nd7  1  0.507743  0.217228  0.659386  1
  Nd  Nd8  1  0.206737  0.095747  0.307606  1
  Nd  Nd9  1  0.794149  0.904268  0.692510  1
  C  C10  1  0.396159  0.525853  0.343491  1
  C  C11  1  0.604098  0.474214  0.657008  1
  C  C12  1  0.328546  0.365710  0.337817  1
  C  C13  1  0.671584  0.634467  0.662312  1
  Cl  Cl14  1  0.104344  0.348599  0.038345  1
  Cl  Cl15  1  0.895846  0.650946  0.961036  1
  Cl  Cl16  1  0.810985  0.821011  0.445295  1
  Cl  Cl17  1  0.188738  0.178678  0.554591  1
  Cl  Cl18  1  0.999744  0.500410  0.501000  1
  Cl  Cl19  1  0.297319  0.042683  0.094897  1
  Cl  Cl20  1  0.702577  0.957542  0.905132  1
  Cl  Cl21  1  0.902927  0.102290  0.248355  1
  Cl  Cl22  1  0.096436  0.896230  0.751577  1
  Cl  Cl23  1  0.542153  0.133113  0.412664  1
  Cl  Cl24  1  0.457725  0.867035  0.587228  1
  Cl  Cl25  1  0.738129  0.413947  0.210475  1
  Cl  Cl26  1  0.260328  0.585980  0.789447  1
  Cl  Cl27  1  0.166576  0.757664  0.287078  1
  Cl  Cl28  1  0.834014  0.243770  0.713159  1
  Cl  Cl29  1  0.535304  0.684493  0.111580  1
  Cl  Cl30  1  0.464488  0.315374  0.888540  1
