# generated using pymatgen
data_Dy12Ir2OsRh
_symmetry_space_group_name_H-M   'P 1'
_cell_length_a   6.38195607
_cell_length_b   7.27735337
_cell_length_c   9.19458200
_cell_angle_alpha   90.00000000
_cell_angle_beta   90.00000000
_cell_angle_gamma   89.92058361
_symmetry_Int_Tables_number   1
_chemical_formula_structural   Dy12Ir2OsRh
_chemical_formula_sum   'Dy12 Ir2 Os1 Rh1'
_cell_volume   427.03045301
_cell_formula_units_Z   1
loop_
 _symmetry_equiv_pos_site_id
 _symmetry_equiv_pos_as_xyz
  1  'x, y, z'
loop_
 _atom_site_type_symbol
 _atom_site_label
 _atom_site_symmetry_multiplicity
 _atom_site_fract_x
 _atom_site_fract_y
 _atom_site_fract_z
 _atom_site_occupancy
  Dy  Dy0  1  0.326383  0.678891  0.064015  1
  Dy  Dy1  1  0.170254  0.174365  0.437065  1
  Dy  Dy2  1  0.672701  0.322789  0.564203  1
  Dy  Dy3  1  0.830815  0.823792  0.939746  1
  Dy  Dy4  1  0.672701  0.322789  0.935797  1
  Dy  Dy5  1  0.830815  0.823792  0.560254  1
  Dy  Dy6  1  0.326383  0.678891  0.435985  1
  Dy  Dy7  1  0.170254  0.174365  0.062935  1
  Dy  Dy8  1  0.869892  0.535861  0.250000  1
  Dy  Dy9  1  0.630734  0.035108  0.250000  1
  Dy  Dy10  1  0.131933  0.464669  0.750000  1
  Dy  Dy11  1  0.370719  0.963779  0.750000  1
  Ir  Ir12  1  0.956268  0.116742  0.750000  1
  Ir  Ir13  1  0.546369  0.616361  0.750000  1
  Os  Os14  1  0.039233  0.883837  0.250000  1
  Rh  Rh15  1  0.454547  0.383967  0.250000  1
