# generated using pymatgen
data_Hf4ZnCo2Si4Pt
_symmetry_space_group_name_H-M   'P 1'
_cell_length_a   3.85842900
_cell_length_b   6.49422201
_cell_length_c   7.38272843
_cell_angle_alpha   91.68052182
_cell_angle_beta   90.00000000
_cell_angle_gamma   90.00000000
_symmetry_Int_Tables_number   1
_chemical_formula_structural   Hf4ZnCo2Si4Pt
_chemical_formula_sum   'Hf4 Zn1 Co2 Si4 Pt1'
_cell_volume   184.91310986
_cell_formula_units_Z   1
loop_
 _symmetry_equiv_pos_site_id
 _symmetry_equiv_pos_as_xyz
  1  'x, y, z'
loop_
 _atom_site_type_symbol
 _atom_site_label
 _atom_site_symmetry_multiplicity
 _atom_site_fract_x
 _atom_site_fract_y
 _atom_site_fract_z
 _atom_site_occupancy
  Hf  Hf0  1  0.750000  0.478079  0.324581  1
  Hf  Hf1  1  0.250000  0.020908  0.808970  1
  Hf  Hf2  1  0.750000  0.977389  0.193009  1
  Hf  Hf3  1  0.250000  0.514705  0.671012  1
  Zn  Zn4  1  0.250000  0.655871  0.063857  1
  Co  Co5  1  0.250000  0.139231  0.441105  1
  Co  Co6  1  0.750000  0.862050  0.559873  1
  Si  Si7  1  0.250000  0.251467  0.135683  1
  Si  Si8  1  0.250000  0.781400  0.402084  1
  Si  Si9  1  0.750000  0.741237  0.860166  1
  Si  Si10  1  0.750000  0.218794  0.602040  1
  Pt  Pt11  1  0.750000  0.358868  0.937619  1
