# generated using pymatgen
data_Lu5Sc3Pt4
_symmetry_space_group_name_H-M   'P 1'
_cell_length_a   4.62318100
_cell_length_b   6.91756786
_cell_length_c   8.38228982
_cell_angle_alpha   89.98561808
_cell_angle_beta   90.00000000
_cell_angle_gamma   90.00000000
_symmetry_Int_Tables_number   1
_chemical_formula_structural   Lu5Sc3Pt4
_chemical_formula_sum   'Lu5 Sc3 Pt4'
_cell_volume   268.07541292
_cell_formula_units_Z   1
loop_
 _symmetry_equiv_pos_site_id
 _symmetry_equiv_pos_as_xyz
  1  'x, y, z'
loop_
 _atom_site_type_symbol
 _atom_site_label
 _atom_site_symmetry_multiplicity
 _atom_site_fract_x
 _atom_site_fract_y
 _atom_site_fract_z
 _atom_site_occupancy
  Lu  Lu0  1  0.250000  0.989727  0.327105  1
  Lu  Lu1  1  0.750000  0.020295  0.678884  1
  Lu  Lu2  1  0.250000  0.480394  0.167631  1
  Lu  Lu3  1  0.750000  0.514294  0.826221  1
  Lu  Lu4  1  0.750000  0.645297  0.423898  1
  Sc  Sc5  1  0.250000  0.357108  0.575049  1
  Sc  Sc6  1  0.750000  0.142008  0.074869  1
  Sc  Sc7  1  0.250000  0.857424  0.927450  1
  Pt  Pt8  1  0.250000  0.246767  0.899326  1
  Pt  Pt9  1  0.750000  0.749842  0.093161  1
  Pt  Pt10  1  0.250000  0.752270  0.603528  1
  Pt  Pt11  1  0.750000  0.244574  0.402877  1
