# generated using pymatgen
data_Cs4Rb2TbInAs4
_symmetry_space_group_name_H-M   'P 1'
_cell_length_a   9.97884073
_cell_length_b   9.97884062
_cell_length_c   9.97884123
_cell_angle_alpha   130.65777896
_cell_angle_beta   137.94723755
_cell_angle_gamma   66.79214978
_symmetry_Int_Tables_number   1
_chemical_formula_structural   Cs4Rb2TbInAs4
_chemical_formula_sum   'Cs4 Rb2 Tb1 In1 As4'
_cell_volume   496.97977291
_cell_formula_units_Z   1
loop_
 _symmetry_equiv_pos_site_id
 _symmetry_equiv_pos_as_xyz
  1  'x, y, z'
loop_
 _atom_site_type_symbol
 _atom_site_label
 _atom_site_symmetry_multiplicity
 _atom_site_fract_x
 _atom_site_fract_y
 _atom_site_fract_z
 _atom_site_occupancy
  Cs  Cs0  1  0.691564  0.465820  0.792904  1
  Cs  Cs1  1  0.808436  0.101340  0.274256  1
  Cs  Cs2  1  0.172916  0.898660  0.707096  1
  Cs  Cs3  1  0.327084  0.534180  0.225744  1
  Rb  Rb4  1  0.750000  0.000000  0.750000  1
  Rb  Rb5  1  0.250000  0.000000  0.250000  1
  Tb  Tb6  1  0.250000  0.500000  0.750000  1
  In  In7  1  0.750000  0.500000  0.250000  1
  As  As8  1  0.412229  0.219770  0.818348  1
  As  As9  1  0.598578  0.780230  0.192460  1
  As  As10  1  0.087771  0.406118  0.307540  1
  As  As11  1  0.901422  0.593882  0.681652  1
