# generated using pymatgen
data_PbS2(O3F)2
_symmetry_space_group_name_H-M   'P 1'
_cell_length_a   7.32065456
_cell_length_b   7.32065497
_cell_length_c   8.42753269
_cell_angle_alpha   105.51720211
_cell_angle_beta   104.10219674
_cell_angle_gamma   114.30098780
_symmetry_Int_Tables_number   1
_chemical_formula_structural   PbS2(O3F)2
_chemical_formula_sum   'Pb2 S4 O12 F4'
_cell_volume   363.02387800
_cell_formula_units_Z   2
loop_
 _symmetry_equiv_pos_site_id
 _symmetry_equiv_pos_as_xyz
  1  'x, y, z'
loop_
 _atom_site_type_symbol
 _atom_site_label
 _atom_site_symmetry_multiplicity
 _atom_site_fract_x
 _atom_site_fract_y
 _atom_site_fract_z
 _atom_site_occupancy
  Pb  Pb0  1  0.740390  0.490390  0.750000  1
  Pb  Pb1  1  0.259610  0.509610  0.250000  1
  S  S2  1  0.179911  0.340216  0.744753  1
  S  S3  1  0.595463  0.935158  0.755247  1
  S  S4  1  0.820089  0.659784  0.255247  1
  S  S5  1  0.404537  0.064842  0.244753  1
  O  O6  1  0.352742  0.381665  0.677735  1
  O  O7  1  0.703930  0.175008  0.822265  1
  O  O8  1  0.647258  0.618335  0.322265  1
  O  O9  1  0.296070  0.824992  0.177735  1
  O  O10  1  0.007505  0.366231  0.645294  1
  O  O11  1  0.720937  0.862211  0.854706  1
  O  O12  1  0.992495  0.633769  0.354706  1
  O  O13  1  0.279063  0.137789  0.145294  1
  O  O14  1  0.256253  0.437798  0.939144  1
  O  O15  1  0.498655  0.817110  0.560856  1
  O  O16  1  0.743747  0.562202  0.060856  1
  O  O17  1  0.501345  0.182890  0.439144  1
  F  F18  1  0.067227  0.080815  0.694548  1
  F  F19  1  0.386267  0.872678  0.805452  1
  F  F20  1  0.932773  0.919185  0.305452  1
  F  F21  1  0.613733  0.127322  0.194548  1
