# generated using pymatgen
data_CeHo5TcIr
_symmetry_space_group_name_H-M   'P 1'
_cell_length_a   6.32710500
_cell_length_b   7.19870700
_cell_length_c   9.39947500
_cell_angle_alpha   90.00000000
_cell_angle_beta   90.00000000
_cell_angle_gamma   90.00000000
_symmetry_Int_Tables_number   1
_chemical_formula_structural   CeHo5TcIr
_chemical_formula_sum   'Ce2 Ho10 Tc2 Ir2'
_cell_volume   428.11765334
_cell_formula_units_Z   2
loop_
 _symmetry_equiv_pos_site_id
 _symmetry_equiv_pos_as_xyz
  1  'x, y, z'
loop_
 _atom_site_type_symbol
 _atom_site_label
 _atom_site_symmetry_multiplicity
 _atom_site_fract_x
 _atom_site_fract_y
 _atom_site_fract_z
 _atom_site_occupancy
  Ce  Ce0  1  0.864408  0.554943  0.250000  1
  Ce  Ce1  1  0.635592  0.054943  0.250000  1
  Ho  Ho2  1  0.331133  0.677370  0.062711  1
  Ho  Ho3  1  0.168867  0.177370  0.437289  1
  Ho  Ho4  1  0.672641  0.324837  0.565326  1
  Ho  Ho5  1  0.827359  0.824837  0.934674  1
  Ho  Ho6  1  0.672641  0.324837  0.934674  1
  Ho  Ho7  1  0.827359  0.824837  0.565326  1
  Ho  Ho8  1  0.331133  0.677370  0.437289  1
  Ho  Ho9  1  0.168867  0.177370  0.062711  1
  Ho  Ho10  1  0.137482  0.461697  0.750000  1
  Ho  Ho11  1  0.362518  0.961697  0.750000  1
  Tc  Tc12  1  0.003710  0.862317  0.250000  1
  Tc  Tc13  1  0.496290  0.362317  0.250000  1
  Ir  Ir14  1  0.953765  0.116628  0.750000  1
  Ir  Ir15  1  0.546235  0.616628  0.750000  1
