# generated using pymatgen
data_TmVGa4Mo
_symmetry_space_group_name_H-M   'P 1'
_cell_length_a   5.37955708
_cell_length_b   5.37955928
_cell_length_c   5.37955807
_cell_angle_alpha   104.14093499
_cell_angle_beta   104.14093434
_cell_angle_gamma   120.75608000
_symmetry_Int_Tables_number   1
_chemical_formula_structural   TmVGa4Mo
_chemical_formula_sum   'Tm1 V1 Ga4 Mo1'
_cell_volume   116.30099569
_cell_formula_units_Z   1
loop_
 _symmetry_equiv_pos_site_id
 _symmetry_equiv_pos_as_xyz
  1  'x, y, z'
loop_
 _atom_site_type_symbol
 _atom_site_label
 _atom_site_symmetry_multiplicity
 _atom_site_fract_x
 _atom_site_fract_y
 _atom_site_fract_z
 _atom_site_occupancy
  Tm  Tm0  1  0.000000  0.000000  0.000000  1
  V  V1  1  0.750000  0.250000  0.500000  1
  Ga  Ga2  1  0.304679  0.304679  0.609356  1
  Ga  Ga3  1  0.695321  0.695321  0.390644  1
  Ga  Ga4  1  0.695321  0.304679  0.000000  1
  Ga  Ga5  1  0.304679  0.695321  0.000000  1
  Mo  Mo6  1  0.250000  0.750000  0.500000  1
