# generated using pymatgen
data_NdDy7(PCl6)2
_symmetry_space_group_name_H-M   'P 1'
_cell_length_a   3.90056500
_cell_length_b   12.80315025
_cell_length_c   13.50353400
_cell_angle_alpha   90.02535162
_cell_angle_beta   90.00000000
_cell_angle_gamma   90.00000000
_symmetry_Int_Tables_number   1
_chemical_formula_structural   NdDy7(PCl6)2
_chemical_formula_sum   'Nd1 Dy7 P2 Cl12'
_cell_volume   674.35993711
_cell_formula_units_Z   1
loop_
 _symmetry_equiv_pos_site_id
 _symmetry_equiv_pos_as_xyz
  1  'x, y, z'
loop_
 _atom_site_type_symbol
 _atom_site_label
 _atom_site_symmetry_multiplicity
 _atom_site_fract_x
 _atom_site_fract_y
 _atom_site_fract_z
 _atom_site_occupancy
  Nd  Nd0  1  0.000000  0.378290  0.081175  1
  Dy  Dy1  1  0.500000  0.118402  0.340642  1
  Dy  Dy2  1  0.500000  0.880733  0.660218  1
  Dy  Dy3  1  0.500000  0.620215  0.160197  1
  Dy  Dy4  1  0.500000  0.381020  0.839031  1
  Dy  Dy5  1  0.000000  0.118673  0.579456  1
  Dy  Dy6  1  0.000000  0.880988  0.421236  1
  Dy  Dy7  1  0.000000  0.620996  0.919462  1
  P  P8  1  0.500000  0.999656  0.500625  1
  P  P9  1  0.500000  0.504343  0.997165  1
  Cl  Cl10  1  0.500000  0.235381  0.169815  1
  Cl  Cl11  1  0.500000  0.756693  0.833451  1
  Cl  Cl12  1  0.500000  0.746118  0.334334  1
  Cl  Cl13  1  0.500000  0.254903  0.664965  1
  Cl  Cl14  1  0.000000  0.248653  0.412085  1
  Cl  Cl15  1  0.000000  0.750851  0.588539  1
  Cl  Cl16  1  0.000000  0.750018  0.088545  1
  Cl  Cl17  1  0.000000  0.248589  0.904423  1
  Cl  Cl18  1  0.000000  0.002504  0.249376  1
  Cl  Cl19  1  0.000000  0.996322  0.751435  1
  Cl  Cl20  1  0.000000  0.510072  0.256157  1
  Cl  Cl21  1  0.000000  0.496579  0.747668  1
