# generated using pymatgen
data_Tb4Ga3Si9Ni20
_symmetry_space_group_name_H-M   'P 1'
_cell_length_a   3.81287000
_cell_length_b   6.59327673
_cell_length_c   19.05719504
_cell_angle_alpha   90.09483389
_cell_angle_beta   90.00000000
_cell_angle_gamma   90.00000000
_symmetry_Int_Tables_number   1
_chemical_formula_structural   Tb4Ga3Si9Ni20
_chemical_formula_sum   'Tb4 Ga3 Si9 Ni20'
_cell_volume   479.08402095
_cell_formula_units_Z   1
loop_
 _symmetry_equiv_pos_site_id
 _symmetry_equiv_pos_as_xyz
  1  'x, y, z'
loop_
 _atom_site_type_symbol
 _atom_site_label
 _atom_site_symmetry_multiplicity
 _atom_site_fract_x
 _atom_site_fract_y
 _atom_site_fract_z
 _atom_site_occupancy
  Tb  Tb0  1  0.250000  0.626914  0.643627  1
  Tb  Tb1  1  0.750000  0.377076  0.357364  1
  Tb  Tb2  1  0.750000  0.125616  0.855213  1
  Tb  Tb3  1  0.250000  0.874221  0.145711  1
  Ga  Ga4  1  0.250000  0.839830  0.923866  1
  Ga  Ga5  1  0.750000  0.159141  0.076755  1
  Ga  Ga6  1  0.750000  0.343208  0.575107  1
  Si  Si7  1  0.250000  0.660122  0.425102  1
  Si  Si8  1  0.750000  0.626401  0.759902  1
  Si  Si9  1  0.250000  0.376863  0.240991  1
  Si  Si10  1  0.250000  0.422684  0.914572  1
  Si  Si11  1  0.750000  0.576381  0.086767  1
  Si  Si12  1  0.750000  0.920843  0.583879  1
  Si  Si13  1  0.250000  0.076791  0.413772  1
  Si  Si14  1  0.250000  0.125884  0.738072  1
  Si  Si15  1  0.750000  0.876073  0.262591  1
  Ni  Ni16  1  0.250000  0.144070  0.993962  1
  Ni  Ni17  1  0.750000  0.394326  0.981568  1
  Ni  Ni18  1  0.750000  0.108775  0.481253  1
  Ni  Ni19  1  0.250000  0.605693  0.019492  1
  Ni  Ni20  1  0.250000  0.372339  0.122998  1
  Ni  Ni21  1  0.750000  0.626823  0.877757  1
  Ni  Ni22  1  0.750000  0.857967  0.381913  1
  Ni  Ni23  1  0.250000  0.126433  0.619303  1
  Ni  Ni24  1  0.250000  0.065710  0.295101  1
  Ni  Ni25  1  0.750000  0.935600  0.703886  1
  Ni  Ni26  1  0.750000  0.567036  0.207108  1
  Ni  Ni27  1  0.250000  0.435495  0.794225  1
  Ni  Ni28  1  0.750000  0.641960  0.500379  1
  Ni  Ni29  1  0.250000  0.364995  0.490095  1
  Ni  Ni30  1  0.250000  0.816434  0.793991  1
  Ni  Ni31  1  0.750000  0.185875  0.206275  1
  Ni  Ni32  1  0.750000  0.316592  0.704065  1
  Ni  Ni33  1  0.250000  0.683856  0.301055  1
  Ni  Ni34  1  0.250000  0.887346  0.515502  1
  Ni  Ni35  1  0.750000  0.854628  0.006779  1
