# generated using pymatgen
data_La7Nd5(YRh3)2
_symmetry_space_group_name_H-M   'P 1'
_cell_length_a   6.41638766
_cell_length_b   10.19370961
_cell_length_c   10.19370899
_cell_angle_alpha   120.22307360
_cell_angle_beta   90.04514648
_cell_angle_gamma   89.95485397
_symmetry_Int_Tables_number   1
_chemical_formula_structural   La7Nd5(YRh3)2
_chemical_formula_sum   'La7 Nd5 Y2 Rh6'
_cell_volume   576.10934144
_cell_formula_units_Z   1
loop_
 _symmetry_equiv_pos_site_id
 _symmetry_equiv_pos_as_xyz
  1  'x, y, z'
loop_
 _atom_site_type_symbol
 _atom_site_label
 _atom_site_symmetry_multiplicity
 _atom_site_fract_x
 _atom_site_fract_y
 _atom_site_fract_z
 _atom_site_occupancy
  La  La0  1  0.255270  0.127110  0.872890  1
  La  La1  1  0.255085  0.746411  0.873967  1
  La  La2  1  0.255085  0.126033  0.253589  1
  La  La3  1  0.755087  0.873264  0.126736  1
  La  La4  1  0.754906  0.253087  0.126292  1
  La  La5  1  0.754906  0.873708  0.746913  1
  La  La6  1  0.437798  0.542270  0.457730  1
  Nd  Nd7  1  0.440768  0.917511  0.457986  1
  Nd  Nd8  1  0.440768  0.542014  0.082489  1
  Nd  Nd9  1  0.939998  0.457855  0.542145  1
  Nd  Nd10  1  0.940311  0.083585  0.541631  1
  Nd  Nd11  1  0.940311  0.458369  0.916415  1
  Y  Y12  1  0.465031  0.333037  0.666963  1
  Y  Y13  1  0.964384  0.667375  0.332625  1
  Rh  Rh14  1  0.180700  0.811200  0.188800  1
  Rh  Rh15  1  0.182147  0.378092  0.190365  1
  Rh  Rh16  1  0.182147  0.809635  0.621908  1
  Rh  Rh17  1  0.680838  0.188740  0.811260  1
  Rh  Rh18  1  0.680228  0.622570  0.811863  1
  Rh  Rh19  1  0.680228  0.188137  0.377430  1
