# generated using pymatgen
data_Dy3Zn3Ni2Pd
_symmetry_space_group_name_H-M   'P 1'
_cell_length_a   7.11520200
_cell_length_b   7.11520227
_cell_length_c   3.80480900
_cell_angle_alpha   90.00000000
_cell_angle_beta   90.00000000
_cell_angle_gamma   119.99999873
_symmetry_Int_Tables_number   1
_chemical_formula_structural   Dy3Zn3Ni2Pd
_chemical_formula_sum   'Dy3 Zn3 Ni2 Pd1'
_cell_volume   166.81610726
_cell_formula_units_Z   1
loop_
 _symmetry_equiv_pos_site_id
 _symmetry_equiv_pos_as_xyz
  1  'x, y, z'
loop_
 _atom_site_type_symbol
 _atom_site_label
 _atom_site_symmetry_multiplicity
 _atom_site_fract_x
 _atom_site_fract_y
 _atom_site_fract_z
 _atom_site_occupancy
  Dy  Dy0  1  0.400161  0.412185  0.500000  1
  Dy  Dy1  1  0.587815  0.987975  0.500000  1
  Dy  Dy2  1  0.012025  0.599839  0.500000  1
  Zn  Zn3  1  0.758568  0.763941  0.000000  1
  Zn  Zn4  1  0.236059  0.994627  0.000000  1
  Zn  Zn5  1  0.005373  0.241432  0.000000  1
  Ni  Ni6  1  0.333333  0.666667  0.000000  1
  Ni  Ni7  1  0.000000  0.000000  0.500000  1
  Pd  Pd8  1  0.666667  0.333333  0.000000  1
