# generated using pymatgen
data_TmLu15In4OsRh3
_symmetry_space_group_name_H-M   'P 1'
_cell_length_a   9.49666238
_cell_length_b   9.49666286
_cell_length_c   9.49666301
_cell_angle_alpha   59.61044439
_cell_angle_beta   59.61044251
_cell_angle_gamma   59.61043969
_symmetry_Int_Tables_number   1
_chemical_formula_structural   TmLu15In4OsRh3
_chemical_formula_sum   'Tm1 Lu15 In4 Os1 Rh3'
_cell_volume   600.25507848
_cell_formula_units_Z   1
loop_
 _symmetry_equiv_pos_site_id
 _symmetry_equiv_pos_as_xyz
  1  'x, y, z'
loop_
 _atom_site_type_symbol
 _atom_site_label
 _atom_site_symmetry_multiplicity
 _atom_site_fract_x
 _atom_site_fract_y
 _atom_site_fract_z
 _atom_site_occupancy
  Tm  Tm0  1  0.599968  0.599968  0.599968  1
  Lu  Lu1  1  0.598655  0.598655  0.204308  1
  Lu  Lu2  1  0.598655  0.204308  0.598655  1
  Lu  Lu3  1  0.204308  0.598655  0.598655  1
  Lu  Lu4  1  0.058927  0.440921  0.440921  1
  Lu  Lu5  1  0.440221  0.058673  0.058673  1
  Lu  Lu6  1  0.440921  0.058927  0.440921  1
  Lu  Lu7  1  0.058673  0.440221  0.058673  1
  Lu  Lu8  1  0.440921  0.440921  0.058927  1
  Lu  Lu9  1  0.058673  0.058673  0.440221  1
  Lu  Lu10  1  0.188336  0.811285  0.811285  1
  Lu  Lu11  1  0.804679  0.191882  0.191882  1
  Lu  Lu12  1  0.811285  0.188336  0.811285  1
  Lu  Lu13  1  0.191882  0.804679  0.191882  1
  Lu  Lu14  1  0.811285  0.811285  0.188336  1
  Lu  Lu15  1  0.191882  0.191882  0.804679  1
  In  In16  1  0.833486  0.833486  0.833486  1
  In  In17  1  0.833868  0.833868  0.499298  1
  In  In18  1  0.833868  0.499298  0.833868  1
  In  In19  1  0.499298  0.833868  0.833868  1
  Os  Os20  1  0.390302  0.390302  0.390302  1
  Rh  Rh21  1  0.391537  0.391537  0.826832  1
  Rh  Rh22  1  0.391537  0.826832  0.391537  1
  Rh  Rh23  1  0.826832  0.391537  0.391537  1
