# generated using pymatgen
data_Na3Li2TbPt6
_symmetry_space_group_name_H-M   'P 1'
_cell_length_a   5.44542800
_cell_length_b   5.44542802
_cell_length_c   8.33077900
_cell_angle_alpha   90.00000000
_cell_angle_beta   90.00000000
_cell_angle_gamma   119.99999991
_symmetry_Int_Tables_number   1
_chemical_formula_structural   Na3Li2TbPt6
_chemical_formula_sum   'Na3 Li2 Tb1 Pt6'
_cell_volume   213.93423437
_cell_formula_units_Z   1
loop_
 _symmetry_equiv_pos_site_id
 _symmetry_equiv_pos_as_xyz
  1  'x, y, z'
loop_
 _atom_site_type_symbol
 _atom_site_label
 _atom_site_symmetry_multiplicity
 _atom_site_fract_x
 _atom_site_fract_y
 _atom_site_fract_z
 _atom_site_occupancy
  Na  Na0  1  0.333333  0.666666  0.449108  1
  Na  Na1  1  0.666667  0.333333  0.571263  1
  Na  Na2  1  0.666667  0.333333  0.918997  1
  Li  Li3  1  0.000000  0.000000  0.997284  1
  Li  Li4  1  0.000000  0.000000  0.499737  1
  Tb  Tb5  1  0.333333  0.666666  0.065793  1
  Pt  Pt6  1  0.335825  0.167912  0.239446  1
  Pt  Pt7  1  0.832086  0.167912  0.239446  1
  Pt  Pt8  1  0.832089  0.664176  0.239446  1
  Pt  Pt9  1  0.167300  0.334599  0.759827  1
  Pt  Pt10  1  0.167299  0.832701  0.759827  1
  Pt  Pt11  1  0.665401  0.832701  0.759827  1
