# generated using pymatgen
data_Pr12FeTcI17
_symmetry_space_group_name_H-M   'P 1'
_cell_length_a   10.10163265
_cell_length_b   12.10917274
_cell_length_c   12.14021138
_cell_angle_alpha   93.30252657
_cell_angle_beta   104.86849171
_cell_angle_gamma   114.40718069
_symmetry_Int_Tables_number   1
_chemical_formula_structural   Pr12FeTcI17
_chemical_formula_sum   'Pr12 Fe1 Tc1 I17'
_cell_volume   1284.23824267
_cell_formula_units_Z   1
loop_
 _symmetry_equiv_pos_site_id
 _symmetry_equiv_pos_as_xyz
  1  'x, y, z'
loop_
 _atom_site_type_symbol
 _atom_site_label
 _atom_site_symmetry_multiplicity
 _atom_site_fract_x
 _atom_site_fract_y
 _atom_site_fract_z
 _atom_site_occupancy
  Pr  Pr0  1  0.053773  0.505725  0.320639  1
  Pr  Pr1  1  0.988654  0.810994  0.579987  1
  Pr  Pr2  1  0.648901  0.240899  0.282808  1
  Pr  Pr3  1  0.009842  0.190791  0.414430  1
  Pr  Pr4  1  0.224941  0.670216  0.991637  1
  Pr  Pr5  1  0.264368  0.994038  0.895197  1
  Pr  Pr6  1  0.355778  0.759794  0.715913  1
  Pr  Pr7  1  0.936683  0.482054  0.674281  1
  Pr  Pr8  1  0.743712  0.019238  0.109750  1
  Pr  Pr9  1  0.147753  0.286591  0.151988  1
  Pr  Pr10  1  0.778079  0.328642  0.014266  1
  Pr  Pr11  1  0.848192  0.711928  0.848642  1
  Fe  Fe12  1  0.896618  0.262049  0.214266  1
  Tc  Tc13  1  0.104627  0.738565  0.785781  1
  I  I14  1  0.784998  0.528689  0.418254  1
  I  I15  1  0.641602  0.418668  0.759432  1
  I  I16  1  0.842124  0.895345  0.323461  1
  I  I17  1  0.325328  0.212059  0.369312  1
  I  I18  1  0.156672  0.104874  0.675138  1
  I  I19  1  0.587351  0.052479  0.843423  1
  I  I20  1  0.753501  0.180630  0.536347  1
  I  I21  1  0.547392  0.708154  0.953620  1
  I  I22  1  0.358957  0.580010  0.243031  1
  I  I23  1  0.214199  0.471482  0.582067  1
  I  I24  1  0.055522  0.368254  0.897246  1
  I  I25  1  0.452790  0.295046  0.048133  1
  I  I26  1  0.999196  0.999093  0.999366  1
  I  I27  1  0.244762  0.815827  0.462496  1
  I  I28  1  0.412502  0.947327  0.156263  1
  I  I29  1  0.675702  0.787578  0.629981  1
  I  I30  1  0.945479  0.632961  0.102848  1
