# generated using pymatgen
data_HfTi2AsC2
_symmetry_space_group_name_H-M   'P 1'
_cell_length_a   3.24393100
_cell_length_b   3.24393205
_cell_length_c   17.36675500
_cell_angle_alpha   90.00000000
_cell_angle_beta   90.00000000
_cell_angle_gamma   120.00001989
_symmetry_Int_Tables_number   1
_chemical_formula_structural   HfTi2AsC2
_chemical_formula_sum   'Hf2 Ti4 As2 C4'
_cell_volume   158.26780481
_cell_formula_units_Z   2
loop_
 _symmetry_equiv_pos_site_id
 _symmetry_equiv_pos_as_xyz
  1  'x, y, z'
loop_
 _atom_site_type_symbol
 _atom_site_label
 _atom_site_symmetry_multiplicity
 _atom_site_fract_x
 _atom_site_fract_y
 _atom_site_fract_z
 _atom_site_occupancy
  Hf  Hf0  1  0.000000  0.000000  0.500000  1
  Hf  Hf1  1  0.000000  0.000000  0.000000  1
  Ti  Ti2  1  0.666667  0.333333  0.358476  1
  Ti  Ti3  1  0.333333  0.666667  0.641524  1
  Ti  Ti4  1  0.333333  0.666667  0.858476  1
  Ti  Ti5  1  0.666667  0.333333  0.141524  1
  As  As6  1  0.000000  0.000000  0.250000  1
  As  As7  1  0.000000  0.000000  0.750000  1
  C  C8  1  0.666667  0.333333  0.919733  1
  C  C9  1  0.333333  0.666667  0.080267  1
  C  C10  1  0.333333  0.666667  0.419733  1
  C  C11  1  0.666667  0.333333  0.580267  1
