# generated using pymatgen
data_Lu4MoI4
_symmetry_space_group_name_H-M   'P 1'
_cell_length_a   11.26372270
_cell_length_b   11.26372278
_cell_length_c   5.87834078
_cell_angle_alpha   90.33040643
_cell_angle_beta   90.33039527
_cell_angle_gamma   90.01328498
_symmetry_Int_Tables_number   1
_chemical_formula_structural   Lu4MoI4
_chemical_formula_sum   'Lu8 Mo2 I8'
_cell_volume   745.76879126
_cell_formula_units_Z   2
loop_
 _symmetry_equiv_pos_site_id
 _symmetry_equiv_pos_as_xyz
  1  'x, y, z'
loop_
 _atom_site_type_symbol
 _atom_site_label
 _atom_site_symmetry_multiplicity
 _atom_site_fract_x
 _atom_site_fract_y
 _atom_site_fract_z
 _atom_site_occupancy
  Lu  Lu0  1  0.202308  0.916743  0.002317  1
  Lu  Lu1  1  0.797692  0.083257  0.997683  1
  Lu  Lu2  1  0.083257  0.797692  0.497683  1
  Lu  Lu3  1  0.916743  0.202308  0.502317  1
  Lu  Lu4  1  0.797664  0.916714  0.496841  1
  Lu  Lu5  1  0.202336  0.083286  0.503159  1
  Lu  Lu6  1  0.083286  0.202336  0.003159  1
  Lu  Lu7  1  0.916714  0.797664  0.996841  1
  Mo  Mo8  1  0.999732  0.000268  0.250000  1
  Mo  Mo9  1  0.000268  0.999732  0.750000  1
  I  I10  1  0.358648  0.848974  0.496113  1
  I  I11  1  0.641352  0.151026  0.503887  1
  I  I12  1  0.151026  0.641352  0.003887  1
  I  I13  1  0.848974  0.358648  0.996113  1
  I  I14  1  0.358523  0.151221  0.010926  1
  I  I15  1  0.641477  0.848779  0.989074  1
  I  I16  1  0.848779  0.641477  0.489074  1
  I  I17  1  0.151221  0.358523  0.510926  1
