# generated using pymatgen
data_HfScGeRh5
_symmetry_space_group_name_H-M   'P 1'
_cell_length_a   4.09287400
_cell_length_b   5.51858576
_cell_length_c   10.88758925
_cell_angle_alpha   90.23410838
_cell_angle_beta   90.00000000
_cell_angle_gamma   90.00000000
_symmetry_Int_Tables_number   1
_chemical_formula_structural   HfScGeRh5
_chemical_formula_sum   'Hf2 Sc2 Ge2 Rh10'
_cell_volume   245.91457733
_cell_formula_units_Z   2
loop_
 _symmetry_equiv_pos_site_id
 _symmetry_equiv_pos_as_xyz
  1  'x, y, z'
loop_
 _atom_site_type_symbol
 _atom_site_label
 _atom_site_symmetry_multiplicity
 _atom_site_fract_x
 _atom_site_fract_y
 _atom_site_fract_z
 _atom_site_occupancy
  Hf  Hf0  1  0.500000  0.676570  0.857373  1
  Hf  Hf1  1  0.500000  0.323430  0.142627  1
  Sc  Sc2  1  0.500000  0.176646  0.638148  1
  Sc  Sc3  1  0.500000  0.823354  0.361852  1
  Ge  Ge4  1  0.000000  0.500000  0.500000  1
  Ge  Ge5  1  0.000000  0.000000  0.000000  1
  Rh  Rh6  1  0.500000  0.185576  0.894423  1
  Rh  Rh7  1  0.500000  0.814424  0.105577  1
  Rh  Rh8  1  0.500000  0.683362  0.607580  1
  Rh  Rh9  1  0.500000  0.316638  0.392420  1
  Rh  Rh10  1  0.000000  0.430039  0.745058  1
  Rh  Rh11  1  0.000000  0.569961  0.254942  1
  Rh  Rh12  1  0.000000  0.000000  0.500000  1
  Rh  Rh13  1  0.000000  0.500000  0.000000  1
  Rh  Rh14  1  0.000000  0.068978  0.244009  1
  Rh  Rh15  1  0.000000  0.931022  0.755991  1
