# generated using pymatgen
data_LiDy5Er11Cd3Pt4
_symmetry_space_group_name_H-M   'P 1'
_cell_length_a   9.62424637
_cell_length_b   9.61822140
_cell_length_c   9.61822033
_cell_angle_alpha   59.90416240
_cell_angle_beta   59.89835239
_cell_angle_gamma   59.89834667
_symmetry_Int_Tables_number   1
_chemical_formula_structural   LiDy5Er11Cd3Pt4
_chemical_formula_sum   'Li1 Dy5 Er11 Cd3 Pt4'
_cell_volume   628.14176256
_cell_formula_units_Z   1
loop_
 _symmetry_equiv_pos_site_id
 _symmetry_equiv_pos_as_xyz
  1  'x, y, z'
loop_
 _atom_site_type_symbol
 _atom_site_label
 _atom_site_symmetry_multiplicity
 _atom_site_fract_x
 _atom_site_fract_y
 _atom_site_fract_z
 _atom_site_occupancy
  Li  Li0  1  0.572118  0.571664  0.571664  1
  Dy  Dy1  1  0.561946  0.937170  0.937170  1
  Dy  Dy2  1  0.565264  0.935697  0.564361  1
  Dy  Dy3  1  0.936928  0.561915  0.936369  1
  Dy  Dy4  1  0.565264  0.564361  0.935697  1
  Dy  Dy5  1  0.936928  0.936369  0.561915  1
  Er  Er6  1  0.350916  0.351166  0.351166  1
  Er  Er7  1  0.352370  0.352683  0.944048  1
  Er  Er8  1  0.352370  0.944048  0.352683  1
  Er  Er9  1  0.943565  0.352793  0.352793  1
  Er  Er10  1  0.810070  0.191691  0.191691  1
  Er  Er11  1  0.186309  0.813248  0.813248  1
  Er  Er12  1  0.191272  0.810108  0.191970  1
  Er  Er13  1  0.813310  0.187119  0.812841  1
  Er  Er14  1  0.191272  0.191970  0.810108  1
  Er  Er15  1  0.813310  0.812841  0.187119  1
  Er  Er16  1  0.937344  0.564039  0.564039  1
  Cd  Cd17  1  0.582217  0.582422  0.254884  1
  Cd  Cd18  1  0.582217  0.254884  0.582422  1
  Cd  Cd19  1  0.254413  0.582431  0.582431  1
  Pt  Pt20  1  0.143888  0.143979  0.143979  1
  Pt  Pt21  1  0.142644  0.143422  0.571166  1
  Pt  Pt22  1  0.142644  0.571166  0.143422  1
  Pt  Pt23  1  0.571419  0.142814  0.142814  1
