# generated using pymatgen
data_Co2Mo12PdPt5N4
_symmetry_space_group_name_H-M   'P 1'
_cell_length_a   6.83374751
_cell_length_b   6.82183520
_cell_length_c   6.83392942
_cell_angle_alpha   89.97452224
_cell_angle_beta   90.14618814
_cell_angle_gamma   90.00077897
_symmetry_Int_Tables_number   1
_chemical_formula_structural   Co2Mo12PdPt5N4
_chemical_formula_sum   'Co2 Mo12 Pd1 Pt5 N4'
_cell_volume   318.58783234
_cell_formula_units_Z   1
loop_
 _symmetry_equiv_pos_site_id
 _symmetry_equiv_pos_as_xyz
  1  'x, y, z'
loop_
 _atom_site_type_symbol
 _atom_site_label
 _atom_site_symmetry_multiplicity
 _atom_site_fract_x
 _atom_site_fract_y
 _atom_site_fract_z
 _atom_site_occupancy
  Co  Co0  1  0.933441  0.561524  0.452517  1
  Co  Co1  1  0.703162  0.688220  0.682735  1
  Mo  Mo2  1  0.120113  0.213093  0.448558  1
  Mo  Mo3  1  0.374046  0.800626  0.955652  1
  Mo  Mo4  1  0.870798  0.697067  0.045160  1
  Mo  Mo5  1  0.206315  0.448971  0.124377  1
  Mo  Mo6  1  0.801190  0.945950  0.376731  1
  Mo  Mo7  1  0.038888  0.867364  0.699090  1
  Mo  Mo8  1  0.454217  0.125824  0.203426  1
  Mo  Mo9  1  0.295622  0.552598  0.620753  1
  Mo  Mo10  1  0.949081  0.383717  0.787156  1
  Mo  Mo11  1  0.556437  0.624944  0.306305  1
  Mo  Mo12  1  0.696966  0.036523  0.869131  1
  Mo  Mo13  1  0.626197  0.302843  0.552409  1
  Pd  Pd14  1  0.055314  0.057789  0.059116  1
  Pt  Pt15  1  0.308333  0.191389  0.807686  1
  Pt  Pt16  1  0.814022  0.320222  0.199782  1
  Pt  Pt17  1  0.180212  0.799595  0.314824  1
  Pt  Pt18  1  0.449316  0.929430  0.562704  1
  Pt  Pt19  1  0.565875  0.451396  0.931075  1
  N  N20  1  0.375965  0.375687  0.374649  1
  N  N21  1  0.624785  0.874605  0.126019  1
  N  N22  1  0.126019  0.625564  0.875911  1
  N  N23  1  0.873687  0.125058  0.624235  1
