# generated using pymatgen
data_Sr6HfMo3O14
_symmetry_space_group_name_H-M   'P 1'
_cell_length_a   10.92398799
_cell_length_b   10.92398770
_cell_length_c   5.74074239
_cell_angle_alpha   90.10036942
_cell_angle_beta   90.10036210
_cell_angle_gamma   149.28916745
_symmetry_Int_Tables_number   1
_chemical_formula_structural   Sr6HfMo3O14
_chemical_formula_sum   'Sr6 Hf1 Mo3 O14'
_cell_volume   349.85774073
_cell_formula_units_Z   1
loop_
 _symmetry_equiv_pos_site_id
 _symmetry_equiv_pos_as_xyz
  1  'x, y, z'
loop_
 _atom_site_type_symbol
 _atom_site_label
 _atom_site_symmetry_multiplicity
 _atom_site_fract_x
 _atom_site_fract_y
 _atom_site_fract_z
 _atom_site_occupancy
  Sr  Sr0  1  0.186130  0.813870  0.500000  1
  Sr  Sr1  1  0.813082  0.186918  0.500000  1
  Sr  Sr2  1  0.686235  0.313765  0.000000  1
  Sr  Sr3  1  0.000964  0.999036  0.500000  1
  Sr  Sr4  1  0.500590  0.499410  0.000000  1
  Sr  Sr5  1  0.312828  0.687172  0.000000  1
  Hf  Hf6  1  0.401697  0.598303  0.500000  1
  Mo  Mo7  1  0.097909  0.902091  0.000000  1
  Mo  Mo8  1  0.598594  0.401406  0.500000  1
  Mo  Mo9  1  0.902002  0.097998  0.000000  1
  O  O10  1  0.194958  0.805042  0.000000  1
  O  O11  1  0.604372  0.797930  0.205267  1
  O  O12  1  0.293432  0.100254  0.707392  1
  O  O13  1  0.699534  0.892500  0.706989  1
  O  O14  1  0.400740  0.207354  0.205852  1
  O  O15  1  0.999876  0.000124  0.000000  1
  O  O16  1  0.696063  0.303937  0.500000  1
  O  O17  1  0.804913  0.195087  0.000000  1
  O  O18  1  0.107500  0.300466  0.293011  1
  O  O19  1  0.792646  0.599260  0.794148  1
  O  O20  1  0.899746  0.706568  0.292608  1
  O  O21  1  0.202070  0.395628  0.794733  1
  O  O22  1  0.501053  0.498947  0.500000  1
  O  O23  1  0.303065  0.696935  0.500000  1
