# generated using pymatgen
data_Er4Zn2B4Ir7Rh3
_symmetry_space_group_name_H-M   'P 1'
_cell_length_a   9.53463842
_cell_length_b   9.56295241
_cell_length_c   3.15703500
_cell_angle_alpha   90.00000000
_cell_angle_beta   90.00000000
_cell_angle_gamma   89.96618811
_symmetry_Int_Tables_number   1
_chemical_formula_structural   Er4Zn2B4Ir7Rh3
_chemical_formula_sum   'Er4 Zn2 B4 Ir7 Rh3'
_cell_volume   287.85617064
_cell_formula_units_Z   1
loop_
 _symmetry_equiv_pos_site_id
 _symmetry_equiv_pos_as_xyz
  1  'x, y, z'
loop_
 _atom_site_type_symbol
 _atom_site_label
 _atom_site_symmetry_multiplicity
 _atom_site_fract_x
 _atom_site_fract_y
 _atom_site_fract_z
 _atom_site_occupancy
  Er  Er0  1  0.323611  0.823090  0.000000  1
  Er  Er1  1  0.677715  0.177291  0.000000  1
  Er  Er2  1  0.177466  0.323352  0.000000  1
  Er  Er3  1  0.822168  0.676639  0.000000  1
  Zn  Zn4  1  0.499961  0.499797  0.000000  1
  Zn  Zn5  1  0.999699  0.000620  0.000000  1
  B  B6  1  0.123877  0.624022  0.000000  1
  B  B7  1  0.875601  0.378411  0.000000  1
  B  B8  1  0.375088  0.121599  0.000000  1
  B  B9  1  0.625112  0.878395  0.000000  1
  Ir  Ir10  1  0.067823  0.779924  0.500000  1
  Ir  Ir11  1  0.780001  0.929921  0.500000  1
  Ir  Ir12  1  0.220316  0.069117  0.500000  1
  Ir  Ir13  1  0.280101  0.568852  0.500000  1
  Ir  Ir14  1  0.719916  0.429980  0.500000  1
  Ir  Ir15  1  0.999615  0.499224  0.500000  1
  Ir  Ir16  1  0.500753  0.000330  0.500000  1
  Rh  Rh17  1  0.568149  0.719930  0.500000  1
  Rh  Rh18  1  0.431182  0.279695  0.500000  1
  Rh  Rh19  1  0.931847  0.219813  0.500000  1
