# generated using pymatgen
data_Al2VAs(SeO3)8
_symmetry_space_group_name_H-M   'P 1'
_cell_length_a   7.99832471
_cell_length_b   7.94902611
_cell_length_c   7.98704366
_cell_angle_alpha   90.26777340
_cell_angle_beta   90.04614427
_cell_angle_gamma   90.01454250
_symmetry_Int_Tables_number   1
_chemical_formula_structural   Al2VAs(SeO3)8
_chemical_formula_sum   'Al2 V1 As1 Se8 O24'
_cell_volume   507.80165874
_cell_formula_units_Z   1
loop_
 _symmetry_equiv_pos_site_id
 _symmetry_equiv_pos_as_xyz
  1  'x, y, z'
loop_
 _atom_site_type_symbol
 _atom_site_label
 _atom_site_symmetry_multiplicity
 _atom_site_fract_x
 _atom_site_fract_y
 _atom_site_fract_z
 _atom_site_occupancy
  Al  Al0  1  0.000000  0.000000  0.500000  1
  Al  Al1  1  0.500000  0.000000  0.000000  1
  V  V2  1  0.500000  0.500000  0.500000  1
  As  As3  1  0.000000  0.500000  0.000000  1
  Se  Se4  1  0.317411  0.678655  0.164734  1
  Se  Se5  1  0.830836  0.321980  0.321683  1
  Se  Se6  1  0.676166  0.836738  0.680749  1
  Se  Se7  1  0.172676  0.174386  0.824095  1
  Se  Se8  1  0.682589  0.321345  0.835266  1
  Se  Se9  1  0.169164  0.678020  0.678317  1
  Se  Se10  1  0.323834  0.163262  0.319251  1
  Se  Se11  1  0.827324  0.825614  0.175905  1
  O  O12  1  0.232042  0.519605  0.028232  1
  O  O13  1  0.732841  0.473524  0.449218  1
  O  O14  1  0.766739  0.965961  0.538005  1
  O  O15  1  0.266506  0.046552  0.966228  1
  O  O16  1  0.532279  0.969971  0.766367  1
  O  O17  1  0.454854  0.541484  0.267148  1
  O  O18  1  0.975660  0.468273  0.232735  1
  O  O19  1  0.034658  0.038315  0.733621  1
  O  O20  1  0.960130  0.237410  0.465519  1
  O  O21  1  0.535955  0.728739  0.539268  1
  O  O22  1  0.450004  0.763245  0.024101  1
  O  O23  1  0.020283  0.269425  0.967910  1
  O  O24  1  0.767958  0.480395  0.971768  1
  O  O25  1  0.267159  0.526476  0.550782  1
  O  O26  1  0.233261  0.034039  0.461995  1
  O  O27  1  0.733494  0.953448  0.033772  1
  O  O28  1  0.467721  0.030029  0.233633  1
  O  O29  1  0.545146  0.458516  0.732852  1
  O  O30  1  0.024340  0.531727  0.767265  1
  O  O31  1  0.965342  0.961685  0.266379  1
  O  O32  1  0.039870  0.762590  0.534481  1
  O  O33  1  0.464045  0.271261  0.460732  1
  O  O34  1  0.549996  0.236755  0.975899  1
  O  O35  1  0.979717  0.730575  0.032090  1
