# generated using pymatgen
data_LuZr3MnTc7
_symmetry_space_group_name_H-M   'P 1'
_cell_length_a   5.24027800
_cell_length_b   5.24027848
_cell_length_c   8.67593300
_cell_angle_alpha   90.00000000
_cell_angle_beta   90.00000000
_cell_angle_gamma   119.99998436
_symmetry_Int_Tables_number   1
_chemical_formula_structural   LuZr3MnTc7
_chemical_formula_sum   'Lu1 Zr3 Mn1 Tc7'
_cell_volume   206.32677199
_cell_formula_units_Z   1
loop_
 _symmetry_equiv_pos_site_id
 _symmetry_equiv_pos_as_xyz
  1  'x, y, z'
loop_
 _atom_site_type_symbol
 _atom_site_label
 _atom_site_symmetry_multiplicity
 _atom_site_fract_x
 _atom_site_fract_y
 _atom_site_fract_z
 _atom_site_occupancy
  Lu  Lu0  1  0.333333  0.666667  0.062491  1
  Zr  Zr1  1  0.333333  0.666667  0.434732  1
  Zr  Zr2  1  0.666667  0.333333  0.564867  1
  Zr  Zr3  1  0.666667  0.333333  0.935472  1
  Mn  Mn4  1  0.000000  0.000000  0.501921  1
  Tc  Tc5  1  0.000000  0.000000  0.999474  1
  Tc  Tc6  1  0.829866  0.170134  0.256214  1
  Tc  Tc7  1  0.829866  0.659733  0.256214  1
  Tc  Tc8  1  0.340267  0.170134  0.256214  1
  Tc  Tc9  1  0.170565  0.829435  0.744134  1
  Tc  Tc10  1  0.170565  0.341128  0.744134  1
  Tc  Tc11  1  0.658872  0.829435  0.744134  1
