# generated using pymatgen
data_Hf18Re6NiW2Se
_symmetry_space_group_name_H-M   'P 1'
_cell_length_a   8.65081500
_cell_length_b   8.65081614
_cell_length_c   8.53723600
_cell_angle_alpha   90.00000000
_cell_angle_beta   90.00000000
_cell_angle_gamma   120.00000712
_symmetry_Int_Tables_number   1
_chemical_formula_structural   Hf18Re6NiW2Se
_chemical_formula_sum   'Hf18 Re6 Ni1 W2 Se1'
_cell_volume   553.30168636
_cell_formula_units_Z   1
loop_
 _symmetry_equiv_pos_site_id
 _symmetry_equiv_pos_as_xyz
  1  'x, y, z'
loop_
 _atom_site_type_symbol
 _atom_site_label
 _atom_site_symmetry_multiplicity
 _atom_site_fract_x
 _atom_site_fract_y
 _atom_site_fract_z
 _atom_site_occupancy
  Hf  Hf0  1  0.198716  0.801284  0.442514  1
  Hf  Hf1  1  0.198716  0.397433  0.442514  1
  Hf  Hf2  1  0.602567  0.801284  0.442514  1
  Hf  Hf3  1  0.807197  0.192803  0.547998  1
  Hf  Hf4  1  0.807197  0.614393  0.547998  1
  Hf  Hf5  1  0.385607  0.192803  0.547998  1
  Hf  Hf6  1  0.807197  0.192803  0.952002  1
  Hf  Hf7  1  0.807197  0.614393  0.952002  1
  Hf  Hf8  1  0.385607  0.192803  0.952002  1
  Hf  Hf9  1  0.198716  0.801284  0.057486  1
  Hf  Hf10  1  0.198716  0.397433  0.057486  1
  Hf  Hf11  1  0.602567  0.801284  0.057486  1
  Hf  Hf12  1  0.541369  0.458631  0.250000  1
  Hf  Hf13  1  0.541369  0.082739  0.250000  1
  Hf  Hf14  1  0.917261  0.458631  0.250000  1
  Hf  Hf15  1  0.455040  0.544960  0.750000  1
  Hf  Hf16  1  0.455040  0.910079  0.750000  1
  Hf  Hf17  1  0.089921  0.544960  0.750000  1
  Re  Re18  1  0.888979  0.111021  0.250000  1
  Re  Re19  1  0.888979  0.777958  0.250000  1
  Re  Re20  1  0.222042  0.111021  0.250000  1
  Re  Re21  1  0.111395  0.888605  0.750000  1
  Re  Re22  1  0.111395  0.222791  0.750000  1
  Re  Re23  1  0.777209  0.888605  0.750000  1
  Ni  Ni24  1  0.333333  0.666667  0.250000  1
  W  W25  1  0.000000  0.000000  0.499432  1
  W  W26  1  0.000000  0.000000  0.000568  1
  Se  Se27  1  0.666667  0.333333  0.750000  1
