# generated using pymatgen
data_Ta4GaTe4
_symmetry_space_group_name_H-M   'P 1'
_cell_length_a   4.85837400
_cell_length_b   11.13748800
_cell_length_c   19.30903100
_cell_angle_alpha   90.00000000
_cell_angle_beta   90.00000000
_cell_angle_gamma   90.00000000
_symmetry_Int_Tables_number   1
_chemical_formula_structural   Ta4GaTe4
_chemical_formula_sum   'Ta16 Ga4 Te16'
_cell_volume   1044.81325315
_cell_formula_units_Z   4
loop_
 _symmetry_equiv_pos_site_id
 _symmetry_equiv_pos_as_xyz
  1  'x, y, z'
loop_
 _atom_site_type_symbol
 _atom_site_label
 _atom_site_symmetry_multiplicity
 _atom_site_fract_x
 _atom_site_fract_y
 _atom_site_fract_z
 _atom_site_occupancy
  Ta  Ta0  1  0.500000  0.565872  0.382200  1
  Ta  Ta1  1  0.500000  0.434128  0.617800  1
  Ta  Ta2  1  0.500000  0.065872  0.117800  1
  Ta  Ta3  1  0.500000  0.934128  0.882200  1
  Ta  Ta4  1  0.500000  0.705647  0.535595  1
  Ta  Ta5  1  0.500000  0.294353  0.464405  1
  Ta  Ta6  1  0.500000  0.205647  0.964405  1
  Ta  Ta7  1  0.500000  0.794353  0.035595  1
  Ta  Ta8  1  0.000000  0.690557  0.441964  1
  Ta  Ta9  1  0.000000  0.309443  0.558036  1
  Ta  Ta10  1  0.000000  0.190557  0.058036  1
  Ta  Ta11  1  0.000000  0.809443  0.941964  1
  Ta  Ta12  1  0.000000  0.401043  0.390581  1
  Ta  Ta13  1  0.000000  0.598957  0.609419  1
  Ta  Ta14  1  0.000000  0.901043  0.109419  1
  Ta  Ta15  1  0.000000  0.098957  0.890581  1
  Ga  Ga16  1  0.250269  0.500000  0.500000  1
  Ga  Ga17  1  0.749731  0.000000  0.000000  1
  Ga  Ga18  1  0.749731  0.500000  0.500000  1
  Ga  Ga19  1  0.250269  0.000000  0.000000  1
  Te  Te20  1  0.000000  0.842708  0.561729  1
  Te  Te21  1  0.000000  0.157292  0.438271  1
  Te  Te22  1  0.000000  0.342708  0.938271  1
  Te  Te23  1  0.000000  0.657292  0.061729  1
  Te  Te24  1  0.500000  0.334411  0.317850  1
  Te  Te25  1  0.500000  0.665589  0.682150  1
  Te  Te26  1  0.500000  0.834411  0.182150  1
  Te  Te27  1  0.500000  0.165589  0.817850  1
  Te  Te28  1  0.500000  0.820570  0.402890  1
  Te  Te29  1  0.500000  0.179430  0.597110  1
  Te  Te30  1  0.500000  0.320570  0.097110  1
  Te  Te31  1  0.500000  0.679430  0.902890  1
  Te  Te32  1  0.000000  0.606679  0.301822  1
  Te  Te33  1  0.000000  0.393321  0.698178  1
  Te  Te34  1  0.000000  0.106679  0.198178  1
  Te  Te35  1  0.000000  0.893321  0.801822  1
