# generated using pymatgen
data_Mn2Fe(MoO4)3
_symmetry_space_group_name_H-M   'P 1'
_cell_length_a   7.18946348
_cell_length_b   8.70861424
_cell_length_c   10.04267396
_cell_angle_alpha   96.89560991
_cell_angle_beta   106.48433077
_cell_angle_gamma   101.81483362
_symmetry_Int_Tables_number   1
_chemical_formula_structural   Mn2Fe(MoO4)3
_chemical_formula_sum   'Mn4 Fe2 Mo6 O24'
_cell_volume   579.42738528
_cell_formula_units_Z   2
loop_
 _symmetry_equiv_pos_site_id
 _symmetry_equiv_pos_as_xyz
  1  'x, y, z'
loop_
 _atom_site_type_symbol
 _atom_site_label
 _atom_site_symmetry_multiplicity
 _atom_site_fract_x
 _atom_site_fract_y
 _atom_site_fract_z
 _atom_site_occupancy
  Mn  Mn0  1  0.254706  0.690456  0.909058  1
  Mn  Mn1  1  0.745294  0.309544  0.090942  1
  Mn  Mn2  1  0.533182  0.698060  0.487999  1
  Mn  Mn3  1  0.466818  0.301940  0.512001  1
  Fe  Fe4  1  0.968533  0.890874  0.716834  1
  Fe  Fe5  1  0.031467  0.109126  0.283166  1
  Mo  Mo6  1  0.505513  0.991616  0.757471  1
  Mo  Mo7  1  0.494487  0.008384  0.242529  1
  Mo  Mo8  1  0.701536  0.603767  0.837070  1
  Mo  Mo9  1  0.298464  0.396233  0.162930  1
  Mo  Mo10  1  0.977052  0.707613  0.377251  1
  Mo  Mo11  1  0.022948  0.292387  0.622749  1
  O  O12  1  0.270020  0.871830  0.766161  1
  O  O13  1  0.729980  0.128170  0.233839  1
  O  O14  1  0.562198  0.707371  0.919764  1
  O  O15  1  0.437802  0.292629  0.080236  1
  O  O16  1  0.558888  0.526434  0.651160  1
  O  O17  1  0.441112  0.473566  0.348840  1
  O  O18  1  0.550647  0.869278  0.353186  1
  O  O19  1  0.449353  0.130722  0.646814  1
  O  O20  1  0.657049  0.100038  0.926512  1
  O  O21  1  0.342951  0.899962  0.073488  1
  O  O22  1  0.648953  0.868780  0.685597  1
  O  O23  1  0.351047  0.131220  0.314403  1
  O  O24  1  0.020183  0.121883  0.708303  1
  O  O25  1  0.979817  0.878117  0.291697  1
  O  O26  1  0.050986  0.269945  0.148841  1
  O  O27  1  0.949014  0.730055  0.851159  1
  O  O28  1  0.151416  0.471310  0.749812  1
  O  O29  1  0.848584  0.528690  0.250188  1
  O  O30  1  0.141513  0.267164  0.484251  1
  O  O31  1  0.858487  0.732836  0.515749  1
  O  O32  1  0.255091  0.556532  0.076267  1
  O  O33  1  0.744909  0.443468  0.923733  1
  O  O34  1  0.228775  0.701863  0.459233  1
  O  O35  1  0.771225  0.298137  0.540767  1
