# generated using pymatgen
data_Sc7Co16P12W
_symmetry_space_group_name_H-M   'P 1'
_cell_length_a   12.05530619
_cell_length_b   12.05530601
_cell_length_c   3.65617100
_cell_angle_alpha   90.00000000
_cell_angle_beta   90.00000000
_cell_angle_gamma   120.03059349
_symmetry_Int_Tables_number   1
_chemical_formula_structural   Sc7Co16P12W
_chemical_formula_sum   'Sc7 Co16 P12 W1'
_cell_volume   460.02310880
_cell_formula_units_Z   1
loop_
 _symmetry_equiv_pos_site_id
 _symmetry_equiv_pos_as_xyz
  1  'x, y, z'
loop_
 _atom_site_type_symbol
 _atom_site_label
 _atom_site_symmetry_multiplicity
 _atom_site_fract_x
 _atom_site_fract_y
 _atom_site_fract_z
 _atom_site_occupancy
  Sc  Sc0  1  0.814215  0.814215  0.500000  1
  Sc  Sc1  1  0.000230  0.181938  0.500000  1
  Sc  Sc2  1  0.557734  0.001221  0.000000  1
  Sc  Sc3  1  0.335127  0.665737  0.000000  1
  Sc  Sc4  1  0.665737  0.335127  0.000000  1
  Sc  Sc5  1  0.001221  0.557734  0.000000  1
  Sc  Sc6  1  0.181938  0.000230  0.500000  1
  Co  Co7  1  0.625103  0.818931  0.000000  1
  Co  Co8  1  0.371000  0.197956  0.000000  1
  Co  Co9  1  0.998461  0.721512  0.500000  1
  Co  Co10  1  0.278054  0.278054  0.500000  1
  Co  Co11  1  0.877797  0.354862  0.500000  1
  Co  Co12  1  0.721512  0.998461  0.500000  1
  Co  Co13  1  0.818931  0.625103  0.000000  1
  Co  Co14  1  0.178464  0.806874  0.000000  1
  Co  Co15  1  0.354862  0.877797  0.500000  1
  Co  Co16  1  0.132133  0.482884  0.500000  1
  Co  Co17  1  0.642624  0.516234  0.500000  1
  Co  Co18  1  0.997942  0.997942  0.000000  1
  Co  Co19  1  0.516234  0.642624  0.500000  1
  Co  Co20  1  0.482884  0.132133  0.500000  1
  Co  Co21  1  0.197956  0.371000  0.000000  1
  Co  Co22  1  0.806874  0.178464  0.000000  1
  P  P23  1  0.003194  0.350603  0.000000  1
  P  P24  1  0.826901  0.515591  0.500000  1
  P  P25  1  0.691785  0.175082  0.500000  1
  P  P26  1  0.174052  0.174052  0.000000  1
  P  P27  1  0.642917  0.642917  0.000000  1
  P  P28  1  0.821931  0.998305  0.000000  1
  P  P29  1  0.515591  0.826901  0.500000  1
  P  P30  1  0.175082  0.691785  0.500000  1
  P  P31  1  0.350603  0.003194  0.000000  1
  P  P32  1  0.481049  0.314718  0.500000  1
  P  P33  1  0.998305  0.821931  0.000000  1
  P  P34  1  0.314718  0.481049  0.500000  1
  W  W35  1  0.446834  0.446834  0.000000  1
