# generated using pymatgen
data_Sm8SiPd17Pt7
_symmetry_space_group_name_H-M   'P 1'
_cell_length_a   8.42274300
_cell_length_b   8.41762800
_cell_length_c   8.44835900
_cell_angle_alpha   90.00000000
_cell_angle_beta   90.00000000
_cell_angle_gamma   90.00000000
_symmetry_Int_Tables_number   1
_chemical_formula_structural   Sm8SiPd17Pt7
_chemical_formula_sum   'Sm8 Si1 Pd17 Pt7'
_cell_volume   598.98457519
_cell_formula_units_Z   1
loop_
 _symmetry_equiv_pos_site_id
 _symmetry_equiv_pos_as_xyz
  1  'x, y, z'
loop_
 _atom_site_type_symbol
 _atom_site_label
 _atom_site_symmetry_multiplicity
 _atom_site_fract_x
 _atom_site_fract_y
 _atom_site_fract_z
 _atom_site_occupancy
  Sm  Sm0  1  0.253185  0.253221  0.253747  1
  Sm  Sm1  1  0.747105  0.746722  0.746470  1
  Sm  Sm2  1  0.747105  0.746722  0.253530  1
  Sm  Sm3  1  0.746815  0.253221  0.746253  1
  Sm  Sm4  1  0.253185  0.253221  0.746253  1
  Sm  Sm5  1  0.252895  0.746722  0.253530  1
  Sm  Sm6  1  0.252895  0.746722  0.746470  1
  Sm  Sm7  1  0.746815  0.253221  0.253747  1
  Si  Si8  1  0.000000  0.999966  0.000000  1
  Pd  Pd9  1  0.257279  0.500130  0.000000  1
  Pd  Pd10  1  0.742721  0.500130  0.000000  1
  Pd  Pd11  1  0.000000  0.257802  0.500000  1
  Pd  Pd12  1  0.500000  0.257194  0.000000  1
  Pd  Pd13  1  0.000000  0.742023  0.500000  1
  Pd  Pd14  1  0.500000  0.742755  0.000000  1
  Pd  Pd15  1  0.500000  0.000084  0.257671  1
  Pd  Pd16  1  0.257797  0.000121  0.500000  1
  Pd  Pd17  1  0.500000  0.000084  0.742329  1
  Pd  Pd18  1  0.742203  0.000121  0.500000  1
  Pd  Pd19  1  0.000000  0.500146  0.257809  1
  Pd  Pd20  1  0.000000  0.500146  0.742191  1
  Pd  Pd21  1  0.500000  0.747578  0.500000  1
  Pd  Pd22  1  0.500000  0.500039  0.252563  1
  Pd  Pd23  1  0.500000  0.500039  0.747437  1
  Pd  Pd24  1  0.000000  0.999908  0.282151  1
  Pd  Pd25  1  0.000000  0.999908  0.717849  1
  Pt  Pt26  1  0.252194  0.499942  0.500000  1
  Pt  Pt27  1  0.747806  0.499942  0.500000  1
  Pt  Pt28  1  0.500000  0.252224  0.500000  1
  Pt  Pt29  1  0.280379  0.999888  0.000000  1
  Pt  Pt30  1  0.719621  0.999888  0.000000  1
  Pt  Pt31  1  0.000000  0.280265  0.000000  1
  Pt  Pt32  1  0.000000  0.719900  0.000000  1
