# generated using pymatgen
data_Y3ErAl15(GaIr2)3
_symmetry_space_group_name_H-M   'P 1'
_cell_length_a   7.53501825
_cell_length_b   7.53372425
_cell_length_c   9.54090700
_cell_angle_alpha   90.00000000
_cell_angle_beta   90.00000000
_cell_angle_gamma   119.48135803
_symmetry_Int_Tables_number   1
_chemical_formula_structural   Y3ErAl15(GaIr2)3
_chemical_formula_sum   'Y3 Er1 Al15 Ga3 Ir6'
_cell_volume   471.47685997
_cell_formula_units_Z   1
loop_
 _symmetry_equiv_pos_site_id
 _symmetry_equiv_pos_as_xyz
  1  'x, y, z'
loop_
 _atom_site_type_symbol
 _atom_site_label
 _atom_site_symmetry_multiplicity
 _atom_site_fract_x
 _atom_site_fract_y
 _atom_site_fract_z
 _atom_site_occupancy
  Y  Y0  1  0.997896  0.675283  0.250000  1
  Y  Y1  1  0.670201  0.990952  0.250000  1
  Y  Y2  1  0.324988  0.004252  0.750000  1
  Er  Er3  1  0.005907  0.325527  0.750000  1
  Al  Al4  1  0.001500  0.335300  0.072029  1
  Al  Al5  1  0.998500  0.663668  0.926076  1
  Al  Al6  1  0.998500  0.663668  0.573924  1
  Al  Al7  1  0.336120  0.003353  0.427164  1
  Al  Al8  1  0.001500  0.335300  0.427971  1
  Al  Al9  1  0.664606  0.999452  0.573752  1
  Al  Al10  1  0.664606  0.999452  0.926248  1
  Al  Al11  1  0.336120  0.003353  0.072836  1
  Al  Al12  1  0.333777  0.334304  0.557211  1
  Al  Al13  1  0.666148  0.665769  0.448422  1
  Al  Al14  1  0.666148  0.665769  0.051578  1
  Al  Al15  1  0.333777  0.334304  0.942789  1
  Al  Al16  1  0.663038  0.450408  0.750000  1
  Al  Al17  1  0.550561  0.339761  0.250000  1
  Al  Al18  1  0.450271  0.661944  0.750000  1
  Ga  Ga19  1  0.132124  0.132852  0.250000  1
  Ga  Ga20  1  0.864516  0.864791  0.750000  1
  Ga  Ga21  1  0.339215  0.545652  0.250000  1
  Ir  Ir22  1  0.671388  0.329278  0.000020  1
  Ir  Ir23  1  0.328383  0.672328  0.997785  1
  Ir  Ir24  1  0.328383  0.672328  0.502215  1
  Ir  Ir25  1  0.671388  0.329278  0.499980  1
  Ir  Ir26  1  0.000218  0.000838  0.999568  1
  Ir  Ir27  1  0.000218  0.000838  0.500432  1
