# generated using pymatgen
data_Y16CdAg3Rh4
_symmetry_space_group_name_H-M   'P 1'
_cell_length_a   9.61153123
_cell_length_b   9.60232023
_cell_length_c   9.60232100
_cell_angle_alpha   59.99999389
_cell_angle_beta   60.03169008
_cell_angle_gamma   60.03169607
_symmetry_Int_Tables_number   1
_chemical_formula_structural   Y16CdAg3Rh4
_chemical_formula_sum   'Y16 Cd1 Ag3 Rh4'
_cell_volume   626.95713233
_cell_formula_units_Z   1
loop_
 _symmetry_equiv_pos_site_id
 _symmetry_equiv_pos_as_xyz
  1  'x, y, z'
loop_
 _atom_site_type_symbol
 _atom_site_label
 _atom_site_symmetry_multiplicity
 _atom_site_fract_x
 _atom_site_fract_y
 _atom_site_fract_z
 _atom_site_occupancy
  Y  Y0  1  0.352813  0.352626  0.352626  1
  Y  Y1  1  0.352813  0.352626  0.941937  1
  Y  Y2  1  0.352813  0.941937  0.352626  1
  Y  Y3  1  0.933679  0.355441  0.355441  1
  Y  Y4  1  0.812383  0.187429  0.187429  1
  Y  Y5  1  0.187611  0.812118  0.812118  1
  Y  Y6  1  0.187611  0.812118  0.188154  1
  Y  Y7  1  0.812383  0.187429  0.812759  1
  Y  Y8  1  0.187611  0.188154  0.812118  1
  Y  Y9  1  0.812383  0.812759  0.187429  1
  Y  Y10  1  0.935463  0.563800  0.563800  1
  Y  Y11  1  0.564462  0.935113  0.935113  1
  Y  Y12  1  0.564462  0.935113  0.565312  1
  Y  Y13  1  0.935463  0.563800  0.936936  1
  Y  Y14  1  0.564462  0.565312  0.935113  1
  Y  Y15  1  0.935463  0.936936  0.563800  1
  Cd  Cd16  1  0.266978  0.577674  0.577674  1
  Ag  Ag17  1  0.583168  0.583348  0.583348  1
  Ag  Ag18  1  0.583168  0.583348  0.250136  1
  Ag  Ag19  1  0.583168  0.250136  0.583348  1
  Rh  Rh20  1  0.141187  0.145160  0.145160  1
  Rh  Rh21  1  0.141187  0.145160  0.568492  1
  Rh  Rh22  1  0.141187  0.568492  0.145160  1
  Rh  Rh23  1  0.568082  0.143972  0.143972  1
