# generated using pymatgen
data_Ca2HoAl3Si2Pd
_symmetry_space_group_name_H-M   'P 1'
_cell_length_a   6.93168111
_cell_length_b   6.93168177
_cell_length_c   4.32180200
_cell_angle_alpha   90.00000000
_cell_angle_beta   90.00000000
_cell_angle_gamma   120.17531705
_symmetry_Int_Tables_number   1
_chemical_formula_structural   Ca2HoAl3Si2Pd
_chemical_formula_sum   'Ca2 Ho1 Al3 Si2 Pd1'
_cell_volume   179.51582782
_cell_formula_units_Z   1
loop_
 _symmetry_equiv_pos_site_id
 _symmetry_equiv_pos_as_xyz
  1  'x, y, z'
loop_
 _atom_site_type_symbol
 _atom_site_label
 _atom_site_symmetry_multiplicity
 _atom_site_fract_x
 _atom_site_fract_y
 _atom_site_fract_z
 _atom_site_occupancy
  Ca  Ca0  1  0.423062  0.000070  0.000000  1
  Ca  Ca1  1  0.000070  0.423061  0.000000  1
  Ho  Ho2  1  0.578999  0.578999  0.000000  1
  Al  Al3  1  0.761827  0.997706  0.499999  1
  Al  Al4  1  0.238423  0.238423  0.499999  1
  Al  Al5  1  0.997706  0.761826  0.499999  1
  Si  Si6  1  0.664940  0.338717  0.499999  1
  Si  Si7  1  0.338717  0.664940  0.499999  1
  Pd  Pd8  1  0.996256  0.996256  0.000000  1
