# generated using pymatgen
data_Yb3Ho(OsC2)2
_symmetry_space_group_name_H-M   'P 1'
_cell_length_a   5.12379400
_cell_length_b   6.43690902
_cell_length_c   10.13208849
_cell_angle_alpha   90.54952823
_cell_angle_beta   90.00000000
_cell_angle_gamma   90.00000000
_symmetry_Int_Tables_number   1
_chemical_formula_structural   Yb3Ho(OsC2)2
_chemical_formula_sum   'Yb6 Ho2 Os4 C8'
_cell_volume   334.15505131
_cell_formula_units_Z   2
loop_
 _symmetry_equiv_pos_site_id
 _symmetry_equiv_pos_as_xyz
  1  'x, y, z'
loop_
 _atom_site_type_symbol
 _atom_site_label
 _atom_site_symmetry_multiplicity
 _atom_site_fract_x
 _atom_site_fract_y
 _atom_site_fract_z
 _atom_site_occupancy
  Yb  Yb0  1  0.750000  0.805624  0.052036  1
  Yb  Yb1  1  0.250000  0.194376  0.947964  1
  Yb  Yb2  1  0.250000  0.533019  0.221406  1
  Yb  Yb3  1  0.750000  0.466981  0.778594  1
  Yb  Yb4  1  0.750000  0.968560  0.727410  1
  Yb  Yb5  1  0.250000  0.031440  0.272590  1
  Ho  Ho6  1  0.250000  0.685089  0.553478  1
  Ho  Ho7  1  0.750000  0.314911  0.446522  1
  Os  Os8  1  0.250000  0.729216  0.854335  1
  Os  Os9  1  0.750000  0.270784  0.145665  1
  Os  Os10  1  0.750000  0.773087  0.357126  1
  Os  Os11  1  0.250000  0.226913  0.642874  1
  C  C12  1  0.250000  0.466628  0.755162  1
  C  C13  1  0.750000  0.533372  0.244838  1
  C  C14  1  0.750000  0.036884  0.263340  1
  C  C15  1  0.250000  0.963116  0.736660  1
  C  C16  1  0.250000  0.798411  0.031819  1
  C  C17  1  0.750000  0.201589  0.968181  1
  C  C18  1  0.750000  0.685424  0.535989  1
  C  C19  1  0.250000  0.314576  0.464011  1
