# generated using pymatgen
data_Dy2(UGa5)3
_symmetry_space_group_name_H-M   'P 1'
_cell_length_a   12.58987637
_cell_length_b   12.58987609
_cell_length_c   12.58987600
_cell_angle_alpha   28.00389462
_cell_angle_beta   28.00389702
_cell_angle_gamma   28.00389686
_symmetry_Int_Tables_number   1
_chemical_formula_structural   Dy2(UGa5)3
_chemical_formula_sum   'Dy2 U3 Ga15'
_cell_volume   388.57603198
_cell_formula_units_Z   1
loop_
 _symmetry_equiv_pos_site_id
 _symmetry_equiv_pos_as_xyz
  1  'x, y, z'
loop_
 _atom_site_type_symbol
 _atom_site_label
 _atom_site_symmetry_multiplicity
 _atom_site_fract_x
 _atom_site_fract_y
 _atom_site_fract_z
 _atom_site_occupancy
  Dy  Dy0  1  0.130840  0.130840  0.130840  1
  Dy  Dy1  1  0.000510  0.000510  0.000510  1
  U  U2  1  0.599410  0.599410  0.599410  1
  U  U3  1  0.400416  0.400416  0.400416  1
  U  U4  1  0.869320  0.869320  0.869320  1
  Ga  Ga5  1  0.572714  0.114551  0.114551  1
  Ga  Ga6  1  0.114551  0.572714  0.114551  1
  Ga  Ga7  1  0.114551  0.114551  0.572714  1
  Ga  Ga8  1  0.429579  0.884636  0.884636  1
  Ga  Ga9  1  0.884636  0.429579  0.884636  1
  Ga  Ga10  1  0.500506  0.500506  0.998671  1
  Ga  Ga11  1  0.500506  0.998671  0.500506  1
  Ga  Ga12  1  0.998671  0.500506  0.500506  1
  Ga  Ga13  1  0.636637  0.636637  0.127922  1
  Ga  Ga14  1  0.636637  0.127922  0.636637  1
  Ga  Ga15  1  0.127922  0.636637  0.636637  1
  Ga  Ga16  1  0.364863  0.364863  0.868232  1
  Ga  Ga17  1  0.364863  0.868232  0.364863  1
  Ga  Ga18  1  0.868232  0.364863  0.364863  1
  Ga  Ga19  1  0.884636  0.884636  0.429579  1
