# generated using pymatgen
data_SrHg3(Ir2O7)2
_symmetry_space_group_name_H-M   'P 1'
_cell_length_a   7.31729221
_cell_length_b   7.38362062
_cell_length_c   7.31729300
_cell_angle_alpha   60.29671996
_cell_angle_beta   60.00000094
_cell_angle_gamma   60.29672223
_symmetry_Int_Tables_number   1
_chemical_formula_structural   SrHg3(Ir2O7)2
_chemical_formula_sum   'Sr1 Hg3 Ir4 O14'
_cell_volume   280.79444812
_cell_formula_units_Z   1
loop_
 _symmetry_equiv_pos_site_id
 _symmetry_equiv_pos_as_xyz
  1  'x, y, z'
loop_
 _atom_site_type_symbol
 _atom_site_label
 _atom_site_symmetry_multiplicity
 _atom_site_fract_x
 _atom_site_fract_y
 _atom_site_fract_z
 _atom_site_occupancy
  Sr  Sr0  1  0.625000  0.125000  0.625000  1
  Hg  Hg1  1  0.625000  0.625000  0.125000  1
  Hg  Hg2  1  0.125000  0.625000  0.625000  1
  Hg  Hg3  1  0.625000  0.625000  0.625000  1
  Ir  Ir4  1  0.125000  0.125000  0.625000  1
  Ir  Ir5  1  0.125000  0.625000  0.125000  1
  Ir  Ir6  1  0.625000  0.125000  0.125000  1
  Ir  Ir7  1  0.125000  0.125000  0.125000  1
  O  O8  1  0.762255  0.713237  0.762255  1
  O  O9  1  0.487745  0.536763  0.487745  1
  O  O10  1  0.056423  0.442653  0.056423  1
  O  O11  1  0.803531  0.197024  0.803531  1
  O  O12  1  0.054087  0.052976  0.446469  1
  O  O13  1  0.446469  0.052976  0.054087  1
  O  O14  1  0.056423  0.442653  0.444500  1
  O  O15  1  0.444500  0.442653  0.056423  1
  O  O16  1  0.446469  0.052976  0.446469  1
  O  O17  1  0.193577  0.807347  0.805500  1
  O  O18  1  0.803531  0.197024  0.195913  1
  O  O19  1  0.193577  0.807347  0.193577  1
  O  O20  1  0.805500  0.807347  0.193577  1
  O  O21  1  0.195913  0.197024  0.803531  1
