# generated using pymatgen
data_NbRe2B4Mo3
_symmetry_space_group_name_H-M   'P 1'
_cell_length_a   3.14018800
_cell_length_b   7.60958694
_cell_length_c   9.71551719
_cell_angle_alpha   90.05678291
_cell_angle_beta   90.00000000
_cell_angle_gamma   90.00000000
_symmetry_Int_Tables_number   1
_chemical_formula_structural   NbRe2B4Mo3
_chemical_formula_sum   'Nb2 Re4 B8 Mo6'
_cell_volume   232.15735328
_cell_formula_units_Z   2
loop_
 _symmetry_equiv_pos_site_id
 _symmetry_equiv_pos_as_xyz
  1  'x, y, z'
loop_
 _atom_site_type_symbol
 _atom_site_label
 _atom_site_symmetry_multiplicity
 _atom_site_fract_x
 _atom_site_fract_y
 _atom_site_fract_z
 _atom_site_occupancy
  Nb  Nb0  1  0.500000  0.817288  0.128686  1
  Nb  Nb1  1  0.500000  0.182712  0.871314  1
  Re  Re2  1  0.500000  0.619517  0.397044  1
  Re  Re3  1  0.500000  0.380483  0.602956  1
  Re  Re4  1  0.000000  0.871503  0.892655  1
  Re  Re5  1  0.000000  0.128497  0.107345  1
  B  B6  1  0.500000  0.116262  0.460723  1
  B  B7  1  0.500000  0.883738  0.539277  1
  B  B8  1  0.000000  0.388210  0.960071  1
  B  B9  1  0.000000  0.611790  0.039929  1
  B  B10  1  0.500000  0.117782  0.266915  1
  B  B11  1  0.500000  0.882218  0.733085  1
  B  B12  1  0.000000  0.379732  0.764786  1
  B  B13  1  0.000000  0.620268  0.235214  1
  Mo  Mo14  1  0.000000  0.692318  0.629866  1
  Mo  Mo15  1  0.000000  0.307682  0.370134  1
  Mo  Mo16  1  0.500000  0.576140  0.861418  1
  Mo  Mo17  1  0.500000  0.423860  0.138582  1
  Mo  Mo18  1  0.000000  0.919068  0.365811  1
  Mo  Mo19  1  0.000000  0.080932  0.634189  1
