# generated using pymatgen
data_NdTh(Ga3Pd)2
_symmetry_space_group_name_H-M   'P 1'
_cell_length_a   6.04344785
_cell_length_b   6.04344822
_cell_length_c   6.00160600
_cell_angle_alpha   90.00000000
_cell_angle_beta   90.00000000
_cell_angle_gamma   116.85034125
_symmetry_Int_Tables_number   1
_chemical_formula_structural   NdTh(Ga3Pd)2
_chemical_formula_sum   'Nd1 Th1 Ga6 Pd2'
_cell_volume   195.56633065
_cell_formula_units_Z   1
loop_
 _symmetry_equiv_pos_site_id
 _symmetry_equiv_pos_as_xyz
  1  'x, y, z'
loop_
 _atom_site_type_symbol
 _atom_site_label
 _atom_site_symmetry_multiplicity
 _atom_site_fract_x
 _atom_site_fract_y
 _atom_site_fract_z
 _atom_site_occupancy
  Nd  Nd0  1  0.238328  0.761672  0.750000  1
  Th  Th1  1  0.762389  0.237611  0.250000  1
  Ga  Ga2  1  0.663481  0.336519  0.750000  1
  Ga  Ga3  1  0.335180  0.664820  0.250000  1
  Ga  Ga4  1  0.719030  0.718355  0.001344  1
  Ga  Ga5  1  0.719030  0.718355  0.498656  1
  Ga  Ga6  1  0.281645  0.280970  0.001344  1
  Ga  Ga7  1  0.281645  0.280970  0.498656  1
  Pd  Pd8  1  0.902880  0.097120  0.750000  1
  Pd  Pd9  1  0.096390  0.903610  0.250000  1
