# generated using pymatgen
data_Er2Al3Zn3Cu4
_symmetry_space_group_name_H-M   'P 1'
_cell_length_a   4.10308800
_cell_length_b   5.23800785
_cell_length_c   9.01260165
_cell_angle_alpha   90.17777426
_cell_angle_beta   90.00000000
_cell_angle_gamma   90.00000000
_symmetry_Int_Tables_number   1
_chemical_formula_structural   Er2Al3Zn3Cu4
_chemical_formula_sum   'Er2 Al3 Zn3 Cu4'
_cell_volume   193.69796695
_cell_formula_units_Z   1
loop_
 _symmetry_equiv_pos_site_id
 _symmetry_equiv_pos_as_xyz
  1  'x, y, z'
loop_
 _atom_site_type_symbol
 _atom_site_label
 _atom_site_symmetry_multiplicity
 _atom_site_fract_x
 _atom_site_fract_y
 _atom_site_fract_z
 _atom_site_occupancy
  Er  Er0  1  0.000000  0.999757  0.997896  1
  Er  Er1  1  0.000000  0.500255  0.502014  1
  Al  Al2  1  0.500000  0.504189  0.996688  1
  Al  Al3  1  0.500000  0.995560  0.503401  1
  Al  Al4  1  0.500000  0.250004  0.250061  1
  Zn  Zn5  1  0.500000  0.749963  0.750113  1
  Zn  Zn6  1  0.500000  0.749750  0.250213  1
  Zn  Zn7  1  0.500000  0.249941  0.750066  1
  Cu  Cu8  1  0.000000  0.003637  0.335378  1
  Cu  Cu9  1  0.000000  0.500186  0.835096  1
  Cu  Cu10  1  0.000000  0.496676  0.163807  1
  Cu  Cu11  1  0.000000  0.999884  0.665268  1
