# generated using pymatgen
data_Tm4Sc4Mn3B24Ir
_symmetry_space_group_name_H-M   'P 1'
_cell_length_a   3.45662400
_cell_length_b   8.89665522
_cell_length_c   11.25635228
_cell_angle_alpha   90.02572601
_cell_angle_beta   90.00000000
_cell_angle_gamma   90.00000000
_symmetry_Int_Tables_number   1
_chemical_formula_structural   Tm4Sc4Mn3B24Ir
_chemical_formula_sum   'Tm4 Sc4 Mn3 B24 Ir1'
_cell_volume   346.15972266
_cell_formula_units_Z   1
loop_
 _symmetry_equiv_pos_site_id
 _symmetry_equiv_pos_as_xyz
  1  'x, y, z'
loop_
 _atom_site_type_symbol
 _atom_site_label
 _atom_site_symmetry_multiplicity
 _atom_site_fract_x
 _atom_site_fract_y
 _atom_site_fract_z
 _atom_site_occupancy
  Tm  Tm0  1  0.500000  0.317304  0.416901  1
  Tm  Tm1  1  0.500000  0.678526  0.591450  1
  Tm  Tm2  1  0.500000  0.177084  0.912803  1
  Tm  Tm3  1  0.500000  0.826398  0.080449  1
  Sc  Sc4  1  0.500000  0.438606  0.126708  1
  Sc  Sc5  1  0.500000  0.556267  0.869466  1
  Sc  Sc6  1  0.500000  0.056152  0.631082  1
  Sc  Sc7  1  0.500000  0.949133  0.370068  1
  Mn  Mn8  1  0.500000  0.140806  0.182520  1
  Mn  Mn9  1  0.500000  0.859089  0.818739  1
  Mn  Mn10  1  0.500000  0.359950  0.680475  1
  B  B11  1  0.000000  0.098669  0.473924  1
  B  B12  1  0.000000  0.901848  0.527247  1
  B  B13  1  0.000000  0.400735  0.972678  1
  B  B14  1  0.000000  0.598418  0.026101  1
  B  B15  1  0.000000  0.130385  0.316064  1
  B  B16  1  0.000000  0.870320  0.684935  1
  B  B17  1  0.000000  0.370012  0.815436  1
  B  B18  1  0.000000  0.629994  0.180800  1
  B  B19  1  0.000000  0.054928  0.067358  1
  B  B20  1  0.000000  0.945486  0.931372  1
  B  B21  1  0.000000  0.444569  0.568833  1
  B  B22  1  0.000000  0.553590  0.435118  1
  B  B23  1  0.000000  0.479917  0.286135  1
  B  B24  1  0.000000  0.516543  0.713564  1
  B  B25  1  0.000000  0.016757  0.786806  1
  B  B26  1  0.000000  0.984506  0.212479  1
  B  B27  1  0.000000  0.250210  0.081911  1
  B  B28  1  0.000000  0.749034  0.917020  1
  B  B29  1  0.000000  0.248281  0.583320  1
  B  B30  1  0.000000  0.754055  0.420555  1
  B  B31  1  0.000000  0.292255  0.234803  1
  B  B32  1  0.000000  0.706941  0.765579  1
  B  B33  1  0.000000  0.206896  0.735062  1
  B  B34  1  0.000000  0.795905  0.263323  1
  Ir  Ir35  1  0.500000  0.640435  0.318916  1
