# generated using pymatgen
data_CeDyTcB6
_symmetry_space_group_name_H-M   'P 1'
_cell_length_a   3.73891100
_cell_length_b   9.20035100
_cell_length_c   11.58275500
_cell_angle_alpha   90.00000000
_cell_angle_beta   90.00000000
_cell_angle_gamma   90.00000000
_symmetry_Int_Tables_number   1
_chemical_formula_structural   CeDyTcB6
_chemical_formula_sum   'Ce4 Dy4 Tc4 B24'
_cell_volume   398.43858945
_cell_formula_units_Z   4
loop_
 _symmetry_equiv_pos_site_id
 _symmetry_equiv_pos_as_xyz
  1  'x, y, z'
loop_
 _atom_site_type_symbol
 _atom_site_label
 _atom_site_symmetry_multiplicity
 _atom_site_fract_x
 _atom_site_fract_y
 _atom_site_fract_z
 _atom_site_occupancy
  Ce  Ce0  1  0.000000  0.323891  0.413738  1
  Ce  Ce1  1  0.000000  0.676109  0.586262  1
  Ce  Ce2  1  0.000000  0.823891  0.086262  1
  Ce  Ce3  1  0.000000  0.176109  0.913738  1
  Dy  Dy4  1  0.000000  0.945057  0.372582  1
  Dy  Dy5  1  0.000000  0.054943  0.627418  1
  Dy  Dy6  1  0.000000  0.445057  0.127418  1
  Dy  Dy7  1  0.000000  0.554943  0.872582  1
  Tc  Tc8  1  0.000000  0.639570  0.321072  1
  Tc  Tc9  1  0.000000  0.360430  0.678928  1
  Tc  Tc10  1  0.000000  0.139570  0.178928  1
  Tc  Tc11  1  0.000000  0.860430  0.821072  1
  B  B12  1  0.500000  0.554798  0.431706  1
  B  B13  1  0.500000  0.445202  0.568294  1
  B  B14  1  0.500000  0.054798  0.068294  1
  B  B15  1  0.500000  0.945202  0.931706  1
  B  B16  1  0.500000  0.748668  0.419224  1
  B  B17  1  0.500000  0.251332  0.580776  1
  B  B18  1  0.500000  0.248668  0.080776  1
  B  B19  1  0.500000  0.751332  0.919224  1
  B  B20  1  0.500000  0.792342  0.266777  1
  B  B21  1  0.500000  0.207658  0.733223  1
  B  B22  1  0.500000  0.292342  0.233223  1
  B  B23  1  0.500000  0.707658  0.766777  1
  B  B24  1  0.500000  0.633146  0.186357  1
  B  B25  1  0.500000  0.366854  0.813643  1
  B  B26  1  0.500000  0.133146  0.313643  1
  B  B27  1  0.500000  0.866854  0.686357  1
  B  B28  1  0.500000  0.985177  0.212976  1
  B  B29  1  0.500000  0.014823  0.787024  1
  B  B30  1  0.500000  0.485177  0.287024  1
  B  B31  1  0.500000  0.514823  0.712976  1
  B  B32  1  0.500000  0.609674  0.030352  1
  B  B33  1  0.500000  0.390326  0.969648  1
  B  B34  1  0.500000  0.109674  0.469648  1
  B  B35  1  0.500000  0.890326  0.530352  1
