# generated using pymatgen
data_Tb6YbY(B6Ru)4
_symmetry_space_group_name_H-M   'P 1'
_cell_length_a   3.67546200
_cell_length_b   9.16560280
_cell_length_c   11.54719000
_cell_angle_alpha   89.90798217
_cell_angle_beta   90.00000000
_cell_angle_gamma   90.00000000
_symmetry_Int_Tables_number   1
_chemical_formula_structural   Tb6YbY(B6Ru)4
_chemical_formula_sum   'Tb6 Yb1 Y1 B24 Ru4'
_cell_volume   388.99921180
_cell_formula_units_Z   1
loop_
 _symmetry_equiv_pos_site_id
 _symmetry_equiv_pos_as_xyz
  1  'x, y, z'
loop_
 _atom_site_type_symbol
 _atom_site_label
 _atom_site_symmetry_multiplicity
 _atom_site_fract_x
 _atom_site_fract_y
 _atom_site_fract_z
 _atom_site_occupancy
  Tb  Tb0  1  0.000000  0.675164  0.585064  1
  Tb  Tb1  1  0.000000  0.823086  0.086463  1
  Tb  Tb2  1  0.000000  0.177294  0.914398  1
  Tb  Tb3  1  0.000000  0.943880  0.371098  1
  Tb  Tb4  1  0.000000  0.058408  0.628077  1
  Tb  Tb5  1  0.000000  0.442677  0.129861  1
  Yb  Yb6  1  0.000000  0.324240  0.413630  1
  Y  Y7  1  0.000000  0.556158  0.872162  1
  B  B8  1  0.500000  0.553578  0.432337  1
  B  B9  1  0.500000  0.445764  0.567275  1
  B  B10  1  0.500000  0.053406  0.067068  1
  B  B11  1  0.500000  0.945817  0.932201  1
  B  B12  1  0.500000  0.747372  0.419097  1
  B  B13  1  0.500000  0.253170  0.580579  1
  B  B14  1  0.500000  0.246734  0.080843  1
  B  B15  1  0.500000  0.752385  0.919517  1
  B  B16  1  0.500000  0.790481  0.266532  1
  B  B17  1  0.500000  0.210786  0.733571  1
  B  B18  1  0.500000  0.289297  0.233587  1
  B  B19  1  0.500000  0.709751  0.766543  1
  B  B20  1  0.500000  0.632103  0.186564  1
  B  B21  1  0.500000  0.368304  0.814599  1
  B  B22  1  0.500000  0.131738  0.313766  1
  B  B23  1  0.500000  0.868345  0.685605  1
  B  B24  1  0.500000  0.984112  0.211773  1
  B  B25  1  0.500000  0.015967  0.787425  1
  B  B26  1  0.500000  0.484204  0.288196  1
  B  B27  1  0.500000  0.515887  0.712440  1
  B  B28  1  0.500000  0.609271  0.030360  1
  B  B29  1  0.500000  0.390977  0.969993  1
  B  B30  1  0.500000  0.106325  0.470416  1
  B  B31  1  0.500000  0.893140  0.529584  1
  Ru  Ru32  1  0.000000  0.638871  0.320929  1
  Ru  Ru33  1  0.000000  0.362471  0.679682  1
  Ru  Ru34  1  0.000000  0.136689  0.177497  1
  Ru  Ru35  1  0.000000  0.862148  0.821266  1
