# generated using pymatgen
data_DyEr8Tm7Tl4(InCo)2
_symmetry_space_group_name_H-M   'P 1'
_cell_length_a   10.24439471
_cell_length_b   10.25620434
_cell_length_c   6.97856047
_cell_angle_alpha   90.01607727
_cell_angle_beta   89.96166365
_cell_angle_gamma   119.98059615
_symmetry_Int_Tables_number   1
_chemical_formula_structural   DyEr8Tm7Tl4(InCo)2
_chemical_formula_sum   'Dy1 Er8 Tm7 Tl4 In2 Co2'
_cell_volume   635.11772129
_cell_formula_units_Z   1
loop_
 _symmetry_equiv_pos_site_id
 _symmetry_equiv_pos_as_xyz
  1  'x, y, z'
loop_
 _atom_site_type_symbol
 _atom_site_label
 _atom_site_symmetry_multiplicity
 _atom_site_fract_x
 _atom_site_fract_y
 _atom_site_fract_z
 _atom_site_occupancy
  Dy  Dy0  1  0.534980  0.070211  0.790225  1
  Er  Er1  1  0.822328  0.178984  0.495950  1
  Er  Er2  1  0.178403  0.356833  0.996389  1
  Er  Er3  1  0.643634  0.821601  0.998844  1
  Er  Er4  1  0.177937  0.821582  0.998817  1
  Er  Er5  1  0.666745  0.333739  0.182426  1
  Er  Er6  1  0.333334  0.666652  0.682299  1
  Er  Er7  1  0.999357  0.998502  0.776513  1
  Er  Er8  1  0.999463  0.998775  0.280091  1
  Tm  Tm9  1  0.928349  0.465204  0.792059  1
  Tm  Tm10  1  0.536723  0.465057  0.791944  1
  Tm  Tm11  1  0.463459  0.927136  0.293691  1
  Tm  Tm12  1  0.072767  0.536395  0.293662  1
  Tm  Tm13  1  0.463568  0.536239  0.293713  1
  Tm  Tm14  1  0.821309  0.642585  0.496376  1
  Tm  Tm15  1  0.356867  0.179075  0.495880  1
  Tl  Tl16  1  0.836707  0.673385  0.040965  1
  Tl  Tl17  1  0.326043  0.163372  0.041304  1
  Tl  Tl18  1  0.837307  0.163389  0.040909  1
  Tl  Tl19  1  0.163318  0.326031  0.541284  1
  In  In20  1  0.674237  0.836893  0.539816  1
  In  In21  1  0.162920  0.837395  0.539693  1
  Co  Co22  1  0.667066  0.334561  0.566193  1
  Co  Co23  1  0.333181  0.666405  0.066866  1
