# generated using pymatgen
data_Dy19YCd3Ag3Ru2
_symmetry_space_group_name_H-M   'P 1'
_cell_length_a   9.61198500
_cell_length_b   9.61239006
_cell_length_c   9.67630800
_cell_angle_alpha   90.00000000
_cell_angle_beta   90.00000000
_cell_angle_gamma   120.00140060
_symmetry_Int_Tables_number   1
_chemical_formula_structural   Dy19YCd3Ag3Ru2
_chemical_formula_sum   'Dy19 Y1 Cd3 Ag3 Ru2'
_cell_volume   774.24543961
_cell_formula_units_Z   1
loop_
 _symmetry_equiv_pos_site_id
 _symmetry_equiv_pos_as_xyz
  1  'x, y, z'
loop_
 _atom_site_type_symbol
 _atom_site_label
 _atom_site_symmetry_multiplicity
 _atom_site_fract_x
 _atom_site_fract_y
 _atom_site_fract_z
 _atom_site_occupancy
  Dy  Dy0  1  0.999986  0.999993  0.477884  1
  Dy  Dy1  1  0.999986  0.999993  0.022116  1
  Dy  Dy2  1  0.210365  0.789703  0.440715  1
  Dy  Dy3  1  0.210365  0.420663  0.440715  1
  Dy  Dy4  1  0.579311  0.789656  0.440749  1
  Dy  Dy5  1  0.790685  0.209236  0.559716  1
  Dy  Dy6  1  0.790685  0.581449  0.559716  1
  Dy  Dy7  1  0.418559  0.209279  0.559734  1
  Dy  Dy8  1  0.790685  0.209236  0.940284  1
  Dy  Dy9  1  0.790685  0.581449  0.940284  1
  Dy  Dy10  1  0.418559  0.209279  0.940266  1
  Dy  Dy11  1  0.210365  0.789703  0.059285  1
  Dy  Dy12  1  0.210365  0.420663  0.059285  1
  Dy  Dy13  1  0.579311  0.789656  0.059251  1
  Dy  Dy14  1  0.540938  0.459086  0.250000  1
  Dy  Dy15  1  0.540938  0.081852  0.250000  1
  Dy  Dy16  1  0.918155  0.459078  0.250000  1
  Dy  Dy17  1  0.458961  0.541062  0.750000  1
  Dy  Dy18  1  0.458961  0.917897  0.750000  1
  Y  Y19  1  0.082214  0.541107  0.750000  1
  Cd  Cd20  1  0.111286  0.888739  0.750000  1
  Cd  Cd21  1  0.111286  0.222546  0.750000  1
  Cd  Cd22  1  0.777420  0.888710  0.750000  1
  Ag  Ag23  1  0.876559  0.123414  0.250000  1
  Ag  Ag24  1  0.876559  0.753147  0.250000  1
  Ag  Ag25  1  0.246855  0.123429  0.250000  1
  Ru  Ru26  1  0.333346  0.666674  0.250000  1
  Ru  Ru27  1  0.666605  0.333302  0.750000  1
