# generated using pymatgen
data_NbIn2SbO8
_symmetry_space_group_name_H-M   'P 1'
_cell_length_a   5.86773500
_cell_length_b   4.90920915
_cell_length_c   5.25176977
_cell_angle_alpha   88.26935864
_cell_angle_beta   90.00000000
_cell_angle_gamma   90.00000000
_symmetry_Int_Tables_number   1
_chemical_formula_structural   NbIn2SbO8
_chemical_formula_sum   'Nb1 In2 Sb1 O8'
_cell_volume   151.21314909
_cell_formula_units_Z   1
loop_
 _symmetry_equiv_pos_site_id
 _symmetry_equiv_pos_as_xyz
  1  'x, y, z'
loop_
 _atom_site_type_symbol
 _atom_site_label
 _atom_site_symmetry_multiplicity
 _atom_site_fract_x
 _atom_site_fract_y
 _atom_site_fract_z
 _atom_site_occupancy
  Nb  Nb0  1  0.819906  0.000000  0.250000  1
  In  In1  1  0.670470  0.500000  0.750000  1
  In  In2  1  0.314140  0.500000  0.250000  1
  Sb  Sb3  1  0.165675  0.000000  0.750000  1
  O  O4  1  0.622177  0.734160  0.397813  1
  O  O5  1  0.622177  0.265840  0.102187  1
  O  O6  1  0.387282  0.255292  0.591385  1
  O  O7  1  0.387282  0.744708  0.908615  1
  O  O8  1  0.102781  0.786061  0.439280  1
  O  O9  1  0.102781  0.213939  0.060720  1
  O  O10  1  0.902665  0.215151  0.563355  1
  O  O11  1  0.902665  0.784849  0.936645  1
