# generated using pymatgen
data_TiBe3CuRh
_symmetry_space_group_name_H-M   'P 1'
_cell_length_a   4.51596936
_cell_length_b   4.51596906
_cell_length_c   4.48219984
_cell_angle_alpha   59.75045922
_cell_angle_beta   59.75046241
_cell_angle_gamma   59.99999468
_symmetry_Int_Tables_number   1
_chemical_formula_structural   TiBe3CuRh
_chemical_formula_sum   'Ti1 Be3 Cu1 Rh1'
_cell_volume   64.39167778
_cell_formula_units_Z   1
loop_
 _symmetry_equiv_pos_site_id
 _symmetry_equiv_pos_as_xyz
  1  'x, y, z'
loop_
 _atom_site_type_symbol
 _atom_site_label
 _atom_site_symmetry_multiplicity
 _atom_site_fract_x
 _atom_site_fract_y
 _atom_site_fract_z
 _atom_site_occupancy
  Ti  Ti0  1  0.000810  0.000810  0.997570  1
  Be  Be1  1  0.623998  0.129562  0.622441  1
  Be  Be2  1  0.129562  0.623998  0.622441  1
  Be  Be3  1  0.623998  0.623998  0.622441  1
  Cu  Cu4  1  0.628265  0.628265  0.115203  1
  Rh  Rh5  1  0.243366  0.243366  0.269902  1
