# generated using pymatgen
data_Ta3Nb9Ga8(IrC)4
_symmetry_space_group_name_H-M   'P 1'
_cell_length_a   8.34427468
_cell_length_b   8.34245953
_cell_length_c   8.34536866
_cell_angle_alpha   59.99883783
_cell_angle_beta   59.98092888
_cell_angle_gamma   59.98367873
_symmetry_Int_Tables_number   1
_chemical_formula_structural   Ta3Nb9Ga8(IrC)4
_chemical_formula_sum   'Ta3 Nb9 Ga8 Ir4 C4'
_cell_volume   410.67020987
_cell_formula_units_Z   1
loop_
 _symmetry_equiv_pos_site_id
 _symmetry_equiv_pos_as_xyz
  1  'x, y, z'
loop_
 _atom_site_type_symbol
 _atom_site_label
 _atom_site_symmetry_multiplicity
 _atom_site_fract_x
 _atom_site_fract_y
 _atom_site_fract_z
 _atom_site_occupancy
  Ta  Ta0  1  0.938056  0.937338  0.562152  1
  Ta  Ta1  1  0.687400  0.312826  0.687496  1
  Ta  Ta2  1  0.937048  0.562997  0.936771  1
  Nb  Nb3  1  0.563352  0.936842  0.563349  1
  Nb  Nb4  1  0.312977  0.687757  0.687669  1
  Nb  Nb5  1  0.687518  0.312225  0.312421  1
  Nb  Nb6  1  0.313104  0.687159  0.312636  1
  Nb  Nb7  1  0.686875  0.687158  0.313381  1
  Nb  Nb8  1  0.313989  0.313340  0.686293  1
  Nb  Nb9  1  0.561859  0.561990  0.938528  1
  Nb  Nb10  1  0.937546  0.562999  0.562988  1
  Nb  Nb11  1  0.562589  0.936935  0.937454  1
  Ga  Ga12  1  0.913419  0.913335  0.915184  1
  Ga  Ga13  1  0.991554  0.337461  0.335353  1
  Ga  Ga14  1  0.337182  0.992207  0.335434  1
  Ga  Ga15  1  0.335331  0.335258  0.992193  1
  Ga  Ga16  1  0.915289  0.257989  0.913274  1
  Ga  Ga17  1  0.913740  0.913203  0.257605  1
  Ga  Ga18  1  0.257810  0.915173  0.913478  1
  Ga  Ga19  1  0.335358  0.335191  0.337067  1
  Ir  Ir20  1  0.122199  0.126009  0.127390  1
  Ir  Ir21  1  0.625767  0.126850  0.121563  1
  Ir  Ir22  1  0.124478  0.624689  0.123254  1
  Ir  Ir23  1  0.120198  0.124651  0.625177  1
  C  C24  1  0.625988  0.622879  0.626007  1
  C  C25  1  0.123589  0.626553  0.626617  1
  C  C26  1  0.628269  0.124694  0.625166  1
  C  C27  1  0.627516  0.624294  0.124095  1
