# generated using pymatgen
data_Li4Tb3Sn3Bi
_symmetry_space_group_name_H-M   'P 1'
_cell_length_a   4.61031542
_cell_length_b   7.19708094
_cell_length_c   8.69499021
_cell_angle_alpha   114.44777248
_cell_angle_beta   105.37368634
_cell_angle_gamma   90.00000201
_symmetry_Int_Tables_number   1
_chemical_formula_structural   Li4Tb3Sn3Bi
_chemical_formula_sum   'Li4 Tb3 Sn3 Bi1'
_cell_volume   251.25481936
_cell_formula_units_Z   1
loop_
 _symmetry_equiv_pos_site_id
 _symmetry_equiv_pos_as_xyz
  1  'x, y, z'
loop_
 _atom_site_type_symbol
 _atom_site_label
 _atom_site_symmetry_multiplicity
 _atom_site_fract_x
 _atom_site_fract_y
 _atom_site_fract_z
 _atom_site_occupancy
  Li  Li0  1  0.327683  0.014136  0.655363  1
  Li  Li1  1  0.672937  0.978747  0.345875  1
  Li  Li2  1  0.327683  0.641227  0.655363  1
  Li  Li3  1  0.672937  0.367128  0.345875  1
  Tb  Tb4  1  0.876475  0.376475  0.752949  1
  Tb  Tb5  1  0.127440  0.627440  0.254881  1
  Tb  Tb6  1  0.996405  0.996405  0.992811  1
  Sn  Sn7  1  0.784481  0.784481  0.568963  1
  Sn  Sn8  1  0.499740  0.298921  0.999480  1
  Sn  Sn9  1  0.499740  0.700559  0.999480  1
  Bi  Bi10  1  0.214481  0.214481  0.428962  1
