# generated using pymatgen
data_TbGaCu3Au
_symmetry_space_group_name_H-M   'P 1'
_cell_length_a   5.13196743
_cell_length_b   5.13196757
_cell_length_c   5.07390904
_cell_angle_alpha   59.62076019
_cell_angle_beta   59.62075814
_cell_angle_gamma   60.00000221
_symmetry_Int_Tables_number   1
_chemical_formula_structural   TbGaCu3Au
_chemical_formula_sum   'Tb1 Ga1 Cu3 Au1'
_cell_volume   93.94681868
_cell_formula_units_Z   1
loop_
 _symmetry_equiv_pos_site_id
 _symmetry_equiv_pos_as_xyz
  1  'x, y, z'
loop_
 _atom_site_type_symbol
 _atom_site_label
 _atom_site_symmetry_multiplicity
 _atom_site_fract_x
 _atom_site_fract_y
 _atom_site_fract_z
 _atom_site_occupancy
  Tb  Tb0  1  0.002126  0.002126  0.993622  1
  Ga  Ga1  1  0.622361  0.622361  0.132918  1
  Cu  Cu2  1  0.623503  0.126192  0.626801  1
  Cu  Cu3  1  0.126192  0.623503  0.626801  1
  Cu  Cu4  1  0.623503  0.623503  0.626801  1
  Au  Au5  1  0.252314  0.252314  0.243057  1
