# generated using pymatgen
data_Y5Lu5Sn5Sb
_symmetry_space_group_name_H-M   'P 1'
_cell_length_a   8.87132154
_cell_length_b   8.89216581
_cell_length_c   6.43041900
_cell_angle_alpha   90.00000000
_cell_angle_beta   90.00000000
_cell_angle_gamma   119.75959666
_symmetry_Int_Tables_number   1
_chemical_formula_structural   Y5Lu5Sn5Sb
_chemical_formula_sum   'Y5 Lu5 Sn5 Sb1'
_cell_volume   440.36495565
_cell_formula_units_Z   1
loop_
 _symmetry_equiv_pos_site_id
 _symmetry_equiv_pos_as_xyz
  1  'x, y, z'
loop_
 _atom_site_type_symbol
 _atom_site_label
 _atom_site_symmetry_multiplicity
 _atom_site_fract_x
 _atom_site_fract_y
 _atom_site_fract_z
 _atom_site_occupancy
  Y  Y0  1  0.759790  0.758943  0.750000  1
  Y  Y1  1  0.236399  0.996511  0.750000  1
  Y  Y2  1  0.996953  0.239310  0.750000  1
  Y  Y3  1  0.241203  0.241144  0.250000  1
  Y  Y4  1  0.762307  0.001323  0.250000  1
  Lu  Lu5  1  0.667925  0.332144  0.000865  1
  Lu  Lu6  1  0.333060  0.668770  0.000901  1
  Lu  Lu7  1  0.333060  0.668770  0.499099  1
  Lu  Lu8  1  0.667925  0.332144  0.499135  1
  Lu  Lu9  1  0.001504  0.761484  0.250000  1
  Sn  Sn10  1  0.602581  0.999854  0.750000  1
  Sn  Sn11  1  0.999991  0.602685  0.750000  1
  Sn  Sn12  1  0.609192  0.607157  0.250000  1
  Sn  Sn13  1  0.394975  0.999388  0.250000  1
  Sn  Sn14  1  0.001393  0.398519  0.250000  1
  Sb  Sb15  1  0.391741  0.391853  0.750000  1
