# generated using pymatgen
data_Sc6Zn15Ag8P
_symmetry_space_group_name_H-M   'P 1'
_cell_length_a   8.93008658
_cell_length_b   8.93008550
_cell_length_c   8.93008600
_cell_angle_alpha   59.99999816
_cell_angle_beta   60.00000214
_cell_angle_gamma   59.99999745
_symmetry_Int_Tables_number   1
_chemical_formula_structural   Sc6Zn15Ag8P
_chemical_formula_sum   'Sc6 Zn15 Ag8 P1'
_cell_volume   503.56080907
_cell_formula_units_Z   1
loop_
 _symmetry_equiv_pos_site_id
 _symmetry_equiv_pos_as_xyz
  1  'x, y, z'
loop_
 _atom_site_type_symbol
 _atom_site_label
 _atom_site_symmetry_multiplicity
 _atom_site_fract_x
 _atom_site_fract_y
 _atom_site_fract_z
 _atom_site_occupancy
  Sc  Sc0  1  0.703375  0.296625  0.296625  1
  Sc  Sc1  1  0.296625  0.703375  0.703375  1
  Sc  Sc2  1  0.296625  0.703375  0.296625  1
  Sc  Sc3  1  0.703375  0.296625  0.703375  1
  Sc  Sc4  1  0.296625  0.296625  0.703375  1
  Sc  Sc5  1  0.703375  0.703375  0.296625  1
  Zn  Zn6  1  0.500000  0.000000  0.000000  1
  Zn  Zn7  1  0.000000  0.500000  0.500000  1
  Zn  Zn8  1  0.000000  0.500000  0.000000  1
  Zn  Zn9  1  0.500000  0.000000  0.500000  1
  Zn  Zn10  1  0.000000  0.000000  0.500000  1
  Zn  Zn11  1  0.500000  0.500000  0.000000  1
  Zn  Zn12  1  0.335030  0.335030  0.335030  1
  Zn  Zn13  1  0.664970  0.664970  0.664970  1
  Zn  Zn14  1  0.335030  0.335030  0.994914  1
  Zn  Zn15  1  0.335030  0.994914  0.335030  1
  Zn  Zn16  1  0.664970  0.664970  0.005086  1
  Zn  Zn17  1  0.664970  0.005086  0.664970  1
  Zn  Zn18  1  0.994914  0.335030  0.335030  1
  Zn  Zn19  1  0.005086  0.664970  0.664970  1
  Zn  Zn20  1  0.000000  0.000000  0.000000  1
  Ag  Ag21  1  0.120940  0.120940  0.120940  1
  Ag  Ag22  1  0.879060  0.879060  0.879060  1
  Ag  Ag23  1  0.120940  0.120940  0.637181  1
  Ag  Ag24  1  0.120940  0.637181  0.120940  1
  Ag  Ag25  1  0.879060  0.879060  0.362819  1
  Ag  Ag26  1  0.879060  0.362819  0.879060  1
  Ag  Ag27  1  0.637181  0.120940  0.120940  1
  Ag  Ag28  1  0.362819  0.879060  0.879060  1
  P  P29  1  0.500000  0.500000  0.500000  1
