# generated using pymatgen
data_Np6Sb3Te5
_symmetry_space_group_name_H-M   'P 1'
_cell_length_a   8.03814919
_cell_length_b   8.01942770
_cell_length_c   8.05027116
_cell_angle_alpha   109.42249408
_cell_angle_beta   109.48810159
_cell_angle_gamma   109.40202020
_symmetry_Int_Tables_number   1
_chemical_formula_structural   Np6Sb3Te5
_chemical_formula_sum   'Np6 Sb3 Te5'
_cell_volume   399.97077647
_cell_formula_units_Z   1
loop_
 _symmetry_equiv_pos_site_id
 _symmetry_equiv_pos_as_xyz
  1  'x, y, z'
loop_
 _atom_site_type_symbol
 _atom_site_label
 _atom_site_symmetry_multiplicity
 _atom_site_fract_x
 _atom_site_fract_y
 _atom_site_fract_z
 _atom_site_occupancy
  Np  Np0  1  0.748540  0.870298  0.118458  1
  Np  Np1  1  0.381047  0.251725  0.629083  1
  Np  Np2  1  0.250559  0.626190  0.375375  1
  Np  Np3  1  0.869820  0.121469  0.751620  1
  Np  Np4  1  0.625449  0.376077  0.249619  1
  Np  Np5  1  0.124561  0.750358  0.875479  1
  Sb  Sb6  1  0.657041  0.656947  0.658003  1
  Sb  Sb7  1  0.842417  0.499941  0.999759  1
  Sb  Sb8  1  0.500101  0.999802  0.842634  1
  Te  Te9  1  0.344497  0.499551  0.998691  1
  Te  Te10  1  0.000201  0.845888  0.499894  1
  Te  Te11  1  0.000416  0.346517  0.500190  1
  Te  Te12  1  0.501020  0.000269  0.345447  1
  Te  Te13  1  0.154331  0.154968  0.155750  1
