# generated using pymatgen
data_Y3HoLuSn3
_symmetry_space_group_name_H-M   'P 1'
_cell_length_a   8.94212500
_cell_length_b   8.94212712
_cell_length_c   6.50038400
_cell_angle_alpha   90.00000000
_cell_angle_beta   90.00000000
_cell_angle_gamma   120.00000324
_symmetry_Int_Tables_number   1
_chemical_formula_structural   Y3HoLuSn3
_chemical_formula_sum   'Y6 Ho2 Lu2 Sn6'
_cell_volume   450.14373103
_cell_formula_units_Z   2
loop_
 _symmetry_equiv_pos_site_id
 _symmetry_equiv_pos_as_xyz
  1  'x, y, z'
loop_
 _atom_site_type_symbol
 _atom_site_label
 _atom_site_symmetry_multiplicity
 _atom_site_fract_x
 _atom_site_fract_y
 _atom_site_fract_z
 _atom_site_occupancy
  Y  Y0  1  0.760044  0.760044  0.749630  1
  Y  Y1  1  0.239956  0.000000  0.749630  1
  Y  Y2  1  0.000000  0.239956  0.749630  1
  Y  Y3  1  0.239956  0.239956  0.250370  1
  Y  Y4  1  0.760044  0.000000  0.250370  1
  Y  Y5  1  0.000000  0.760044  0.250370  1
  Ho  Ho6  1  0.666667  0.333333  0.000000  1
  Ho  Ho7  1  0.333333  0.666667  0.000000  1
  Lu  Lu8  1  0.333333  0.666667  0.500000  1
  Lu  Lu9  1  0.666667  0.333333  0.500000  1
  Sn  Sn10  1  0.395780  0.395780  0.747449  1
  Sn  Sn11  1  0.604220  0.000000  0.747449  1
  Sn  Sn12  1  0.000000  0.604220  0.747449  1
  Sn  Sn13  1  0.604220  0.604220  0.252551  1
  Sn  Sn14  1  0.395780  0.000000  0.252551  1
  Sn  Sn15  1  0.000000  0.395780  0.252551  1
