# generated using pymatgen
data_Nd2Co5B8Os3
_symmetry_space_group_name_H-M   'P 1'
_cell_length_a   7.23277525
_cell_length_b   7.31607956
_cell_length_c   3.90065774
_cell_angle_alpha   90.05686809
_cell_angle_beta   89.84496102
_cell_angle_gamma   89.54896940
_symmetry_Int_Tables_number   1
_chemical_formula_structural   Nd2Co5B8Os3
_chemical_formula_sum   'Nd2 Co5 B8 Os3'
_cell_volume   206.39822848
_cell_formula_units_Z   1
loop_
 _symmetry_equiv_pos_site_id
 _symmetry_equiv_pos_as_xyz
  1  'x, y, z'
loop_
 _atom_site_type_symbol
 _atom_site_label
 _atom_site_symmetry_multiplicity
 _atom_site_fract_x
 _atom_site_fract_y
 _atom_site_fract_z
 _atom_site_occupancy
  Nd  Nd0  1  0.004364  0.002646  0.920460  1
  Nd  Nd1  1  0.499164  0.501532  0.427703  1
  Co  Co2  1  0.125788  0.612846  0.121091  1
  Co  Co3  1  0.882788  0.624742  0.620382  1
  Co  Co4  1  0.874347  0.381961  0.120711  1
  Co  Co5  1  0.389067  0.161390  0.900237  1
  Co  Co6  1  0.121107  0.372935  0.621819  1
  B  B7  1  0.841620  0.317471  0.617479  1
  B  B8  1  0.156032  0.681963  0.618910  1
  B  B9  1  0.816256  0.658111  0.117527  1
  B  B10  1  0.327058  0.765032  0.902683  1
  B  B11  1  0.672556  0.226001  0.899992  1
  B  B12  1  0.280196  0.170996  0.401099  1
  B  B13  1  0.730594  0.829821  0.400487  1
  B  B14  1  0.184445  0.338800  0.116941  1
  Os  Os15  1  0.339779  0.893659  0.397962  1
  Os  Os16  1  0.608532  0.844736  0.897944  1
  Os  Os17  1  0.646306  0.115359  0.396574  1
