# generated using pymatgen
data_La4DyTc6P12Ir13
_symmetry_space_group_name_H-M   'P 1'
_cell_length_a   12.79277600
_cell_length_b   12.79277550
_cell_length_c   4.03935000
_cell_angle_alpha   90.00000000
_cell_angle_beta   90.00000000
_cell_angle_gamma   119.99999612
_symmetry_Int_Tables_number   1
_chemical_formula_structural   La4DyTc6P12Ir13
_chemical_formula_sum   'La4 Dy1 Tc6 P12 Ir13'
_cell_volume   572.49501321
_cell_formula_units_Z   1
loop_
 _symmetry_equiv_pos_site_id
 _symmetry_equiv_pos_as_xyz
  1  'x, y, z'
loop_
 _atom_site_type_symbol
 _atom_site_label
 _atom_site_symmetry_multiplicity
 _atom_site_fract_x
 _atom_site_fract_y
 _atom_site_fract_z
 _atom_site_occupancy
  La  La0  1  0.333333  0.666667  0.500000  1
  La  La1  1  0.000710  0.812623  0.000000  1
  La  La2  1  0.187377  0.188087  0.000000  1
  La  La3  1  0.811913  0.999290  0.000000  1
  Dy  Dy4  1  0.666667  0.333333  0.500000  1
  Tc  Tc5  1  0.989459  0.445466  0.500000  1
  Tc  Tc6  1  0.554534  0.543993  0.500000  1
  Tc  Tc7  1  0.456007  0.010541  0.500000  1
  Tc  Tc8  1  0.619175  0.797119  0.500000  1
  Tc  Tc9  1  0.202881  0.822056  0.500000  1
  Tc  Tc10  1  0.177944  0.380825  0.500000  1
  P  P11  1  0.007852  0.635238  0.500000  1
  P  P12  1  0.364762  0.372615  0.500000  1
  P  P13  1  0.627385  0.992148  0.500000  1
  P  P14  1  0.523676  0.694784  0.000000  1
  P  P15  1  0.305216  0.828892  0.000000  1
  P  P16  1  0.171108  0.476324  0.000000  1
  P  P17  1  0.483253  0.169958  0.000000  1
  P  P18  1  0.686705  0.516747  0.000000  1
  P  P19  1  0.830042  0.313295  0.000000  1
  P  P20  1  0.002012  0.185820  0.500000  1
  P  P21  1  0.814180  0.816191  0.500000  1
  P  P22  1  0.183809  0.997988  0.500000  1
  Ir  Ir23  1  0.509338  0.879019  0.000000  1
  Ir  Ir24  1  0.120981  0.630320  0.000000  1
  Ir  Ir25  1  0.369680  0.490662  0.000000  1
  Ir  Ir26  1  0.495934  0.358822  0.000000  1
  Ir  Ir27  1  0.862888  0.504066  0.000000  1
  Ir  Ir28  1  0.641178  0.137112  0.000000  1
  Ir  Ir29  1  0.994391  0.284918  0.000000  1
  Ir  Ir30  1  0.715082  0.709474  0.000000  1
  Ir  Ir31  1  0.290526  0.005609  0.000000  1
  Ir  Ir32  1  0.379118  0.186141  0.500000  1
  Ir  Ir33  1  0.807023  0.620882  0.500000  1
  Ir  Ir34  1  0.813859  0.192977  0.500000  1
  Ir  Ir35  1  0.000000  0.000000  0.500000  1
