# generated using pymatgen
data_NiBi6(SO8)2
_symmetry_space_group_name_H-M   'P 1'
_cell_length_a   5.66734390
_cell_length_b   31.21206601
_cell_length_c   8.99578000
_cell_angle_alpha   88.32048197
_cell_angle_beta   108.36081030
_cell_angle_gamma   90.00594802
_symmetry_Int_Tables_number   1
_chemical_formula_structural   NiBi6(SO8)2
_chemical_formula_sum   'Ni4 Bi24 S8 O64'
_cell_volume   1509.53213115
_cell_formula_units_Z   4
loop_
 _symmetry_equiv_pos_site_id
 _symmetry_equiv_pos_as_xyz
  1  'x, y, z'
loop_
 _atom_site_type_symbol
 _atom_site_label
 _atom_site_symmetry_multiplicity
 _atom_site_fract_x
 _atom_site_fract_y
 _atom_site_fract_z
 _atom_site_occupancy
  Ni  Ni0  1  0.141135  0.499918  0.000181  1
  Ni  Ni1  1  0.641284  0.249946  0.999969  1
  Ni  Ni2  1  0.645194  0.750026  0.999938  1
  Ni  Ni3  1  0.140736  0.000079  0.999782  1
  Bi  Bi4  1  0.443661  0.665175  0.647781  1
  Bi  Bi5  1  0.941869  0.915605  0.645391  1
  Bi  Bi6  1  0.442470  0.165374  0.646774  1
  Bi  Bi7  1  0.942316  0.415298  0.646702  1
  Bi  Bi8  1  0.296209  0.584456  0.354523  1
  Bi  Bi9  1  0.795787  0.834873  0.352161  1
  Bi  Bi10  1  0.295552  0.084650  0.353488  1
  Bi  Bi11  1  0.795429  0.334605  0.353351  1
  Bi  Bi12  1  0.968735  0.587681  0.693653  1
  Bi  Bi13  1  0.467529  0.837934  0.692177  1
  Bi  Bi14  1  0.967784  0.087786  0.692904  1
  Bi  Bi15  1  0.467741  0.337708  0.692971  1
  Bi  Bi16  1  0.775089  0.662110  0.307752  1
  Bi  Bi17  1  0.274982  0.912365  0.306219  1
  Bi  Bi18  1  0.774788  0.162238  0.307066  1
  Bi  Bi19  1  0.274664  0.412176  0.307093  1
  Bi  Bi20  1  0.052564  0.666428  0.011603  1
  Bi  Bi21  1  0.550981  0.916702  0.009098  1
  Bi  Bi22  1  0.051312  0.166526  0.010108  1
  Bi  Bi23  1  0.551249  0.416531  0.010079  1
  Bi  Bi24  1  0.541850  0.583351  0.990891  1
  Bi  Bi25  1  0.040855  0.833663  0.988370  1
  Bi  Bi26  1  0.541180  0.083482  0.989946  1
  Bi  Bi27  1  0.041270  0.333391  0.990001  1
  S  S28  1  0.044350  0.745855  0.727532  1
  S  S29  1  0.543533  0.996107  0.724853  1
  S  S30  1  0.044096  0.245904  0.725622  1
  S  S31  1  0.544033  0.495937  0.725706  1
  S  S32  1  0.818969  0.503926  0.274881  1
  S  S33  1  0.317318  0.754224  0.272558  1
  S  S34  1  0.818571  0.004048  0.274508  1
  S  S35  1  0.318607  0.253985  0.274353  1
  O  O36  1  0.126560  0.624941  0.501170  1
  O  O37  1  0.625468  0.875169  0.498849  1
  O  O38  1  0.125527  0.124978  0.499997  1
  O  O39  1  0.625408  0.374960  0.500033  1
  O  O40  1  0.604899  0.624937  0.500707  1
  O  O41  1  0.104297  0.875148  0.499332  1
  O  O42  1  0.604394  0.124972  0.499965  1
  O  O43  1  0.104311  0.374932  0.500083  1
  O  O44  1  0.311336  0.736530  0.820489  1
  O  O45  1  0.809936  0.986962  0.820136  1
  O  O46  1  0.310245  0.236592  0.820970  1
  O  O47  1  0.810056  0.486626  0.821053  1
  O  O48  1  0.990301  0.513139  0.179843  1
  O  O49  1  0.491485  0.763536  0.179664  1
  O  O50  1  0.989988  0.013240  0.179487  1
  O  O51  1  0.489744  0.263264  0.179277  1
  O  O52  1  0.882883  0.731250  0.824769  1
  O  O53  1  0.379186  0.981306  0.819810  1
  O  O54  1  0.879374  0.231052  0.820251  1
  O  O55  1  0.379210  0.481057  0.820140  1
  O  O56  1  0.559772  0.518693  0.179773  1
  O  O57  1  0.058561  0.768818  0.175162  1
  O  O58  1  0.559448  0.018899  0.179581  1
  O  O59  1  0.059445  0.268822  0.179544  1
  O  O60  1  0.981393  0.721794  0.582059  1
  O  O61  1  0.485588  0.972128  0.579274  1
  O  O62  1  0.986105  0.222017  0.579833  1
  O  O63  1  0.486168  0.472080  0.579825  1
  O  O64  1  0.906128  0.527933  0.420381  1
  O  O65  1  0.399677  0.778294  0.418005  1
  O  O66  1  0.906097  0.027967  0.420298  1
  O  O67  1  0.406122  0.277901  0.420115  1
  O  O68  1  0.507246  0.543346  0.695034  1
  O  O69  1  0.007266  0.793278  0.696393  1
  O  O70  1  0.506019  0.043535  0.693587  1
  O  O71  1  0.007314  0.293322  0.694858  1
  O  O72  1  0.311222  0.706798  0.303727  1
  O  O73  1  0.812052  0.956615  0.305471  1
  O  O74  1  0.312430  0.206584  0.305246  1
  O  O75  1  0.812947  0.456542  0.306113  1
  O  O76  1  0.166270  0.559455  0.940670  1
  O  O77  1  0.665157  0.809698  0.938872  1
  O  O78  1  0.165426  0.059601  0.940055  1
  O  O79  1  0.665646  0.309461  0.939832  1
  O  O80  1  0.726229  0.690358  0.061096  1
  O  O81  1  0.225307  0.940539  0.059124  1
  O  O82  1  0.725719  0.190431  0.060088  1
  O  O83  1  0.225518  0.440390  0.060071  1
  O  O84  1  0.292693  0.629797  0.813861  1
  O  O85  1  0.791017  0.880139  0.811744  1
  O  O86  1  0.291605  0.129865  0.813039  1
  O  O87  1  0.791667  0.379800  0.813044  1
  O  O88  1  0.979108  0.619982  0.188158  1
  O  O89  1  0.478634  0.870276  0.186041  1
  O  O90  1  0.978572  0.120067  0.187086  1
  O  O91  1  0.478572  0.370092  0.187014  1
  O  O92  1  0.789467  0.631296  0.818349  1
  O  O93  1  0.288303  0.881551  0.816609  1
  O  O94  1  0.788520  0.131291  0.817713  1
  O  O95  1  0.288646  0.381274  0.817780  1
  O  O96  1  0.471519  0.618517  0.183317  1
  O  O97  1  0.970849  0.868798  0.181568  1
  O  O98  1  0.470562  0.118670  0.182280  1
  O  O99  1  0.970551  0.368629  0.182298  1
