# generated using pymatgen
data_YEr7(Ta3Ge4)4
_symmetry_space_group_name_H-M   'P 1'
_cell_length_a   6.98317131
_cell_length_b   7.14299728
_cell_length_c   13.51695608
_cell_angle_alpha   90.00970985
_cell_angle_beta   89.98809700
_cell_angle_gamma   90.00514056
_symmetry_Int_Tables_number   1
_chemical_formula_structural   YEr7(Ta3Ge4)4
_chemical_formula_sum   'Y1 Er7 Ta12 Ge16'
_cell_volume   674.23620028
_cell_formula_units_Z   1
loop_
 _symmetry_equiv_pos_site_id
 _symmetry_equiv_pos_as_xyz
  1  'x, y, z'
loop_
 _atom_site_type_symbol
 _atom_site_label
 _atom_site_symmetry_multiplicity
 _atom_site_fract_x
 _atom_site_fract_y
 _atom_site_fract_z
 _atom_site_occupancy
  Y  Y0  1  0.996185  0.173491  0.094076  1
  Er  Er1  1  0.495717  0.326207  0.094244  1
  Er  Er2  1  0.995650  0.173875  0.405737  1
  Er  Er3  1  0.504247  0.674028  0.594258  1
  Er  Er4  1  0.004311  0.825993  0.905457  1
  Er  Er5  1  0.504479  0.673737  0.905467  1
  Er  Er6  1  0.004310  0.826127  0.594300  1
  Er  Er7  1  0.495751  0.326183  0.406128  1
  Ta  Ta8  1  0.663998  0.014136  0.749847  1
  Ta  Ta9  1  0.164003  0.486023  0.749853  1
  Ta  Ta10  1  0.335943  0.985684  0.250182  1
  Ta  Ta11  1  0.835775  0.514125  0.250161  1
  Ta  Ta12  1  0.840041  0.329747  0.625818  1
  Ta  Ta13  1  0.340118  0.170297  0.873992  1
  Ta  Ta14  1  0.159824  0.670030  0.125947  1
  Ta  Ta15  1  0.659639  0.829482  0.374358  1
  Ta  Ta16  1  0.160107  0.670328  0.374399  1
  Ta  Ta17  1  0.659690  0.829636  0.126076  1
  Ta  Ta18  1  0.839632  0.330262  0.873865  1
  Ta  Ta19  1  0.339958  0.170261  0.625865  1
  Ge  Ge20  1  0.804642  0.641826  0.749780  1
  Ge  Ge21  1  0.304733  0.858272  0.749896  1
  Ge  Ge22  1  0.195958  0.358948  0.250610  1
  Ge  Ge23  1  0.694679  0.141614  0.250420  1
  Ge  Ge24  1  0.539815  0.380174  0.749811  1
  Ge  Ge25  1  0.039826  0.120018  0.750016  1
  Ge  Ge26  1  0.460103  0.619821  0.250160  1
  Ge  Ge27  1  0.959865  0.879443  0.250370  1
  Ge  Ge28  1  0.677242  0.037428  0.541597  1
  Ge  Ge29  1  0.177397  0.463025  0.958037  1
  Ge  Ge30  1  0.324404  0.961343  0.041230  1
  Ge  Ge31  1  0.822892  0.537441  0.458579  1
  Ge  Ge32  1  0.322754  0.962672  0.458599  1
  Ge  Ge33  1  0.822429  0.538446  0.041225  1
  Ge  Ge34  1  0.676648  0.037359  0.958034  1
  Ge  Ge35  1  0.177236  0.462517  0.541609  1
