# generated using pymatgen
data_Tb4LuIr3
_symmetry_space_group_name_H-M   'P 1'
_cell_length_a   10.90542400
_cell_length_b   10.90542400
_cell_length_c   6.36055800
_cell_angle_alpha   90.00000000
_cell_angle_beta   90.00000000
_cell_angle_gamma   90.00000000
_symmetry_Int_Tables_number   1
_chemical_formula_structural   Tb4LuIr3
_chemical_formula_sum   'Tb16 Lu4 Ir12'
_cell_volume   756.45017584
_cell_formula_units_Z   4
loop_
 _symmetry_equiv_pos_site_id
 _symmetry_equiv_pos_as_xyz
  1  'x, y, z'
loop_
 _atom_site_type_symbol
 _atom_site_label
 _atom_site_symmetry_multiplicity
 _atom_site_fract_x
 _atom_site_fract_y
 _atom_site_fract_z
 _atom_site_occupancy
  Tb  Tb0  1  0.289959  0.087677  0.378353  1
  Tb  Tb1  1  0.289959  0.912323  0.878353  1
  Tb  Tb2  1  0.710041  0.087677  0.878353  1
  Tb  Tb3  1  0.710041  0.912323  0.378353  1
  Tb  Tb4  1  0.587677  0.789959  0.878353  1
  Tb  Tb5  1  0.587677  0.210041  0.378353  1
  Tb  Tb6  1  0.412323  0.789959  0.378353  1
  Tb  Tb7  1  0.412323  0.210041  0.878353  1
  Tb  Tb8  1  0.210041  0.412323  0.621647  1
  Tb  Tb9  1  0.210041  0.587677  0.121647  1
  Tb  Tb10  1  0.789959  0.412323  0.121647  1
  Tb  Tb11  1  0.789959  0.587677  0.621647  1
  Tb  Tb12  1  0.912323  0.710041  0.121647  1
  Tb  Tb13  1  0.912323  0.289959  0.621647  1
  Tb  Tb14  1  0.087677  0.710041  0.621647  1
  Tb  Tb15  1  0.087677  0.289959  0.121647  1
  Lu  Lu16  1  0.000000  0.000000  0.500000  1
  Lu  Lu17  1  0.000000  0.000000  0.000000  1
  Lu  Lu18  1  0.500000  0.500000  0.000000  1
  Lu  Lu19  1  0.500000  0.500000  0.500000  1
  Ir  Ir20  1  0.849226  0.150774  0.250000  1
  Ir  Ir21  1  0.849226  0.849226  0.750000  1
  Ir  Ir22  1  0.150774  0.150774  0.750000  1
  Ir  Ir23  1  0.150774  0.849226  0.250000  1
  Ir  Ir24  1  0.650774  0.349226  0.750000  1
  Ir  Ir25  1  0.650774  0.650774  0.250000  1
  Ir  Ir26  1  0.349226  0.349226  0.250000  1
  Ir  Ir27  1  0.349226  0.650774  0.750000  1
  Ir  Ir28  1  0.500000  0.000000  0.122126  1
  Ir  Ir29  1  0.500000  0.000000  0.622126  1
  Ir  Ir30  1  0.000000  0.500000  0.877874  1
  Ir  Ir31  1  0.000000  0.500000  0.377874  1
