# generated using pymatgen
data_Er17Lu3Sn16
_symmetry_space_group_name_H-M   'P 1'
_cell_length_a   7.99675501
_cell_length_b   8.07783400
_cell_length_c   15.34169800
_cell_angle_alpha   90.00000000
_cell_angle_beta   90.00000000
_cell_angle_gamma   89.95716199
_symmetry_Int_Tables_number   1
_chemical_formula_structural   Er17Lu3Sn16
_chemical_formula_sum   'Er17 Lu3 Sn16'
_cell_volume   991.01909685
_cell_formula_units_Z   1
loop_
 _symmetry_equiv_pos_site_id
 _symmetry_equiv_pos_as_xyz
  1  'x, y, z'
loop_
 _atom_site_type_symbol
 _atom_site_label
 _atom_site_symmetry_multiplicity
 _atom_site_fract_x
 _atom_site_fract_y
 _atom_site_fract_z
 _atom_site_occupancy
  Er  Er0  1  0.377810  0.839845  0.878682  1
  Er  Er1  1  0.877750  0.660104  0.621127  1
  Er  Er2  1  0.622518  0.160398  0.378987  1
  Er  Er3  1  0.122025  0.339968  0.121012  1
  Er  Er4  1  0.622518  0.160398  0.121013  1
  Er  Er5  1  0.122025  0.339968  0.378988  1
  Er  Er6  1  0.377810  0.839845  0.621318  1
  Er  Er7  1  0.877750  0.660104  0.878873  1
  Er  Er8  1  0.534166  0.323050  0.900310  1
  Er  Er9  1  0.034160  0.176990  0.599803  1
  Er  Er10  1  0.466011  0.676790  0.400398  1
  Er  Er11  1  0.965738  0.822820  0.099606  1
  Er  Er12  1  0.466011  0.676790  0.099602  1
  Er  Er13  1  0.965738  0.822820  0.400394  1
  Er  Er14  1  0.534166  0.323050  0.599690  1
  Er  Er15  1  0.034160  0.176990  0.900197  1
  Er  Er16  1  0.290919  0.004476  0.250000  1
  Lu  Lu17  1  0.209100  0.504600  0.750000  1
  Lu  Lu18  1  0.709121  0.995363  0.750000  1
  Lu  Lu19  1  0.790751  0.495313  0.250000  1
  Sn  Sn20  1  0.283483  0.033426  0.042448  1
  Sn  Sn21  1  0.783483  0.466784  0.456988  1
  Sn  Sn22  1  0.716469  0.966816  0.543178  1
  Sn  Sn23  1  0.216589  0.533337  0.956854  1
  Sn  Sn24  1  0.716469  0.966816  0.956822  1
  Sn  Sn25  1  0.216589  0.533337  0.543146  1
  Sn  Sn26  1  0.283483  0.033426  0.457552  1
  Sn  Sn27  1  0.783483  0.466784  0.043012  1
  Sn  Sn28  1  0.574737  0.622624  0.750000  1
  Sn  Sn29  1  0.074597  0.877163  0.750000  1
  Sn  Sn30  1  0.425487  0.377970  0.250000  1
  Sn  Sn31  1  0.924405  0.123215  0.250000  1
  Sn  Sn32  1  0.343621  0.150140  0.750000  1
  Sn  Sn33  1  0.843599  0.350022  0.750000  1
  Sn  Sn34  1  0.656918  0.849781  0.250000  1
  Sn  Sn35  1  0.156340  0.648676  0.250000  1
