# generated using pymatgen
data_Lu4VRe7
_symmetry_space_group_name_H-M   'P 1'
_cell_length_a   5.33632900
_cell_length_b   5.33636847
_cell_length_c   8.76025400
_cell_angle_alpha   89.99761642
_cell_angle_beta   90.00165349
_cell_angle_gamma   120.01356130
_symmetry_Int_Tables_number   1
_chemical_formula_structural   Lu4VRe7
_chemical_formula_sum   'Lu4 V1 Re7'
_cell_volume   216.01125163
_cell_formula_units_Z   1
loop_
 _symmetry_equiv_pos_site_id
 _symmetry_equiv_pos_as_xyz
  1  'x, y, z'
loop_
 _atom_site_type_symbol
 _atom_site_label
 _atom_site_symmetry_multiplicity
 _atom_site_fract_x
 _atom_site_fract_y
 _atom_site_fract_z
 _atom_site_occupancy
  Lu  Lu0  1  0.666629  0.333392  0.062139  1
  Lu  Lu1  1  0.333371  0.666608  0.937861  1
  Lu  Lu2  1  0.333390  0.666600  0.562694  1
  Lu  Lu3  1  0.666610  0.333400  0.437306  1
  V  V4  1  0.000000  0.000000  0.500000  1
  Re  Re5  1  0.000000  0.000000  0.000000  1
  Re  Re6  1  0.169881  0.340202  0.252128  1
  Re  Re7  1  0.169961  0.830041  0.252118  1
  Re  Re8  1  0.659800  0.830120  0.252122  1
  Re  Re9  1  0.830119  0.659798  0.747872  1
  Re  Re10  1  0.830039  0.169959  0.747882  1
  Re  Re11  1  0.340200  0.169880  0.747878  1
