# generated using pymatgen
data_Rb2Ho3Tm3Se10
_symmetry_space_group_name_H-M   'P 1'
_cell_length_a   4.10967100
_cell_length_b   12.24280647
_cell_length_c   21.99850773
_cell_angle_alpha   90.16915966
_cell_angle_beta   90.00000000
_cell_angle_gamma   90.00000000
_symmetry_Int_Tables_number   1
_chemical_formula_structural   Rb2Ho3Tm3Se10
_chemical_formula_sum   'Rb4 Ho6 Tm6 Se20'
_cell_volume   1106.82604203
_cell_formula_units_Z   2
loop_
 _symmetry_equiv_pos_site_id
 _symmetry_equiv_pos_as_xyz
  1  'x, y, z'
loop_
 _atom_site_type_symbol
 _atom_site_label
 _atom_site_symmetry_multiplicity
 _atom_site_fract_x
 _atom_site_fract_y
 _atom_site_fract_z
 _atom_site_occupancy
  Rb  Rb0  1  0.250000  0.847400  0.095008  1
  Rb  Rb1  1  0.750000  0.152600  0.904992  1
  Rb  Rb2  1  0.750000  0.348104  0.405147  1
  Rb  Rb3  1  0.250000  0.651896  0.594853  1
  Ho  Ho4  1  0.750000  0.800429  0.828081  1
  Ho  Ho5  1  0.250000  0.199571  0.171919  1
  Ho  Ho6  1  0.250000  0.302478  0.672341  1
  Ho  Ho7  1  0.750000  0.697522  0.327659  1
  Ho  Ho8  1  0.250000  0.957842  0.698602  1
  Ho  Ho9  1  0.750000  0.042158  0.301398  1
  Tm  Tm10  1  0.750000  0.457150  0.802223  1
  Tm  Tm11  1  0.250000  0.542850  0.197777  1
  Tm  Tm12  1  0.750000  0.390816  0.053000  1
  Tm  Tm13  1  0.250000  0.609184  0.947000  1
  Tm  Tm14  1  0.250000  0.890225  0.446820  1
  Tm  Tm15  1  0.750000  0.109775  0.553180  1
  Se  Se16  1  0.250000  0.948221  0.569066  1
  Se  Se17  1  0.750000  0.051779  0.430934  1
  Se  Se18  1  0.750000  0.447778  0.930657  1
  Se  Se19  1  0.250000  0.552222  0.069343  1
  Se  Se20  1  0.750000  0.766254  0.955993  1
  Se  Se21  1  0.250000  0.233746  0.044007  1
  Se  Se22  1  0.250000  0.267164  0.544391  1
  Se  Se23  1  0.750000  0.732836  0.455609  1
  Se  Se24  1  0.250000  0.956426  0.827738  1
  Se  Se25  1  0.750000  0.043574  0.172262  1
  Se  Se26  1  0.750000  0.458324  0.674129  1
  Se  Se27  1  0.250000  0.541676  0.325871  1
  Se  Se28  1  0.750000  0.129093  0.683390  1
  Se  Se29  1  0.250000  0.870907  0.316610  1
  Se  Se30  1  0.250000  0.626790  0.816847  1
  Se  Se31  1  0.750000  0.373210  0.183153  1
  Se  Se32  1  0.750000  0.694751  0.198502  1
  Se  Se33  1  0.250000  0.305249  0.801498  1
  Se  Se34  1  0.250000  0.196344  0.301141  1
  Se  Se35  1  0.750000  0.803656  0.698859  1
