# generated using pymatgen
data_KPtRh3Se8
_symmetry_space_group_name_H-M   'P 1'
_cell_length_a   3.80141774
_cell_length_b   8.33633483
_cell_length_c   9.51220927
_cell_angle_alpha   81.38498153
_cell_angle_beta   78.47369246
_cell_angle_gamma   76.82047916
_symmetry_Int_Tables_number   1
_chemical_formula_structural   KPtRh3Se8
_chemical_formula_sum   'K1 Pt1 Rh3 Se8'
_cell_volume   285.86039116
_cell_formula_units_Z   1
loop_
 _symmetry_equiv_pos_site_id
 _symmetry_equiv_pos_as_xyz
  1  'x, y, z'
loop_
 _atom_site_type_symbol
 _atom_site_label
 _atom_site_symmetry_multiplicity
 _atom_site_fract_x
 _atom_site_fract_y
 _atom_site_fract_z
 _atom_site_occupancy
  K  K0  1  0.498012  0.000342  0.003633  1
  Pt  Pt1  1  0.634721  0.194594  0.535963  1
  Rh  Rh2  1  0.837678  0.501901  0.822741  1
  Rh  Rh3  1  0.163394  0.497600  0.175613  1
  Rh  Rh4  1  0.366549  0.803023  0.463878  1
  Se  Se5  1  0.454287  0.320317  0.771110  1
  Se  Se6  1  0.544243  0.679721  0.231792  1
  Se  Se7  1  0.895219  0.636772  0.572791  1
  Se  Se8  1  0.101010  0.371076  0.426904  1
  Se  Se9  1  0.208641  0.657394  0.925324  1
  Se  Se10  1  0.791757  0.342602  0.073885  1
  Se  Se11  1  0.833086  0.983623  0.350206  1
  Se  Se12  1  0.171403  0.011036  0.646159  1
