# generated using pymatgen
data_Dy2AlCoRu
_symmetry_space_group_name_H-M   'P 1'
_cell_length_a   5.50517337
_cell_length_b   5.50517298
_cell_length_c   5.50517344
_cell_angle_alpha   136.93585622
_cell_angle_beta   118.76295549
_cell_angle_gamma   77.77351687
_symmetry_Int_Tables_number   1
_chemical_formula_structural   Dy2AlCoRu
_chemical_formula_sum   'Dy2 Al1 Co1 Ru1'
_cell_volume   97.10726965
_cell_formula_units_Z   1
loop_
 _symmetry_equiv_pos_site_id
 _symmetry_equiv_pos_as_xyz
  1  'x, y, z'
loop_
 _atom_site_type_symbol
 _atom_site_label
 _atom_site_symmetry_multiplicity
 _atom_site_fract_x
 _atom_site_fract_y
 _atom_site_fract_z
 _atom_site_occupancy
  Dy  Dy0  1  0.286127  0.792654  0.493472  1
  Dy  Dy1  1  0.700818  0.207346  0.493472  1
  Al  Al2  1  0.993828  0.000000  0.993828  1
  Co  Co3  1  0.726701  0.500000  0.226701  1
  Ru  Ru4  1  0.292526  0.500000  0.792526  1
