# generated using pymatgen
data_SrSmSi7Ir12
_symmetry_space_group_name_H-M   'P 1'
_cell_length_a   9.79864000
_cell_length_b   9.79863986
_cell_length_c   3.90591500
_cell_angle_alpha   90.00000000
_cell_angle_beta   90.00000000
_cell_angle_gamma   120.00000048
_symmetry_Int_Tables_number   1
_chemical_formula_structural   SrSmSi7Ir12
_chemical_formula_sum   'Sr1 Sm1 Si7 Ir12'
_cell_volume   324.77681278
_cell_formula_units_Z   1
loop_
 _symmetry_equiv_pos_site_id
 _symmetry_equiv_pos_as_xyz
  1  'x, y, z'
loop_
 _atom_site_type_symbol
 _atom_site_label
 _atom_site_symmetry_multiplicity
 _atom_site_fract_x
 _atom_site_fract_y
 _atom_site_fract_z
 _atom_site_occupancy
  Sr  Sr0  1  0.666667  0.333333  0.250265  1
  Sm  Sm1  1  0.333333  0.666667  0.750186  1
  Si  Si2  1  0.000000  0.000000  0.500907  1
  Si  Si3  1  0.290767  0.887674  0.248805  1
  Si  Si4  1  0.596907  0.709233  0.248805  1
  Si  Si5  1  0.112326  0.403093  0.248805  1
  Si  Si6  1  0.711565  0.113908  0.750871  1
  Si  Si7  1  0.402343  0.288435  0.750871  1
  Si  Si8  1  0.886092  0.597657  0.750871  1
  Ir  Ir9  1  0.259896  0.116405  0.253920  1
  Ir  Ir10  1  0.856511  0.740104  0.253920  1
  Ir  Ir11  1  0.883595  0.143489  0.253920  1
  Ir  Ir12  1  0.740552  0.884909  0.745720  1
  Ir  Ir13  1  0.144356  0.259448  0.745720  1
  Ir  Ir14  1  0.115091  0.855644  0.745720  1
  Ir  Ir15  1  0.064001  0.621404  0.248738  1
  Ir  Ir16  1  0.557404  0.935999  0.248738  1
  Ir  Ir17  1  0.378596  0.442596  0.248738  1
  Ir  Ir18  1  0.944964  0.384698  0.751494  1
  Ir  Ir19  1  0.439731  0.055036  0.751494  1
  Ir  Ir20  1  0.615302  0.560269  0.751494  1
