# generated using pymatgen
data_Tb8Be3Si13W12
_symmetry_space_group_name_H-M   'P 1'
_cell_length_a   6.74113306
_cell_length_b   6.86120223
_cell_length_c   12.94049900
_cell_angle_alpha   90.00000000
_cell_angle_beta   90.00000000
_cell_angle_gamma   89.85199601
_symmetry_Int_Tables_number   1
_chemical_formula_structural   Tb8Be3Si13W12
_chemical_formula_sum   'Tb8 Be3 Si13 W12'
_cell_volume   598.52554942
_cell_formula_units_Z   1
loop_
 _symmetry_equiv_pos_site_id
 _symmetry_equiv_pos_as_xyz
  1  'x, y, z'
loop_
 _atom_site_type_symbol
 _atom_site_label
 _atom_site_symmetry_multiplicity
 _atom_site_fract_x
 _atom_site_fract_y
 _atom_site_fract_z
 _atom_site_occupancy
  Tb  Tb0  1  0.502034  0.666226  0.596423  1
  Tb  Tb1  1  0.001114  0.834236  0.904000  1
  Tb  Tb2  1  0.501224  0.335784  0.093576  1
  Tb  Tb3  1  0.001154  0.168241  0.405758  1
  Tb  Tb4  1  0.501224  0.335784  0.406424  1
  Tb  Tb5  1  0.001154  0.168241  0.094242  1
  Tb  Tb6  1  0.502034  0.666226  0.903577  1
  Tb  Tb7  1  0.001114  0.834236  0.596000  1
  Be  Be8  1  0.456648  0.370594  0.750000  1
  Be  Be9  1  0.956105  0.129700  0.750000  1
  Be  Be10  1  0.542703  0.629571  0.250000  1
  Si  Si11  1  0.661741  0.957200  0.456876  1
  Si  Si12  1  0.161333  0.542669  0.042952  1
  Si  Si13  1  0.338944  0.043892  0.956281  1
  Si  Si14  1  0.839271  0.454861  0.544870  1
  Si  Si15  1  0.338944  0.043892  0.543719  1
  Si  Si16  1  0.839271  0.454861  0.955130  1
  Si  Si17  1  0.661741  0.957200  0.043124  1
  Si  Si18  1  0.161333  0.542669  0.457048  1
  Si  Si19  1  0.037286  0.871497  0.250000  1
  Si  Si20  1  0.706352  0.879112  0.750000  1
  Si  Si21  1  0.206284  0.620136  0.750000  1
  Si  Si22  1  0.301431  0.132944  0.250000  1
  Si  Si23  1  0.792494  0.377091  0.250000  1
  W  W24  1  0.660850  0.171061  0.629043  1
  W  W25  1  0.161466  0.327923  0.870791  1
  W  W26  1  0.339028  0.830269  0.127624  1
  W  W27  1  0.833231  0.664880  0.374268  1
  W  W28  1  0.339028  0.830269  0.372376  1
  W  W29  1  0.833231  0.664880  0.125732  1
  W  W30  1  0.660850  0.171061  0.870957  1
  W  W31  1  0.161466  0.327923  0.629209  1
  W  W32  1  0.837226  0.483386  0.750000  1
  W  W33  1  0.336605  0.016737  0.750000  1
  W  W34  1  0.163175  0.508201  0.250000  1
  W  W35  1  0.660909  0.986549  0.250000  1
