# generated using pymatgen
data_Ho6Co13Si12Ru5
_symmetry_space_group_name_H-M   'P 1'
_cell_length_a   3.84821500
_cell_length_b   10.71979141
_cell_length_c   12.52630550
_cell_angle_alpha   90.33950523
_cell_angle_beta   90.00000000
_cell_angle_gamma   90.00000000
_symmetry_Int_Tables_number   1
_chemical_formula_structural   Ho6Co13Si12Ru5
_chemical_formula_sum   'Ho6 Co13 Si12 Ru5'
_cell_volume   516.72686089
_cell_formula_units_Z   1
loop_
 _symmetry_equiv_pos_site_id
 _symmetry_equiv_pos_as_xyz
  1  'x, y, z'
loop_
 _atom_site_type_symbol
 _atom_site_label
 _atom_site_symmetry_multiplicity
 _atom_site_fract_x
 _atom_site_fract_y
 _atom_site_fract_z
 _atom_site_occupancy
  Ho  Ho0  1  0.000000  0.500701  0.526125  1
  Ho  Ho1  1  0.500000  0.997353  0.475968  1
  Ho  Ho2  1  0.500000  0.816923  0.202800  1
  Ho  Ho3  1  0.500000  0.185515  0.201123  1
  Ho  Ho4  1  0.000000  0.683967  0.797310  1
  Ho  Ho5  1  0.000000  0.314482  0.798436  1
  Co  Co6  1  0.000000  0.500247  0.977742  1
  Co  Co7  1  0.500000  0.999805  0.021609  1
  Co  Co8  1  0.000000  0.802112  0.573506  1
  Co  Co9  1  0.500000  0.881779  0.712286  1
  Co  Co10  1  0.500000  0.113994  0.714637  1
  Co  Co11  1  0.000000  0.618402  0.286539  1
  Co  Co12  1  0.000000  0.385001  0.284016  1
  Co  Co13  1  0.500000  0.330232  0.990326  1
  Co  Co14  1  0.500000  0.670458  0.990656  1
  Co  Co15  1  0.000000  0.169121  0.008040  1
  Co  Co16  1  0.000000  0.829822  0.009208  1
  Co  Co17  1  0.500000  0.501475  0.698324  1
  Co  Co18  1  0.000000  0.999954  0.301686  1
  Si  Si19  1  0.500000  0.304249  0.620952  1
  Si  Si20  1  0.500000  0.698465  0.619895  1
  Si  Si21  1  0.000000  0.195626  0.379146  1
  Si  Si22  1  0.000000  0.807605  0.384159  1
  Si  Si23  1  0.500000  0.500119  0.882191  1
  Si  Si24  1  0.000000  0.000423  0.117655  1
  Si  Si25  1  0.500000  0.851564  0.896959  1
  Si  Si26  1  0.500000  0.146811  0.897161  1
  Si  Si27  1  0.000000  0.648398  0.102851  1
  Si  Si28  1  0.000000  0.352397  0.101366  1
  Si  Si29  1  0.500000  0.501983  0.332378  1
  Si  Si30  1  0.000000  0.994633  0.665237  1
  Ru  Ru31  1  0.500000  0.306838  0.428243  1
  Ru  Ru32  1  0.500000  0.697982  0.431651  1
  Ru  Ru33  1  0.000000  0.192447  0.571720  1
  Ru  Ru34  1  0.500000  0.501654  0.144203  1
  Ru  Ru35  1  0.000000  0.997462  0.853893  1
