# generated using pymatgen
data_Lu3Al12CuOs3
_symmetry_space_group_name_H-M   'P 1'
_cell_length_a   8.73464000
_cell_length_b   8.73464174
_cell_length_c   9.54872300
_cell_angle_alpha   90.00000000
_cell_angle_beta   90.00000000
_cell_angle_gamma   119.59748599
_symmetry_Int_Tables_number   1
_chemical_formula_structural   Lu3Al12CuOs3
_chemical_formula_sum   'Lu6 Al24 Cu2 Os6'
_cell_volume   633.45137049
_cell_formula_units_Z   2
loop_
 _symmetry_equiv_pos_site_id
 _symmetry_equiv_pos_as_xyz
  1  'x, y, z'
loop_
 _atom_site_type_symbol
 _atom_site_label
 _atom_site_symmetry_multiplicity
 _atom_site_fract_x
 _atom_site_fract_y
 _atom_site_fract_z
 _atom_site_occupancy
  Lu  Lu0  1  0.184605  0.386741  0.250000  1
  Lu  Lu1  1  0.815395  0.613259  0.750000  1
  Lu  Lu2  1  0.613259  0.815395  0.250000  1
  Lu  Lu3  1  0.386741  0.184605  0.750000  1
  Lu  Lu4  1  0.196558  0.803442  0.250000  1
  Lu  Lu5  1  0.803442  0.196558  0.750000  1
  Al  Al6  1  0.332925  0.667075  0.026103  1
  Al  Al7  1  0.667075  0.332925  0.973897  1
  Al  Al8  1  0.667075  0.332925  0.526103  1
  Al  Al9  1  0.332925  0.667075  0.473897  1
  Al  Al10  1  0.159264  0.325000  0.577743  1
  Al  Al11  1  0.840736  0.675000  0.422257  1
  Al  Al12  1  0.675000  0.840736  0.577743  1
  Al  Al13  1  0.840736  0.675000  0.077743  1
  Al  Al14  1  0.325000  0.159264  0.422257  1
  Al  Al15  1  0.159264  0.325000  0.922257  1
  Al  Al16  1  0.164600  0.835400  0.577384  1
  Al  Al17  1  0.325000  0.159264  0.077743  1
  Al  Al18  1  0.835400  0.164600  0.422616  1
  Al  Al19  1  0.675000  0.840736  0.922257  1
  Al  Al20  1  0.835400  0.164600  0.077384  1
  Al  Al21  1  0.164600  0.835400  0.922616  1
  Al  Al22  1  0.561403  0.125279  0.250000  1
  Al  Al23  1  0.438597  0.874721  0.750000  1
  Al  Al24  1  0.874721  0.438597  0.250000  1
  Al  Al25  1  0.125279  0.561403  0.750000  1
  Al  Al26  1  0.558471  0.441529  0.250000  1
  Al  Al27  1  0.441529  0.558471  0.750000  1
  Al  Al28  1  0.998113  0.001887  0.250000  1
  Al  Al29  1  0.001887  0.998113  0.750000  1
  Cu  Cu30  1  0.500000  0.500000  0.000000  1
  Cu  Cu31  1  0.500000  0.500000  0.500000  1
  Os  Os32  1  0.500000  0.000000  0.000000  1
  Os  Os33  1  0.000000  0.500000  0.000000  1
  Os  Os34  1  0.500000  0.000000  0.500000  1
  Os  Os35  1  0.000000  0.500000  0.500000  1
  Os  Os36  1  0.000000  0.000000  0.000000  1
  Os  Os37  1  0.000000  0.000000  0.500000  1
