# generated using pymatgen
data_Y4Tc7Ir
_symmetry_space_group_name_H-M   'P 1'
_cell_length_a   5.31023000
_cell_length_b   5.31023043
_cell_length_c   9.14890100
_cell_angle_alpha   90.00000000
_cell_angle_beta   90.00000000
_cell_angle_gamma   120.00000978
_symmetry_Int_Tables_number   1
_chemical_formula_structural   Y4Tc7Ir
_chemical_formula_sum   'Y4 Tc7 Ir1'
_cell_volume   223.42214454
_cell_formula_units_Z   1
loop_
 _symmetry_equiv_pos_site_id
 _symmetry_equiv_pos_as_xyz
  1  'x, y, z'
loop_
 _atom_site_type_symbol
 _atom_site_label
 _atom_site_symmetry_multiplicity
 _atom_site_fract_x
 _atom_site_fract_y
 _atom_site_fract_z
 _atom_site_occupancy
  Y  Y0  1  0.333333  0.666667  0.438396  1
  Y  Y1  1  0.666667  0.333333  0.561604  1
  Y  Y2  1  0.666667  0.333333  0.934347  1
  Y  Y3  1  0.333333  0.666667  0.065653  1
  Tc  Tc4  1  0.000000  0.000000  0.000000  1
  Tc  Tc5  1  0.829106  0.170894  0.248307  1
  Tc  Tc6  1  0.829106  0.658211  0.248307  1
  Tc  Tc7  1  0.341789  0.170894  0.248307  1
  Tc  Tc8  1  0.170894  0.829106  0.751693  1
  Tc  Tc9  1  0.170894  0.341789  0.751693  1
  Tc  Tc10  1  0.658211  0.829106  0.751693  1
  Ir  Ir11  1  0.000000  0.000000  0.500000  1
