# generated using pymatgen
data_FePd3Pt2
_symmetry_space_group_name_H-M   'P 1'
_cell_length_a   6.16287900
_cell_length_b   6.16287880
_cell_length_c   3.98477000
_cell_angle_alpha   90.00000000
_cell_angle_beta   90.00000000
_cell_angle_gamma   143.04829319
_symmetry_Int_Tables_number   1
_chemical_formula_structural   FePd3Pt2
_chemical_formula_sum   'Fe1 Pd3 Pt2'
_cell_volume   90.98029756
_cell_formula_units_Z   1
loop_
 _symmetry_equiv_pos_site_id
 _symmetry_equiv_pos_as_xyz
  1  'x, y, z'
loop_
 _atom_site_type_symbol
 _atom_site_label
 _atom_site_symmetry_multiplicity
 _atom_site_fract_x
 _atom_site_fract_y
 _atom_site_fract_z
 _atom_site_occupancy
  Fe  Fe0  1  0.998466  0.001534  0.000000  1
  Pd  Pd1  1  0.661220  0.338782  0.000000  1
  Pd  Pd2  1  0.835829  0.164173  0.500001  1
  Pd  Pd3  1  0.164335  0.835667  0.500001  1
  Pt  Pt4  1  0.339767  0.660235  0.000000  1
  Pt  Pt5  1  0.500388  0.499614  0.500001  1
