# generated using pymatgen
data_Li2Yb3AlSiGe2
_symmetry_space_group_name_H-M   'P 1'
_cell_length_a   7.20794456
_cell_length_b   7.20794400
_cell_length_c   4.25713900
_cell_angle_alpha   90.00000000
_cell_angle_beta   90.00000000
_cell_angle_gamma   121.32757227
_symmetry_Int_Tables_number   1
_chemical_formula_structural   Li2Yb3AlSiGe2
_chemical_formula_sum   'Li2 Yb3 Al1 Si1 Ge2'
_cell_volume   188.93163166
_cell_formula_units_Z   1
loop_
 _symmetry_equiv_pos_site_id
 _symmetry_equiv_pos_as_xyz
  1  'x, y, z'
loop_
 _atom_site_type_symbol
 _atom_site_label
 _atom_site_symmetry_multiplicity
 _atom_site_fract_x
 _atom_site_fract_y
 _atom_site_fract_z
 _atom_site_occupancy
  Li  Li0  1  0.233819  0.997050  0.500000  1
  Li  Li1  1  0.997050  0.233819  0.500000  1
  Yb  Yb2  1  0.008172  0.573305  0.000000  1
  Yb  Yb3  1  0.425341  0.425341  0.000000  1
  Yb  Yb4  1  0.573305  0.008172  0.000000  1
  Al  Al5  1  0.761934  0.761934  0.500000  1
  Si  Si6  1  0.981965  0.981965  0.000000  1
  Ge  Ge7  1  0.346963  0.671453  0.500000  1
  Ge  Ge8  1  0.671453  0.346963  0.500000  1
