# generated using pymatgen
data_Er2Tm4Ni20P13
_symmetry_space_group_name_H-M   'P 1'
_cell_length_a   12.64025029
_cell_length_b   12.64050186
_cell_length_c   3.72709100
_cell_angle_alpha   90.00000000
_cell_angle_beta   90.00000000
_cell_angle_gamma   120.02406438
_symmetry_Int_Tables_number   1
_chemical_formula_structural   Er2Tm4Ni20P13
_chemical_formula_sum   'Er2 Tm4 Ni20 P13'
_cell_volume   515.60278684
_cell_formula_units_Z   1
loop_
 _symmetry_equiv_pos_site_id
 _symmetry_equiv_pos_as_xyz
  1  'x, y, z'
loop_
 _atom_site_type_symbol
 _atom_site_label
 _atom_site_symmetry_multiplicity
 _atom_site_fract_x
 _atom_site_fract_y
 _atom_site_fract_z
 _atom_site_occupancy
  Er  Er0  1  0.281282  0.471309  0.000000  1
  Er  Er1  1  0.190018  0.718704  0.000000  1
  Tm  Tm2  1  0.528730  0.809796  0.000000  1
  Tm  Tm3  1  0.811073  0.282015  0.500000  1
  Tm  Tm4  1  0.471020  0.189095  0.500000  1
  Tm  Tm5  1  0.717969  0.529088  0.500000  1
  Ni  Ni6  1  0.803716  0.907394  0.000000  1
  Ni  Ni7  1  0.103551  0.196109  0.000000  1
  Ni  Ni8  1  0.092530  0.896394  0.000000  1
  Ni  Ni9  1  0.333604  0.666866  0.500000  1
  Ni  Ni10  1  0.923498  0.081414  0.500000  1
  Ni  Ni11  1  0.157883  0.076451  0.500000  1
  Ni  Ni12  1  0.918508  0.842122  0.500000  1
  Ni  Ni13  1  0.666695  0.333361  0.000000  1
  Ni  Ni14  1  0.562043  0.582058  0.000000  1
  Ni  Ni15  1  0.019894  0.437979  0.000000  1
  Ni  Ni16  1  0.418103  0.980063  0.000000  1
  Ni  Ni17  1  0.680228  0.750786  0.500000  1
  Ni  Ni18  1  0.070289  0.319633  0.500000  1
  Ni  Ni19  1  0.249448  0.929688  0.500000  1
  Ni  Ni20  1  0.979601  0.565998  0.500000  1
  Ni  Ni21  1  0.586326  0.020119  0.500000  1
  Ni  Ni22  1  0.433975  0.413582  0.500000  1
  Ni  Ni23  1  0.756928  0.078040  0.000000  1
  Ni  Ni24  1  0.321088  0.242977  0.000000  1
  Ni  Ni25  1  0.921906  0.678886  0.000000  1
  P  P26  1  0.474747  0.612791  0.500000  1
  P  P27  1  0.137922  0.525381  0.500000  1
  P  P28  1  0.387736  0.862054  0.500000  1
  P  P29  1  0.717956  0.949753  0.500000  1
  P  P30  1  0.231717  0.281725  0.500000  1
  P  P31  1  0.049963  0.768294  0.500000  1
  P  P32  1  0.861219  0.476173  0.000000  1
  P  P33  1  0.614975  0.138837  0.000000  1
  P  P34  1  0.523873  0.385122  0.000000  1
  P  P35  1  0.949510  0.234335  0.000000  1
  P  P36  1  0.284831  0.050507  0.000000  1
  P  P37  1  0.765664  0.715113  0.000000  1
  P  P38  1  0.999979  0.999989  0.000000  1
