# generated using pymatgen
data_Nb8VGa6ReB2
_symmetry_space_group_name_H-M   'P 1'
_cell_length_a   7.76490300
_cell_length_b   7.76490303
_cell_length_c   5.26096500
_cell_angle_alpha   90.00000000
_cell_angle_beta   90.00000000
_cell_angle_gamma   120.00000414
_symmetry_Int_Tables_number   1
_chemical_formula_structural   Nb8VGa6ReB2
_chemical_formula_sum   'Nb8 V1 Ga6 Re1 B2'
_cell_volume   274.70596978
_cell_formula_units_Z   1
loop_
 _symmetry_equiv_pos_site_id
 _symmetry_equiv_pos_as_xyz
  1  'x, y, z'
loop_
 _atom_site_type_symbol
 _atom_site_label
 _atom_site_symmetry_multiplicity
 _atom_site_fract_x
 _atom_site_fract_y
 _atom_site_fract_z
 _atom_site_occupancy
  Nb  Nb0  1  0.242766  0.999908  0.254315  1
  Nb  Nb1  1  0.757142  0.999908  0.745685  1
  Nb  Nb2  1  0.000092  0.242858  0.254315  1
  Nb  Nb3  1  0.000092  0.757234  0.745685  1
  Nb  Nb4  1  0.757142  0.757234  0.254315  1
  Nb  Nb5  1  0.242766  0.242858  0.745685  1
  Nb  Nb6  1  0.666667  0.333333  0.500000  1
  Nb  Nb7  1  0.333333  0.666667  0.500000  1
  V  V8  1  0.666667  0.333333  0.000000  1
  Ga  Ga9  1  0.597852  0.002544  0.235682  1
  Ga  Ga10  1  0.404693  0.002544  0.764318  1
  Ga  Ga11  1  0.997456  0.595307  0.235682  1
  Ga  Ga12  1  0.997456  0.402148  0.764318  1
  Ga  Ga13  1  0.404693  0.402148  0.235682  1
  Ga  Ga14  1  0.597852  0.595307  0.764318  1
  Re  Re15  1  0.333333  0.666667  0.000000  1
  B  B16  1  0.000000  0.000000  0.000000  1
  B  B17  1  0.000000  0.000000  0.500000  1
