# generated using pymatgen
data_Lu4Cd2CoCu3
_symmetry_space_group_name_H-M   'P 1'
_cell_length_a   3.62426200
_cell_length_b   7.35244429
_cell_length_c   7.35244485
_cell_angle_alpha   90.15185747
_cell_angle_beta   90.00000000
_cell_angle_gamma   90.00000000
_symmetry_Int_Tables_number   1
_chemical_formula_structural   Lu4Cd2CoCu3
_chemical_formula_sum   'Lu4 Cd2 Co1 Cu3'
_cell_volume   195.92126594
_cell_formula_units_Z   1
loop_
 _symmetry_equiv_pos_site_id
 _symmetry_equiv_pos_as_xyz
  1  'x, y, z'
loop_
 _atom_site_type_symbol
 _atom_site_label
 _atom_site_symmetry_multiplicity
 _atom_site_fract_x
 _atom_site_fract_y
 _atom_site_fract_z
 _atom_site_occupancy
  Lu  Lu0  1  0.500000  0.170758  0.670758  1
  Lu  Lu1  1  0.500000  0.811622  0.311622  1
  Lu  Lu2  1  0.500000  0.345245  0.179792  1
  Lu  Lu3  1  0.500000  0.679792  0.845245  1
  Cd  Cd4  1  0.000000  0.004841  0.001147  1
  Cd  Cd5  1  0.000000  0.501147  0.504841  1
  Co  Co6  1  0.000000  0.617271  0.117271  1
  Cu  Cu7  1  0.000000  0.378665  0.878665  1
  Cu  Cu8  1  0.000000  0.874674  0.615985  1
  Cu  Cu9  1  0.000000  0.115985  0.374674  1
