# generated using pymatgen
data_Na3Bi(CO3)3
_symmetry_space_group_name_H-M   'P 1'
_cell_length_a   6.73811781
_cell_length_b   6.73811810
_cell_length_c   10.20740700
_cell_angle_alpha   90.00000000
_cell_angle_beta   90.00000000
_cell_angle_gamma   113.97053708
_symmetry_Int_Tables_number   1
_chemical_formula_structural   Na3Bi(CO3)3
_chemical_formula_sum   'Na6 Bi2 C6 O18'
_cell_volume   423.46953753
_cell_formula_units_Z   2
loop_
 _symmetry_equiv_pos_site_id
 _symmetry_equiv_pos_as_xyz
  1  'x, y, z'
loop_
 _atom_site_type_symbol
 _atom_site_label
 _atom_site_symmetry_multiplicity
 _atom_site_fract_x
 _atom_site_fract_y
 _atom_site_fract_z
 _atom_site_occupancy
  Na  Na0  1  0.405469  0.371117  0.250000  1
  Na  Na1  1  0.371117  0.405469  0.750000  1
  Na  Na2  1  0.783354  0.194710  0.250000  1
  Na  Na3  1  0.194710  0.783354  0.750000  1
  Na  Na4  1  0.073878  0.073878  0.000000  1
  Na  Na5  1  0.073878  0.073878  0.500000  1
  Bi  Bi6  1  0.201876  0.752284  0.250000  1
  Bi  Bi7  1  0.752284  0.201876  0.750000  1
  C  C8  1  0.789342  0.760657  0.250000  1
  C  C9  1  0.760657  0.789342  0.750000  1
  C  C10  1  0.125581  0.533343  0.001928  1
  C  C11  1  0.533343  0.125581  0.998072  1
  C  C12  1  0.125581  0.533343  0.498072  1
  C  C13  1  0.533343  0.125581  0.501928  1
  O  O14  1  0.599799  0.756599  0.250000  1
  O  O15  1  0.756599  0.599799  0.750000  1
  O  O16  1  0.822857  0.581389  0.250000  1
  O  O17  1  0.581389  0.822857  0.750000  1
  O  O18  1  0.109116  0.718052  0.012130  1
  O  O19  1  0.718052  0.109116  0.987870  1
  O  O20  1  0.109116  0.718052  0.487870  1
  O  O21  1  0.718052  0.109116  0.512130  1
  O  O22  1  0.964883  0.945517  0.250000  1
  O  O23  1  0.945517  0.964883  0.750000  1
  O  O24  1  0.442924  0.120995  0.109465  1
  O  O25  1  0.120995  0.442924  0.890535  1
  O  O26  1  0.442924  0.120995  0.390535  1
  O  O27  1  0.120995  0.442924  0.609465  1
  O  O28  1  0.151207  0.440910  0.110792  1
  O  O29  1  0.440910  0.151207  0.889208  1
  O  O30  1  0.151207  0.440910  0.389208  1
  O  O31  1  0.440910  0.151207  0.610792  1
