# generated using pymatgen
data_La7Dy13Si15As
_symmetry_space_group_name_H-M   'P 1'
_cell_length_a   7.58949168
_cell_length_b   7.85516688
_cell_length_c   14.89122956
_cell_angle_alpha   89.80062266
_cell_angle_beta   89.78162695
_cell_angle_gamma   89.42939710
_symmetry_Int_Tables_number   1
_chemical_formula_structural   La7Dy13Si15As
_chemical_formula_sum   'La7 Dy13 Si15 As1'
_cell_volume   887.71058690
_cell_formula_units_Z   1
loop_
 _symmetry_equiv_pos_site_id
 _symmetry_equiv_pos_as_xyz
  1  'x, y, z'
loop_
 _atom_site_type_symbol
 _atom_site_label
 _atom_site_symmetry_multiplicity
 _atom_site_fract_x
 _atom_site_fract_y
 _atom_site_fract_z
 _atom_site_occupancy
  La  La0  1  0.980011  0.825855  0.096472  1
  La  La1  1  0.475760  0.676957  0.399678  1
  La  La2  1  0.524535  0.320843  0.902319  1
  La  La3  1  0.024575  0.179492  0.595484  1
  La  La4  1  0.023789  0.179070  0.902170  1
  La  La5  1  0.527344  0.321496  0.596617  1
  La  La6  1  0.477230  0.676535  0.102289  1
  Dy  Dy7  1  0.645222  0.995319  0.250898  1
  Dy  Dy8  1  0.152630  0.507879  0.250625  1
  Dy  Dy9  1  0.852737  0.489312  0.749447  1
  Dy  Dy10  1  0.351411  0.011223  0.749671  1
  Dy  Dy11  1  0.974413  0.820156  0.399267  1
  Dy  Dy12  1  0.681420  0.821539  0.876887  1
  Dy  Dy13  1  0.181202  0.680676  0.621191  1
  Dy  Dy14  1  0.814698  0.323981  0.126065  1
  Dy  Dy15  1  0.310977  0.172277  0.379626  1
  Dy  Dy16  1  0.312167  0.173122  0.123244  1
  Dy  Dy17  1  0.814490  0.323120  0.375570  1
  Dy  Dy18  1  0.182315  0.677650  0.877007  1
  Dy  Dy19  1  0.684490  0.822489  0.622489  1
  Si  Si20  1  0.265381  0.875508  0.253149  1
  Si  Si21  1  0.734210  0.118887  0.749444  1
  Si  Si22  1  0.233514  0.383120  0.748807  1
  Si  Si23  1  0.018514  0.111359  0.252350  1
  Si  Si24  1  0.509177  0.364048  0.251246  1
  Si  Si25  1  0.476266  0.614878  0.749203  1
  Si  Si26  1  0.976302  0.886875  0.749400  1
  Si  Si27  1  0.857372  0.531256  0.961531  1
  Si  Si28  1  0.364483  0.968769  0.541511  1
  Si  Si29  1  0.642006  0.029365  0.041249  1
  Si  Si30  1  0.137890  0.477247  0.456411  1
  Si  Si31  1  0.141071  0.469958  0.041363  1
  Si  Si32  1  0.648681  0.026467  0.458068  1
  Si  Si33  1  0.358401  0.967076  0.960024  1
  Si  Si34  1  0.858227  0.537014  0.536381  1
  As  As35  1  0.787091  0.639181  0.252846  1
