# generated using pymatgen
data_TbSc(SiTc2)4
_symmetry_space_group_name_H-M   'P 1'
_cell_length_a   7.31844604
_cell_length_b   7.31844604
_cell_length_c   4.13407700
_cell_angle_alpha   90.00000000
_cell_angle_beta   90.00000000
_cell_angle_gamma   87.90328905
_symmetry_Int_Tables_number   1
_chemical_formula_structural   TbSc(SiTc2)4
_chemical_formula_sum   'Tb1 Sc1 Si4 Tc8'
_cell_volume   221.27148553
_cell_formula_units_Z   1
loop_
 _symmetry_equiv_pos_site_id
 _symmetry_equiv_pos_as_xyz
  1  'x, y, z'
loop_
 _atom_site_type_symbol
 _atom_site_label
 _atom_site_symmetry_multiplicity
 _atom_site_fract_x
 _atom_site_fract_y
 _atom_site_fract_z
 _atom_site_occupancy
  Tb  Tb0  1  0.500000  0.500000  0.000000  1
  Sc  Sc1  1  0.000000  0.000000  0.500000  1
  Si  Si2  1  0.713476  0.713476  0.500000  1
  Si  Si3  1  0.286524  0.286524  0.500000  1
  Si  Si4  1  0.199668  0.800332  0.000000  1
  Si  Si5  1  0.800332  0.199668  0.000000  1
  Tc  Tc6  1  0.602311  0.150382  0.500000  1
  Tc  Tc7  1  0.397689  0.849618  0.500000  1
  Tc  Tc8  1  0.089049  0.339796  0.000000  1
  Tc  Tc9  1  0.910951  0.660204  0.000000  1
  Tc  Tc10  1  0.150382  0.602311  0.500000  1
  Tc  Tc11  1  0.849618  0.397689  0.500000  1
  Tc  Tc12  1  0.339796  0.089049  0.000000  1
  Tc  Tc13  1  0.660204  0.910951  0.000000  1
