# generated using pymatgen
data_La8Er2Tl5InBr2
_symmetry_space_group_name_H-M   'P 1'
_cell_length_a   9.67363434
_cell_length_b   9.67363372
_cell_length_c   6.92441227
_cell_angle_alpha   90.01585957
_cell_angle_beta   90.01585599
_cell_angle_gamma   119.97410630
_symmetry_Int_Tables_number   1
_chemical_formula_structural   La8Er2Tl5InBr2
_chemical_formula_sum   'La8 Er2 Tl5 In1 Br2'
_cell_volume   561.31422279
_cell_formula_units_Z   1
loop_
 _symmetry_equiv_pos_site_id
 _symmetry_equiv_pos_as_xyz
  1  'x, y, z'
loop_
 _atom_site_type_symbol
 _atom_site_label
 _atom_site_symmetry_multiplicity
 _atom_site_fract_x
 _atom_site_fract_y
 _atom_site_fract_z
 _atom_site_occupancy
  La  La0  1  0.732658  0.732658  0.253478  1
  La  La1  1  0.999694  0.732715  0.746019  1
  La  La2  1  0.732715  0.999694  0.746019  1
  La  La3  1  0.267087  0.267087  0.746179  1
  La  La4  1  0.999924  0.267210  0.253987  1
  La  La5  1  0.267210  0.999924  0.253987  1
  La  La6  1  0.333609  0.666559  0.999840  1
  La  La7  1  0.666559  0.333609  0.999840  1
  Er  Er8  1  0.334273  0.666690  0.500882  1
  Er  Er9  1  0.666690  0.334273  0.500882  1
  Tl  Tl10  1  0.392602  0.999952  0.742702  1
  Tl  Tl11  1  0.000052  0.607201  0.257380  1
  Tl  Tl12  1  0.607201  0.000052  0.257380  1
  Tl  Tl13  1  0.999952  0.392602  0.742702  1
  Tl  Tl14  1  0.392805  0.392805  0.257478  1
  In  In15  1  0.606926  0.606926  0.741270  1
  Br  Br16  1  0.999983  0.999983  0.499888  1
  Br  Br17  1  0.000063  0.000063  0.000085  1
