# generated using pymatgen
data_Yb3Dy(Y4Ir3)4
_symmetry_space_group_name_H-M   'P 1'
_cell_length_a   10.92845000
_cell_length_b   10.92845000
_cell_length_c   6.34535400
_cell_angle_alpha   90.00000000
_cell_angle_beta   90.00000000
_cell_angle_gamma   90.00000000
_symmetry_Int_Tables_number   1
_chemical_formula_structural   Yb3Dy(Y4Ir3)4
_chemical_formula_sum   'Yb3 Dy1 Y16 Ir12'
_cell_volume   757.83209669
_cell_formula_units_Z   1
loop_
 _symmetry_equiv_pos_site_id
 _symmetry_equiv_pos_as_xyz
  1  'x, y, z'
loop_
 _atom_site_type_symbol
 _atom_site_label
 _atom_site_symmetry_multiplicity
 _atom_site_fract_x
 _atom_site_fract_y
 _atom_site_fract_z
 _atom_site_occupancy
  Yb  Yb0  1  0.000000  0.000000  0.500000  1
  Yb  Yb1  1  0.000000  0.000000  0.000000  1
  Yb  Yb2  1  0.500000  0.500000  0.000000  1
  Dy  Dy3  1  0.500000  0.500000  0.500000  1
  Y  Y4  1  0.290001  0.089093  0.381359  1
  Y  Y5  1  0.290472  0.912092  0.880866  1
  Y  Y6  1  0.709528  0.087908  0.880866  1
  Y  Y7  1  0.709999  0.910907  0.381359  1
  Y  Y8  1  0.588366  0.789668  0.880317  1
  Y  Y9  1  0.590018  0.208215  0.381178  1
  Y  Y10  1  0.409982  0.791785  0.381178  1
  Y  Y11  1  0.411634  0.210332  0.880317  1
  Y  Y12  1  0.208215  0.409982  0.618822  1
  Y  Y13  1  0.210332  0.588366  0.119683  1
  Y  Y14  1  0.789668  0.411634  0.119683  1
  Y  Y15  1  0.791785  0.590018  0.618822  1
  Y  Y16  1  0.912092  0.709528  0.119134  1
  Y  Y17  1  0.910907  0.290001  0.618641  1
  Y  Y18  1  0.089093  0.709999  0.618641  1
  Y  Y19  1  0.087908  0.290472  0.119134  1
  Ir  Ir20  1  0.842473  0.157900  0.248615  1
  Ir  Ir21  1  0.842100  0.842473  0.751385  1
  Ir  Ir22  1  0.157900  0.157527  0.751385  1
  Ir  Ir23  1  0.157527  0.842100  0.248615  1
  Ir  Ir24  1  0.655312  0.345225  0.746196  1
  Ir  Ir25  1  0.654775  0.655312  0.253804  1
  Ir  Ir26  1  0.345225  0.344688  0.253804  1
  Ir  Ir27  1  0.344688  0.654775  0.746196  1
  Ir  Ir28  1  0.500000  0.000000  0.122639  1
  Ir  Ir29  1  0.500000  0.000000  0.623626  1
  Ir  Ir30  1  0.000000  0.500000  0.877361  1
  Ir  Ir31  1  0.000000  0.500000  0.376374  1
