# generated using pymatgen
data_YbY4(In2Ir)2
_symmetry_space_group_name_H-M   'P 1'
_cell_length_a   3.67934700
_cell_length_b   8.04331000
_cell_length_c   18.35824000
_cell_angle_alpha   90.00000000
_cell_angle_beta   90.00000000
_cell_angle_gamma   90.00000000
_symmetry_Int_Tables_number   1
_chemical_formula_structural   YbY4(In2Ir)2
_chemical_formula_sum   'Yb2 Y8 In8 Ir4'
_cell_volume   543.29611393
_cell_formula_units_Z   2
loop_
 _symmetry_equiv_pos_site_id
 _symmetry_equiv_pos_as_xyz
  1  'x, y, z'
loop_
 _atom_site_type_symbol
 _atom_site_label
 _atom_site_symmetry_multiplicity
 _atom_site_fract_x
 _atom_site_fract_y
 _atom_site_fract_z
 _atom_site_occupancy
  Yb  Yb0  1  0.500000  0.500000  0.000000  1
  Yb  Yb1  1  0.500000  0.000000  0.500000  1
  Y  Y2  1  0.500000  0.382582  0.588722  1
  Y  Y3  1  0.500000  0.882582  0.911278  1
  Y  Y4  1  0.500000  0.117418  0.088722  1
  Y  Y5  1  0.500000  0.755127  0.721499  1
  Y  Y6  1  0.500000  0.255127  0.778501  1
  Y  Y7  1  0.500000  0.744873  0.221499  1
  Y  Y8  1  0.500000  0.244873  0.278501  1
  Y  Y9  1  0.500000  0.617418  0.411278  1
  In  In10  1  0.000000  0.794103  0.067791  1
  In  In11  1  0.000000  0.930427  0.349759  1
  In  In12  1  0.000000  0.069573  0.650241  1
  In  In13  1  0.000000  0.569573  0.849759  1
  In  In14  1  0.000000  0.705897  0.567791  1
  In  In15  1  0.000000  0.205897  0.932209  1
  In  In16  1  0.000000  0.294103  0.432209  1
  In  In17  1  0.000000  0.430427  0.150241  1
  Ir  Ir18  1  0.000000  0.981112  0.804713  1
  Ir  Ir19  1  0.000000  0.518888  0.304713  1
  Ir  Ir20  1  0.000000  0.481112  0.695287  1
  Ir  Ir21  1  0.000000  0.018888  0.195287  1
