# generated using pymatgen
data_CeDyY6(ReB6)4
_symmetry_space_group_name_H-M   'P 1'
_cell_length_a   3.70238100
_cell_length_b   9.20625731
_cell_length_c   11.59215703
_cell_angle_alpha   90.05258710
_cell_angle_beta   90.00000000
_cell_angle_gamma   90.00000000
_symmetry_Int_Tables_number   1
_chemical_formula_structural   CeDyY6(ReB6)4
_chemical_formula_sum   'Ce1 Dy1 Y6 Re4 B24'
_cell_volume   395.11934212
_cell_formula_units_Z   1
loop_
 _symmetry_equiv_pos_site_id
 _symmetry_equiv_pos_as_xyz
  1  'x, y, z'
loop_
 _atom_site_type_symbol
 _atom_site_label
 _atom_site_symmetry_multiplicity
 _atom_site_fract_x
 _atom_site_fract_y
 _atom_site_fract_z
 _atom_site_occupancy
  Ce  Ce0  1  0.000000  0.323276  0.414089  1
  Dy  Dy1  1  0.000000  0.557583  0.870194  1
  Y  Y2  1  0.000000  0.677418  0.586656  1
  Y  Y3  1  0.000000  0.823168  0.085428  1
  Y  Y4  1  0.000000  0.176280  0.914021  1
  Y  Y5  1  0.000000  0.942258  0.370038  1
  Y  Y6  1  0.000000  0.056859  0.630392  1
  Y  Y7  1  0.000000  0.442850  0.128998  1
  Re  Re8  1  0.000000  0.637368  0.321192  1
  Re  Re9  1  0.000000  0.362245  0.678594  1
  Re  Re10  1  0.000000  0.138682  0.179502  1
  Re  Re11  1  0.000000  0.861787  0.821041  1
  B  B12  1  0.500000  0.553423  0.432164  1
  B  B13  1  0.500000  0.446301  0.567787  1
  B  B14  1  0.500000  0.053125  0.067049  1
  B  B15  1  0.500000  0.946936  0.932831  1
  B  B16  1  0.500000  0.748776  0.418114  1
  B  B17  1  0.500000  0.251847  0.582622  1
  B  B18  1  0.500000  0.248146  0.081196  1
  B  B19  1  0.500000  0.751439  0.918172  1
  B  B20  1  0.500000  0.791219  0.265459  1
  B  B21  1  0.500000  0.208978  0.735090  1
  B  B22  1  0.500000  0.290571  0.234008  1
  B  B23  1  0.500000  0.708686  0.765620  1
  B  B24  1  0.500000  0.631087  0.185306  1
  B  B25  1  0.500000  0.369914  0.814310  1
  B  B26  1  0.500000  0.130629  0.313659  1
  B  B27  1  0.500000  0.869298  0.686154  1
  B  B28  1  0.500000  0.982221  0.211494  1
  B  B29  1  0.500000  0.017518  0.788432  1
  B  B30  1  0.500000  0.483319  0.287745  1
  B  B31  1  0.500000  0.517945  0.712647  1
  B  B32  1  0.500000  0.601050  0.027968  1
  B  B33  1  0.500000  0.399337  0.971395  1
  B  B34  1  0.500000  0.100144  0.471996  1
  B  B35  1  0.500000  0.898316  0.528637  1
