# generated using pymatgen
data_Nd3AlInPt3Pb
_symmetry_space_group_name_H-M   'P 1'
_cell_length_a   7.67997065
_cell_length_b   7.80033895
_cell_length_c   4.02846700
_cell_angle_alpha   90.00000000
_cell_angle_beta   90.00000000
_cell_angle_gamma   120.00998560
_symmetry_Int_Tables_number   1
_chemical_formula_structural   Nd3AlInPt3Pb
_chemical_formula_sum   'Nd3 Al1 In1 Pt3 Pb1'
_cell_volume   208.97761533
_cell_formula_units_Z   1
loop_
 _symmetry_equiv_pos_site_id
 _symmetry_equiv_pos_as_xyz
  1  'x, y, z'
loop_
 _atom_site_type_symbol
 _atom_site_label
 _atom_site_symmetry_multiplicity
 _atom_site_fract_x
 _atom_site_fract_y
 _atom_site_fract_z
 _atom_site_occupancy
  Nd  Nd0  1  0.003631  0.595610  0.500000  1
  Nd  Nd1  1  0.580857  0.999103  0.500000  1
  Nd  Nd2  1  0.411409  0.407206  0.500000  1
  Al  Al3  1  0.249448  0.998564  0.000000  1
  In  In4  1  0.746993  0.747753  0.000000  1
  Pt  Pt5  1  0.032225  0.990374  0.500000  1
  Pt  Pt6  1  0.641400  0.321240  0.000000  1
  Pt  Pt7  1  0.334731  0.689616  0.000000  1
  Pb  Pb8  1  0.999306  0.250534  0.000000  1
