# generated using pymatgen
data_Tb15Ho(LuSn4)4
_symmetry_space_group_name_H-M   'P 1'
_cell_length_a   8.01100661
_cell_length_b   8.16793320
_cell_length_c   15.47660513
_cell_angle_alpha   90.02068774
_cell_angle_beta   89.94943754
_cell_angle_gamma   90.04144199
_symmetry_Int_Tables_number   1
_chemical_formula_structural   Tb15Ho(LuSn4)4
_chemical_formula_sum   'Tb15 Ho1 Lu4 Sn16'
_cell_volume   1012.68565583
_cell_formula_units_Z   1
loop_
 _symmetry_equiv_pos_site_id
 _symmetry_equiv_pos_as_xyz
  1  'x, y, z'
loop_
 _atom_site_type_symbol
 _atom_site_label
 _atom_site_symmetry_multiplicity
 _atom_site_fract_x
 _atom_site_fract_y
 _atom_site_fract_z
 _atom_site_occupancy
  Tb  Tb0  1  0.865265  0.662424  0.623160  1
  Tb  Tb1  1  0.634456  0.162148  0.377589  1
  Tb  Tb2  1  0.135561  0.337540  0.120982  1
  Tb  Tb3  1  0.634381  0.162907  0.122693  1
  Tb  Tb4  1  0.134136  0.337323  0.377643  1
  Tb  Tb5  1  0.365943  0.837606  0.622847  1
  Tb  Tb6  1  0.866010  0.662194  0.878091  1
  Tb  Tb7  1  0.518823  0.320247  0.903478  1
  Tb  Tb8  1  0.019843  0.178977  0.597423  1
  Tb  Tb9  1  0.480933  0.679669  0.403650  1
  Tb  Tb10  1  0.980174  0.820439  0.096512  1
  Tb  Tb11  1  0.481444  0.680340  0.095228  1
  Tb  Tb12  1  0.980968  0.820632  0.403290  1
  Tb  Tb13  1  0.519197  0.320825  0.597419  1
  Tb  Tb14  1  0.018795  0.178505  0.903034  1
  Ho  Ho15  1  0.364582  0.838485  0.876101  1
  Lu  Lu16  1  0.197332  0.503350  0.750695  1
  Lu  Lu17  1  0.696540  0.996463  0.750461  1
  Lu  Lu18  1  0.803608  0.496724  0.250067  1
  Lu  Lu19  1  0.303294  0.002891  0.249480  1
  Sn  Sn20  1  0.295148  0.035322  0.040787  1
  Sn  Sn21  1  0.794116  0.463579  0.457652  1
  Sn  Sn22  1  0.706359  0.963689  0.542855  1
  Sn  Sn23  1  0.207682  0.539478  0.956591  1
  Sn  Sn24  1  0.701477  0.962640  0.957173  1
  Sn  Sn25  1  0.205666  0.536242  0.543175  1
  Sn  Sn26  1  0.293947  0.036224  0.457268  1
  Sn  Sn27  1  0.794113  0.463462  0.042884  1
  Sn  Sn28  1  0.561564  0.618430  0.750895  1
  Sn  Sn29  1  0.062501  0.882162  0.750867  1
  Sn  Sn30  1  0.437814  0.383315  0.250108  1
  Sn  Sn31  1  0.938354  0.117167  0.249350  1
  Sn  Sn32  1  0.328679  0.149376  0.750533  1
  Sn  Sn33  1  0.828239  0.349992  0.750495  1
  Sn  Sn34  1  0.671510  0.849786  0.249862  1
  Sn  Sn35  1  0.171546  0.649446  0.249661  1
