# generated using pymatgen
data_Ce2Mn3Ni9P7
_symmetry_space_group_name_H-M   'P 1'
_cell_length_a   9.14938800
_cell_length_b   9.14938917
_cell_length_c   3.72710600
_cell_angle_alpha   90.00000000
_cell_angle_beta   90.00000000
_cell_angle_gamma   119.99999942
_symmetry_Int_Tables_number   1
_chemical_formula_structural   Ce2Mn3Ni9P7
_chemical_formula_sum   'Ce2 Mn3 Ni9 P7'
_cell_volume   270.20073419
_cell_formula_units_Z   1
loop_
 _symmetry_equiv_pos_site_id
 _symmetry_equiv_pos_as_xyz
  1  'x, y, z'
loop_
 _atom_site_type_symbol
 _atom_site_label
 _atom_site_symmetry_multiplicity
 _atom_site_fract_x
 _atom_site_fract_y
 _atom_site_fract_z
 _atom_site_occupancy
  Ce  Ce0  1  0.333333  0.666667  0.000000  1
  Ce  Ce1  1  0.000000  0.000000  0.500000  1
  Mn  Mn2  1  0.785021  0.234495  0.500000  1
  Mn  Mn3  1  0.765505  0.550525  0.500000  1
  Mn  Mn4  1  0.449475  0.214979  0.500000  1
  Ni  Ni5  1  0.037490  0.272576  0.000000  1
  Ni  Ni6  1  0.727424  0.764915  0.000000  1
  Ni  Ni7  1  0.235085  0.962510  0.000000  1
  Ni  Ni8  1  0.541891  0.056937  0.000000  1
  Ni  Ni9  1  0.943063  0.484955  0.000000  1
  Ni  Ni10  1  0.515045  0.458109  0.000000  1
  Ni  Ni11  1  0.616153  0.899859  0.500000  1
  Ni  Ni12  1  0.100141  0.716294  0.500000  1
  Ni  Ni13  1  0.283706  0.383847  0.500000  1
  P  P14  1  0.775595  0.036855  0.000000  1
  P  P15  1  0.963145  0.738740  0.000000  1
  P  P16  1  0.261260  0.224405  0.000000  1
  P  P17  1  0.373902  0.931328  0.500000  1
  P  P18  1  0.068672  0.442575  0.500000  1
  P  P19  1  0.557425  0.626098  0.500000  1
  P  P20  1  0.666667  0.333333  0.000000  1
