# generated using pymatgen
data_Ho8Cd2NiIr
_symmetry_space_group_name_H-M   'P 1'
_cell_length_a   9.54581749
_cell_length_b   9.54581783
_cell_length_c   9.60718700
_cell_angle_alpha   59.78710810
_cell_angle_beta   59.78710693
_cell_angle_gamma   59.43944875
_symmetry_Int_Tables_number   1
_chemical_formula_structural   Ho8Cd2NiIr
_chemical_formula_sum   'Ho16 Cd4 Ni2 Ir2'
_cell_volume   614.38504534
_cell_formula_units_Z   2
loop_
 _symmetry_equiv_pos_site_id
 _symmetry_equiv_pos_as_xyz
  1  'x, y, z'
loop_
 _atom_site_type_symbol
 _atom_site_label
 _atom_site_symmetry_multiplicity
 _atom_site_fract_x
 _atom_site_fract_y
 _atom_site_fract_z
 _atom_site_occupancy
  Ho  Ho0  1  0.350545  0.350545  0.344130  1
  Ho  Ho1  1  0.350545  0.350545  0.954779  1
  Ho  Ho2  1  0.353918  0.950944  0.347568  1
  Ho  Ho3  1  0.950944  0.353918  0.347568  1
  Ho  Ho4  1  0.808586  0.187362  0.190817  1
  Ho  Ho5  1  0.187362  0.808586  0.813234  1
  Ho  Ho6  1  0.187362  0.808586  0.190817  1
  Ho  Ho7  1  0.808586  0.187362  0.813234  1
  Ho  Ho8  1  0.189541  0.189541  0.810459  1
  Ho  Ho9  1  0.811444  0.811444  0.188556  1
  Ho  Ho10  1  0.937566  0.560934  0.566237  1
  Ho  Ho11  1  0.560934  0.937566  0.935263  1
  Ho  Ho12  1  0.560934  0.937566  0.566237  1
  Ho  Ho13  1  0.937566  0.560934  0.935263  1
  Ho  Ho14  1  0.565922  0.565922  0.934078  1
  Ho  Ho15  1  0.939492  0.939492  0.560508  1
  Cd  Cd16  1  0.580061  0.580061  0.582577  1
  Cd  Cd17  1  0.580061  0.580061  0.257302  1
  Cd  Cd18  1  0.580285  0.255583  0.582066  1
  Cd  Cd19  1  0.255583  0.580285  0.582066  1
  Ni  Ni20  1  0.141868  0.574322  0.141905  1
  Ni  Ni21  1  0.574322  0.141868  0.141905  1
  Ir  Ir22  1  0.143286  0.143286  0.141332  1
  Ir  Ir23  1  0.143286  0.143286  0.572095  1
