# generated using pymatgen
data_YbScGaS4
_symmetry_space_group_name_H-M   'P 1'
_cell_length_a   13.65633700
_cell_length_b   7.74855900
_cell_length_c   6.19442200
_cell_angle_alpha   90.00000000
_cell_angle_beta   90.00000000
_cell_angle_gamma   90.00000000
_symmetry_Int_Tables_number   1
_chemical_formula_structural   YbScGaS4
_chemical_formula_sum   'Yb4 Sc4 Ga4 S16'
_cell_volume   655.47473755
_cell_formula_units_Z   4
loop_
 _symmetry_equiv_pos_site_id
 _symmetry_equiv_pos_as_xyz
  1  'x, y, z'
loop_
 _atom_site_type_symbol
 _atom_site_label
 _atom_site_symmetry_multiplicity
 _atom_site_fract_x
 _atom_site_fract_y
 _atom_site_fract_z
 _atom_site_occupancy
  Yb  Yb0  1  0.734445  0.750001  0.004733  1
  Yb  Yb1  1  0.234445  0.750001  0.495267  1
  Yb  Yb2  1  0.765555  0.250000  0.504733  1
  Yb  Yb3  1  0.265555  0.250000  0.995266  1
  Sc  Sc4  1  0.000000  0.000000  0.000000  1
  Sc  Sc5  1  0.000000  0.499999  0.000000  1
  Sc  Sc6  1  0.500000  0.000000  0.500000  1
  Sc  Sc7  1  0.500000  0.499999  0.500000  1
  Ga  Ga8  1  0.585215  0.250000  0.095688  1
  Ga  Ga9  1  0.085215  0.250000  0.404312  1
  Ga  Ga10  1  0.914785  0.750001  0.595689  1
  Ga  Ga11  1  0.414785  0.750001  0.904312  1
  S  S12  1  0.916770  0.750001  0.228540  1
  S  S13  1  0.155143  0.014181  0.241272  1
  S  S14  1  0.155143  0.485819  0.241272  1
  S  S15  1  0.932215  0.250000  0.234762  1
  S  S16  1  0.432215  0.250000  0.265238  1
  S  S17  1  0.655143  0.014181  0.258728  1
  S  S18  1  0.655143  0.485819  0.258728  1
  S  S19  1  0.416769  0.750001  0.271459  1
  S  S20  1  0.583230  0.250000  0.728540  1
  S  S21  1  0.344857  0.514182  0.741272  1
  S  S22  1  0.344857  0.985818  0.741272  1
  S  S23  1  0.567785  0.750001  0.734761  1
  S  S24  1  0.067785  0.750001  0.765238  1
  S  S25  1  0.844857  0.514182  0.758727  1
  S  S26  1  0.844857  0.985818  0.758727  1
  S  S27  1  0.083231  0.250000  0.771459  1
