# generated using pymatgen
data_HoEr7Re2(B12Ru)2
_symmetry_space_group_name_H-M   'P 1'
_cell_length_a   3.64882900
_cell_length_b   9.11487193
_cell_length_c   11.49526500
_cell_angle_alpha   90.21118515
_cell_angle_beta   90.00000000
_cell_angle_gamma   90.00000000
_symmetry_Int_Tables_number   1
_chemical_formula_structural   HoEr7Re2(B12Ru)2
_chemical_formula_sum   'Ho1 Er7 Re2 B24 Ru2'
_cell_volume   382.31392768
_cell_formula_units_Z   1
loop_
 _symmetry_equiv_pos_site_id
 _symmetry_equiv_pos_as_xyz
  1  'x, y, z'
loop_
 _atom_site_type_symbol
 _atom_site_label
 _atom_site_symmetry_multiplicity
 _atom_site_fract_x
 _atom_site_fract_y
 _atom_site_fract_z
 _atom_site_occupancy
  Ho  Ho0  1  0.000000  0.320889  0.412528  1
  Er  Er1  1  0.000000  0.679155  0.587462  1
  Er  Er2  1  0.000000  0.824649  0.084487  1
  Er  Er3  1  0.000000  0.175387  0.915557  1
  Er  Er4  1  0.000000  0.942956  0.370605  1
  Er  Er5  1  0.000000  0.056950  0.629398  1
  Er  Er6  1  0.000000  0.443154  0.129172  1
  Er  Er7  1  0.000000  0.556834  0.870820  1
  Re  Re8  1  0.000000  0.138456  0.179577  1
  Re  Re9  1  0.000000  0.861482  0.820351  1
  B  B10  1  0.500000  0.554024  0.433299  1
  B  B11  1  0.500000  0.446131  0.566782  1
  B  B12  1  0.500000  0.053127  0.066550  1
  B  B13  1  0.500000  0.946870  0.933450  1
  B  B14  1  0.500000  0.749031  0.419208  1
  B  B15  1  0.500000  0.250955  0.580928  1
  B  B16  1  0.500000  0.249442  0.080673  1
  B  B17  1  0.500000  0.750562  0.919317  1
  B  B18  1  0.500000  0.791138  0.265620  1
  B  B19  1  0.500000  0.208867  0.734392  1
  B  B20  1  0.500000  0.292323  0.234895  1
  B  B21  1  0.500000  0.707610  0.764983  1
  B  B22  1  0.500000  0.631054  0.185660  1
  B  B23  1  0.500000  0.368965  0.814336  1
  B  B24  1  0.500000  0.131236  0.315137  1
  B  B25  1  0.500000  0.868658  0.684773  1
  B  B26  1  0.500000  0.982177  0.212384  1
  B  B27  1  0.500000  0.017812  0.787614  1
  B  B28  1  0.500000  0.483136  0.288066  1
  B  B29  1  0.500000  0.517011  0.711880  1
  B  B30  1  0.500000  0.602886  0.028631  1
  B  B31  1  0.500000  0.397116  0.971360  1
  B  B32  1  0.500000  0.103182  0.471601  1
  B  B33  1  0.500000  0.896635  0.528441  1
  Ru  Ru34  1  0.000000  0.638083  0.321524  1
  Ru  Ru35  1  0.000000  0.362056  0.678540  1
