# generated using pymatgen
data_Dy7Y4HoRh4
_symmetry_space_group_name_H-M   'P 1'
_cell_length_a   6.27084260
_cell_length_b   7.18581025
_cell_length_c   9.53036194
_cell_angle_alpha   89.98653665
_cell_angle_beta   89.92275448
_cell_angle_gamma   89.90409699
_symmetry_Int_Tables_number   1
_chemical_formula_structural   Dy7Y4HoRh4
_chemical_formula_sum   'Dy7 Y4 Ho1 Rh4'
_cell_volume   429.44744650
_cell_formula_units_Z   1
loop_
 _symmetry_equiv_pos_site_id
 _symmetry_equiv_pos_as_xyz
  1  'x, y, z'
loop_
 _atom_site_type_symbol
 _atom_site_label
 _atom_site_symmetry_multiplicity
 _atom_site_fract_x
 _atom_site_fract_y
 _atom_site_fract_z
 _atom_site_occupancy
  Dy  Dy0  1  0.170114  0.176668  0.437309  1
  Dy  Dy1  1  0.670010  0.323338  0.562716  1
  Dy  Dy2  1  0.829686  0.823198  0.937436  1
  Dy  Dy3  1  0.670240  0.323497  0.937416  1
  Dy  Dy4  1  0.829799  0.823287  0.562700  1
  Dy  Dy5  1  0.329865  0.676652  0.436741  1
  Dy  Dy6  1  0.170500  0.176647  0.062734  1
  Y  Y7  1  0.866716  0.533281  0.249707  1
  Y  Y8  1  0.633159  0.032642  0.249801  1
  Y  Y9  1  0.133606  0.467091  0.750070  1
  Y  Y10  1  0.366442  0.966899  0.750110  1
  Ho  Ho11  1  0.329697  0.676527  0.063414  1
  Rh  Rh12  1  0.064690  0.882455  0.249680  1
  Rh  Rh13  1  0.435769  0.383676  0.249578  1
  Rh  Rh14  1  0.935672  0.117091  0.750058  1
  Rh  Rh15  1  0.564036  0.617051  0.750530  1
