# generated using pymatgen
data_Tb3Y7In8Pd3Pt
_symmetry_space_group_name_H-M   'P 1'
_cell_length_a   3.64317300
_cell_length_b   8.15592527
_cell_length_c   18.39552321
_cell_angle_alpha   90.05001745
_cell_angle_beta   90.00000000
_cell_angle_gamma   90.00000000
_symmetry_Int_Tables_number   1
_chemical_formula_structural   Tb3Y7In8Pd3Pt
_chemical_formula_sum   'Tb3 Y7 In8 Pd3 Pt1'
_cell_volume   546.59419056
_cell_formula_units_Z   1
loop_
 _symmetry_equiv_pos_site_id
 _symmetry_equiv_pos_as_xyz
  1  'x, y, z'
loop_
 _atom_site_type_symbol
 _atom_site_label
 _atom_site_symmetry_multiplicity
 _atom_site_fract_x
 _atom_site_fract_y
 _atom_site_fract_z
 _atom_site_occupancy
  Tb  Tb0  1  0.500000  0.237154  0.779588  1
  Tb  Tb1  1  0.500000  0.759148  0.219396  1
  Tb  Tb2  1  0.500000  0.258889  0.280730  1
  Y  Y3  1  0.500000  0.744836  0.719096  1
  Y  Y4  1  0.500000  0.117954  0.583726  1
  Y  Y5  1  0.500000  0.881522  0.417508  1
  Y  Y6  1  0.500000  0.380858  0.082444  1
  Y  Y7  1  0.500000  0.618338  0.917009  1
  Y  Y8  1  0.500000  0.000418  0.999957  1
  Y  Y9  1  0.500000  0.499483  0.500154  1
  In  In10  1  0.000000  0.079973  0.150226  1
  In  In11  1  0.000000  0.918770  0.850582  1
  In  In12  1  0.000000  0.422883  0.650496  1
  In  In13  1  0.000000  0.579911  0.349620  1
  In  In14  1  0.000000  0.207459  0.432158  1
  In  In15  1  0.000000  0.791824  0.567198  1
  In  In16  1  0.000000  0.292908  0.932032  1
  In  In17  1  0.000000  0.707339  0.067728  1
  Pd  Pd18  1  0.000000  0.975877  0.303733  1
  Pd  Pd19  1  0.000000  0.475735  0.196312  1
  Pd  Pd20  1  0.000000  0.523807  0.803991  1
  Pt  Pt21  1  0.000000  0.024915  0.696314  1
