# generated using pymatgen
data_Hf10CoOs3
_symmetry_space_group_name_H-M   'P 1'
_cell_length_a   8.69734000
_cell_length_b   8.69734103
_cell_length_c   8.42766700
_cell_angle_alpha   90.00000000
_cell_angle_beta   90.00000000
_cell_angle_gamma   120.00000368
_symmetry_Int_Tables_number   1
_chemical_formula_structural   Hf10CoOs3
_chemical_formula_sum   'Hf20 Co2 Os6'
_cell_volume   552.09133412
_cell_formula_units_Z   2
loop_
 _symmetry_equiv_pos_site_id
 _symmetry_equiv_pos_as_xyz
  1  'x, y, z'
loop_
 _atom_site_type_symbol
 _atom_site_label
 _atom_site_symmetry_multiplicity
 _atom_site_fract_x
 _atom_site_fract_y
 _atom_site_fract_z
 _atom_site_occupancy
  Hf  Hf0  1  0.202382  0.797618  0.441306  1
  Hf  Hf1  1  0.202382  0.404766  0.441306  1
  Hf  Hf2  1  0.595234  0.797618  0.441306  1
  Hf  Hf3  1  0.797618  0.202382  0.558694  1
  Hf  Hf4  1  0.797618  0.595234  0.558694  1
  Hf  Hf5  1  0.404766  0.202382  0.558694  1
  Hf  Hf6  1  0.797618  0.202382  0.941306  1
  Hf  Hf7  1  0.797618  0.595234  0.941306  1
  Hf  Hf8  1  0.404766  0.202382  0.941306  1
  Hf  Hf9  1  0.202382  0.797618  0.058694  1
  Hf  Hf10  1  0.202382  0.404766  0.058694  1
  Hf  Hf11  1  0.595234  0.797618  0.058694  1
  Hf  Hf12  1  0.541383  0.458617  0.250000  1
  Hf  Hf13  1  0.541383  0.082766  0.250000  1
  Hf  Hf14  1  0.917234  0.458617  0.250000  1
  Hf  Hf15  1  0.458617  0.541383  0.750000  1
  Hf  Hf16  1  0.458617  0.917234  0.750000  1
  Hf  Hf17  1  0.082766  0.541383  0.750000  1
  Hf  Hf18  1  0.000000  0.000000  0.500000  1
  Hf  Hf19  1  0.000000  0.000000  0.000000  1
  Co  Co20  1  0.333333  0.666667  0.250000  1
  Co  Co21  1  0.666667  0.333333  0.750000  1
  Os  Os22  1  0.881001  0.118999  0.250000  1
  Os  Os23  1  0.881001  0.762004  0.250000  1
  Os  Os24  1  0.237996  0.118999  0.250000  1
  Os  Os25  1  0.118999  0.881001  0.750000  1
  Os  Os26  1  0.118999  0.237996  0.750000  1
  Os  Os27  1  0.762004  0.881001  0.750000  1
