# generated using pymatgen
data_Tm(Mn2P)2
_symmetry_space_group_name_H-M   'P 1'
_cell_length_a   6.94301000
_cell_length_b   6.94301000
_cell_length_c   3.69068700
_cell_angle_alpha   90.00000000
_cell_angle_beta   90.00000000
_cell_angle_gamma   90.00000000
_symmetry_Int_Tables_number   1
_chemical_formula_structural   Tm(Mn2P)2
_chemical_formula_sum   'Tm2 Mn8 P4'
_cell_volume   177.91099831
_cell_formula_units_Z   2
loop_
 _symmetry_equiv_pos_site_id
 _symmetry_equiv_pos_as_xyz
  1  'x, y, z'
loop_
 _atom_site_type_symbol
 _atom_site_label
 _atom_site_symmetry_multiplicity
 _atom_site_fract_x
 _atom_site_fract_y
 _atom_site_fract_z
 _atom_site_occupancy
  Tm  Tm0  1  0.500000  0.500000  0.000000  1
  Tm  Tm1  1  0.000000  0.000000  0.500000  1
  Mn  Mn2  1  0.584499  0.153433  0.500000  1
  Mn  Mn3  1  0.415501  0.846567  0.500000  1
  Mn  Mn4  1  0.084499  0.346567  0.000000  1
  Mn  Mn5  1  0.915501  0.653433  0.000000  1
  Mn  Mn6  1  0.153433  0.584499  0.500000  1
  Mn  Mn7  1  0.846567  0.415501  0.500000  1
  Mn  Mn8  1  0.346567  0.084499  0.000000  1
  Mn  Mn9  1  0.653433  0.915501  0.000000  1
  P  P10  1  0.715005  0.715005  0.500000  1
  P  P11  1  0.284995  0.284995  0.500000  1
  P  P12  1  0.215005  0.784995  0.000000  1
  P  P13  1  0.784995  0.215005  0.000000  1
