# generated using pymatgen
data_Tm2MgB2IrRh4
_symmetry_space_group_name_H-M   'P 1'
_cell_length_a   9.60740800
_cell_length_b   9.60740800
_cell_length_c   3.16417300
_cell_angle_alpha   90.00000000
_cell_angle_beta   90.00000000
_cell_angle_gamma   90.00000000
_symmetry_Int_Tables_number   1
_chemical_formula_structural   Tm2MgB2IrRh4
_chemical_formula_sum   'Tm4 Mg2 B4 Ir2 Rh8'
_cell_volume   292.06040904
_cell_formula_units_Z   2
loop_
 _symmetry_equiv_pos_site_id
 _symmetry_equiv_pos_as_xyz
  1  'x, y, z'
loop_
 _atom_site_type_symbol
 _atom_site_label
 _atom_site_symmetry_multiplicity
 _atom_site_fract_x
 _atom_site_fract_y
 _atom_site_fract_z
 _atom_site_occupancy
  Tm  Tm0  1  0.676675  0.176675  0.000000  1
  Tm  Tm1  1  0.323325  0.823325  0.000000  1
  Tm  Tm2  1  0.176675  0.323325  0.000000  1
  Tm  Tm3  1  0.823325  0.676675  0.000000  1
  Mg  Mg4  1  0.000000  0.000000  0.000000  1
  Mg  Mg5  1  0.500000  0.500000  0.000000  1
  B  B6  1  0.122485  0.622485  0.000000  1
  B  B7  1  0.877515  0.377515  0.000000  1
  B  B8  1  0.622485  0.877515  0.000000  1
  B  B9  1  0.377515  0.122485  0.000000  1
  Ir  Ir10  1  0.500000  0.000000  0.500000  1
  Ir  Ir11  1  0.000000  0.500000  0.500000  1
  Rh  Rh12  1  0.223162  0.070606  0.500000  1
  Rh  Rh13  1  0.776838  0.929394  0.500000  1
  Rh  Rh14  1  0.070606  0.776838  0.500000  1
  Rh  Rh15  1  0.723162  0.429394  0.500000  1
  Rh  Rh16  1  0.929394  0.223162  0.500000  1
  Rh  Rh17  1  0.276838  0.570606  0.500000  1
  Rh  Rh18  1  0.570606  0.723162  0.500000  1
  Rh  Rh19  1  0.429394  0.276838  0.500000  1
