# generated using pymatgen
data_Nd2Tm3Pb4
_symmetry_space_group_name_H-M   'P 1'
_cell_length_a   8.21438900
_cell_length_b   8.30747900
_cell_length_c   15.61587200
_cell_angle_alpha   90.00000000
_cell_angle_beta   90.00000000
_cell_angle_gamma   90.00000000
_symmetry_Int_Tables_number   1
_chemical_formula_structural   Nd2Tm3Pb4
_chemical_formula_sum   'Nd8 Tm12 Pb16'
_cell_volume   1065.64059919
_cell_formula_units_Z   4
loop_
 _symmetry_equiv_pos_site_id
 _symmetry_equiv_pos_as_xyz
  1  'x, y, z'
loop_
 _atom_site_type_symbol
 _atom_site_label
 _atom_site_symmetry_multiplicity
 _atom_site_fract_x
 _atom_site_fract_y
 _atom_site_fract_z
 _atom_site_occupancy
  Nd  Nd0  1  0.473110  0.677367  0.597492  1
  Nd  Nd1  1  0.973110  0.822633  0.902508  1
  Nd  Nd2  1  0.526890  0.322633  0.097492  1
  Nd  Nd3  1  0.026890  0.177367  0.402508  1
  Nd  Nd4  1  0.526890  0.322633  0.402508  1
  Nd  Nd5  1  0.026890  0.177367  0.097492  1
  Nd  Nd6  1  0.473110  0.677367  0.902508  1
  Nd  Nd7  1  0.973110  0.822633  0.597492  1
  Tm  Tm8  1  0.633097  0.157913  0.622716  1
  Tm  Tm9  1  0.133097  0.342087  0.877284  1
  Tm  Tm10  1  0.366903  0.842087  0.122716  1
  Tm  Tm11  1  0.866903  0.657913  0.377284  1
  Tm  Tm12  1  0.366903  0.842087  0.377284  1
  Tm  Tm13  1  0.866903  0.657913  0.122716  1
  Tm  Tm14  1  0.633097  0.157913  0.877284  1
  Tm  Tm15  1  0.133097  0.342087  0.622716  1
  Tm  Tm16  1  0.799531  0.494031  0.750000  1
  Tm  Tm17  1  0.299531  0.005969  0.750000  1
  Tm  Tm18  1  0.200469  0.505969  0.250000  1
  Tm  Tm19  1  0.700469  0.994031  0.250000  1
  Pb  Pb20  1  0.705770  0.959200  0.456544  1
  Pb  Pb21  1  0.205770  0.540800  0.043456  1
  Pb  Pb22  1  0.294230  0.040800  0.956544  1
  Pb  Pb23  1  0.794230  0.459200  0.543456  1
  Pb  Pb24  1  0.294230  0.040800  0.543456  1
  Pb  Pb25  1  0.794230  0.459200  0.956544  1
  Pb  Pb26  1  0.705770  0.959200  0.043456  1
  Pb  Pb27  1  0.205770  0.540800  0.456544  1
  Pb  Pb28  1  0.437602  0.371098  0.750000  1
  Pb  Pb29  1  0.937602  0.128902  0.750000  1
  Pb  Pb30  1  0.562398  0.628902  0.250000  1
  Pb  Pb31  1  0.062398  0.871098  0.250000  1
  Pb  Pb32  1  0.662686  0.848983  0.750000  1
  Pb  Pb33  1  0.162686  0.651017  0.750000  1
  Pb  Pb34  1  0.337314  0.151017  0.250000  1
  Pb  Pb35  1  0.837314  0.348983  0.250000  1
