# generated using pymatgen
data_Ba5Bi3F
_symmetry_space_group_name_H-M   'P 1'
_cell_length_a   10.47756901
_cell_length_b   10.47756808
_cell_length_c   10.47756948
_cell_angle_alpha   124.99438364
_cell_angle_beta   124.99437641
_cell_angle_gamma   81.54734030
_symmetry_Int_Tables_number   1
_chemical_formula_structural   Ba5Bi3F
_chemical_formula_sum   'Ba10 Bi6 F2'
_cell_volume   743.01883191
_cell_formula_units_Z   2
loop_
 _symmetry_equiv_pos_site_id
 _symmetry_equiv_pos_as_xyz
  1  'x, y, z'
loop_
 _atom_site_type_symbol
 _atom_site_label
 _atom_site_symmetry_multiplicity
 _atom_site_fract_x
 _atom_site_fract_y
 _atom_site_fract_z
 _atom_site_occupancy
  Ba  Ba0  1  0.500000  0.500000  0.000000  1
  Ba  Ba1  1  0.000000  0.000000  0.000000  1
  Ba  Ba2  1  0.509433  0.009433  0.803058  1
  Ba  Ba3  1  0.206375  0.706375  0.196942  1
  Ba  Ba4  1  0.009433  0.206375  0.500000  1
  Ba  Ba5  1  0.706375  0.509433  0.500000  1
  Ba  Ba6  1  0.490567  0.990567  0.196942  1
  Ba  Ba7  1  0.793625  0.293625  0.803058  1
  Ba  Ba8  1  0.990567  0.793625  0.500000  1
  Ba  Ba9  1  0.293625  0.490567  0.500000  1
  Bi  Bi10  1  0.250000  0.250000  0.000000  1
  Bi  Bi11  1  0.750000  0.750000  0.000000  1
  Bi  Bi12  1  0.847886  0.347886  0.195772  1
  Bi  Bi13  1  0.152114  0.652114  0.804229  1
  Bi  Bi14  1  0.347886  0.152114  0.500000  1
  Bi  Bi15  1  0.652114  0.847886  0.500000  1
  F  F16  1  0.250000  0.750000  0.500000  1
  F  F17  1  0.750000  0.250000  0.500000  1
