# generated using pymatgen
data_Ba10MgNb4O20
_symmetry_space_group_name_H-M   'P 1'
_cell_length_a   9.43133258
_cell_length_b   9.43133131
_cell_length_c   9.43128126
_cell_angle_alpha   120.72646544
_cell_angle_beta   120.72537279
_cell_angle_gamma   88.74755658
_symmetry_Int_Tables_number   1
_chemical_formula_structural   Ba10MgNb4O20
_chemical_formula_sum   'Ba10 Mg1 Nb4 O20'
_cell_volume   586.53822085
_cell_formula_units_Z   1
loop_
 _symmetry_equiv_pos_site_id
 _symmetry_equiv_pos_as_xyz
  1  'x, y, z'
loop_
 _atom_site_type_symbol
 _atom_site_label
 _atom_site_symmetry_multiplicity
 _atom_site_fract_x
 _atom_site_fract_y
 _atom_site_fract_z
 _atom_site_occupancy
  Ba  Ba0  1  0.761904  0.146412  0.194145  1
  Ba  Ba1  1  0.355702  0.355702  0.000000  1
  Ba  Ba2  1  0.952268  0.567758  0.805855  1
  Ba  Ba3  1  0.567756  0.761908  0.615491  1
  Ba  Ba4  1  0.146416  0.952265  0.384509  1
  Ba  Ba5  1  0.644298  0.644298  0.000000  1
  Ba  Ba6  1  0.238096  0.853588  0.805855  1
  Ba  Ba7  1  0.853584  0.047735  0.615491  1
  Ba  Ba8  1  0.432244  0.238092  0.384509  1
  Ba  Ba9  1  0.047732  0.432242  0.194145  1
  Mg  Mg10  1  0.000000  0.000000  0.000000  1
  Nb  Nb11  1  0.600439  0.199867  0.800306  1
  Nb  Nb12  1  0.199876  0.399547  0.599423  1
  Nb  Nb13  1  0.800124  0.600453  0.400577  1
  Nb  Nb14  1  0.399561  0.800133  0.199694  1
  O  O15  1  0.553899  0.950146  0.202372  1
  O  O16  1  0.163301  0.163301  0.000000  1
  O  O17  1  0.747774  0.351527  0.797628  1
  O  O18  1  0.351524  0.553897  0.603753  1
  O  O19  1  0.950143  0.747771  0.396246  1
  O  O20  1  0.836699  0.836699  0.000000  1
  O  O21  1  0.446101  0.049854  0.797628  1
  O  O22  1  0.049857  0.252229  0.603754  1
  O  O23  1  0.648476  0.446103  0.396247  1
  O  O24  1  0.252226  0.648473  0.202372  1
  O  O25  1  0.700299  0.396895  0.097194  1
  O  O26  1  0.299701  0.603105  0.902806  1
  O  O27  1  0.898818  0.794769  0.693588  1
  O  O28  1  0.500000  0.000000  0.500000  1
  O  O29  1  0.101182  0.205231  0.306412  1
  O  O30  1  0.000000  0.500000  0.500000  1
  O  O31  1  0.603134  0.700280  0.303414  1
  O  O32  1  0.205205  0.898827  0.104032  1
  O  O33  1  0.794795  0.101173  0.895968  1
  O  O34  1  0.396866  0.299720  0.696586  1
