# generated using pymatgen
data_Pr5(NpSe4)3
_symmetry_space_group_name_H-M   'P 1'
_cell_length_a   4.20326400
_cell_length_b   11.02496657
_cell_length_c   11.51063707
_cell_angle_alpha   90.14716593
_cell_angle_beta   90.00000000
_cell_angle_gamma   90.00000000
_symmetry_Int_Tables_number   1
_chemical_formula_structural   Pr5(NpSe4)3
_chemical_formula_sum   'Pr5 Np3 Se12'
_cell_volume   533.41088950
_cell_formula_units_Z   1
loop_
 _symmetry_equiv_pos_site_id
 _symmetry_equiv_pos_as_xyz
  1  'x, y, z'
loop_
 _atom_site_type_symbol
 _atom_site_label
 _atom_site_symmetry_multiplicity
 _atom_site_fract_x
 _atom_site_fract_y
 _atom_site_fract_z
 _atom_site_occupancy
  Pr  Pr0  1  0.250000  0.996820  0.806859  1
  Pr  Pr1  1  0.750000  0.999713  0.193586  1
  Pr  Pr2  1  0.750000  0.498674  0.696802  1
  Pr  Pr3  1  0.250000  0.504927  0.303789  1
  Pr  Pr4  1  0.250000  0.188120  0.490494  1
  Np  Np5  1  0.750000  0.810466  0.506314  1
  Np  Np6  1  0.750000  0.686085  0.004952  1
  Np  Np7  1  0.250000  0.314335  0.993690  1
  Se  Se8  1  0.250000  0.299236  0.733728  1
  Se  Se9  1  0.750000  0.704733  0.267816  1
  Se  Se10  1  0.750000  0.794384  0.770342  1
  Se  Se11  1  0.250000  0.201447  0.226899  1
  Se  Se12  1  0.250000  0.941282  0.380173  1
  Se  Se13  1  0.750000  0.050549  0.621353  1
  Se  Se14  1  0.750000  0.445330  0.116866  1
  Se  Se15  1  0.250000  0.556199  0.884208  1
  Se  Se16  1  0.250000  0.866709  0.045530  1
  Se  Se17  1  0.750000  0.131146  0.955131  1
  Se  Se18  1  0.750000  0.377220  0.454438  1
  Se  Se19  1  0.250000  0.632625  0.547032  1
