# generated using pymatgen
data_Nd16CdAg(HgPt2)2
_symmetry_space_group_name_H-M   'P 1'
_cell_length_a   9.96963128
_cell_length_b   9.98452393
_cell_length_c   9.98765414
_cell_angle_alpha   60.17864622
_cell_angle_beta   60.16064677
_cell_angle_gamma   60.27963323
_symmetry_Int_Tables_number   1
_chemical_formula_structural   Nd16CdAg(HgPt2)2
_chemical_formula_sum   'Nd16 Cd1 Ag1 Hg2 Pt4'
_cell_volume   706.28164329
_cell_formula_units_Z   1
loop_
 _symmetry_equiv_pos_site_id
 _symmetry_equiv_pos_as_xyz
  1  'x, y, z'
loop_
 _atom_site_type_symbol
 _atom_site_label
 _atom_site_symmetry_multiplicity
 _atom_site_fract_x
 _atom_site_fract_y
 _atom_site_fract_z
 _atom_site_occupancy
  Nd  Nd0  1  0.350441  0.350081  0.349932  1
  Nd  Nd1  1  0.353512  0.353065  0.941662  1
  Nd  Nd2  1  0.353402  0.941796  0.353064  1
  Nd  Nd3  1  0.940031  0.353689  0.353781  1
  Nd  Nd4  1  0.810295  0.191624  0.191840  1
  Nd  Nd5  1  0.189253  0.809951  0.810023  1
  Nd  Nd6  1  0.190319  0.811018  0.191624  1
  Nd  Nd7  1  0.809264  0.190209  0.809517  1
  Nd  Nd8  1  0.190500  0.191618  0.810899  1
  Nd  Nd9  1  0.809219  0.809446  0.190387  1
  Nd  Nd10  1  0.935573  0.564099  0.563939  1
  Nd  Nd11  1  0.561134  0.936700  0.936700  1
  Nd  Nd12  1  0.563325  0.936654  0.563791  1
  Nd  Nd13  1  0.935813  0.561807  0.936910  1
  Nd  Nd14  1  0.563203  0.563851  0.936761  1
  Nd  Nd15  1  0.935880  0.936958  0.561654  1
  Cd  Cd16  1  0.259720  0.580499  0.580503  1
  Ag  Ag17  1  0.582316  0.584283  0.584212  1
  Hg  Hg18  1  0.583688  0.585896  0.247324  1
  Hg  Hg19  1  0.583673  0.247312  0.585900  1
  Pt  Pt20  1  0.144439  0.144617  0.144728  1
  Pt  Pt21  1  0.142501  0.142492  0.569848  1
  Pt  Pt22  1  0.142510  0.569854  0.142510  1
  Pt  Pt23  1  0.569989  0.142483  0.142491  1
