# generated using pymatgen
data_TaTi8Nb3(BOs)12
_symmetry_space_group_name_H-M   'P 1'
_cell_length_a   3.08417300
_cell_length_b   8.97974238
_cell_length_c   15.48963393
_cell_angle_alpha   90.02187719
_cell_angle_beta   90.00000000
_cell_angle_gamma   90.00000000
_symmetry_Int_Tables_number   1
_chemical_formula_structural   TaTi8Nb3(BOs)12
_chemical_formula_sum   'Ta1 Ti8 Nb3 B12 Os12'
_cell_volume   428.98660386
_cell_formula_units_Z   1
loop_
 _symmetry_equiv_pos_site_id
 _symmetry_equiv_pos_as_xyz
  1  'x, y, z'
loop_
 _atom_site_type_symbol
 _atom_site_label
 _atom_site_symmetry_multiplicity
 _atom_site_fract_x
 _atom_site_fract_y
 _atom_site_fract_z
 _atom_site_occupancy
  Ta  Ta0  1  0.000000  0.685069  0.204631  1
  Ti  Ti1  1  0.000000  0.800729  0.494759  1
  Ti  Ti2  1  0.000000  0.198875  0.505147  1
  Ti  Ti3  1  0.000000  0.301131  0.005219  1
  Ti  Ti4  1  0.000000  0.699917  0.994912  1
  Ti  Ti5  1  0.000000  0.514401  0.594297  1
  Ti  Ti6  1  0.000000  0.485230  0.405766  1
  Ti  Ti7  1  0.000000  0.014692  0.905744  1
  Ti  Ti8  1  0.000000  0.985457  0.094045  1
  Nb  Nb9  1  0.000000  0.314616  0.795802  1
  Nb  Nb10  1  0.000000  0.185312  0.295571  1
  Nb  Nb11  1  0.000000  0.814506  0.704312  1
  B  B12  1  0.500000  0.603160  0.495283  1
  B  B13  1  0.500000  0.396523  0.504605  1
  B  B14  1  0.500000  0.103664  0.004546  1
  B  B15  1  0.500000  0.897065  0.995239  1
  B  B16  1  0.000000  0.609792  0.834393  1
  B  B17  1  0.000000  0.390119  0.165756  1
  B  B18  1  0.000000  0.109658  0.665693  1
  B  B19  1  0.000000  0.890163  0.334287  1
  B  B20  1  0.500000  0.712175  0.598027  1
  B  B21  1  0.500000  0.287658  0.401829  1
  B  B22  1  0.500000  0.212444  0.902005  1
  B  B23  1  0.500000  0.787759  0.098466  1
  Os  Os24  1  0.500000  0.716656  0.359342  1
  Os  Os25  1  0.500000  0.283023  0.640322  1
  Os  Os26  1  0.500000  0.217071  0.140526  1
  Os  Os27  1  0.500000  0.783185  0.859564  1
  Os  Os28  1  0.500000  0.520595  0.093331  1
  Os  Os29  1  0.500000  0.480418  0.907232  1
  Os  Os30  1  0.500000  0.019538  0.406912  1
  Os  Os31  1  0.500000  0.979972  0.592817  1
  Os  Os32  1  0.500000  0.564801  0.731464  1
  Os  Os33  1  0.500000  0.435509  0.268563  1
  Os  Os34  1  0.500000  0.064817  0.768470  1
  Os  Os35  1  0.500000  0.934300  0.231124  1
