# generated using pymatgen
data_Yb10Ce2OsRu3
_symmetry_space_group_name_H-M   'P 1'
_cell_length_a   6.33929626
_cell_length_b   7.54683829
_cell_length_c   9.54273100
_cell_angle_alpha   90.00000000
_cell_angle_beta   90.00000000
_cell_angle_gamma   86.76282028
_symmetry_Int_Tables_number   1
_chemical_formula_structural   Yb10Ce2OsRu3
_chemical_formula_sum   'Yb10 Ce2 Os1 Ru3'
_cell_volume   455.81145066
_cell_formula_units_Z   1
loop_
 _symmetry_equiv_pos_site_id
 _symmetry_equiv_pos_as_xyz
  1  'x, y, z'
loop_
 _atom_site_type_symbol
 _atom_site_label
 _atom_site_symmetry_multiplicity
 _atom_site_fract_x
 _atom_site_fract_y
 _atom_site_fract_z
 _atom_site_occupancy
  Yb  Yb0  1  0.669884  0.169338  0.069397  1
  Yb  Yb1  1  0.367089  0.539507  0.250000  1
  Yb  Yb2  1  0.843922  0.669185  0.070429  1
  Yb  Yb3  1  0.156241  0.328458  0.933387  1
  Yb  Yb4  1  0.333025  0.831634  0.931615  1
  Yb  Yb5  1  0.633659  0.458764  0.750000  1
  Yb  Yb6  1  0.333025  0.831634  0.568385  1
  Yb  Yb7  1  0.156241  0.328458  0.566613  1
  Yb  Yb8  1  0.843922  0.669185  0.429571  1
  Yb  Yb9  1  0.669884  0.169338  0.430603  1
  Ce  Ce10  1  0.839677  0.940323  0.750000  1
  Ce  Ce11  1  0.161409  0.055762  0.250000  1
  Os  Os12  1  0.986413  0.352471  0.250000  1
  Ru  Ru13  1  0.518436  0.103684  0.750000  1
  Ru  Ru14  1  0.482278  0.895133  0.250000  1
  Ru  Ru15  1  0.004898  0.657123  0.750000  1
