# generated using pymatgen
data_CaPr2Nd4IrBr12
_symmetry_space_group_name_H-M   'P 1'
_cell_length_a   9.66691977
_cell_length_b   9.55035211
_cell_length_c   9.65944114
_cell_angle_alpha   106.98388247
_cell_angle_beta   107.29104390
_cell_angle_gamma   107.14296287
_symmetry_Int_Tables_number   1
_chemical_formula_structural   CaPr2Nd4IrBr12
_chemical_formula_sum   'Ca1 Pr2 Nd4 Ir1 Br12'
_cell_volume   739.84160419
_cell_formula_units_Z   1
loop_
 _symmetry_equiv_pos_site_id
 _symmetry_equiv_pos_as_xyz
  1  'x, y, z'
loop_
 _atom_site_type_symbol
 _atom_site_label
 _atom_site_symmetry_multiplicity
 _atom_site_fract_x
 _atom_site_fract_y
 _atom_site_fract_z
 _atom_site_occupancy
  Ca  Ca0  1  0.500089  0.499844  0.499644  1
  Pr  Pr1  1  0.679236  0.974525  0.890173  1
  Pr  Pr2  1  0.895672  0.689819  0.975034  1
  Nd  Nd3  1  0.104885  0.308685  0.025306  1
  Nd  Nd4  1  0.318814  0.025340  0.109464  1
  Nd  Nd5  1  0.026628  0.108843  0.318886  1
  Nd  Nd6  1  0.973361  0.892227  0.681691  1
  Ir  Ir7  1  0.000253  0.000350  0.000464  1
  Br  Br8  1  0.220122  0.683727  0.072721  1
  Br  Br9  1  0.456512  0.377866  0.167501  1
  Br  Br10  1  0.685423  0.073496  0.220248  1
  Br  Br11  1  0.927718  0.782515  0.317288  1
  Br  Br12  1  0.168169  0.458068  0.377383  1
  Br  Br13  1  0.377234  0.165276  0.457146  1
  Br  Br14  1  0.622854  0.833697  0.540672  1
  Br  Br15  1  0.831605  0.541859  0.620086  1
  Br  Br16  1  0.072944  0.219317  0.685513  1
  Br  Br17  1  0.313249  0.927115  0.781792  1
  Br  Br18  1  0.540987  0.619193  0.830404  1
  Br  Br19  1  0.784249  0.318239  0.928588  1
