# generated using pymatgen
data_Ce3Dy(BRu)16
_symmetry_space_group_name_H-M   'P 1'
_cell_length_a   9.26196834
_cell_length_b   7.51111394
_cell_length_c   7.51111455
_cell_angle_alpha   89.83753883
_cell_angle_beta   113.99339299
_cell_angle_gamma   113.99339212
_symmetry_Int_Tables_number   1
_chemical_formula_structural   Ce3Dy(BRu)16
_chemical_formula_sum   'Ce3 Dy1 B16 Ru16'
_cell_volume   427.78395308
_cell_formula_units_Z   1
loop_
 _symmetry_equiv_pos_site_id
 _symmetry_equiv_pos_as_xyz
  1  'x, y, z'
loop_
 _atom_site_type_symbol
 _atom_site_label
 _atom_site_symmetry_multiplicity
 _atom_site_fract_x
 _atom_site_fract_y
 _atom_site_fract_z
 _atom_site_occupancy
  Ce  Ce0  1  0.750000  0.875000  0.125000  1
  Ce  Ce1  1  0.249999  0.625000  0.375000  1
  Ce  Ce2  1  0.750000  0.375000  0.625000  1
  Dy  Dy3  1  0.249999  0.125000  0.875000  1
  B  B4  1  0.914248  0.288908  0.065674  1
  B  B5  1  0.414540  0.565878  0.124774  1
  B  B6  1  0.085460  0.210234  0.151337  1
  B  B7  1  0.583999  0.149819  0.209201  1
  B  B8  1  0.413107  0.064837  0.287706  1
  B  B9  1  0.914248  0.625341  0.348574  1
  B  B10  1  0.585752  0.651427  0.374660  1
  B  B11  1  0.085460  0.875227  0.434123  1
  B  B12  1  0.916001  0.125201  0.565821  1
  B  B13  1  0.413107  0.348270  0.625401  1
  B  B14  1  0.086893  0.374600  0.651731  1
  B  B15  1  0.585752  0.934325  0.711093  1
  B  B16  1  0.414540  0.848662  0.789767  1
  B  B17  1  0.916001  0.790800  0.850181  1
  B  B18  1  0.583999  0.434180  0.874799  1
  B  B19  1  0.086893  0.712294  0.935162  1
  Ru  Ru20  1  0.872257  0.550558  0.036454  1
  Ru  Ru21  1  0.372397  0.833429  0.050499  1
  Ru  Ru22  1  0.127603  0.949502  0.166571  1
  Ru  Ru23  1  0.627289  0.462538  0.177960  1
  Ru  Ru24  1  0.373209  0.335994  0.321882  1
  Ru  Ru25  1  0.872257  0.321699  0.335804  1
  Ru  Ru26  1  0.627744  0.963546  0.449442  1
  Ru  Ru27  1  0.127603  0.178102  0.461031  1
  Ru  Ru28  1  0.872712  0.822041  0.537461  1
  Ru  Ru29  1  0.373209  0.037215  0.551326  1
  Ru  Ru30  1  0.126791  0.678117  0.664005  1
  Ru  Ru31  1  0.627744  0.664196  0.678300  1
  Ru  Ru32  1  0.372397  0.538968  0.821899  1
  Ru  Ru33  1  0.872712  0.050671  0.835251  1
  Ru  Ru34  1  0.627289  0.164750  0.949330  1
  Ru  Ru35  1  0.126791  0.448673  0.962786  1
