# generated using pymatgen
data_Rb4Pu2Si8O23
_symmetry_space_group_name_H-M   'P 1'
_cell_length_a   6.97429737
_cell_length_b   7.97885107
_cell_length_c   11.63275622
_cell_angle_alpha   104.49914344
_cell_angle_beta   89.48121498
_cell_angle_gamma   106.08325105
_symmetry_Int_Tables_number   1
_chemical_formula_structural   Rb4Pu2Si8O23
_chemical_formula_sum   'Rb4 Pu2 Si8 O23'
_cell_volume   600.91415572
_cell_formula_units_Z   1
loop_
 _symmetry_equiv_pos_site_id
 _symmetry_equiv_pos_as_xyz
  1  'x, y, z'
loop_
 _atom_site_type_symbol
 _atom_site_label
 _atom_site_symmetry_multiplicity
 _atom_site_fract_x
 _atom_site_fract_y
 _atom_site_fract_z
 _atom_site_occupancy
  Rb  Rb0  1  0.323635  0.278546  0.643881  1
  Rb  Rb1  1  0.676365  0.721454  0.356119  1
  Rb  Rb2  1  0.298645  0.221641  0.992410  1
  Rb  Rb3  1  0.701355  0.778359  0.007590  1
  Pu  Pu4  1  0.792810  0.247766  0.815325  1
  Pu  Pu5  1  0.207190  0.752234  0.184675  1
  Si  Si6  1  0.509205  0.196962  0.302369  1
  Si  Si7  1  0.490795  0.803038  0.697631  1
  Si  Si8  1  0.944808  0.858979  0.712410  1
  Si  Si9  1  0.055192  0.141021  0.287590  1
  Si  Si10  1  0.844882  0.303975  0.498704  1
  Si  Si11  1  0.155118  0.696025  0.501296  1
  Si  Si12  1  0.174207  0.679068  0.867231  1
  Si  Si13  1  0.825793  0.320932  0.132769  1
  O  O14  1  0.486377  0.984458  0.252031  1
  O  O15  1  0.513623  0.015542  0.747969  1
  O  O16  1  0.622513  0.312723  0.210051  1
  O  O17  1  0.377487  0.687277  0.789949  1
  O  O18  1  0.627923  0.289310  0.434946  1
  O  O19  1  0.372077  0.710690  0.565054  1
  O  O20  1  0.293152  0.242910  0.322246  1
  O  O21  1  0.706848  0.757090  0.677754  1
  O  O22  1  0.981274  0.072395  0.779472  1
  O  O23  1  0.018726  0.927605  0.220528  1
  O  O24  1  0.024418  0.760271  0.800498  1
  O  O25  1  0.975582  0.239729  0.199502  1
  O  O26  1  0.061971  0.848718  0.589235  1
  O  O27  1  0.938029  0.151282  0.410765  1
  O  O28  1  0.000000  0.500000  0.500000  1
  O  O29  1  0.815848  0.266174  0.626317  1
  O  O30  1  0.184152  0.733826  0.373683  1
  O  O31  1  0.072152  0.466878  0.859017  1
  O  O32  1  0.927848  0.533122  0.140983  1
  O  O33  1  0.232089  0.805873  0.001268  1
  O  O34  1  0.767911  0.194127  0.998732  1
  O  O35  1  0.627763  0.402046  0.853475  1
  O  O36  1  0.372237  0.597954  0.146525  1
