# generated using pymatgen
data_Ca3Dy(ReN3)4
_symmetry_space_group_name_H-M   'P 1'
_cell_length_a   7.42192911
_cell_length_b   7.42192789
_cell_length_c   6.27445501
_cell_angle_alpha   74.15357717
_cell_angle_beta   74.15359237
_cell_angle_gamma   83.83950918
_symmetry_Int_Tables_number   1
_chemical_formula_structural   Ca3Dy(ReN3)4
_chemical_formula_sum   'Ca3 Dy1 Re4 N12'
_cell_volume   319.65751507
_cell_formula_units_Z   1
loop_
 _symmetry_equiv_pos_site_id
 _symmetry_equiv_pos_as_xyz
  1  'x, y, z'
loop_
 _atom_site_type_symbol
 _atom_site_label
 _atom_site_symmetry_multiplicity
 _atom_site_fract_x
 _atom_site_fract_y
 _atom_site_fract_z
 _atom_site_occupancy
  Ca  Ca0  1  0.295381  0.704619  0.750000  1
  Ca  Ca1  1  0.088901  0.911099  0.250000  1
  Ca  Ca2  1  0.705094  0.294906  0.250000  1
  Dy  Dy3  1  0.910271  0.089729  0.750000  1
  Re  Re4  1  0.623395  0.797280  0.269308  1
  Re  Re5  1  0.202720  0.376605  0.230692  1
  Re  Re6  1  0.378088  0.203487  0.727436  1
  Re  Re7  1  0.796513  0.621912  0.772564  1
  N  N8  1  0.340349  0.351528  0.939526  1
  N  N9  1  0.007070  0.222568  0.350910  1
  N  N10  1  0.777432  0.992930  0.149090  1
  N  N11  1  0.217978  0.014284  0.833795  1
  N  N12  1  0.656448  0.641569  0.063436  1
  N  N13  1  0.879006  0.383431  0.823931  1
  N  N14  1  0.124782  0.612617  0.170483  1
  N  N15  1  0.985716  0.782022  0.666205  1
  N  N16  1  0.387383  0.875218  0.329517  1
  N  N17  1  0.648472  0.659651  0.560474  1
  N  N18  1  0.616569  0.120994  0.676069  1
  N  N19  1  0.358431  0.343552  0.436564  1
