# generated using pymatgen
data_LaYb7(DyRh2)2
_symmetry_space_group_name_H-M   'P 1'
_cell_length_a   8.65027660
_cell_length_b   8.60952181
_cell_length_c   7.35828000
_cell_angle_alpha   82.89178202
_cell_angle_beta   83.34369513
_cell_angle_gamma   43.63066343
_symmetry_Int_Tables_number   1
_chemical_formula_structural   LaYb7(DyRh2)2
_chemical_formula_sum   'La1 Yb7 Dy2 Rh4'
_cell_volume   374.94388560
_cell_formula_units_Z   1
loop_
 _symmetry_equiv_pos_site_id
 _symmetry_equiv_pos_as_xyz
  1  'x, y, z'
loop_
 _atom_site_type_symbol
 _atom_site_label
 _atom_site_symmetry_multiplicity
 _atom_site_fract_x
 _atom_site_fract_y
 _atom_site_fract_z
 _atom_site_occupancy
  La  La0  1  0.801796  0.017126  0.416694  1
  Yb  Yb1  1  0.203446  0.982006  0.582258  1
  Yb  Yb2  1  0.021611  0.804000  0.917457  1
  Yb  Yb3  1  0.203051  0.367065  0.317216  1
  Yb  Yb4  1  0.633830  0.795709  0.180177  1
  Yb  Yb5  1  0.796098  0.630517  0.683763  1
  Yb  Yb6  1  0.367993  0.200197  0.817389  1
  Yb  Yb7  1  0.979881  0.202181  0.080756  1
  Dy  Dy8  1  0.568405  0.431706  0.750225  1
  Dy  Dy9  1  0.427491  0.576178  0.247465  1
  Rh  Rh10  1  0.183783  0.600087  0.576038  1
  Rh  Rh11  1  0.402562  0.811292  0.924044  1
  Rh  Rh12  1  0.809085  0.396694  0.425096  1
  Rh  Rh13  1  0.600968  0.185242  0.081420  1
