# generated using pymatgen
data_Ba4DyMnO8
_symmetry_space_group_name_H-M   'P 1'
_cell_length_a   7.41663693
_cell_length_b   7.41663696
_cell_length_c   5.90805300
_cell_angle_alpha   90.00000000
_cell_angle_beta   90.00000000
_cell_angle_gamma   133.13779092
_symmetry_Int_Tables_number   1
_chemical_formula_structural   Ba4DyMnO8
_chemical_formula_sum   'Ba4 Dy1 Mn1 O8'
_cell_volume   237.14260249
_cell_formula_units_Z   1
loop_
 _symmetry_equiv_pos_site_id
 _symmetry_equiv_pos_as_xyz
  1  'x, y, z'
loop_
 _atom_site_type_symbol
 _atom_site_label
 _atom_site_symmetry_multiplicity
 _atom_site_fract_x
 _atom_site_fract_y
 _atom_site_fract_z
 _atom_site_occupancy
  Ba  Ba0  1  0.357759  0.642241  0.000000  1
  Ba  Ba1  1  0.855375  0.144625  0.500000  1
  Ba  Ba2  1  0.144625  0.855375  0.500000  1
  Ba  Ba3  1  0.642241  0.357759  0.000000  1
  Dy  Dy4  1  0.000000  0.000000  0.000000  1
  Mn  Mn5  1  0.500000  0.500000  0.500000  1
  O  O6  1  0.266214  0.266214  0.730943  1
  O  O7  1  0.733786  0.733786  0.269057  1
  O  O8  1  0.733786  0.733786  0.730943  1
  O  O9  1  0.266214  0.266214  0.269057  1
  O  O10  1  0.165530  0.834470  0.000000  1
  O  O11  1  0.648071  0.351929  0.500000  1
  O  O12  1  0.351929  0.648071  0.500000  1
  O  O13  1  0.834470  0.165530  0.000000  1
