# generated using pymatgen
data_Th3SnGe2RuRh2
_symmetry_space_group_name_H-M   'P 1'
_cell_length_a   7.38108494
_cell_length_b   7.40772429
_cell_length_c   4.05225200
_cell_angle_alpha   90.00000000
_cell_angle_beta   90.00000000
_cell_angle_gamma   120.11947103
_symmetry_Int_Tables_number   1
_chemical_formula_structural   Th3SnGe2RuRh2
_chemical_formula_sum   'Th3 Sn1 Ge2 Ru1 Rh2'
_cell_volume   191.64963499
_cell_formula_units_Z   1
loop_
 _symmetry_equiv_pos_site_id
 _symmetry_equiv_pos_as_xyz
  1  'x, y, z'
loop_
 _atom_site_type_symbol
 _atom_site_label
 _atom_site_symmetry_multiplicity
 _atom_site_fract_x
 _atom_site_fract_y
 _atom_site_fract_z
 _atom_site_occupancy
  Th  Th0  1  0.419660  0.414694  0.500000  1
  Th  Th1  1  0.580340  0.995034  0.500000  1
  Th  Th2  1  0.000000  0.599062  0.500000  1
  Sn  Sn3  1  0.000000  0.244046  0.000000  1
  Ge  Ge4  1  0.751820  0.754575  0.000000  1
  Ge  Ge5  1  0.248180  0.002755  0.000000  1
  Ru  Ru6  1  0.000000  0.982616  0.500000  1
  Rh  Rh7  1  0.661528  0.334373  0.000000  1
  Rh  Rh8  1  0.338472  0.672846  0.000000  1
