# generated using pymatgen
data_TbY11(SiI3)4
_symmetry_space_group_name_H-M   'P 1'
_cell_length_a   10.49957689
_cell_length_b   10.50246783
_cell_length_c   10.50514659
_cell_angle_alpha   109.49037032
_cell_angle_beta   109.46501539
_cell_angle_gamma   109.44844923
_symmetry_Int_Tables_number   1
_chemical_formula_structural   TbY11(SiI3)4
_chemical_formula_sum   'Tb1 Y11 Si4 I12'
_cell_volume   891.85858996
_cell_formula_units_Z   1
loop_
 _symmetry_equiv_pos_site_id
 _symmetry_equiv_pos_as_xyz
  1  'x, y, z'
loop_
 _atom_site_type_symbol
 _atom_site_label
 _atom_site_symmetry_multiplicity
 _atom_site_fract_x
 _atom_site_fract_y
 _atom_site_fract_z
 _atom_site_occupancy
  Tb  Tb0  1  0.479807  0.229855  0.459784  1
  Y  Y1  1  0.269945  0.020031  0.039885  1
  Y  Y2  1  0.039319  0.269942  0.019607  1
  Y  Y3  1  0.480189  0.749623  0.019532  1
  Y  Y4  1  0.749915  0.230041  0.269921  1
  Y  Y5  1  0.020133  0.039955  0.270003  1
  Y  Y6  1  0.019940  0.480285  0.750295  1
  Y  Y7  1  0.230420  0.270008  0.750328  1
  Y  Y8  1  0.269764  0.749949  0.229998  1
  Y  Y9  1  0.230277  0.460354  0.480353  1
  Y  Y10  1  0.460191  0.479939  0.229969  1
  Y  Y11  1  0.750149  0.020076  0.480447  1
  Si  Si12  1  0.000190  0.250155  0.500282  1
  Si  Si13  1  0.250000  0.499986  0.000014  1
  Si  Si14  1  0.499956  0.999457  0.249517  1
  Si  Si15  1  0.249519  0.250075  0.249535  1
  I  I16  1  0.757251  0.743153  0.250230  1
  I  I17  1  0.506972  0.249843  0.993075  1
  I  I18  1  0.250930  0.993802  0.507180  1
  I  I19  1  0.513820  0.506358  0.756673  1
  I  I20  1  0.993189  0.986289  0.743193  1
  I  I21  1  0.742998  0.993007  0.986082  1
  I  I22  1  0.506947  0.756940  0.513881  1
  I  I23  1  0.756216  0.513240  0.507134  1
  I  I24  1  0.992997  0.507136  0.250227  1
  I  I25  1  0.986127  0.743248  0.993081  1
  I  I26  1  0.250012  0.756957  0.743140  1
  I  I27  1  0.742823  0.250296  0.756634  1
