# generated using pymatgen
data_Tb6PtBr10
_symmetry_space_group_name_H-M   'P 1'
_cell_length_a   7.41042442
_cell_length_b   9.30446263
_cell_length_c   9.35898724
_cell_angle_alpha   108.33620874
_cell_angle_beta   96.90642131
_cell_angle_gamma   105.56435285
_symmetry_Int_Tables_number   1
_chemical_formula_structural   Tb6PtBr10
_chemical_formula_sum   'Tb6 Pt1 Br10'
_cell_volume   575.10719621
_cell_formula_units_Z   1
loop_
 _symmetry_equiv_pos_site_id
 _symmetry_equiv_pos_as_xyz
  1  'x, y, z'
loop_
 _atom_site_type_symbol
 _atom_site_label
 _atom_site_symmetry_multiplicity
 _atom_site_fract_x
 _atom_site_fract_y
 _atom_site_fract_z
 _atom_site_occupancy
  Tb  Tb0  1  0.973889  0.302187  0.096671  1
  Tb  Tb1  1  0.026111  0.697813  0.903329  1
  Tb  Tb2  1  0.636595  0.862786  0.819054  1
  Tb  Tb3  1  0.363405  0.137214  0.180946  1
  Tb  Tb4  1  0.126613  0.045543  0.752026  1
  Tb  Tb5  1  0.873387  0.954457  0.247974  1
  Pt  Pt6  1  0.000000  0.000000  0.000000  1
  Br  Br7  1  0.548013  0.175055  0.916767  1
  Br  Br8  1  0.451987  0.824945  0.083233  1
  Br  Br9  1  0.747230  0.917283  0.542577  1
  Br  Br10  1  0.252770  0.082717  0.457423  1
  Br  Br11  1  0.086210  0.369127  0.829372  1
  Br  Br12  1  0.913790  0.630873  0.170628  1
  Br  Br13  1  0.211017  0.741613  0.651967  1
  Br  Br14  1  0.788983  0.258387  0.348033  1
  Br  Br15  1  0.641496  0.544077  0.726526  1
  Br  Br16  1  0.358504  0.455923  0.273474  1
