# generated using pymatgen
data_Sm4TmU5O19
_symmetry_space_group_name_H-M   'P 1'
_cell_length_a   6.77426136
_cell_length_b   7.59122325
_cell_length_c   8.54904900
_cell_angle_alpha   100.38013240
_cell_angle_beta   97.62133809
_cell_angle_gamma   107.27848716
_symmetry_Int_Tables_number   1
_chemical_formula_structural   Sm4TmU5O19
_chemical_formula_sum   'Sm4 Tm1 U5 O19'
_cell_volume   404.73400259
_cell_formula_units_Z   1
loop_
 _symmetry_equiv_pos_site_id
 _symmetry_equiv_pos_as_xyz
  1  'x, y, z'
loop_
 _atom_site_type_symbol
 _atom_site_label
 _atom_site_symmetry_multiplicity
 _atom_site_fract_x
 _atom_site_fract_y
 _atom_site_fract_z
 _atom_site_occupancy
  Sm  Sm0  1  0.802575  0.102014  0.600266  1
  Sm  Sm1  1  0.386125  0.298291  0.798090  1
  Sm  Sm2  1  0.608788  0.704670  0.203727  1
  Sm  Sm3  1  0.998626  0.501900  0.998385  1
  Tm  Tm4  1  0.209491  0.916748  0.386448  1
  U  U5  1  0.778266  0.597678  0.600126  1
  U  U6  1  0.606873  0.205435  0.198412  1
  U  U7  1  0.000987  0.002582  0.996616  1
  U  U8  1  0.408282  0.809145  0.813506  1
  U  U9  1  0.199211  0.389108  0.390000  1
  O  O10  1  0.346290  0.063530  0.952187  1
  O  O11  1  0.414713  0.979936  0.640492  1
  O  O12  1  0.041335  0.218786  0.853748  1
  O  O13  1  0.724667  0.379327  0.735993  1
  O  O14  1  0.148912  0.174322  0.531390  1
  O  O15  1  0.357315  0.592534  0.957478  1
  O  O16  1  0.957562  0.271294  0.158085  1
  O  O17  1  0.892321  0.380157  0.462304  1
  O  O18  1  0.745914  0.865107  0.756153  1
  O  O19  1  0.546636  0.463266  0.359264  1
  O  O20  1  0.408881  0.547097  0.636873  1
  O  O21  1  0.258764  0.130489  0.238779  1
  O  O22  1  0.057947  0.716942  0.804918  1
  O  O23  1  0.648035  0.414652  0.057650  1
  O  O24  1  0.880374  0.801846  0.461050  1
  O  O25  1  0.244987  0.630462  0.285263  1
  O  O26  1  0.960888  0.788393  0.135547  1
  O  O27  1  0.566895  0.998542  0.347996  1
  O  O28  1  0.662258  0.943383  0.047494  1
