# generated using pymatgen
data_Sc4TiGa(B2Ru5)2
_symmetry_space_group_name_H-M   'P 1'
_cell_length_a   9.41335500
_cell_length_b   9.41335500
_cell_length_c   3.03660400
_cell_angle_alpha   90.00000000
_cell_angle_beta   90.00000000
_cell_angle_gamma   90.00000000
_symmetry_Int_Tables_number   1
_chemical_formula_structural   Sc4TiGa(B2Ru5)2
_chemical_formula_sum   'Sc4 Ti1 Ga1 B4 Ru10'
_cell_volume   269.07728335
_cell_formula_units_Z   1
loop_
 _symmetry_equiv_pos_site_id
 _symmetry_equiv_pos_as_xyz
  1  'x, y, z'
loop_
 _atom_site_type_symbol
 _atom_site_label
 _atom_site_symmetry_multiplicity
 _atom_site_fract_x
 _atom_site_fract_y
 _atom_site_fract_z
 _atom_site_occupancy
  Sc  Sc0  1  0.673231  0.174374  0.000000  1
  Sc  Sc1  1  0.326769  0.825626  0.000000  1
  Sc  Sc2  1  0.174374  0.326769  0.000000  1
  Sc  Sc3  1  0.825626  0.673231  0.000000  1
  Ti  Ti4  1  0.000000  0.000000  0.000000  1
  Ga  Ga5  1  0.500000  0.500000  0.000000  1
  B  B6  1  0.125987  0.622408  0.000000  1
  B  B7  1  0.874013  0.377592  0.000000  1
  B  B8  1  0.622408  0.874013  0.000000  1
  B  B9  1  0.377592  0.125987  0.000000  1
  Ru  Ru10  1  0.214313  0.072723  0.500000  1
  Ru  Ru11  1  0.785687  0.927277  0.500000  1
  Ru  Ru12  1  0.072723  0.785687  0.500000  1
  Ru  Ru13  1  0.715187  0.428651  0.500000  1
  Ru  Ru14  1  0.927277  0.214313  0.500000  1
  Ru  Ru15  1  0.284813  0.571349  0.500000  1
  Ru  Ru16  1  0.571349  0.715187  0.500000  1
  Ru  Ru17  1  0.428651  0.284813  0.500000  1
  Ru  Ru18  1  0.500000  0.000000  0.500000  1
  Ru  Ru19  1  0.000000  0.500000  0.500000  1
