# generated using pymatgen
data_LaNd8HoC4I15
_symmetry_space_group_name_H-M   'P 1'
_cell_length_a   9.77492840
_cell_length_b   10.65451903
_cell_length_c   11.74977610
_cell_angle_alpha   93.91132146
_cell_angle_beta   114.08463753
_cell_angle_gamma   109.44028464
_symmetry_Int_Tables_number   1
_chemical_formula_structural   LaNd8HoC4I15
_chemical_formula_sum   'La1 Nd8 Ho1 C4 I15'
_cell_volume   1023.46868173
_cell_formula_units_Z   1
loop_
 _symmetry_equiv_pos_site_id
 _symmetry_equiv_pos_as_xyz
  1  'x, y, z'
loop_
 _atom_site_type_symbol
 _atom_site_label
 _atom_site_symmetry_multiplicity
 _atom_site_fract_x
 _atom_site_fract_y
 _atom_site_fract_z
 _atom_site_occupancy
  La  La0  1  0.658727  0.254457  0.832067  1
  Nd  Nd1  1  0.346272  0.746010  0.164056  1
  Nd  Nd2  1  0.776359  0.882333  0.256893  1
  Nd  Nd3  1  0.527814  0.185669  0.102498  1
  Nd  Nd4  1  0.224118  0.116449  0.744181  1
  Nd  Nd5  1  0.401866  0.458681  0.657887  1
  Nd  Nd6  1  0.472538  0.814486  0.898150  1
  Nd  Nd7  1  0.702701  0.567919  0.044696  1
  Nd  Nd8  1  0.296427  0.433248  0.956096  1
  Ho  Ho9  1  0.593336  0.545399  0.334833  1
  C  C10  1  0.482769  0.301099  0.938634  1
  C  C11  1  0.518049  0.698322  0.061479  1
  C  C12  1  0.452613  0.363056  0.834504  1
  C  C13  1  0.546471  0.635662  0.165560  1
  I  I14  1  0.206974  0.906488  0.937997  1
  I  I15  1  0.103274  0.186305  0.468543  1
  I  I16  1  0.151295  0.554818  0.703654  1
  I  I17  1  0.400080  0.964250  0.644492  1
  I  I18  1  0.715113  0.734034  0.821928  1
  I  I19  1  0.295531  0.273437  0.186158  1
  I  I20  1  0.840210  0.447969  0.302230  1
  I  I21  1  0.884351  0.800713  0.527209  1
  I  I22  1  0.367961  0.628317  0.412454  1
  I  I23  1  0.053629  0.831929  0.221754  1
  I  I24  1  0.794400  0.094775  0.064563  1
  I  I25  1  0.641153  0.376297  0.580918  1
  I  I26  1  0.947255  0.165837  0.779865  1
  I  I27  1  0.594430  0.030143  0.352781  1
  I  I28  1  0.004285  0.501897  0.003921  1
