# generated using pymatgen
data_Y2V3Ni9As7
_symmetry_space_group_name_H-M   'P 1'
_cell_length_a   9.49254700
_cell_length_b   9.49254688
_cell_length_c   3.80389800
_cell_angle_alpha   90.00000000
_cell_angle_beta   90.00000000
_cell_angle_gamma   119.99999693
_symmetry_Int_Tables_number   1
_chemical_formula_structural   Y2V3Ni9As7
_chemical_formula_sum   'Y2 V3 Ni9 As7'
_cell_volume   296.84177164
_cell_formula_units_Z   1
loop_
 _symmetry_equiv_pos_site_id
 _symmetry_equiv_pos_as_xyz
  1  'x, y, z'
loop_
 _atom_site_type_symbol
 _atom_site_label
 _atom_site_symmetry_multiplicity
 _atom_site_fract_x
 _atom_site_fract_y
 _atom_site_fract_z
 _atom_site_occupancy
  Y  Y0  1  0.333333  0.666667  0.000000  1
  Y  Y1  1  0.666667  0.333333  0.500000  1
  V  V2  1  0.216274  0.114516  0.500000  1
  V  V3  1  0.885484  0.101759  0.500000  1
  V  V4  1  0.898241  0.783726  0.500000  1
  Ni  Ni5  1  0.126534  0.280466  0.000000  1
  Ni  Ni6  1  0.719534  0.846068  0.000000  1
  Ni  Ni7  1  0.153932  0.873466  0.000000  1
  Ni  Ni8  1  0.431635  0.372297  0.000000  1
  Ni  Ni9  1  0.627703  0.059338  0.000000  1
  Ni  Ni10  1  0.940662  0.568365  0.000000  1
  Ni  Ni11  1  0.053369  0.434354  0.500000  1
  Ni  Ni12  1  0.565646  0.619015  0.500000  1
  Ni  Ni13  1  0.380985  0.946631  0.500000  1
  As  As14  1  0.292017  0.406085  0.500000  1
  As  As15  1  0.593915  0.885932  0.500000  1
  As  As16  1  0.114068  0.707983  0.500000  1
  As  As17  1  0.409268  0.115417  0.000000  1
  As  As18  1  0.884583  0.293850  0.000000  1
  As  As19  1  0.706150  0.590732  0.000000  1
  As  As20  1  0.000000  0.000000  0.000000  1
