# generated using pymatgen
data_Na3Fe3PdO8
_symmetry_space_group_name_H-M   'P 1'
_cell_length_a   6.08411800
_cell_length_b   5.29413838
_cell_length_c   5.80192337
_cell_angle_alpha   72.12253765
_cell_angle_beta   90.00000000
_cell_angle_gamma   90.00000000
_symmetry_Int_Tables_number   1
_chemical_formula_structural   Na3Fe3PdO8
_chemical_formula_sum   'Na3 Fe3 Pd1 O8'
_cell_volume   177.85739445
_cell_formula_units_Z   1
loop_
 _symmetry_equiv_pos_site_id
 _symmetry_equiv_pos_as_xyz
  1  'x, y, z'
loop_
 _atom_site_type_symbol
 _atom_site_label
 _atom_site_symmetry_multiplicity
 _atom_site_fract_x
 _atom_site_fract_y
 _atom_site_fract_z
 _atom_site_occupancy
  Na  Na0  1  0.237401  0.000000  0.000000  1
  Na  Na1  1  0.500000  0.500000  0.000000  1
  Na  Na2  1  0.762599  0.000000  0.000000  1
  Fe  Fe3  1  0.749180  0.500000  0.500000  1
  Fe  Fe4  1  0.250820  0.500000  0.500000  1
  Fe  Fe5  1  0.500000  0.000000  0.500000  1
  Pd  Pd6  1  0.000000  0.000000  0.500000  1
  O  O7  1  0.500000  0.730702  0.297934  1
  O  O8  1  0.747709  0.229583  0.306643  1
  O  O9  1  0.000000  0.735367  0.307891  1
  O  O10  1  0.252291  0.229583  0.306643  1
  O  O11  1  0.000000  0.264633  0.692109  1
  O  O12  1  0.252291  0.770417  0.693357  1
  O  O13  1  0.500000  0.269298  0.702066  1
  O  O14  1  0.747709  0.770417  0.693357  1
