# generated using pymatgen
data_Zr10Ga4BiSb3
_symmetry_space_group_name_H-M   'P 1'
_cell_length_a   8.63588421
_cell_length_b   8.64375636
_cell_length_c   5.86437900
_cell_angle_alpha   90.00000000
_cell_angle_beta   90.00000000
_cell_angle_gamma   120.03016017
_symmetry_Int_Tables_number   1
_chemical_formula_structural   Zr10Ga4BiSb3
_chemical_formula_sum   'Zr10 Ga4 Bi1 Sb3'
_cell_volume   378.99189359
_cell_formula_units_Z   1
loop_
 _symmetry_equiv_pos_site_id
 _symmetry_equiv_pos_as_xyz
  1  'x, y, z'
loop_
 _atom_site_type_symbol
 _atom_site_label
 _atom_site_symmetry_multiplicity
 _atom_site_fract_x
 _atom_site_fract_y
 _atom_site_fract_z
 _atom_site_occupancy
  Zr  Zr0  1  0.286611  0.270518  0.750000  1
  Zr  Zr1  1  0.735774  0.737761  0.250000  1
  Zr  Zr2  1  0.713389  0.983907  0.750000  1
  Zr  Zr3  1  0.000000  0.263650  0.250000  1
  Zr  Zr4  1  0.339657  0.671731  0.504416  1
  Zr  Zr5  1  0.660343  0.332075  0.504416  1
  Zr  Zr6  1  0.000000  0.732664  0.750000  1
  Zr  Zr7  1  0.339657  0.671731  0.995584  1
  Zr  Zr8  1  0.264226  0.001987  0.250000  1
  Zr  Zr9  1  0.660343  0.332075  0.995584  1
  Ga  Ga10  1  0.000000  0.001747  0.514114  1
  Ga  Ga11  1  0.616431  0.613985  0.750000  1
  Ga  Ga12  1  0.383569  0.997555  0.750000  1
  Ga  Ga13  1  0.000000  0.001747  0.985886  1
  Bi  Bi14  1  0.000000  0.381130  0.750000  1
  Sb  Sb15  1  0.607041  0.001029  0.250000  1
  Sb  Sb16  1  0.392959  0.393988  0.250000  1
  Sb  Sb17  1  0.000000  0.610720  0.250000  1
