# generated using pymatgen
data_Mg4ZnSbPd10
_symmetry_space_group_name_H-M   'P 1'
_cell_length_a   4.21093100
_cell_length_b   5.55120010
_cell_length_c   10.88330601
_cell_angle_alpha   90.60368090
_cell_angle_beta   90.00000000
_cell_angle_gamma   90.00000000
_symmetry_Int_Tables_number   1
_chemical_formula_structural   Mg4ZnSbPd10
_chemical_formula_sum   'Mg4 Zn1 Sb1 Pd10'
_cell_volume   254.39099971
_cell_formula_units_Z   1
loop_
 _symmetry_equiv_pos_site_id
 _symmetry_equiv_pos_as_xyz
  1  'x, y, z'
loop_
 _atom_site_type_symbol
 _atom_site_label
 _atom_site_symmetry_multiplicity
 _atom_site_fract_x
 _atom_site_fract_y
 _atom_site_fract_z
 _atom_site_occupancy
  Mg  Mg0  1  0.500000  0.174213  0.134640  1
  Mg  Mg1  1  0.500000  0.825787  0.865360  1
  Mg  Mg2  1  0.500000  0.335773  0.647230  1
  Mg  Mg3  1  0.500000  0.664227  0.352770  1
  Zn  Zn4  1  0.000000  0.500000  0.000000  1
  Sb  Sb5  1  0.000000  0.000000  0.500000  1
  Pd  Pd6  1  0.500000  0.189794  0.388020  1
  Pd  Pd7  1  0.500000  0.810206  0.611980  1
  Pd  Pd8  1  0.500000  0.316117  0.891700  1
  Pd  Pd9  1  0.500000  0.683883  0.108300  1
  Pd  Pd10  1  0.000000  0.416139  0.238431  1
  Pd  Pd11  1  0.000000  0.583861  0.761569  1
  Pd  Pd12  1  0.000000  0.082279  0.745785  1
  Pd  Pd13  1  0.000000  0.917721  0.254215  1
  Pd  Pd14  1  0.000000  0.000000  0.000000  1
  Pd  Pd15  1  0.000000  0.500000  0.500000  1
