# generated using pymatgen
data_TbYbDy5Co6Sn23
_symmetry_space_group_name_H-M   'P 1'
_cell_length_a   9.71987702
_cell_length_b   9.71987718
_cell_length_c   9.94962202
_cell_angle_alpha   90.00632991
_cell_angle_beta   89.99366738
_cell_angle_gamma   119.99610421
_symmetry_Int_Tables_number   1
_chemical_formula_structural   TbYbDy5Co6Sn23
_chemical_formula_sum   'Tb1 Yb1 Dy5 Co6 Sn23'
_cell_volume   814.09634631
_cell_formula_units_Z   1
loop_
 _symmetry_equiv_pos_site_id
 _symmetry_equiv_pos_as_xyz
  1  'x, y, z'
loop_
 _atom_site_type_symbol
 _atom_site_label
 _atom_site_symmetry_multiplicity
 _atom_site_fract_x
 _atom_site_fract_y
 _atom_site_fract_z
 _atom_site_occupancy
  Tb  Tb0  1  0.479097  0.520903  0.305636  1
  Yb  Yb1  1  0.000002  0.999998  0.999994  1
  Dy  Dy2  1  0.520812  0.479188  0.694400  1
  Dy  Dy3  1  0.479196  0.958375  0.305626  1
  Dy  Dy4  1  0.520810  0.041628  0.694379  1
  Dy  Dy5  1  0.041625  0.520804  0.305626  1
  Dy  Dy6  1  0.958372  0.479190  0.694379  1
  Co  Co7  1  0.831771  0.168229  0.198486  1
  Co  Co8  1  0.168220  0.831780  0.801500  1
  Co  Co9  1  0.831901  0.663592  0.198457  1
  Co  Co10  1  0.168220  0.336452  0.801508  1
  Co  Co11  1  0.336408  0.168099  0.198457  1
  Co  Co12  1  0.663548  0.831780  0.801508  1
  Sn  Sn13  1  0.345412  0.999954  0.999996  1
  Sn  Sn14  1  0.654574  0.000025  0.999996  1
  Sn  Sn15  1  0.999975  0.345426  0.999996  1
  Sn  Sn16  1  0.000046  0.654588  0.999996  1
  Sn  Sn17  1  0.654623  0.654622  0.999939  1
  Sn  Sn18  1  0.345378  0.345377  0.999939  1
  Sn  Sn19  1  0.333323  0.666677  0.816393  1
  Sn  Sn20  1  0.666703  0.333297  0.183593  1
  Sn  Sn21  1  0.000006  0.999994  0.499999  1
  Sn  Sn22  1  0.781030  0.218970  0.452031  1
  Sn  Sn23  1  0.218973  0.781027  0.547977  1
  Sn  Sn24  1  0.781184  0.562061  0.452118  1
  Sn  Sn25  1  0.218899  0.437929  0.548045  1
  Sn  Sn26  1  0.437939  0.218816  0.452118  1
  Sn  Sn27  1  0.562071  0.781101  0.548045  1
  Sn  Sn28  1  0.333232  0.666768  0.117964  1
  Sn  Sn29  1  0.666676  0.333324  0.881914  1
  Sn  Sn30  1  0.117159  0.882841  0.274125  1
  Sn  Sn31  1  0.882837  0.117163  0.725873  1
  Sn  Sn32  1  0.117010  0.234197  0.274140  1
  Sn  Sn33  1  0.882852  0.765689  0.725855  1
  Sn  Sn34  1  0.765803  0.882990  0.274140  1
  Sn  Sn35  1  0.234311  0.117148  0.725855  1
