# generated using pymatgen
data_BeBr35
_symmetry_space_group_name_H-M   'P 1'
_cell_length_a   15.58242756
_cell_length_b   11.11527419
_cell_length_c   10.52208600
_cell_angle_alpha   88.81408432
_cell_angle_beta   66.02770569
_cell_angle_gamma   92.31545236
_symmetry_Int_Tables_number   1
_chemical_formula_structural   BeBr35
_chemical_formula_sum   'Be1 Br35'
_cell_volume   1662.52021473
_cell_formula_units_Z   1
loop_
 _symmetry_equiv_pos_site_id
 _symmetry_equiv_pos_as_xyz
  1  'x, y, z'
loop_
 _atom_site_type_symbol
 _atom_site_label
 _atom_site_symmetry_multiplicity
 _atom_site_fract_x
 _atom_site_fract_y
 _atom_site_fract_z
 _atom_site_occupancy
  Be  Be0  1  0.210433  0.366785  0.561927  1
  Br  Br1  1  0.510674  0.286916  0.537666  1
  Br  Br2  1  0.747452  0.585627  0.604946  1
  Br  Br3  1  0.468164  0.702787  0.736852  1
  Br  Br4  1  0.057280  0.917016  0.824592  1
  Br  Br5  1  0.889735  0.166596  0.080443  1
  Br  Br6  1  0.651585  0.314656  0.294057  1
  Br  Br7  1  0.531890  0.290143  0.959404  1
  Br  Br8  1  0.334734  0.797407  0.695008  1
  Br  Br9  1  0.359740  0.562527  0.123483  1
  Br  Br10  1  0.618441  0.106135  0.820513  1
  Br  Br11  1  0.915058  0.564874  0.415960  1
  Br  Br12  1  0.067366  0.988169  0.584319  1
  Br  Br13  1  0.936699  0.125598  0.281979  1
  Br  Br14  1  0.833172  0.212391  0.888832  1
  Br  Br15  1  0.636799  0.044953  0.275678  1
  Br  Br16  1  0.035831  0.834543  0.063434  1
  Br  Br17  1  0.352342  0.018791  0.735299  1
  Br  Br18  1  0.924309  0.344712  0.357738  1
  Br  Br19  1  0.894760  0.972621  0.627845  1
  Br  Br20  1  0.955851  0.647568  0.746003  1
  Br  Br21  1  0.348612  0.012414  0.164143  1
  Br  Br22  1  0.368607  0.296743  0.162701  1
  Br  Br23  1  0.588609  0.602741  0.805462  1
  Br  Br24  1  0.202091  0.298141  0.375657  1
  Br  Br25  1  0.720032  0.951841  0.661810  1
  Br  Br26  1  0.890156  0.428362  0.820144  1
  Br  Br27  1  0.492923  0.024456  0.228947  1
  Br  Br28  1  0.135658  0.272274  0.740026  1
  Br  Br29  1  0.677551  0.775175  0.271157  1
  Br  Br30  1  0.854900  0.803998  0.168919  1
  Br  Br31  1  0.372833  0.245629  0.765407  1
  Br  Br32  1  0.299764  0.524754  0.532730  1
  Br  Br33  1  0.660095  0.540717  0.268228  1
  Br  Br34  1  0.125426  0.600840  0.635048  1
  Br  Br35  1  0.330426  0.771103  0.183646  1
