# generated using pymatgen
data_PaTi2ZnPd12
_symmetry_space_group_name_H-M   'P 1'
_cell_length_a   5.64807700
_cell_length_b   5.64807797
_cell_length_c   9.18547500
_cell_angle_alpha   90.00000000
_cell_angle_beta   90.00000000
_cell_angle_gamma   120.00000015
_symmetry_Int_Tables_number   1
_chemical_formula_structural   PaTi2ZnPd12
_chemical_formula_sum   'Pa1 Ti2 Zn1 Pd12'
_cell_volume   253.76606359
_cell_formula_units_Z   1
loop_
 _symmetry_equiv_pos_site_id
 _symmetry_equiv_pos_as_xyz
  1  'x, y, z'
loop_
 _atom_site_type_symbol
 _atom_site_label
 _atom_site_symmetry_multiplicity
 _atom_site_fract_x
 _atom_site_fract_y
 _atom_site_fract_z
 _atom_site_occupancy
  Pa  Pa0  1  0.666667  0.333333  0.750000  1
  Ti  Ti1  1  0.000000  0.000000  0.490495  1
  Ti  Ti2  1  0.000000  0.000000  0.009505  1
  Zn  Zn3  1  0.333333  0.666667  0.250000  1
  Pd  Pd4  1  0.499032  0.500968  0.495752  1
  Pd  Pd5  1  0.499032  0.998063  0.495752  1
  Pd  Pd6  1  0.001937  0.500968  0.495752  1
  Pd  Pd7  1  0.499032  0.500968  0.004248  1
  Pd  Pd8  1  0.499032  0.998063  0.004248  1
  Pd  Pd9  1  0.001937  0.500968  0.004248  1
  Pd  Pd10  1  0.834687  0.669376  0.250000  1
  Pd  Pd11  1  0.330624  0.165313  0.250000  1
  Pd  Pd12  1  0.834687  0.165313  0.250000  1
  Pd  Pd13  1  0.166661  0.333320  0.750000  1
  Pd  Pd14  1  0.666680  0.833339  0.750000  1
  Pd  Pd15  1  0.166661  0.833339  0.750000  1
