# generated using pymatgen
data_PrNd4P12Ru15Rh4
_symmetry_space_group_name_H-M   'P 1'
_cell_length_a   12.68444669
_cell_length_b   12.65921225
_cell_length_c   4.01486500
_cell_angle_alpha   90.00000000
_cell_angle_beta   90.00000000
_cell_angle_gamma   120.05899613
_symmetry_Int_Tables_number   1
_chemical_formula_structural   PrNd4P12Ru15Rh4
_chemical_formula_sum   'Pr1 Nd4 P12 Ru15 Rh4'
_cell_volume   557.98342599
_cell_formula_units_Z   1
loop_
 _symmetry_equiv_pos_site_id
 _symmetry_equiv_pos_as_xyz
  1  'x, y, z'
loop_
 _atom_site_type_symbol
 _atom_site_label
 _atom_site_symmetry_multiplicity
 _atom_site_fract_x
 _atom_site_fract_y
 _atom_site_fract_z
 _atom_site_occupancy
  Pr  Pr0  1  0.000946  0.183252  0.500000  1
  Nd  Nd1  1  0.817002  0.815354  0.500000  1
  Nd  Nd2  1  0.183069  0.999578  0.500000  1
  Nd  Nd3  1  0.666488  0.333256  0.000000  1
  Nd  Nd4  1  0.333486  0.666986  0.000000  1
  P  P5  1  0.999767  0.811410  0.000000  1
  P  P6  1  0.188439  0.188079  0.000000  1
  P  P7  1  0.812336  0.996413  0.000000  1
  P  P8  1  0.692735  0.172293  0.500000  1
  P  P9  1  0.824649  0.522009  0.500000  1
  P  P10  1  0.476822  0.302859  0.500000  1
  P  P11  1  0.175857  0.698647  0.500000  1
  P  P12  1  0.523014  0.825292  0.500000  1
  P  P13  1  0.302345  0.477835  0.500000  1
  P  P14  1  0.003560  0.375620  0.000000  1
  P  P15  1  0.627400  0.627660  0.000000  1
  P  P16  1  0.372390  0.000186  0.000000  1
  Ru  Ru17  1  0.999917  0.712366  0.500000  1
  Ru  Ru18  1  0.287308  0.287682  0.500000  1
  Ru  Ru19  1  0.714144  0.001134  0.500000  1
  Ru  Ru20  1  0.814604  0.620614  0.000000  1
  Ru  Ru21  1  0.378318  0.193929  0.000000  1
  Ru  Ru22  1  0.185085  0.805715  0.000000  1
  Ru  Ru23  1  0.621092  0.816211  0.000000  1
  Ru  Ru24  1  0.194930  0.379643  0.000000  1
  Ru  Ru25  1  0.874134  0.365177  0.500000  1
  Ru  Ru26  1  0.631835  0.508134  0.500000  1
  Ru  Ru27  1  0.490149  0.124084  0.500000  1
  Ru  Ru28  1  0.369279  0.877155  0.500000  1
  Ru  Ru29  1  0.508639  0.632284  0.500000  1
  Ru  Ru30  1  0.122938  0.492032  0.500000  1
  Ru  Ru31  1  0.000367  0.999660  0.000000  1
  Rh  Rh32  1  0.997123  0.551800  0.000000  1
  Rh  Rh33  1  0.446804  0.447032  0.000000  1
  Rh  Rh34  1  0.554669  0.003388  0.000000  1
  Rh  Rh35  1  0.808354  0.185230  0.000000  1
