# generated using pymatgen
data_Dy3HoRu7W
_symmetry_space_group_name_H-M   'P 1'
_cell_length_a   5.49330302
_cell_length_b   5.18336597
_cell_length_c   9.03768901
_cell_angle_alpha   90.00587266
_cell_angle_beta   89.99907800
_cell_angle_gamma   122.05183943
_symmetry_Int_Tables_number   1
_chemical_formula_structural   Dy3HoRu7W
_chemical_formula_sum   'Dy3 Ho1 Ru7 W1'
_cell_volume   218.11097677
_cell_formula_units_Z   1
loop_
 _symmetry_equiv_pos_site_id
 _symmetry_equiv_pos_as_xyz
  1  'x, y, z'
loop_
 _atom_site_type_symbol
 _atom_site_label
 _atom_site_symmetry_multiplicity
 _atom_site_fract_x
 _atom_site_fract_y
 _atom_site_fract_z
 _atom_site_occupancy
  Dy  Dy0  1  0.672528  0.345464  0.562981  1
  Dy  Dy1  1  0.334405  0.669130  0.431711  1
  Dy  Dy2  1  0.334376  0.669067  0.068220  1
  Ho  Ho3  1  0.672627  0.345698  0.936951  1
  Ru  Ru4  1  0.009286  0.018745  0.498497  1
  Ru  Ru5  1  0.009201  0.018607  0.001460  1
  Ru  Ru6  1  0.171084  0.818758  0.750215  1
  Ru  Ru7  1  0.648645  0.818743  0.750207  1
  Ru  Ru8  1  0.824419  0.648748  0.249826  1
  Ru  Ru9  1  0.831116  0.164603  0.249882  1
  Ru  Ru10  1  0.334352  0.165418  0.249881  1
  W  W11  1  0.157961  0.317017  0.750169  1
