# generated using pymatgen
data_BaPr6CoI12
_symmetry_space_group_name_H-M   'P 1'
_cell_length_a   10.11542594
_cell_length_b   10.11542584
_cell_length_c   10.11542661
_cell_angle_alpha   105.86087894
_cell_angle_beta   105.86088304
_cell_angle_gamma   105.86088396
_symmetry_Int_Tables_number   1
_chemical_formula_structural   BaPr6CoI12
_chemical_formula_sum   'Ba1 Pr6 Co1 I12'
_cell_volume   887.40624553
_cell_formula_units_Z   1
loop_
 _symmetry_equiv_pos_site_id
 _symmetry_equiv_pos_as_xyz
  1  'x, y, z'
loop_
 _atom_site_type_symbol
 _atom_site_label
 _atom_site_symmetry_multiplicity
 _atom_site_fract_x
 _atom_site_fract_y
 _atom_site_fract_z
 _atom_site_occupancy
  Ba  Ba0  1  0.500000  0.500000  0.500000  1
  Pr  Pr1  1  0.015130  0.091038  0.292321  1
  Pr  Pr2  1  0.091038  0.292321  0.015130  1
  Pr  Pr3  1  0.292321  0.015130  0.091038  1
  Pr  Pr4  1  0.984870  0.908962  0.707679  1
  Pr  Pr5  1  0.908962  0.707679  0.984870  1
  Pr  Pr6  1  0.707679  0.984870  0.908962  1
  Co  Co7  1  0.000000  0.000000  0.000000  1
  I  I8  1  0.128424  0.443219  0.360166  1
  I  I9  1  0.443219  0.360166  0.128424  1
  I  I10  1  0.360166  0.128424  0.443219  1
  I  I11  1  0.871576  0.556781  0.639834  1
  I  I12  1  0.556781  0.639834  0.871576  1
  I  I13  1  0.639834  0.871576  0.556781  1
  I  I14  1  0.676879  0.073415  0.224304  1
  I  I15  1  0.073415  0.224304  0.676879  1
  I  I16  1  0.224304  0.676879  0.073415  1
  I  I17  1  0.323121  0.926585  0.775696  1
  I  I18  1  0.926585  0.775696  0.323121  1
  I  I19  1  0.775696  0.323121  0.926585  1
