# generated using pymatgen
data_HfSc2NbOs4
_symmetry_space_group_name_H-M   'P 1'
_cell_length_a   6.41298400
_cell_length_b   4.55531200
_cell_length_c   9.11306100
_cell_angle_alpha   90.00184240
_cell_angle_beta   89.99960588
_cell_angle_gamma   90.00165210
_symmetry_Int_Tables_number   1
_chemical_formula_structural   HfSc2NbOs4
_chemical_formula_sum   'Hf2 Sc4 Nb2 Os8'
_cell_volume   266.22115377
_cell_formula_units_Z   2
loop_
 _symmetry_equiv_pos_site_id
 _symmetry_equiv_pos_as_xyz
  1  'x, y, z'
loop_
 _atom_site_type_symbol
 _atom_site_label
 _atom_site_symmetry_multiplicity
 _atom_site_fract_x
 _atom_site_fract_y
 _atom_site_fract_z
 _atom_site_occupancy
  Hf  Hf0  1  0.250007  0.249997  0.124834  1
  Hf  Hf1  1  0.749999  0.750005  0.375152  1
  Sc  Sc2  1  0.750003  0.250001  0.125055  1
  Sc  Sc3  1  0.250000  0.749995  0.374939  1
  Sc  Sc4  1  0.749993  0.250001  0.624798  1
  Sc  Sc5  1  0.250004  0.750002  0.875200  1
  Nb  Nb6  1  0.250003  0.250001  0.625034  1
  Nb  Nb7  1  0.749992  0.749997  0.874980  1
  Os  Os8  1  0.502801  0.749871  0.121203  1
  Os  Os9  1  0.997211  0.750132  0.121203  1
  Os  Os10  1  0.497202  0.250133  0.378796  1
  Os  Os11  1  0.002794  0.249865  0.378792  1
  Os  Os12  1  0.002585  0.750106  0.628590  1
  Os  Os13  1  0.497406  0.749901  0.628588  1
  Os  Os14  1  0.997417  0.249895  0.871416  1
  Os  Os15  1  0.502581  0.250099  0.871421  1
