# generated using pymatgen
data_Dy3HoErRe2C7
_symmetry_space_group_name_H-M   'P 1'
_cell_length_a   8.33267730
_cell_length_b   8.30592438
_cell_length_c   3.41525400
_cell_angle_alpha   90.00000000
_cell_angle_beta   90.00000000
_cell_angle_gamma   122.56452115
_symmetry_Int_Tables_number   1
_chemical_formula_structural   Dy3HoErRe2C7
_chemical_formula_sum   'Dy3 Ho1 Er1 Re2 C7'
_cell_volume   199.21075551
_cell_formula_units_Z   1
loop_
 _symmetry_equiv_pos_site_id
 _symmetry_equiv_pos_as_xyz
  1  'x, y, z'
loop_
 _atom_site_type_symbol
 _atom_site_label
 _atom_site_symmetry_multiplicity
 _atom_site_fract_x
 _atom_site_fract_y
 _atom_site_fract_z
 _atom_site_occupancy
  Dy  Dy0  1  0.499896  0.499855  0.000000  1
  Dy  Dy1  1  0.075723  0.333035  0.500000  1
  Dy  Dy2  1  0.924315  0.667000  0.500000  1
  Ho  Ho3  1  0.663165  0.924000  0.500000  1
  Er  Er4  1  0.337462  0.076475  0.500000  1
  Re  Re5  1  0.715173  0.285360  0.000000  1
  Re  Re6  1  0.284652  0.714784  0.000000  1
  C  C7  1  0.627155  0.373052  0.500000  1
  C  C8  1  0.372556  0.626684  0.500000  1
  C  C9  1  0.000036  0.999953  0.000000  1
  C  C10  1  0.171901  0.167444  0.000000  1
  C  C11  1  0.828372  0.832306  0.000000  1
  C  C12  1  0.999905  0.499941  0.000000  1
  C  C13  1  0.499690  0.000112  0.000000  1
