# generated using pymatgen
data_Ta3B2Te8Mo5
_symmetry_space_group_name_H-M   'P 1'
_cell_length_a   4.63145100
_cell_length_b   11.13332508
_cell_length_c   19.10144803
_cell_angle_alpha   90.11042478
_cell_angle_beta   90.00000000
_cell_angle_gamma   90.00000000
_symmetry_Int_Tables_number   1
_chemical_formula_structural   Ta3B2Te8Mo5
_chemical_formula_sum   'Ta6 B4 Te16 Mo10'
_cell_volume   984.93472273
_cell_formula_units_Z   2
loop_
 _symmetry_equiv_pos_site_id
 _symmetry_equiv_pos_as_xyz
  1  'x, y, z'
loop_
 _atom_site_type_symbol
 _atom_site_label
 _atom_site_symmetry_multiplicity
 _atom_site_fract_x
 _atom_site_fract_y
 _atom_site_fract_z
 _atom_site_occupancy
  Ta  Ta0  1  0.000000  0.169306  0.052454  1
  Ta  Ta1  1  0.000000  0.830694  0.947546  1
  Ta  Ta2  1  0.000000  0.412638  0.401014  1
  Ta  Ta3  1  0.000000  0.587362  0.598986  1
  Ta  Ta4  1  0.000000  0.910463  0.098484  1
  Ta  Ta5  1  0.000000  0.089537  0.901516  1
  B  B6  1  0.263798  0.500000  0.500000  1
  B  B7  1  0.734955  0.000000  0.000000  1
  B  B8  1  0.736202  0.500000  0.500000  1
  B  B9  1  0.265045  0.000000  0.000000  1
  Te  Te10  1  0.000000  0.833607  0.558540  1
  Te  Te11  1  0.000000  0.166393  0.441460  1
  Te  Te12  1  0.000000  0.336811  0.939977  1
  Te  Te13  1  0.000000  0.663189  0.060023  1
  Te  Te14  1  0.500000  0.341672  0.320044  1
  Te  Te15  1  0.500000  0.658328  0.679956  1
  Te  Te16  1  0.500000  0.837662  0.178738  1
  Te  Te17  1  0.500000  0.162338  0.821262  1
  Te  Te18  1  0.500000  0.808322  0.407916  1
  Te  Te19  1  0.500000  0.191678  0.592084  1
  Te  Te20  1  0.500000  0.307026  0.095253  1
  Te  Te21  1  0.500000  0.692974  0.904747  1
  Te  Te22  1  0.000000  0.612652  0.308114  1
  Te  Te23  1  0.000000  0.387348  0.691886  1
  Te  Te24  1  0.000000  0.103411  0.196495  1
  Te  Te25  1  0.000000  0.896589  0.803505  1
  Mo  Mo26  1  0.500000  0.558590  0.395937  1
  Mo  Mo27  1  0.500000  0.441410  0.604063  1
  Mo  Mo28  1  0.500000  0.055353  0.104560  1
  Mo  Mo29  1  0.500000  0.944647  0.895440  1
  Mo  Mo30  1  0.500000  0.679550  0.533065  1
  Mo  Mo31  1  0.500000  0.320450  0.466935  1
  Mo  Mo32  1  0.500000  0.179398  0.968083  1
  Mo  Mo33  1  0.500000  0.820602  0.031917  1
  Mo  Mo34  1  0.000000  0.666847  0.450121  1
  Mo  Mo35  1  0.000000  0.333153  0.549879  1
