# generated using pymatgen
data_Rb2SiWN4
_symmetry_space_group_name_H-M   'P 1'
_cell_length_a   5.82360570
_cell_length_b   5.82360610
_cell_length_c   5.82360545
_cell_angle_alpha   119.94493887
_cell_angle_beta   119.94494055
_cell_angle_gamma   90.09539474
_symmetry_Int_Tables_number   1
_chemical_formula_structural   Rb2SiWN4
_chemical_formula_sum   'Rb2 Si1 W1 N4'
_cell_volume   139.77243475
_cell_formula_units_Z   1
loop_
 _symmetry_equiv_pos_site_id
 _symmetry_equiv_pos_as_xyz
  1  'x, y, z'
loop_
 _atom_site_type_symbol
 _atom_site_label
 _atom_site_symmetry_multiplicity
 _atom_site_fract_x
 _atom_site_fract_y
 _atom_site_fract_z
 _atom_site_occupancy
  Rb  Rb0  1  0.250000  0.750000  0.500000  1
  Rb  Rb1  1  0.500000  0.500000  0.000000  1
  Si  Si2  1  0.000000  0.000000  0.000000  1
  W  W3  1  0.750000  0.250000  0.500000  1
  N  N4  1  0.834458  0.119588  0.195285  1
  N  N5  1  0.924302  0.639173  0.804715  1
  N  N6  1  0.360827  0.165542  0.285129  1
  N  N7  1  0.880412  0.075698  0.714871  1
