# generated using pymatgen
data_TbEr9(InSb)4
_symmetry_space_group_name_H-M   'P 1'
_cell_length_a   8.77240532
_cell_length_b   8.73481337
_cell_length_c   8.05447385
_cell_angle_alpha   89.92145956
_cell_angle_beta   89.97980725
_cell_angle_gamma   125.12744130
_symmetry_Int_Tables_number   1
_chemical_formula_structural   TbEr9(InSb)4
_chemical_formula_sum   'Tb1 Er9 In4 Sb4'
_cell_volume   504.77192205
_cell_formula_units_Z   1
loop_
 _symmetry_equiv_pos_site_id
 _symmetry_equiv_pos_as_xyz
  1  'x, y, z'
loop_
 _atom_site_type_symbol
 _atom_site_label
 _atom_site_symmetry_multiplicity
 _atom_site_fract_x
 _atom_site_fract_y
 _atom_site_fract_z
 _atom_site_occupancy
  Tb  Tb0  1  0.033943  0.312139  0.332105  1
  Er  Er1  1  0.966771  0.690815  0.666257  1
  Er  Er2  1  0.466011  0.191001  0.833463  1
  Er  Er3  1  0.804660  0.531228  0.165550  1
  Er  Er4  1  0.533410  0.807762  0.166471  1
  Er  Er5  1  0.194215  0.467555  0.834061  1
  Er  Er6  1  0.694718  0.968651  0.666060  1
  Er  Er7  1  0.306204  0.031964  0.334136  1
  Er  Er8  1  0.999583  0.999201  0.999702  1
  Er  Er9  1  0.500132  0.500342  0.500385  1
  In  In10  1  0.370574  0.369992  0.128517  1
  In  In11  1  0.630205  0.629493  0.870700  1
  In  In12  1  0.129588  0.128824  0.629127  1
  In  In13  1  0.870700  0.870267  0.371215  1
  Sb  Sb14  1  0.795967  0.203467  0.996952  1
  Sb  Sb15  1  0.202047  0.794145  0.002194  1
  Sb  Sb16  1  0.701001  0.295983  0.499659  1
  Sb  Sb17  1  0.300272  0.707170  0.503448  1
