# generated using pymatgen
data_Hf3Zr3Ga6(Pd2Ru)2
_symmetry_space_group_name_H-M   'P 1'
_cell_length_a   7.37019800
_cell_length_b   7.37019826
_cell_length_c   6.67085100
_cell_angle_alpha   90.00000000
_cell_angle_beta   90.00000000
_cell_angle_gamma   119.99999883
_symmetry_Int_Tables_number   1
_chemical_formula_structural   Hf3Zr3Ga6(Pd2Ru)2
_chemical_formula_sum   'Hf3 Zr3 Ga6 Pd4 Ru2'
_cell_volume   313.81247432
_cell_formula_units_Z   1
loop_
 _symmetry_equiv_pos_site_id
 _symmetry_equiv_pos_as_xyz
  1  'x, y, z'
loop_
 _atom_site_type_symbol
 _atom_site_label
 _atom_site_symmetry_multiplicity
 _atom_site_fract_x
 _atom_site_fract_y
 _atom_site_fract_z
 _atom_site_occupancy
  Hf  Hf0  1  0.315430  0.264653  0.500000  1
  Hf  Hf1  1  0.735347  0.050778  0.500000  1
  Hf  Hf2  1  0.949222  0.684570  0.500000  1
  Zr  Zr3  1  0.734002  0.058312  0.000000  1
  Zr  Zr4  1  0.324310  0.265998  0.000000  1
  Zr  Zr5  1  0.941688  0.675690  0.000000  1
  Ga  Ga6  1  0.605952  0.662958  0.749109  1
  Ga  Ga7  1  0.057006  0.394048  0.749109  1
  Ga  Ga8  1  0.337042  0.942994  0.749109  1
  Ga  Ga9  1  0.605952  0.662958  0.250891  1
  Ga  Ga10  1  0.057006  0.394048  0.250891  1
  Ga  Ga11  1  0.337042  0.942994  0.250891  1
  Pd  Pd12  1  0.333333  0.666667  0.000000  1
  Pd  Pd13  1  0.333333  0.666667  0.500000  1
  Pd  Pd14  1  0.666667  0.333333  0.735855  1
  Pd  Pd15  1  0.666667  0.333333  0.264145  1
  Ru  Ru16  1  0.000000  0.000000  0.252743  1
  Ru  Ru17  1  0.000000  0.000000  0.747257  1
