# generated using pymatgen
data_La2Sm4CoI10
_symmetry_space_group_name_H-M   'P 1'
_cell_length_a   7.92948640
_cell_length_b   9.96649100
_cell_length_c   9.87530270
_cell_angle_alpha   106.93719664
_cell_angle_beta   96.03693504
_cell_angle_gamma   105.57810926
_symmetry_Int_Tables_number   1
_chemical_formula_structural   La2Sm4CoI10
_chemical_formula_sum   'La2 Sm4 Co1 I10'
_cell_volume   704.77121161
_cell_formula_units_Z   1
loop_
 _symmetry_equiv_pos_site_id
 _symmetry_equiv_pos_as_xyz
  1  'x, y, z'
loop_
 _atom_site_type_symbol
 _atom_site_label
 _atom_site_symmetry_multiplicity
 _atom_site_fract_x
 _atom_site_fract_y
 _atom_site_fract_z
 _atom_site_occupancy
  La  La0  1  0.887254  0.958753  0.230494  1
  La  La1  1  0.112746  0.041247  0.769506  1
  Sm  Sm2  1  0.029656  0.714074  0.913503  1
  Sm  Sm3  1  0.970344  0.285926  0.086497  1
  Sm  Sm4  1  0.651335  0.874651  0.835399  1
  Sm  Sm5  1  0.348665  0.125349  0.164601  1
  Co  Co6  1  0.000000  0.000000  0.000000  1
  I  I7  1  0.649434  0.550680  0.729170  1
  I  I8  1  0.350566  0.449320  0.270830  1
  I  I9  1  0.732777  0.910578  0.539919  1
  I  I10  1  0.267223  0.089422  0.460081  1
  I  I11  1  0.083496  0.375806  0.821243  1
  I  I12  1  0.916504  0.624194  0.178757  1
  I  I13  1  0.447254  0.816265  0.090612  1
  I  I14  1  0.552746  0.183735  0.909388  1
  I  I15  1  0.224227  0.738365  0.655424  1
  I  I16  1  0.775773  0.261635  0.344576  1
