# generated using pymatgen
data_Ta3Ti2Nb5N12
_symmetry_space_group_name_H-M   'P 1'
_cell_length_a   5.23229500
_cell_length_b   5.22416669
_cell_length_c   10.30441174
_cell_angle_alpha   90.03758901
_cell_angle_beta   90.00000000
_cell_angle_gamma   120.05150130
_symmetry_Int_Tables_number   1
_chemical_formula_structural   Ta3Ti2Nb5N12
_chemical_formula_sum   'Ta3 Ti2 Nb5 N12'
_cell_volume   243.80204398
_cell_formula_units_Z   1
loop_
 _symmetry_equiv_pos_site_id
 _symmetry_equiv_pos_as_xyz
  1  'x, y, z'
loop_
 _atom_site_type_symbol
 _atom_site_label
 _atom_site_symmetry_multiplicity
 _atom_site_fract_x
 _atom_site_fract_y
 _atom_site_fract_z
 _atom_site_occupancy
  Ta  Ta0  1  0.666834  0.334645  0.500068  1
  Ta  Ta1  1  0.332188  0.665355  0.999932  1
  Ta  Ta2  1  0.677691  0.000000  0.750000  1
  Ti  Ti3  1  0.332698  0.665834  0.500116  1
  Ti  Ti4  1  0.666865  0.334166  0.999884  1
  Nb  Nb5  1  0.677207  0.677136  0.250004  1
  Nb  Nb6  1  0.000071  0.322864  0.249996  1
  Nb  Nb7  1  0.999940  0.676937  0.750017  1
  Nb  Nb8  1  0.323003  0.323063  0.749983  1
  Nb  Nb9  1  0.323205  0.000000  0.250000  1
  N  N10  1  0.343132  0.344853  0.380915  1
  N  N11  1  0.654547  0.998603  0.380729  1
  N  N12  1  0.001688  0.656933  0.380927  1
  N  N13  1  0.994595  0.339223  0.880456  1
  N  N14  1  0.655945  0.001397  0.119271  1
  N  N15  1  0.657149  0.659317  0.880316  1
  N  N16  1  0.349367  0.001730  0.879818  1
  N  N17  1  0.655371  0.660777  0.619544  1
  N  N18  1  0.997831  0.340683  0.619684  1
  N  N19  1  0.998280  0.655147  0.119085  1
  N  N20  1  0.347636  0.998270  0.620182  1
  N  N21  1  0.344755  0.343067  0.119073  1
