# generated using pymatgen
data_Tb20Tc3NiBi8
_symmetry_space_group_name_H-M   'P 1'
_cell_length_a   8.01446390
_cell_length_b   9.08040400
_cell_length_c   12.42522472
_cell_angle_alpha   89.99995803
_cell_angle_beta   89.77158017
_cell_angle_gamma   90.00001342
_symmetry_Int_Tables_number   1
_chemical_formula_structural   Tb20Tc3NiBi8
_chemical_formula_sum   'Tb20 Tc3 Ni1 Bi8'
_cell_volume   904.23320102
_cell_formula_units_Z   1
loop_
 _symmetry_equiv_pos_site_id
 _symmetry_equiv_pos_as_xyz
  1  'x, y, z'
loop_
 _atom_site_type_symbol
 _atom_site_label
 _atom_site_symmetry_multiplicity
 _atom_site_fract_x
 _atom_site_fract_y
 _atom_site_fract_z
 _atom_site_occupancy
  Tb  Tb0  1  0.847982  0.749999  0.795782  1
  Tb  Tb1  1  0.156579  0.250000  0.209019  1
  Tb  Tb2  1  0.341755  0.250000  0.710231  1
  Tb  Tb3  1  0.659941  0.750000  0.291089  1
  Tb  Tb4  1  0.378303  0.750000  0.692142  1
  Tb  Tb5  1  0.622166  0.250000  0.305655  1
  Tb  Tb6  1  0.879749  0.250000  0.806233  1
  Tb  Tb7  1  0.121470  0.750000  0.193473  1
  Tb  Tb8  1  0.946050  0.750001  0.504906  1
  Tb  Tb9  1  0.050630  0.250000  0.496658  1
  Tb  Tb10  1  0.446752  0.250000  0.996225  1
  Tb  Tb11  1  0.552578  0.750000  0.003854  1
  Tb  Tb12  1  0.676086  0.043605  0.563393  1
  Tb  Tb13  1  0.322501  0.959904  0.434850  1
  Tb  Tb14  1  0.177390  0.959453  0.935428  1
  Tb  Tb15  1  0.322501  0.540096  0.434850  1
  Tb  Tb16  1  0.823725  0.041192  0.064278  1
  Tb  Tb17  1  0.676086  0.456395  0.563392  1
  Tb  Tb18  1  0.823725  0.458808  0.064278  1
  Tb  Tb19  1  0.177391  0.540547  0.935429  1
  Tc  Tc20  1  0.419883  0.250000  0.487920  1
  Tc  Tc21  1  0.081176  0.250000  0.987411  1
  Tc  Tc22  1  0.918997  0.750000  0.015066  1
  Ni  Ni23  1  0.575333  0.750000  0.509769  1
  Bi  Bi24  1  0.573294  0.493889  0.826363  1
  Bi  Bi25  1  0.427540  0.507466  0.172956  1
  Bi  Bi26  1  0.072273  0.507895  0.671812  1
  Bi  Bi27  1  0.427540  0.992534  0.172957  1
  Bi  Bi28  1  0.927519  0.493509  0.328202  1
  Bi  Bi29  1  0.573293  0.006111  0.826364  1
  Bi  Bi30  1  0.927519  0.006491  0.328202  1
  Bi  Bi31  1  0.072273  0.992105  0.671812  1
