# generated using pymatgen
data_AcYZn5Sn
_symmetry_space_group_name_H-M   'P 1'
_cell_length_a   8.60730304
_cell_length_b   8.60730292
_cell_length_c   9.20805600
_cell_angle_alpha   90.00000000
_cell_angle_beta   90.00000000
_cell_angle_gamma   149.41205824
_symmetry_Int_Tables_number   1
_chemical_formula_structural   AcYZn5Sn
_chemical_formula_sum   'Ac2 Y2 Zn10 Sn2'
_cell_volume   347.13680742
_cell_formula_units_Z   2
loop_
 _symmetry_equiv_pos_site_id
 _symmetry_equiv_pos_as_xyz
  1  'x, y, z'
loop_
 _atom_site_type_symbol
 _atom_site_label
 _atom_site_symmetry_multiplicity
 _atom_site_fract_x
 _atom_site_fract_y
 _atom_site_fract_z
 _atom_site_occupancy
  Ac  Ac0  1  0.000000  0.000000  0.500000  1
  Ac  Ac1  1  0.000000  0.000000  0.000000  1
  Y  Y2  1  0.207417  0.792583  0.250000  1
  Y  Y3  1  0.792583  0.207417  0.750000  1
  Zn  Zn4  1  0.810993  0.189007  0.387804  1
  Zn  Zn5  1  0.189007  0.810993  0.612196  1
  Zn  Zn6  1  0.810993  0.189007  0.112196  1
  Zn  Zn7  1  0.189007  0.810993  0.887804  1
  Zn  Zn8  1  0.661957  0.338043  0.486063  1
  Zn  Zn9  1  0.338043  0.661957  0.513937  1
  Zn  Zn10  1  0.661957  0.338043  0.013937  1
  Zn  Zn11  1  0.338043  0.661957  0.986063  1
  Zn  Zn12  1  0.395686  0.604314  0.250000  1
  Zn  Zn13  1  0.604314  0.395686  0.750000  1
  Sn  Sn14  1  0.564434  0.435566  0.250000  1
  Sn  Sn15  1  0.435566  0.564434  0.750000  1
