# generated using pymatgen
data_Zr4Sc2Zn23Sn
_symmetry_space_group_name_H-M   'P 1'
_cell_length_a   8.79197677
_cell_length_b   8.92169449
_cell_length_c   8.92169441
_cell_angle_alpha   59.03983420
_cell_angle_beta   60.48006476
_cell_angle_gamma   60.48006896
_symmetry_Int_Tables_number   1
_chemical_formula_structural   Zr4Sc2Zn23Sn
_chemical_formula_sum   'Zr4 Sc2 Zn23 Sn1'
_cell_volume   494.63504707
_cell_formula_units_Z   1
loop_
 _symmetry_equiv_pos_site_id
 _symmetry_equiv_pos_as_xyz
  1  'x, y, z'
loop_
 _atom_site_type_symbol
 _atom_site_label
 _atom_site_symmetry_multiplicity
 _atom_site_fract_x
 _atom_site_fract_y
 _atom_site_fract_z
 _atom_site_occupancy
  Zr  Zr0  1  0.261875  0.738122  0.261876  1
  Zr  Zr1  1  0.738125  0.261878  0.738124  1
  Zr  Zr2  1  0.261875  0.261876  0.738122  1
  Zr  Zr3  1  0.738125  0.738124  0.261878  1
  Sc  Sc4  1  0.729662  0.270341  0.270341  1
  Sc  Sc5  1  0.270338  0.729659  0.729659  1
  Zn  Zn6  1  0.123633  0.133453  0.133453  1
  Zn  Zn7  1  0.876367  0.866547  0.866547  1
  Zn  Zn8  1  0.133452  0.123631  0.609464  1
  Zn  Zn9  1  0.133452  0.609464  0.123631  1
  Zn  Zn10  1  0.866548  0.876369  0.390536  1
  Zn  Zn11  1  0.866548  0.390536  0.876369  1
  Zn  Zn12  1  0.609463  0.133453  0.133453  1
  Zn  Zn13  1  0.390537  0.866547  0.866547  1
  Zn  Zn14  1  0.500000  0.000000  0.000000  1
  Zn  Zn15  1  0.000000  0.500000  0.500000  1
  Zn  Zn16  1  0.000000  0.500000  0.000000  1
  Zn  Zn17  1  0.500000  0.000000  0.500000  1
  Zn  Zn18  1  0.000000  0.000000  0.500000  1
  Zn  Zn19  1  0.500000  0.500000  0.000000  1
  Zn  Zn20  1  0.344972  0.346761  0.346761  1
  Zn  Zn21  1  0.655028  0.653239  0.653239  1
  Zn  Zn22  1  0.346759  0.344971  0.961508  1
  Zn  Zn23  1  0.346759  0.961508  0.344971  1
  Zn  Zn24  1  0.653241  0.655029  0.038492  1
  Zn  Zn25  1  0.653241  0.038492  0.655029  1
  Zn  Zn26  1  0.961508  0.346760  0.346760  1
  Zn  Zn27  1  0.038492  0.653240  0.653240  1
  Zn  Zn28  1  0.000000  0.000000  0.000000  1
  Sn  Sn29  1  0.500000  0.500000  0.500000  1
