# generated using pymatgen
data_Nd8MgCdRuPt
_symmetry_space_group_name_H-M   'P 1'
_cell_length_a   9.99767594
_cell_length_b   9.99767509
_cell_length_c   10.05628100
_cell_angle_alpha   59.80589461
_cell_angle_beta   59.80589745
_cell_angle_gamma   59.77172255
_symmetry_Int_Tables_number   1
_chemical_formula_structural   Nd8MgCdRuPt
_chemical_formula_sum   'Nd16 Mg2 Cd2 Ru2 Pt2'
_cell_volume   707.44000681
_cell_formula_units_Z   2
loop_
 _symmetry_equiv_pos_site_id
 _symmetry_equiv_pos_as_xyz
  1  'x, y, z'
loop_
 _atom_site_type_symbol
 _atom_site_label
 _atom_site_symmetry_multiplicity
 _atom_site_fract_x
 _atom_site_fract_y
 _atom_site_fract_z
 _atom_site_occupancy
  Nd  Nd0  1  0.347397  0.347397  0.354147  1
  Nd  Nd1  1  0.347397  0.347397  0.951061  1
  Nd  Nd2  1  0.343303  0.959289  0.348704  1
  Nd  Nd3  1  0.959289  0.343303  0.348704  1
  Nd  Nd4  1  0.815707  0.188874  0.190341  1
  Nd  Nd5  1  0.188874  0.815707  0.805077  1
  Nd  Nd6  1  0.188874  0.815707  0.190341  1
  Nd  Nd7  1  0.815707  0.188874  0.805077  1
  Nd  Nd8  1  0.190378  0.190378  0.809622  1
  Nd  Nd9  1  0.809389  0.809389  0.190611  1
  Nd  Nd10  1  0.938322  0.558792  0.564864  1
  Nd  Nd11  1  0.558792  0.938322  0.938022  1
  Nd  Nd12  1  0.558792  0.938322  0.564864  1
  Nd  Nd13  1  0.938322  0.558792  0.938022  1
  Nd  Nd14  1  0.562560  0.562560  0.937440  1
  Nd  Nd15  1  0.937991  0.937991  0.562009  1
  Mg  Mg16  1  0.575557  0.575557  0.579640  1
  Mg  Mg17  1  0.575557  0.575557  0.269246  1
  Cd  Cd18  1  0.582487  0.255985  0.580764  1
  Cd  Cd19  1  0.255985  0.582487  0.580764  1
  Ru  Ru20  1  0.144308  0.144308  0.135527  1
  Ru  Ru21  1  0.144308  0.144308  0.575859  1
  Pt  Pt22  1  0.146841  0.573865  0.139647  1
  Pt  Pt23  1  0.573865  0.146841  0.139647  1
