# generated using pymatgen
data_LiFe2I9
_symmetry_space_group_name_H-M   'P 1'
_cell_length_a   8.43039817
_cell_length_b   8.63923574
_cell_length_c   18.23198039
_cell_angle_alpha   85.57045027
_cell_angle_beta   87.29354208
_cell_angle_gamma   77.46555880
_symmetry_Int_Tables_number   1
_chemical_formula_structural   LiFe2I9
_chemical_formula_sum   'Li2 Fe4 I18'
_cell_volume   1291.72150419
_cell_formula_units_Z   2
loop_
 _symmetry_equiv_pos_site_id
 _symmetry_equiv_pos_as_xyz
  1  'x, y, z'
loop_
 _atom_site_type_symbol
 _atom_site_label
 _atom_site_symmetry_multiplicity
 _atom_site_fract_x
 _atom_site_fract_y
 _atom_site_fract_z
 _atom_site_occupancy
  Li  Li0  1  0.071478  0.215751  0.585947  1
  Li  Li1  1  0.928522  0.784249  0.414053  1
  Fe  Fe2  1  0.140408  0.706194  0.575712  1
  Fe  Fe3  1  0.859592  0.293806  0.424288  1
  Fe  Fe4  1  0.716050  0.306642  0.872529  1
  Fe  Fe5  1  0.283950  0.693358  0.127471  1
  I  I6  1  0.544516  0.860960  0.843637  1
  I  I7  1  0.455484  0.139040  0.156363  1
  I  I8  1  0.203566  0.441491  0.653957  1
  I  I9  1  0.796434  0.558509  0.346043  1
  I  I10  1  0.632097  0.553623  0.778444  1
  I  I11  1  0.367903  0.446377  0.221556  1
  I  I12  1  0.256481  0.911716  0.638595  1
  I  I13  1  0.743519  0.088284  0.361405  1
  I  I14  1  0.929283  0.123950  0.802457  1
  I  I15  1  0.070717  0.876050  0.197543  1
  I  I16  1  0.196198  0.624831  0.007974  1
  I  I17  1  0.803802  0.375169  0.992026  1
  I  I18  1  0.739921  0.321084  0.556157  1
  I  I19  1  0.260079  0.678916  0.443843  1
  I  I20  1  0.833374  0.799080  0.564970  1
  I  I21  1  0.166626  0.200920  0.435030  1
  I  I22  1  0.458507  0.179756  0.899313  1
  I  I23  1  0.541493  0.820244  0.100687  1
