# generated using pymatgen
data_YU(Re2Si)4
_symmetry_space_group_name_H-M   'P 1'
_cell_length_a   7.44588526
_cell_length_b   7.44588522
_cell_length_c   4.10333800
_cell_angle_alpha   90.00000000
_cell_angle_beta   90.00000000
_cell_angle_gamma   90.40691858
_symmetry_Int_Tables_number   1
_chemical_formula_structural   YU(Re2Si)4
_chemical_formula_sum   'Y1 U1 Re8 Si4'
_cell_volume   227.48827436
_cell_formula_units_Z   1
loop_
 _symmetry_equiv_pos_site_id
 _symmetry_equiv_pos_as_xyz
  1  'x, y, z'
loop_
 _atom_site_type_symbol
 _atom_site_label
 _atom_site_symmetry_multiplicity
 _atom_site_fract_x
 _atom_site_fract_y
 _atom_site_fract_z
 _atom_site_occupancy
  Y  Y0  1  0.000000  0.000000  0.500000  1
  U  U1  1  0.500000  0.500000  0.000000  1
  Re  Re2  1  0.653005  0.905089  0.000000  1
  Re  Re3  1  0.161668  0.590480  0.500000  1
  Re  Re4  1  0.094911  0.346995  0.000000  1
  Re  Re5  1  0.905089  0.653005  0.000000  1
  Re  Re6  1  0.409520  0.838332  0.500000  1
  Re  Re7  1  0.590480  0.161668  0.500000  1
  Re  Re8  1  0.346995  0.094911  0.000000  1
  Re  Re9  1  0.838332  0.409520  0.500000  1
  Si  Si10  1  0.207860  0.792140  0.000000  1
  Si  Si11  1  0.792140  0.207860  0.000000  1
  Si  Si12  1  0.711143  0.711143  0.500000  1
  Si  Si13  1  0.288857  0.288857  0.500000  1
