# generated using pymatgen
data_Ce4B20PtRh
_symmetry_space_group_name_H-M   'P 1'
_cell_length_a   4.18502200
_cell_length_b   5.71143431
_cell_length_c   11.41427761
_cell_angle_alpha   89.75257855
_cell_angle_beta   90.00000000
_cell_angle_gamma   90.00000000
_symmetry_Int_Tables_number   1
_chemical_formula_structural   Ce4B20PtRh
_chemical_formula_sum   'Ce4 B20 Pt1 Rh1'
_cell_volume   272.82697842
_cell_formula_units_Z   1
loop_
 _symmetry_equiv_pos_site_id
 _symmetry_equiv_pos_as_xyz
  1  'x, y, z'
loop_
 _atom_site_type_symbol
 _atom_site_label
 _atom_site_symmetry_multiplicity
 _atom_site_fract_x
 _atom_site_fract_y
 _atom_site_fract_z
 _atom_site_occupancy
  Ce  Ce0  1  0.500000  0.299560  0.864058  1
  Ce  Ce1  1  0.500000  0.700440  0.135942  1
  Ce  Ce2  1  0.500000  0.805807  0.640649  1
  Ce  Ce3  1  0.500000  0.194193  0.359351  1
  B  B4  1  0.000000  0.115560  0.544102  1
  B  B5  1  0.000000  0.884440  0.455898  1
  B  B6  1  0.000000  0.618029  0.956937  1
  B  B7  1  0.000000  0.381971  0.043063  1
  B  B8  1  0.000000  0.138260  0.697944  1
  B  B9  1  0.000000  0.861740  0.302056  1
  B  B10  1  0.302108  0.216529  0.118401  1
  B  B11  1  0.302108  0.783471  0.881599  1
  B  B12  1  0.696798  0.718130  0.379294  1
  B  B13  1  0.696798  0.281870  0.620706  1
  B  B14  1  0.697892  0.783471  0.881599  1
  B  B15  1  0.697892  0.216529  0.118401  1
  B  B16  1  0.303202  0.281870  0.620706  1
  B  B17  1  0.303202  0.718130  0.379294  1
  B  B18  1  0.000000  0.052781  0.192322  1
  B  B19  1  0.000000  0.947219  0.807678  1
  B  B20  1  0.000000  0.553534  0.305556  1
  B  B21  1  0.000000  0.446466  0.694444  1
  B  B22  1  0.000000  0.360904  0.197275  1
  B  B23  1  0.000000  0.639096  0.802725  1
  Pt  Pt24  1  0.000000  0.500000  0.500000  1
  Rh  Rh25  1  0.000000  0.000000  0.000000  1
