# generated using pymatgen
data_Rb4TaV(AgTe4)2
_symmetry_space_group_name_H-M   'P 1'
_cell_length_a   15.16725723
_cell_length_b   13.55606570
_cell_length_c   8.17426062
_cell_angle_alpha   84.68223736
_cell_angle_beta   62.86381580
_cell_angle_gamma   32.45394604
_symmetry_Int_Tables_number   1
_chemical_formula_structural   Rb4TaV(AgTe4)2
_chemical_formula_sum   'Rb4 Ta1 V1 Ag2 Te8'
_cell_volume   634.84770431
_cell_formula_units_Z   1
loop_
 _symmetry_equiv_pos_site_id
 _symmetry_equiv_pos_as_xyz
  1  'x, y, z'
loop_
 _atom_site_type_symbol
 _atom_site_label
 _atom_site_symmetry_multiplicity
 _atom_site_fract_x
 _atom_site_fract_y
 _atom_site_fract_z
 _atom_site_occupancy
  Rb  Rb0  1  0.681354  0.681354  0.318646  1
  Rb  Rb1  1  0.318646  0.318646  0.681354  1
  Rb  Rb2  1  0.931749  0.931749  0.568251  1
  Rb  Rb3  1  0.568251  0.568251  0.931749  1
  Ta  Ta4  1  0.750000  0.750000  0.750000  1
  V  V5  1  0.500000  0.500000  0.500000  1
  Ag  Ag6  1  0.250000  0.250000  0.250000  1
  Ag  Ag7  1  0.000000  0.000000  0.000000  1
  Te  Te8  1  0.559306  0.326303  0.240290  1
  Te  Te9  1  0.874102  0.240290  0.326303  1
  Te  Te10  1  0.021475  0.359857  0.686279  1
  Te  Te11  1  0.932389  0.686279  0.359857  1
  Te  Te12  1  0.240290  0.874102  0.559306  1
  Te  Te13  1  0.326303  0.559306  0.874102  1
  Te  Te14  1  0.359857  0.021475  0.932389  1
  Te  Te15  1  0.686279  0.932389  0.021475  1
