# generated using pymatgen
data_Lu2U(AlCo)3
_symmetry_space_group_name_H-M   'P 1'
_cell_length_a   6.98946807
_cell_length_b   7.15480571
_cell_length_c   3.54775300
_cell_angle_alpha   90.00000000
_cell_angle_beta   90.00000000
_cell_angle_gamma   120.78563523
_symmetry_Int_Tables_number   1
_chemical_formula_structural   Lu2U(AlCo)3
_chemical_formula_sum   'Lu2 U1 Al3 Co3'
_cell_volume   152.41689960
_cell_formula_units_Z   1
loop_
 _symmetry_equiv_pos_site_id
 _symmetry_equiv_pos_as_xyz
  1  'x, y, z'
loop_
 _atom_site_type_symbol
 _atom_site_label
 _atom_site_symmetry_multiplicity
 _atom_site_fract_x
 _atom_site_fract_y
 _atom_site_fract_z
 _atom_site_occupancy
  Lu  Lu0  1  0.413903  0.415329  0.500000  1
  Lu  Lu1  1  0.586097  0.001426  0.500000  1
  U  U2  1  0.000000  0.571924  0.500000  1
  Al  Al3  1  0.756441  0.756859  0.000000  1
  Al  Al4  1  0.243559  0.000418  0.000000  1
  Al  Al5  1  0.000000  0.228364  0.000000  1
  Co  Co6  1  0.714224  0.373911  0.000000  1
  Co  Co7  1  0.285776  0.659688  0.000000  1
  Co  Co8  1  0.000000  0.992080  0.500000  1
