# generated using pymatgen
data_HoTm2Th(Al3Rh)6
_symmetry_space_group_name_H-M   'P 1'
_cell_length_a   7.57189700
_cell_length_b   7.58637109
_cell_length_c   9.46701500
_cell_angle_alpha   90.00000000
_cell_angle_beta   90.00000000
_cell_angle_gamma   119.36904486
_symmetry_Int_Tables_number   1
_chemical_formula_structural   HoTm2Th(Al3Rh)6
_chemical_formula_sum   'Ho1 Tm2 Th1 Al18 Rh6'
_cell_volume   473.92402357
_cell_formula_units_Z   1
loop_
 _symmetry_equiv_pos_site_id
 _symmetry_equiv_pos_as_xyz
  1  'x, y, z'
loop_
 _atom_site_type_symbol
 _atom_site_label
 _atom_site_symmetry_multiplicity
 _atom_site_fract_x
 _atom_site_fract_y
 _atom_site_fract_z
 _atom_site_occupancy
  Ho  Ho0  1  0.672488  0.994297  0.250000  1
  Tm  Tm1  1  0.004115  0.327390  0.750000  1
  Tm  Tm2  1  0.327427  0.005316  0.750000  1
  Th  Th3  1  0.994377  0.671500  0.250000  1
  Al  Al4  1  0.131298  0.132953  0.250000  1
  Al  Al5  1  0.872561  0.875100  0.750000  1
  Al  Al6  1  0.001249  0.331121  0.072293  1
  Al  Al7  1  0.999848  0.663990  0.916810  1
  Al  Al8  1  0.999848  0.663990  0.583190  1
  Al  Al9  1  0.340418  0.005102  0.427602  1
  Al  Al10  1  0.001249  0.331121  0.427707  1
  Al  Al11  1  0.664238  0.001194  0.577241  1
  Al  Al12  1  0.664238  0.001194  0.922759  1
  Al  Al13  1  0.340418  0.005102  0.072398  1
  Al  Al14  1  0.331683  0.331841  0.555918  1
  Al  Al15  1  0.663215  0.666645  0.456743  1
  Al  Al16  1  0.663215  0.666645  0.043257  1
  Al  Al17  1  0.331683  0.331841  0.944082  1
  Al  Al18  1  0.344774  0.549160  0.250000  1
  Al  Al19  1  0.657971  0.447104  0.750000  1
  Al  Al20  1  0.545119  0.336157  0.250000  1
  Al  Al21  1  0.448046  0.661034  0.750000  1
  Rh  Rh22  1  0.673200  0.329066  0.999681  1
  Rh  Rh23  1  0.326402  0.671763  0.999956  1
  Rh  Rh24  1  0.326402  0.671763  0.500044  1
  Rh  Rh25  1  0.673200  0.329066  0.500319  1
  Rh  Rh26  1  0.000659  0.999274  0.999756  1
  Rh  Rh27  1  0.000659  0.999274  0.500244  1
