# generated using pymatgen
data_Ce2Cr3Co9P7
_symmetry_space_group_name_H-M   'P 1'
_cell_length_a   9.00356200
_cell_length_b   9.00356251
_cell_length_c   3.67100700
_cell_angle_alpha   90.00000000
_cell_angle_beta   90.00000000
_cell_angle_gamma   120.00000451
_symmetry_Int_Tables_number   1
_chemical_formula_structural   Ce2Cr3Co9P7
_chemical_formula_sum   'Ce2 Cr3 Co9 P7'
_cell_volume   257.71789062
_cell_formula_units_Z   1
loop_
 _symmetry_equiv_pos_site_id
 _symmetry_equiv_pos_as_xyz
  1  'x, y, z'
loop_
 _atom_site_type_symbol
 _atom_site_label
 _atom_site_symmetry_multiplicity
 _atom_site_fract_x
 _atom_site_fract_y
 _atom_site_fract_z
 _atom_site_occupancy
  Ce  Ce0  1  0.000000  0.000000  0.000000  1
  Ce  Ce1  1  0.333333  0.666667  0.500000  1
  Cr  Cr2  1  0.881396  0.431215  0.500000  1
  Cr  Cr3  1  0.549819  0.118604  0.500000  1
  Cr  Cr4  1  0.568785  0.450181  0.500000  1
  Co  Co5  1  0.100898  0.396385  0.000000  1
  Co  Co6  1  0.295487  0.899102  0.000000  1
  Co  Co7  1  0.603615  0.704513  0.000000  1
  Co  Co8  1  0.819492  0.609783  0.000000  1
  Co  Co9  1  0.790291  0.180508  0.000000  1
  Co  Co10  1  0.390217  0.209709  0.000000  1
  Co  Co11  1  0.047259  0.766608  0.500000  1
  Co  Co12  1  0.719349  0.952741  0.500000  1
  Co  Co13  1  0.233392  0.280651  0.500000  1
  P  P14  1  0.069140  0.628665  0.000000  1
  P  P15  1  0.559525  0.930860  0.000000  1
  P  P16  1  0.371335  0.440475  0.000000  1
  P  P17  1  0.771844  0.730864  0.500000  1
  P  P18  1  0.959022  0.228156  0.500000  1
  P  P19  1  0.269136  0.040978  0.500000  1
  P  P20  1  0.666667  0.333333  0.000000  1
