# generated using pymatgen
data_Ho4PuNbRu6
_symmetry_space_group_name_H-M   'P 1'
_cell_length_a   5.72786234
_cell_length_b   5.72484485
_cell_length_c   7.98011802
_cell_angle_alpha   90.00192992
_cell_angle_beta   89.99257426
_cell_angle_gamma   119.98379807
_symmetry_Int_Tables_number   1
_chemical_formula_structural   Ho4PuNbRu6
_chemical_formula_sum   'Ho4 Pu1 Nb1 Ru6'
_cell_volume   226.65594525
_cell_formula_units_Z   1
loop_
 _symmetry_equiv_pos_site_id
 _symmetry_equiv_pos_as_xyz
  1  'x, y, z'
loop_
 _atom_site_type_symbol
 _atom_site_label
 _atom_site_symmetry_multiplicity
 _atom_site_fract_x
 _atom_site_fract_y
 _atom_site_fract_z
 _atom_site_occupancy
  Ho  Ho0  1  0.666686  0.333360  0.561924  1
  Ho  Ho1  1  0.333314  0.666640  0.438076  1
  Ho  Ho2  1  0.333268  0.666621  0.058063  1
  Ho  Ho3  1  0.666732  0.333379  0.941937  1
  Pu  Pu4  1  0.000000  0.000000  0.500000  1
  Nb  Nb5  1  0.000000  0.000000  0.000000  1
  Ru  Ru6  1  0.170291  0.340907  0.746271  1
  Ru  Ru7  1  0.170338  0.829465  0.746258  1
  Ru  Ru8  1  0.659038  0.829523  0.746365  1
  Ru  Ru9  1  0.829709  0.659093  0.253729  1
  Ru  Ru10  1  0.829662  0.170535  0.253742  1
  Ru  Ru11  1  0.340962  0.170477  0.253635  1
