# generated using pymatgen
data_Pu4ReB12Mo
_symmetry_space_group_name_H-M   'P 1'
_cell_length_a   3.66362200
_cell_length_b   9.29589907
_cell_length_c   11.36137848
_cell_angle_alpha   90.19484746
_cell_angle_beta   90.00000000
_cell_angle_gamma   90.00000000
_symmetry_Int_Tables_number   1
_chemical_formula_structural   Pu4ReB12Mo
_chemical_formula_sum   'Pu8 Re2 B24 Mo2'
_cell_volume   386.92837046
_cell_formula_units_Z   2
loop_
 _symmetry_equiv_pos_site_id
 _symmetry_equiv_pos_as_xyz
  1  'x, y, z'
loop_
 _atom_site_type_symbol
 _atom_site_label
 _atom_site_symmetry_multiplicity
 _atom_site_fract_x
 _atom_site_fract_y
 _atom_site_fract_z
 _atom_site_occupancy
  Pu  Pu0  1  0.000000  0.336301  0.407697  1
  Pu  Pu1  1  0.000000  0.663699  0.592303  1
  Pu  Pu2  1  0.000000  0.834943  0.091983  1
  Pu  Pu3  1  0.000000  0.165057  0.908017  1
  Pu  Pu4  1  0.000000  0.958106  0.401624  1
  Pu  Pu5  1  0.000000  0.041894  0.598376  1
  Pu  Pu6  1  0.000000  0.454809  0.110470  1
  Pu  Pu7  1  0.000000  0.545191  0.889530  1
  Re  Re8  1  0.000000  0.143454  0.181635  1
  Re  Re9  1  0.000000  0.856546  0.818365  1
  B  B10  1  0.500000  0.552404  0.432762  1
  B  B11  1  0.500000  0.447596  0.567238  1
  B  B12  1  0.500000  0.052337  0.068248  1
  B  B13  1  0.500000  0.947663  0.931752  1
  B  B14  1  0.500000  0.745873  0.424110  1
  B  B15  1  0.500000  0.254127  0.575890  1
  B  B16  1  0.500000  0.244249  0.078049  1
  B  B17  1  0.500000  0.755751  0.921951  1
  B  B18  1  0.500000  0.805248  0.272964  1
  B  B19  1  0.500000  0.194752  0.727036  1
  B  B20  1  0.500000  0.301408  0.227792  1
  B  B21  1  0.500000  0.698592  0.772208  1
  B  B22  1  0.500000  0.643702  0.187086  1
  B  B23  1  0.500000  0.356298  0.812914  1
  B  B24  1  0.500000  0.142579  0.312106  1
  B  B25  1  0.500000  0.857421  0.687894  1
  B  B26  1  0.500000  0.987454  0.219245  1
  B  B27  1  0.500000  0.012546  0.780755  1
  B  B28  1  0.500000  0.487167  0.281695  1
  B  B29  1  0.500000  0.512833  0.718305  1
  B  B30  1  0.500000  0.638416  0.037404  1
  B  B31  1  0.500000  0.361584  0.962596  1
  B  B32  1  0.500000  0.139471  0.460613  1
  B  B33  1  0.500000  0.860529  0.539387  1
  Mo  Mo34  1  0.000000  0.647666  0.320015  1
  Mo  Mo35  1  0.000000  0.352334  0.679985  1
