# generated using pymatgen
data_Ce20Si15Rh
_symmetry_space_group_name_H-M   'P 1'
_cell_length_a   7.60367366
_cell_length_b   7.73757624
_cell_length_c   14.75706400
_cell_angle_alpha   89.72502634
_cell_angle_beta   89.65397802
_cell_angle_gamma   89.96739498
_symmetry_Int_Tables_number   1
_chemical_formula_structural   Ce20Si15Rh
_chemical_formula_sum   'Ce20 Si15 Rh1'
_cell_volume   868.19121377
_cell_formula_units_Z   1
loop_
 _symmetry_equiv_pos_site_id
 _symmetry_equiv_pos_as_xyz
  1  'x, y, z'
loop_
 _atom_site_type_symbol
 _atom_site_label
 _atom_site_symmetry_multiplicity
 _atom_site_fract_x
 _atom_site_fract_y
 _atom_site_fract_z
 _atom_site_occupancy
  Ce  Ce0  1  0.129309  0.491321  0.751225  1
  Ce  Ce1  1  0.815205  0.333953  0.615761  1
  Ce  Ce2  1  0.464709  0.684672  0.899293  1
  Ce  Ce3  1  0.963431  0.817143  0.898630  1
  Ce  Ce4  1  0.182405  0.681067  0.124205  1
  Ce  Ce5  1  0.684638  0.819468  0.123765  1
  Ce  Ce6  1  0.312476  0.180736  0.874869  1
  Ce  Ce7  1  0.180887  0.680247  0.377780  1
  Ce  Ce8  1  0.034304  0.182215  0.101673  1
  Ce  Ce9  1  0.322755  0.178108  0.625388  1
  Ce  Ce10  1  0.865692  0.502100  0.247876  1
  Ce  Ce11  1  0.367881  0.990504  0.253660  1
  Ce  Ce12  1  0.531902  0.318834  0.400636  1
  Ce  Ce13  1  0.815901  0.320498  0.874713  1
  Ce  Ce14  1  0.970645  0.814921  0.599686  1
  Ce  Ce15  1  0.468209  0.686996  0.601196  1
  Ce  Ce16  1  0.036716  0.184586  0.398693  1
  Ce  Ce17  1  0.686581  0.803478  0.382007  1
  Ce  Ce18  1  0.626123  0.017498  0.747903  1
  Ce  Ce19  1  0.534726  0.315779  0.101413  1
  Si  Si20  1  0.479433  0.593641  0.249745  1
  Si  Si21  1  0.247437  0.369139  0.249230  1
  Si  Si22  1  0.518881  0.411723  0.749489  1
  Si  Si23  1  0.638049  0.025443  0.958290  1
  Si  Si24  1  0.014924  0.094268  0.746319  1
  Si  Si25  1  0.751303  0.635441  0.750057  1
  Si  Si26  1  0.746069  0.125579  0.251487  1
  Si  Si27  1  0.360909  0.972981  0.460565  1
  Si  Si28  1  0.978089  0.904514  0.250887  1
  Si  Si29  1  0.359435  0.976013  0.041217  1
  Si  Si30  1  0.644993  0.026466  0.539588  1
  Si  Si31  1  0.139864  0.474853  0.959682  1
  Si  Si32  1  0.156687  0.471654  0.540672  1
  Si  Si33  1  0.860529  0.523737  0.040128  1
  Si  Si34  1  0.249592  0.868055  0.750232  1
  Rh  Rh35  1  0.859310  0.522371  0.462043  1
