# generated using pymatgen
data_Np(ClO)2
_symmetry_space_group_name_H-M   'P 1'
_cell_length_a   4.10534900
_cell_length_b   8.21747800
_cell_length_c   8.82696400
_cell_angle_alpha   90.00000000
_cell_angle_beta   90.00000000
_cell_angle_gamma   90.00000000
_symmetry_Int_Tables_number   1
_chemical_formula_structural   Np(ClO)2
_chemical_formula_sum   'Np2 Cl4 O4'
_cell_volume   297.78305992
_cell_formula_units_Z   2
loop_
 _symmetry_equiv_pos_site_id
 _symmetry_equiv_pos_as_xyz
  1  'x, y, z'
loop_
 _atom_site_type_symbol
 _atom_site_label
 _atom_site_symmetry_multiplicity
 _atom_site_fract_x
 _atom_site_fract_y
 _atom_site_fract_z
 _atom_site_occupancy
  Np  Np0  1  0.498821  0.534297  0.000000  1
  Np  Np1  1  0.501179  0.034297  0.000000  1
  Cl  Cl2  1  0.500603  0.535614  0.280793  1
  Cl  Cl3  1  0.500603  0.535614  0.719207  1
  Cl  Cl4  1  0.499397  0.035614  0.280793  1
  Cl  Cl5  1  0.499397  0.035614  0.719207  1
  O  O6  1  0.998514  0.532148  0.000000  1
  O  O7  1  0.001486  0.032148  0.000000  1
  O  O8  1  0.499622  0.284327  0.000000  1
  O  O9  1  0.500378  0.784327  0.000000  1
