# generated using pymatgen
data_Sc22AgOs6Rh
_symmetry_space_group_name_H-M   'P 1'
_cell_length_a   9.53416189
_cell_length_b   9.53416227
_cell_length_c   9.49151800
_cell_angle_alpha   60.14784860
_cell_angle_beta   60.14784730
_cell_angle_gamma   59.93605622
_symmetry_Int_Tables_number   1
_chemical_formula_structural   Sc22AgOs6Rh
_chemical_formula_sum   'Sc22 Ag1 Os6 Rh1'
_cell_volume   611.14099087
_cell_formula_units_Z   1
loop_
 _symmetry_equiv_pos_site_id
 _symmetry_equiv_pos_as_xyz
  1  'x, y, z'
loop_
 _atom_site_type_symbol
 _atom_site_label
 _atom_site_symmetry_multiplicity
 _atom_site_fract_x
 _atom_site_fract_y
 _atom_site_fract_z
 _atom_site_occupancy
  Sc  Sc0  1  0.844385  0.844385  0.842067  1
  Sc  Sc1  1  0.528458  0.142966  0.164288  1
  Sc  Sc2  1  0.155615  0.155615  0.530838  1
  Sc  Sc3  1  0.142966  0.528458  0.164288  1
  Sc  Sc4  1  0.844385  0.844385  0.469162  1
  Sc  Sc5  1  0.857034  0.471542  0.835712  1
  Sc  Sc6  1  0.471542  0.857034  0.835712  1
  Sc  Sc7  1  0.155615  0.155615  0.157933  1
  Sc  Sc8  1  0.197553  0.802447  0.196284  1
  Sc  Sc9  1  0.197553  0.802447  0.803716  1
  Sc  Sc10  1  0.802447  0.197553  0.196284  1
  Sc  Sc11  1  0.804141  0.804141  0.195859  1
  Sc  Sc12  1  0.195859  0.195859  0.804141  1
  Sc  Sc13  1  0.802447  0.197553  0.803716  1
  Sc  Sc14  1  0.377804  0.377804  0.395059  1
  Sc  Sc15  1  0.152188  0.615836  0.615989  1
  Sc  Sc16  1  0.615836  0.152188  0.615989  1
  Sc  Sc17  1  0.622196  0.622196  0.150669  1
  Sc  Sc18  1  0.384164  0.847812  0.384011  1
  Sc  Sc19  1  0.377804  0.377804  0.849331  1
  Sc  Sc20  1  0.847812  0.384164  0.384011  1
  Sc  Sc21  1  0.622196  0.622196  0.604941  1
  Ag  Ag22  1  0.500000  0.500000  0.000000  1
  Os  Os23  1  0.500000  0.000000  0.500000  1
  Os  Os24  1  0.000000  0.500000  0.500000  1
  Os  Os25  1  0.500000  0.000000  0.000000  1
  Os  Os26  1  0.000000  0.500000  0.000000  1
  Os  Os27  1  0.500000  0.500000  0.500000  1
  Os  Os28  1  0.000000  0.000000  0.000000  1
  Rh  Rh29  1  0.000000  0.000000  0.500000  1
