# generated using pymatgen
data_Re5Ir3
_symmetry_space_group_name_H-M   'P 1'
_cell_length_a   5.55376000
_cell_length_b   5.57831921
_cell_length_c   4.39507500
_cell_angle_alpha   90.00000000
_cell_angle_beta   90.00000000
_cell_angle_gamma   119.85446912
_symmetry_Int_Tables_number   1
_chemical_formula_structural   Re5Ir3
_chemical_formula_sum   'Re5 Ir3'
_cell_volume   118.09252392
_cell_formula_units_Z   1
loop_
 _symmetry_equiv_pos_site_id
 _symmetry_equiv_pos_as_xyz
  1  'x, y, z'
loop_
 _atom_site_type_symbol
 _atom_site_label
 _atom_site_symmetry_multiplicity
 _atom_site_fract_x
 _atom_site_fract_y
 _atom_site_fract_z
 _atom_site_occupancy
  Re  Re0  1  0.674907  0.838388  0.250000  1
  Re  Re1  1  0.163483  0.838388  0.250000  1
  Re  Re2  1  0.837732  0.675465  0.750000  1
  Re  Re3  1  0.324276  0.163892  0.750000  1
  Re  Re4  1  0.839615  0.163892  0.750000  1
  Ir  Ir5  1  0.164556  0.329112  0.250000  1
  Ir  Ir6  1  0.331331  0.662663  0.750000  1
  Ir  Ir7  1  0.664100  0.328199  0.250000  1
