# generated using pymatgen
data_Yb8Cd4Cu3N5
_symmetry_space_group_name_H-M   'P 1'
_cell_length_a   10.75994457
_cell_length_b   10.75994417
_cell_length_c   10.75994522
_cell_angle_alpha   160.72259914
_cell_angle_beta   112.64365478
_cell_angle_gamma   70.79617183
_symmetry_Int_Tables_number   1
_chemical_formula_structural   Yb8Cd4Cu3N5
_chemical_formula_sum   'Yb8 Cd4 Cu3 N5'
_cell_volume   377.13308225
_cell_formula_units_Z   1
loop_
 _symmetry_equiv_pos_site_id
 _symmetry_equiv_pos_as_xyz
  1  'x, y, z'
loop_
 _atom_site_type_symbol
 _atom_site_label
 _atom_site_symmetry_multiplicity
 _atom_site_fract_x
 _atom_site_fract_y
 _atom_site_fract_z
 _atom_site_occupancy
  Yb  Yb0  1  0.563743  0.714003  0.849742  1
  Yb  Yb1  1  0.752989  0.900615  0.852375  1
  Yb  Yb2  1  0.436257  0.285997  0.150258  1
  Yb  Yb3  1  0.864262  0.714003  0.150258  1
  Yb  Yb4  1  0.135738  0.285997  0.849742  1
  Yb  Yb5  1  0.247011  0.099385  0.147625  1
  Yb  Yb6  1  0.048239  0.900615  0.147625  1
  Yb  Yb7  1  0.951761  0.099385  0.852375  1
  Cd  Cd8  1  0.653445  0.500000  0.153445  1
  Cd  Cd9  1  0.346555  0.500000  0.846555  1
  Cd  Cd10  1  0.411483  0.911483  0.500000  1
  Cd  Cd11  1  0.588517  0.088517  0.500000  1
  Cu  Cu12  1  0.192182  0.692182  0.500000  1
  Cu  Cu13  1  0.807818  0.307818  0.500000  1
  Cu  Cu14  1  0.000000  0.500000  0.500000  1
  N  N15  1  0.350988  0.692873  0.658116  1
  N  N16  1  0.965243  0.307127  0.658116  1
  N  N17  1  0.034757  0.692873  0.341884  1
  N  N18  1  0.000000  0.000000  0.000000  1
  N  N19  1  0.649012  0.307127  0.341884  1
