# generated using pymatgen
data_PrEr(Si7Rh3)2
_symmetry_space_group_name_H-M   'P 1'
_cell_length_a   8.03437958
_cell_length_b   8.03438033
_cell_length_c   8.03438056
_cell_angle_alpha   57.05295581
_cell_angle_beta   57.05295274
_cell_angle_gamma   57.05295201
_symmetry_Int_Tables_number   1
_chemical_formula_structural   PrEr(Si7Rh3)2
_chemical_formula_sum   'Pr1 Er1 Si14 Rh6'
_cell_volume   341.81307232
_cell_formula_units_Z   1
loop_
 _symmetry_equiv_pos_site_id
 _symmetry_equiv_pos_as_xyz
  1  'x, y, z'
loop_
 _atom_site_type_symbol
 _atom_site_label
 _atom_site_symmetry_multiplicity
 _atom_site_fract_x
 _atom_site_fract_y
 _atom_site_fract_z
 _atom_site_occupancy
  Pr  Pr0  1  0.000000  0.000000  0.000000  1
  Er  Er1  1  0.500000  0.500000  0.500000  1
  Si  Si2  1  0.749847  0.749847  0.749847  1
  Si  Si3  1  0.250153  0.250153  0.250153  1
  Si  Si4  1  0.850710  0.065169  0.671420  1
  Si  Si5  1  0.671420  0.850710  0.065169  1
  Si  Si6  1  0.065169  0.671420  0.850710  1
  Si  Si7  1  0.647270  0.826908  0.436353  1
  Si  Si8  1  0.436353  0.647270  0.826908  1
  Si  Si9  1  0.826908  0.436353  0.647270  1
  Si  Si10  1  0.173092  0.563647  0.352730  1
  Si  Si11  1  0.563647  0.352730  0.173092  1
  Si  Si12  1  0.352730  0.173092  0.563647  1
  Si  Si13  1  0.934831  0.328580  0.149290  1
  Si  Si14  1  0.328580  0.149290  0.934831  1
  Si  Si15  1  0.149290  0.934831  0.328580  1
  Rh  Rh16  1  0.070898  0.432998  0.747751  1
  Rh  Rh17  1  0.252249  0.929102  0.567002  1
  Rh  Rh18  1  0.567002  0.252249  0.929102  1
  Rh  Rh19  1  0.929102  0.567002  0.252249  1
  Rh  Rh20  1  0.432998  0.747751  0.070898  1
  Rh  Rh21  1  0.747751  0.070898  0.432998  1
