# generated using pymatgen
data_Tb7Ho4Er9(CoSb2)4
_symmetry_space_group_name_H-M   'P 1'
_cell_length_a   7.85278524
_cell_length_b   8.76171300
_cell_length_c   12.17592706
_cell_angle_alpha   90.00000000
_cell_angle_beta   90.02659965
_cell_angle_gamma   90.00000000
_symmetry_Int_Tables_number   1
_chemical_formula_structural   Tb7Ho4Er9(CoSb2)4
_chemical_formula_sum   'Tb7 Ho4 Er9 Co4 Sb8'
_cell_volume   837.75057506
_cell_formula_units_Z   1
loop_
 _symmetry_equiv_pos_site_id
 _symmetry_equiv_pos_as_xyz
  1  'x, y, z'
loop_
 _atom_site_type_symbol
 _atom_site_label
 _atom_site_symmetry_multiplicity
 _atom_site_fract_x
 _atom_site_fract_y
 _atom_site_fract_z
 _atom_site_occupancy
  Tb  Tb0  1  0.846706  0.250000  0.796897  1
  Tb  Tb1  1  0.953481  0.250000  0.501642  1
  Tb  Tb2  1  0.546118  0.250000  0.002686  1
  Tb  Tb3  1  0.622171  0.750000  0.307185  1
  Tb  Tb4  1  0.122376  0.250000  0.192718  1
  Tb  Tb5  1  0.377225  0.250000  0.692854  1
  Tb  Tb6  1  0.877371  0.750000  0.807070  1
  Ho  Ho7  1  0.653641  0.250000  0.296822  1
  Ho  Ho8  1  0.346436  0.750000  0.702919  1
  Ho  Ho9  1  0.452471  0.750000  0.997984  1
  Ho  Ho10  1  0.047199  0.750000  0.497568  1
  Er  Er11  1  0.153533  0.750000  0.202559  1
  Er  Er12  1  0.822972  0.963668  0.065572  1
  Er  Er13  1  0.322825  0.035207  0.434830  1
  Er  Er14  1  0.177430  0.465299  0.935244  1
  Er  Er15  1  0.677069  0.535676  0.565139  1
  Er  Er16  1  0.177430  0.034701  0.935244  1
  Er  Er17  1  0.677069  0.964324  0.565139  1
  Er  Er18  1  0.822972  0.536332  0.065572  1
  Er  Er19  1  0.322825  0.464793  0.434830  1
  Co  Co20  1  0.435723  0.750000  0.491506  1
  Co  Co21  1  0.935561  0.250000  0.009015  1
  Co  Co22  1  0.564739  0.250000  0.508397  1
  Co  Co23  1  0.064826  0.750000  0.991576  1
  Sb  Sb24  1  0.929867  0.991057  0.326514  1
  Sb  Sb25  1  0.428343  0.007070  0.173206  1
  Sb  Sb26  1  0.071649  0.493222  0.672583  1
  Sb  Sb27  1  0.570058  0.508968  0.827212  1
  Sb  Sb28  1  0.071649  0.006778  0.672583  1
  Sb  Sb29  1  0.570058  0.991032  0.827212  1
  Sb  Sb30  1  0.929867  0.508943  0.326514  1
  Sb  Sb31  1  0.428343  0.492930  0.173206  1
