# generated using pymatgen
data_CsKReH9
_symmetry_space_group_name_H-M   'P 1'
_cell_length_a   9.97980400
_cell_length_b   9.97980382
_cell_length_c   5.91299700
_cell_angle_alpha   90.00000000
_cell_angle_beta   90.00000000
_cell_angle_gamma   120.00000724
_symmetry_Int_Tables_number   1
_chemical_formula_structural   CsKReH9
_chemical_formula_sum   'Cs3 K3 Re3 H27'
_cell_volume   510.01420777
_cell_formula_units_Z   3
loop_
 _symmetry_equiv_pos_site_id
 _symmetry_equiv_pos_as_xyz
  1  'x, y, z'
loop_
 _atom_site_type_symbol
 _atom_site_label
 _atom_site_symmetry_multiplicity
 _atom_site_fract_x
 _atom_site_fract_y
 _atom_site_fract_z
 _atom_site_occupancy
  Cs  Cs0  1  0.000000  0.588832  0.000000  1
  Cs  Cs1  1  0.411168  0.411168  0.000000  1
  Cs  Cs2  1  0.588832  0.000000  0.000000  1
  K  K3  1  0.000000  0.262922  0.500000  1
  K  K4  1  0.737078  0.737078  0.500000  1
  K  K5  1  0.262922  0.000000  0.500000  1
  Re  Re6  1  0.666667  0.333333  0.500000  1
  Re  Re7  1  0.333333  0.666667  0.500000  1
  Re  Re8  1  0.000000  0.000000  0.000000  1
  H  H9  1  0.772057  0.308080  0.707558  1
  H  H10  1  0.691920  0.463976  0.707558  1
  H  H11  1  0.536024  0.227943  0.707558  1
  H  H12  1  0.227943  0.536024  0.292442  1
  H  H13  1  0.536024  0.227943  0.292442  1
  H  H14  1  0.772057  0.308080  0.292442  1
  H  H15  1  0.691920  0.463976  0.292442  1
  H  H16  1  0.308080  0.772057  0.707558  1
  H  H17  1  0.463976  0.691920  0.707558  1
  H  H18  1  0.169009  0.000000  0.000000  1
  H  H19  1  0.830991  0.830991  0.000000  1
  H  H20  1  0.000000  0.169009  0.000000  1
  H  H21  1  0.879562  0.000000  0.206753  1
  H  H22  1  0.120438  0.120438  0.793247  1
  H  H23  1  0.000000  0.879562  0.793247  1
  H  H24  1  0.000000  0.879562  0.206753  1
  H  H25  1  0.120438  0.120438  0.206753  1
  H  H26  1  0.879562  0.000000  0.793247  1
  H  H27  1  0.149924  0.632240  0.500000  1
  H  H28  1  0.482316  0.850076  0.500000  1
  H  H29  1  0.367760  0.517684  0.500000  1
  H  H30  1  0.517684  0.367760  0.500000  1
  H  H31  1  0.850076  0.482316  0.500000  1
  H  H32  1  0.632240  0.149924  0.500000  1
  H  H33  1  0.227943  0.536024  0.707558  1
  H  H34  1  0.308080  0.772057  0.292442  1
  H  H35  1  0.463976  0.691920  0.292442  1
