# generated using pymatgen
data_BaTh(PPt)2
_symmetry_space_group_name_H-M   'P 1'
_cell_length_a   4.27578300
_cell_length_b   4.27578351
_cell_length_c   8.56829600
_cell_angle_alpha   90.00000000
_cell_angle_beta   90.00000000
_cell_angle_gamma   120.00000379
_symmetry_Int_Tables_number   1
_chemical_formula_structural   BaTh(PPt)2
_chemical_formula_sum   'Ba1 Th1 P2 Pt2'
_cell_volume   135.66144563
_cell_formula_units_Z   1
loop_
 _symmetry_equiv_pos_site_id
 _symmetry_equiv_pos_as_xyz
  1  'x, y, z'
loop_
 _atom_site_type_symbol
 _atom_site_label
 _atom_site_symmetry_multiplicity
 _atom_site_fract_x
 _atom_site_fract_y
 _atom_site_fract_z
 _atom_site_occupancy
  Ba  Ba0  1  0.000000  0.000000  0.000000  1
  Th  Th1  1  0.000000  0.000000  0.500000  1
  P  P2  1  0.333333  0.666667  0.728291  1
  P  P3  1  0.666667  0.333333  0.271709  1
  Pt  Pt4  1  0.333333  0.666667  0.284483  1
  Pt  Pt5  1  0.666667  0.333333  0.715517  1
