# generated using pymatgen
data_Nd10Os3Pt
_symmetry_space_group_name_H-M   'P 1'
_cell_length_a   8.94754883
_cell_length_b   8.91271726
_cell_length_c   7.45040705
_cell_angle_alpha   83.52095403
_cell_angle_beta   83.51421760
_cell_angle_gamma   43.84767486
_symmetry_Int_Tables_number   1
_chemical_formula_structural   Nd10Os3Pt
_chemical_formula_sum   'Nd10 Os3 Pt1'
_cell_volume   408.53238794
_cell_formula_units_Z   1
loop_
 _symmetry_equiv_pos_site_id
 _symmetry_equiv_pos_as_xyz
  1  'x, y, z'
loop_
 _atom_site_type_symbol
 _atom_site_label
 _atom_site_symmetry_multiplicity
 _atom_site_fract_x
 _atom_site_fract_y
 _atom_site_fract_z
 _atom_site_occupancy
  Nd  Nd0  1  0.027444  0.791139  0.912710  1
  Nd  Nd1  1  0.201599  0.981560  0.584831  1
  Nd  Nd2  1  0.983996  0.203987  0.083924  1
  Nd  Nd3  1  0.801105  0.017580  0.421349  1
  Nd  Nd4  1  0.348827  0.210878  0.814721  1
  Nd  Nd5  1  0.787498  0.648289  0.683666  1
  Nd  Nd6  1  0.647153  0.782175  0.183083  1
  Nd  Nd7  1  0.203136  0.358782  0.320735  1
  Nd  Nd8  1  0.571661  0.432838  0.744233  1
  Nd  Nd9  1  0.428967  0.572243  0.251411  1
  Os  Os10  1  0.177819  0.601537  0.573492  1
  Os  Os11  1  0.397937  0.823101  0.928283  1
  Os  Os12  1  0.824341  0.397226  0.424725  1
  Pt  Pt13  1  0.598515  0.178665  0.072836  1
