# generated using pymatgen
data_LiDy(NiIr)2
_symmetry_space_group_name_H-M   'P 1'
_cell_length_a   4.98705051
_cell_length_b   5.09003571
_cell_length_c   5.09003606
_cell_angle_alpha   60.69625121
_cell_angle_beta   60.66705318
_cell_angle_gamma   60.66705608
_symmetry_Int_Tables_number   1
_chemical_formula_structural   LiDy(NiIr)2
_chemical_formula_sum   'Li1 Dy1 Ni2 Ir2'
_cell_volume   92.75880901
_cell_formula_units_Z   1
loop_
 _symmetry_equiv_pos_site_id
 _symmetry_equiv_pos_as_xyz
  1  'x, y, z'
loop_
 _atom_site_type_symbol
 _atom_site_label
 _atom_site_symmetry_multiplicity
 _atom_site_fract_x
 _atom_site_fract_y
 _atom_site_fract_z
 _atom_site_occupancy
  Li  Li0  1  0.250200  0.249800  0.249800  1
  Dy  Dy1  1  0.997836  0.002164  0.002164  1
  Ni  Ni2  1  0.126881  0.624166  0.624166  1
  Ni  Ni3  1  0.624785  0.624166  0.624166  1
  Ir  Ir4  1  0.625148  0.623825  0.125879  1
  Ir  Ir5  1  0.625148  0.125879  0.623825  1
