# generated using pymatgen
data_La6NdDy3(Sn3Cl)2
_symmetry_space_group_name_H-M   'P 1'
_cell_length_a   9.48069800
_cell_length_b   9.48069723
_cell_length_c   6.76393500
_cell_angle_alpha   90.00000000
_cell_angle_beta   90.00000000
_cell_angle_gamma   119.99999571
_symmetry_Int_Tables_number   1
_chemical_formula_structural   La6NdDy3(Sn3Cl)2
_chemical_formula_sum   'La6 Nd1 Dy3 Sn6 Cl2'
_cell_volume   526.51490005
_cell_formula_units_Z   1
loop_
 _symmetry_equiv_pos_site_id
 _symmetry_equiv_pos_as_xyz
  1  'x, y, z'
loop_
 _atom_site_type_symbol
 _atom_site_label
 _atom_site_symmetry_multiplicity
 _atom_site_fract_x
 _atom_site_fract_y
 _atom_site_fract_z
 _atom_site_occupancy
  La  La0  1  0.737436  0.999752  0.749262  1
  La  La1  1  0.737436  0.737685  0.250738  1
  La  La2  1  0.000248  0.262564  0.250738  1
  La  La3  1  0.000248  0.737685  0.749262  1
  La  La4  1  0.262315  0.262564  0.749262  1
  La  La5  1  0.262315  0.999752  0.250738  1
  Nd  Nd6  1  0.333333  0.666667  0.000000  1
  Dy  Dy7  1  0.666667  0.333333  0.000000  1
  Dy  Dy8  1  0.333333  0.666667  0.500000  1
  Dy  Dy9  1  0.666667  0.333333  0.500000  1
  Sn  Sn10  1  0.610494  0.606269  0.746393  1
  Sn  Sn11  1  0.995775  0.606269  0.253607  1
  Sn  Sn12  1  0.610494  0.004225  0.253607  1
  Sn  Sn13  1  0.393731  0.004225  0.746393  1
  Sn  Sn14  1  0.995775  0.389506  0.746393  1
  Sn  Sn15  1  0.393731  0.389506  0.253607  1
  Cl  Cl16  1  0.000000  0.000000  0.500000  1
  Cl  Cl17  1  0.000000  0.000000  0.000000  1
