# generated using pymatgen
data_TbGd2DyB16
_symmetry_space_group_name_H-M   'P 1'
_cell_length_a   7.11919402
_cell_length_b   7.11953564
_cell_length_c   4.03575700
_cell_angle_alpha   90.00000000
_cell_angle_beta   90.00000000
_cell_angle_gamma   89.87281446
_symmetry_Int_Tables_number   1
_chemical_formula_structural   TbGd2DyB16
_chemical_formula_sum   'Tb1 Gd2 Dy1 B16'
_cell_volume   204.55327430
_cell_formula_units_Z   1
loop_
 _symmetry_equiv_pos_site_id
 _symmetry_equiv_pos_as_xyz
  1  'x, y, z'
loop_
 _atom_site_type_symbol
 _atom_site_label
 _atom_site_symmetry_multiplicity
 _atom_site_fract_x
 _atom_site_fract_y
 _atom_site_fract_z
 _atom_site_occupancy
  Tb  Tb0  1  0.682750  0.817062  0.000000  1
  Gd  Gd1  1  0.182567  0.682695  0.000000  1
  Gd  Gd2  1  0.317153  0.182818  0.000000  1
  Dy  Dy3  1  0.817730  0.317621  0.000000  1
  B  B4  1  0.324360  0.461445  0.500000  1
  B  B5  1  0.676490  0.538140  0.500000  1
  B  B6  1  0.539589  0.323714  0.500000  1
  B  B7  1  0.461646  0.675785  0.500000  1
  B  B8  1  0.999346  0.000439  0.203291  1
  B  B9  1  0.500618  0.499458  0.796664  1
  B  B10  1  0.999346  0.000439  0.796709  1
  B  B11  1  0.500618  0.499458  0.203336  1
  B  B12  1  0.586899  0.086596  0.500000  1
  B  B13  1  0.086917  0.412723  0.500000  1
  B  B14  1  0.912707  0.586939  0.500000  1
  B  B15  1  0.413104  0.912807  0.500000  1
  B  B16  1  0.037894  0.176414  0.500000  1
  B  B17  1  0.175646  0.961640  0.500000  1
  B  B18  1  0.823521  0.039426  0.500000  1
  B  B19  1  0.961099  0.824380  0.500000  1
