# generated using pymatgen
data_Sr10P2HN9
_symmetry_space_group_name_H-M   'P 1'
_cell_length_a   7.47992646
_cell_length_b   7.47992557
_cell_length_c   8.89006081
_cell_angle_alpha   76.34776094
_cell_angle_beta   76.34775738
_cell_angle_gamma   96.17877748
_symmetry_Int_Tables_number   1
_chemical_formula_structural   Sr10P2HN9
_chemical_formula_sum   'Sr10 P2 H1 N9'
_cell_volume   462.60315551
_cell_formula_units_Z   1
loop_
 _symmetry_equiv_pos_site_id
 _symmetry_equiv_pos_as_xyz
  1  'x, y, z'
loop_
 _atom_site_type_symbol
 _atom_site_label
 _atom_site_symmetry_multiplicity
 _atom_site_fract_x
 _atom_site_fract_y
 _atom_site_fract_z
 _atom_site_occupancy
  Sr  Sr0  1  0.376545  0.376545  0.376690  1
  Sr  Sr1  1  0.600638  0.600638  0.637281  1
  Sr  Sr2  1  0.669912  0.669912  0.000440  1
  Sr  Sr3  1  0.330936  0.330936  0.989508  1
  Sr  Sr4  1  0.940049  0.940049  0.189754  1
  Sr  Sr5  1  0.073521  0.073521  0.797500  1
  Sr  Sr6  1  0.558485  0.090317  0.761658  1
  Sr  Sr7  1  0.921136  0.432003  0.233301  1
  Sr  Sr8  1  0.432003  0.921136  0.233301  1
  Sr  Sr9  1  0.090317  0.558485  0.761658  1
  P  P10  1  0.757380  0.241850  0.002947  1
  P  P11  1  0.241850  0.757380  0.002947  1
  H  H12  1  0.658800  0.658800  0.318001  1
  N  N13  1  0.348201  0.348201  0.666772  1
  N  N14  1  0.717648  0.018878  0.996439  1
  N  N15  1  0.979839  0.276257  0.012906  1
  N  N16  1  0.276257  0.979839  0.012906  1
  N  N17  1  0.018878  0.717648  0.996439  1
  N  N18  1  0.391272  0.728165  0.839096  1
  N  N19  1  0.278038  0.610129  0.165680  1
  N  N20  1  0.610129  0.278038  0.165680  1
  N  N21  1  0.728165  0.391272  0.839096  1
