# generated using pymatgen
data_Hf2TaSiGeW
_symmetry_space_group_name_H-M   'P 1'
_cell_length_a   3.56999400
_cell_length_b   6.99658200
_cell_length_c   8.41055700
_cell_angle_alpha   90.00000000
_cell_angle_beta   90.00000000
_cell_angle_gamma   90.00000000
_symmetry_Int_Tables_number   1
_chemical_formula_structural   Hf2TaSiGeW
_chemical_formula_sum   'Hf4 Ta2 Si2 Ge2 W2'
_cell_volume   210.07683856
_cell_formula_units_Z   2
loop_
 _symmetry_equiv_pos_site_id
 _symmetry_equiv_pos_as_xyz
  1  'x, y, z'
loop_
 _atom_site_type_symbol
 _atom_site_label
 _atom_site_symmetry_multiplicity
 _atom_site_fract_x
 _atom_site_fract_y
 _atom_site_fract_z
 _atom_site_occupancy
  Hf  Hf0  1  0.250000  0.546526  0.161213  1
  Hf  Hf1  1  0.250000  0.046526  0.338787  1
  Hf  Hf2  1  0.750000  0.460192  0.830302  1
  Hf  Hf3  1  0.750000  0.960192  0.669698  1
  Ta  Ta4  1  0.250000  0.628564  0.562421  1
  Ta  Ta5  1  0.250000  0.128564  0.937579  1
  Si  Si6  1  0.250000  0.754541  0.861126  1
  Si  Si7  1  0.250000  0.254541  0.638874  1
  Ge  Ge8  1  0.750000  0.246112  0.143755  1
  Ge  Ge9  1  0.750000  0.746112  0.356245  1
  W  W10  1  0.750000  0.364065  0.443149  1
  W  W11  1  0.750000  0.864065  0.056851  1
