# generated using pymatgen
data_Ac2Zn12Ru5
_symmetry_space_group_name_H-M   'P 1'
_cell_length_a   6.93645508
_cell_length_b   7.03288898
_cell_length_c   6.93645400
_cell_angle_alpha   83.88790189
_cell_angle_beta   82.44610159
_cell_angle_gamma   83.88790743
_symmetry_Int_Tables_number   1
_chemical_formula_structural   Ac2Zn12Ru5
_chemical_formula_sum   'Ac2 Zn12 Ru5'
_cell_volume   332.06859896
_cell_formula_units_Z   1
loop_
 _symmetry_equiv_pos_site_id
 _symmetry_equiv_pos_as_xyz
  1  'x, y, z'
loop_
 _atom_site_type_symbol
 _atom_site_label
 _atom_site_symmetry_multiplicity
 _atom_site_fract_x
 _atom_site_fract_y
 _atom_site_fract_z
 _atom_site_occupancy
  Ac  Ac0  1  0.653356  0.640693  0.653356  1
  Ac  Ac1  1  0.344015  0.338992  0.344015  1
  Zn  Zn2  1  0.105775  0.107328  0.105775  1
  Zn  Zn3  1  0.886839  0.883005  0.886839  1
  Zn  Zn4  1  0.295669  0.702604  0.995854  1
  Zn  Zn5  1  0.726721  0.010806  0.278667  1
  Zn  Zn6  1  0.000519  0.298616  0.699484  1
  Zn  Zn7  1  0.699484  0.298616  0.000519  1
  Zn  Zn8  1  0.278667  0.010806  0.726721  1
  Zn  Zn9  1  0.995854  0.702604  0.295669  1
  Zn  Zn10  1  0.151783  0.660455  0.661379  1
  Zn  Zn11  1  0.661379  0.660455  0.151783  1
  Zn  Zn12  1  0.660487  0.153736  0.660487  1
  Zn  Zn13  1  0.338258  0.854702  0.338258  1
  Ru  Ru14  1  0.338592  0.343479  0.854242  1
  Ru  Ru15  1  0.854242  0.343479  0.338592  1
  Ru  Ru16  1  0.006791  0.999079  0.497809  1
  Ru  Ru17  1  0.003759  0.491466  0.003759  1
  Ru  Ru18  1  0.497809  0.999079  0.006791  1
