# generated using pymatgen
data_NaPrY5IrI12
_symmetry_space_group_name_H-M   'P 1'
_cell_length_a   9.90962597
_cell_length_b   9.86000384
_cell_length_c   9.82362699
_cell_angle_alpha   106.55483676
_cell_angle_beta   107.33178158
_cell_angle_gamma   107.28051619
_symmetry_Int_Tables_number   1
_chemical_formula_structural   NaPrY5IrI12
_chemical_formula_sum   'Na1 Pr1 Y5 Ir1 I12'
_cell_volume   798.12410846
_cell_formula_units_Z   1
loop_
 _symmetry_equiv_pos_site_id
 _symmetry_equiv_pos_as_xyz
  1  'x, y, z'
loop_
 _atom_site_type_symbol
 _atom_site_label
 _atom_site_symmetry_multiplicity
 _atom_site_fract_x
 _atom_site_fract_y
 _atom_site_fract_z
 _atom_site_occupancy
  Na  Na0  1  0.500097  0.500214  0.499887  1
  Pr  Pr1  1  0.898394  0.691867  0.970953  1
  Y  Y2  1  0.099580  0.298689  0.028974  1
  Y  Y3  1  0.311156  0.030664  0.101936  1
  Y  Y4  1  0.028090  0.102281  0.301294  1
  Y  Y5  1  0.972923  0.901657  0.699748  1
  Y  Y6  1  0.689233  0.968837  0.898186  1
  Ir  Ir7  1  0.000445  0.999939  0.000934  1
  I  I8  1  0.233755  0.683517  0.079022  1
  I  I9  1  0.450460  0.373499  0.142632  1
  I  I10  1  0.681331  0.075367  0.223311  1
  I  I11  1  0.927243  0.784271  0.328389  1
  I  I12  1  0.143156  0.451115  0.371623  1
  I  I13  1  0.371038  0.142784  0.449817  1
  I  I14  1  0.628948  0.858113  0.550663  1
  I  I15  1  0.856161  0.548868  0.616919  1
  I  I16  1  0.075441  0.224078  0.683201  1
  I  I17  1  0.319083  0.926312  0.777499  1
  I  I18  1  0.537762  0.626347  0.851614  1
  I  I19  1  0.775709  0.311583  0.923402  1
