# generated using pymatgen
data_CsP6(AuO9)2
_symmetry_space_group_name_H-M   'P 1'
_cell_length_a   5.43558937
_cell_length_b   9.74006810
_cell_length_c   9.25891089
_cell_angle_alpha   86.58255082
_cell_angle_beta   72.50213995
_cell_angle_gamma   68.09139875
_symmetry_Int_Tables_number   1
_chemical_formula_structural   CsP6(AuO9)2
_chemical_formula_sum   'Cs1 P6 Au2 O18'
_cell_volume   432.98238770
_cell_formula_units_Z   1
loop_
 _symmetry_equiv_pos_site_id
 _symmetry_equiv_pos_as_xyz
  1  'x, y, z'
loop_
 _atom_site_type_symbol
 _atom_site_label
 _atom_site_symmetry_multiplicity
 _atom_site_fract_x
 _atom_site_fract_y
 _atom_site_fract_z
 _atom_site_occupancy
  Cs  Cs0  1  0.000004  0.000020  0.000006  1
  P  P1  1  0.042236  0.780645  0.565119  1
  P  P2  1  0.957763  0.219354  0.434877  1
  P  P3  1  0.936303  0.458872  0.221213  1
  P  P4  1  0.063698  0.541125  0.778794  1
  P  P5  1  0.508958  0.230858  0.736302  1
  P  P6  1  0.491043  0.769139  0.263699  1
  Au  Au7  1  0.500002  0.999998  0.499994  1
  Au  Au8  1  0.500001  0.499994  0.000004  1
  O  O9  1  0.078614  0.890929  0.651413  1
  O  O10  1  0.921369  0.109081  0.348586  1
  O  O11  1  0.850780  0.404025  0.102753  1
  O  O12  1  0.149223  0.595966  0.897257  1
  O  O13  1  0.148102  0.614665  0.619438  1
  O  O14  1  0.851889  0.385345  0.380572  1
  O  O15  1  0.238697  0.747655  0.391893  1
  O  O16  1  0.761325  0.252335  0.608109  1
  O  O17  1  0.754255  0.628960  0.279179  1
  O  O18  1  0.245759  0.371044  0.720806  1
  O  O19  1  0.250752  0.195856  0.443734  1
  O  O20  1  0.749248  0.804146  0.556259  1
  O  O21  1  0.760970  0.563721  0.809783  1
  O  O22  1  0.239035  0.436269  0.190223  1
  O  O23  1  0.454803  0.093875  0.700646  1
  O  O24  1  0.545188  0.906126  0.299343  1
  O  O25  1  0.552783  0.227641  0.886864  1
  O  O26  1  0.447198  0.772355  0.113136  1
