# generated using pymatgen
data_LaTbRe4(SiC)2
_symmetry_space_group_name_H-M   'P 1'
_cell_length_a   4.01565400
_cell_length_b   5.82857272
_cell_length_c   7.38018000
_cell_angle_alpha   90.00000000
_cell_angle_beta   90.00000000
_cell_angle_gamma   69.84994091
_symmetry_Int_Tables_number   1
_chemical_formula_structural   LaTbRe4(SiC)2
_chemical_formula_sum   'La1 Tb1 Re4 Si2 C2'
_cell_volume   162.16442930
_cell_formula_units_Z   1
loop_
 _symmetry_equiv_pos_site_id
 _symmetry_equiv_pos_as_xyz
  1  'x, y, z'
loop_
 _atom_site_type_symbol
 _atom_site_label
 _atom_site_symmetry_multiplicity
 _atom_site_fract_x
 _atom_site_fract_y
 _atom_site_fract_z
 _atom_site_occupancy
  La  La0  1  0.957250  0.085499  0.250000  1
  Tb  Tb1  1  0.042040  0.915922  0.750000  1
  Re  Re2  1  0.674454  0.651090  0.057849  1
  Re  Re3  1  0.674454  0.651090  0.442150  1
  Re  Re4  1  0.324779  0.350443  0.563670  1
  Re  Re5  1  0.324779  0.350443  0.936331  1
  Si  Si6  1  0.234865  0.530270  0.250000  1
  Si  Si7  1  0.765808  0.468382  0.750000  1
  C  C8  1  0.500786  0.998431  0.992561  1
  C  C9  1  0.500786  0.998431  0.507438  1
