# generated using pymatgen
data_DyHo3(ReB6)2
_symmetry_space_group_name_H-M   'P 1'
_cell_length_a   3.67454000
_cell_length_b   9.16147801
_cell_length_c   11.54119601
_cell_angle_alpha   89.99478078
_cell_angle_beta   90.00000000
_cell_angle_gamma   90.00000000
_symmetry_Int_Tables_number   1
_chemical_formula_structural   DyHo3(ReB6)2
_chemical_formula_sum   'Dy2 Ho6 Re4 B24'
_cell_volume   388.52533005
_cell_formula_units_Z   2
loop_
 _symmetry_equiv_pos_site_id
 _symmetry_equiv_pos_as_xyz
  1  'x, y, z'
loop_
 _atom_site_type_symbol
 _atom_site_label
 _atom_site_symmetry_multiplicity
 _atom_site_fract_x
 _atom_site_fract_y
 _atom_site_fract_z
 _atom_site_occupancy
  Dy  Dy0  1  0.000000  0.323518  0.413761  1
  Dy  Dy1  1  0.000000  0.676482  0.586239  1
  Ho  Ho2  1  0.000000  0.823646  0.086153  1
  Ho  Ho3  1  0.000000  0.176354  0.913847  1
  Ho  Ho4  1  0.000000  0.943281  0.369956  1
  Ho  Ho5  1  0.000000  0.056719  0.630044  1
  Ho  Ho6  1  0.000000  0.443239  0.129801  1
  Ho  Ho7  1  0.000000  0.556761  0.870199  1
  Re  Re8  1  0.000000  0.639128  0.320425  1
  Re  Re9  1  0.000000  0.360872  0.679575  1
  Re  Re10  1  0.000000  0.138784  0.179019  1
  Re  Re11  1  0.000000  0.861216  0.820981  1
  B  B12  1  0.500000  0.553427  0.432753  1
  B  B13  1  0.500000  0.446573  0.567247  1
  B  B14  1  0.500000  0.053231  0.066938  1
  B  B15  1  0.500000  0.946769  0.933062  1
  B  B16  1  0.500000  0.749323  0.418499  1
  B  B17  1  0.500000  0.250677  0.581501  1
  B  B18  1  0.500000  0.249197  0.081136  1
  B  B19  1  0.500000  0.750803  0.918864  1
  B  B20  1  0.500000  0.792451  0.265365  1
  B  B21  1  0.500000  0.207549  0.734635  1
  B  B22  1  0.500000  0.292256  0.234259  1
  B  B23  1  0.500000  0.707744  0.765741  1
  B  B24  1  0.500000  0.631039  0.185377  1
  B  B25  1  0.500000  0.368961  0.814623  1
  B  B26  1  0.500000  0.130837  0.314265  1
  B  B27  1  0.500000  0.869163  0.685735  1
  B  B28  1  0.500000  0.982291  0.211836  1
  B  B29  1  0.500000  0.017709  0.788164  1
  B  B30  1  0.500000  0.482529  0.287836  1
  B  B31  1  0.500000  0.517471  0.712164  1
  B  B32  1  0.500000  0.600214  0.028015  1
  B  B33  1  0.500000  0.399786  0.971985  1
  B  B34  1  0.500000  0.099853  0.472066  1
  B  B35  1  0.500000  0.900147  0.527934  1
