# generated using pymatgen
data_HoEr2Bi3
_symmetry_space_group_name_H-M   'P 1'
_cell_length_a   4.47029989
_cell_length_b   6.34125687
_cell_length_c   9.97949000
_cell_angle_alpha   71.87438045
_cell_angle_beta   131.88268257
_cell_angle_gamma   89.44952912
_symmetry_Int_Tables_number   1
_chemical_formula_structural   HoEr2Bi3
_chemical_formula_sum   'Ho1 Er2 Bi3'
_cell_volume   190.49206881
_cell_formula_units_Z   1
loop_
 _symmetry_equiv_pos_site_id
 _symmetry_equiv_pos_as_xyz
  1  'x, y, z'
loop_
 _atom_site_type_symbol
 _atom_site_label
 _atom_site_symmetry_multiplicity
 _atom_site_fract_x
 _atom_site_fract_y
 _atom_site_fract_z
 _atom_site_occupancy
  Ho  Ho0  1  0.070286  0.119242  0.918553  1
  Er  Er1  1  0.073132  0.453998  0.252067  1
  Er  Er2  1  0.071714  0.786754  0.584789  1
  Bi  Bi3  1  0.072898  0.619337  0.918502  1
  Bi  Bi4  1  0.071885  0.953615  0.251872  1
  Bi  Bi5  1  0.071309  0.286369  0.585272  1
