# generated using pymatgen
data_Sc4Al3Tc3Os2
_symmetry_space_group_name_H-M   'P 1'
_cell_length_a   5.22730600
_cell_length_b   5.26345553
_cell_length_c   8.57836700
_cell_angle_alpha   90.00000000
_cell_angle_beta   90.00000000
_cell_angle_gamma   119.77306652
_symmetry_Int_Tables_number   1
_chemical_formula_structural   Sc4Al3Tc3Os2
_chemical_formula_sum   'Sc4 Al3 Tc3 Os2'
_cell_volume   204.86733409
_cell_formula_units_Z   1
loop_
 _symmetry_equiv_pos_site_id
 _symmetry_equiv_pos_as_xyz
  1  'x, y, z'
loop_
 _atom_site_type_symbol
 _atom_site_label
 _atom_site_symmetry_multiplicity
 _atom_site_fract_x
 _atom_site_fract_y
 _atom_site_fract_z
 _atom_site_occupancy
  Sc  Sc0  1  0.330229  0.660459  0.057176  1
  Sc  Sc1  1  0.663850  0.327698  0.564520  1
  Sc  Sc2  1  0.330229  0.660459  0.442824  1
  Sc  Sc3  1  0.663850  0.327698  0.935480  1
  Al  Al4  1  0.346416  0.192121  0.250000  1
  Al  Al5  1  0.845706  0.192121  0.250000  1
  Al  Al6  1  0.166853  0.333707  0.750000  1
  Tc  Tc7  1  0.841205  0.682409  0.250000  1
  Tc  Tc8  1  0.176186  0.830554  0.750000  1
  Tc  Tc9  1  0.654367  0.830554  0.750000  1
  Os  Os10  1  0.990555  0.981109  0.497524  1
  Os  Os11  1  0.990555  0.981109  0.002476  1
