# generated using pymatgen
data_Tb5Os2
_symmetry_space_group_name_H-M   'P 1'
_cell_length_a   6.41639017
_cell_length_b   7.36567612
_cell_length_c   8.49280024
_cell_angle_alpha   96.78475528
_cell_angle_beta   112.19467655
_cell_angle_gamma   90.00000107
_symmetry_Int_Tables_number   1
_chemical_formula_structural   Tb5Os2
_chemical_formula_sum   'Tb10 Os4'
_cell_volume   368.60121171
_cell_formula_units_Z   2
loop_
 _symmetry_equiv_pos_site_id
 _symmetry_equiv_pos_as_xyz
  1  'x, y, z'
loop_
 _atom_site_type_symbol
 _atom_site_label
 _atom_site_symmetry_multiplicity
 _atom_site_fract_x
 _atom_site_fract_y
 _atom_site_fract_z
 _atom_site_occupancy
  Tb  Tb0  1  0.976538  0.915935  0.183582  1
  Tb  Tb1  1  0.792955  0.584065  0.816418  1
  Tb  Tb2  1  0.023462  0.084065  0.816418  1
  Tb  Tb3  1  0.207045  0.415935  0.183582  1
  Tb  Tb4  1  0.639813  0.815969  0.435276  1
  Tb  Tb5  1  0.204537  0.684031  0.564724  1
  Tb  Tb6  1  0.360187  0.184031  0.564724  1
  Tb  Tb7  1  0.795463  0.315969  0.435276  1
  Tb  Tb8  1  0.423127  0.750000  0.000000  1
  Tb  Tb9  1  0.576873  0.250000  0.000000  1
  Os  Os10  1  0.823318  0.576442  0.219728  1
  Os  Os11  1  0.603590  0.923558  0.780272  1
  Os  Os12  1  0.176682  0.423558  0.780272  1
  Os  Os13  1  0.396410  0.076442  0.219728  1
