# generated using pymatgen
data_Tb10CeTmCo4
_symmetry_space_group_name_H-M   'P 1'
_cell_length_a   6.26185955
_cell_length_b   6.89815063
_cell_length_c   9.52585900
_cell_angle_alpha   89.94396124
_cell_angle_beta   89.93035065
_cell_angle_gamma   92.20068975
_symmetry_Int_Tables_number   1
_chemical_formula_structural   Tb10CeTmCo4
_chemical_formula_sum   'Tb10 Ce1 Tm1 Co4'
_cell_volume   411.16786511
_cell_formula_units_Z   1
loop_
 _symmetry_equiv_pos_site_id
 _symmetry_equiv_pos_as_xyz
  1  'x, y, z'
loop_
 _atom_site_type_symbol
 _atom_site_label
 _atom_site_symmetry_multiplicity
 _atom_site_fract_x
 _atom_site_fract_y
 _atom_site_fract_z
 _atom_site_occupancy
  Tb  Tb0  1  0.171430  0.175041  0.429938  1
  Tb  Tb1  1  0.678449  0.326767  0.566870  1
  Tb  Tb2  1  0.824854  0.826790  0.932433  1
  Tb  Tb3  1  0.677640  0.327026  0.933838  1
  Tb  Tb4  1  0.825336  0.827220  0.568956  1
  Tb  Tb5  1  0.326287  0.673208  0.433362  1
  Tb  Tb6  1  0.172251  0.175175  0.070120  1
  Tb  Tb7  1  0.635857  0.046010  0.249540  1
  Tb  Tb8  1  0.144789  0.454753  0.751039  1
  Tb  Tb9  1  0.359708  0.955908  0.750853  1
  Ce  Ce10  1  0.851556  0.562542  0.248643  1
  Tm  Tm11  1  0.326940  0.674038  0.066280  1
  Co  Co12  1  0.031324  0.854388  0.248359  1
  Co  Co13  1  0.480905  0.399553  0.248195  1
  Co  Co14  1  0.946871  0.111397  0.749701  1
  Co  Co15  1  0.545809  0.610182  0.751872  1
