# generated using pymatgen
data_CaY2Ni6B2Ir
_symmetry_space_group_name_H-M   'P 1'
_cell_length_a   7.89539277
_cell_length_b   7.89539211
_cell_length_c   7.89539212
_cell_angle_alpha   37.91465385
_cell_angle_beta   37.91466174
_cell_angle_gamma   37.91465957
_symmetry_Int_Tables_number   1
_chemical_formula_structural   CaY2Ni6B2Ir
_chemical_formula_sum   'Ca1 Y2 Ni6 B2 Ir1'
_cell_volume   166.79505582
_cell_formula_units_Z   1
loop_
 _symmetry_equiv_pos_site_id
 _symmetry_equiv_pos_as_xyz
  1  'x, y, z'
loop_
 _atom_site_type_symbol
 _atom_site_label
 _atom_site_symmetry_multiplicity
 _atom_site_fract_x
 _atom_site_fract_y
 _atom_site_fract_z
 _atom_site_occupancy
  Ca  Ca0  1  0.354361  0.354361  0.354361  1
  Y  Y1  1  0.646513  0.646513  0.646513  1
  Y  Y2  1  0.498869  0.498869  0.498869  1
  Ni  Ni3  1  0.571133  0.060678  0.060678  1
  Ni  Ni4  1  0.060678  0.060678  0.571133  1
  Ni  Ni5  1  0.060678  0.571133  0.060678  1
  Ni  Ni6  1  0.939198  0.428932  0.939198  1
  Ni  Ni7  1  0.939198  0.939198  0.428932  1
  Ni  Ni8  1  0.428932  0.939198  0.939198  1
  B  B9  1  0.831307  0.831307  0.831307  1
  B  B10  1  0.169055  0.169055  0.169055  1
  Ir  Ir11  1  0.000077  0.000077  0.000077  1
