# generated using pymatgen
data_Y19Ho(Cd3Ir)2
_symmetry_space_group_name_H-M   'P 1'
_cell_length_a   9.68810321
_cell_length_b   9.68810350
_cell_length_c   9.83680512
_cell_angle_alpha   90.09047607
_cell_angle_beta   89.90952594
_cell_angle_gamma   119.97574885
_symmetry_Int_Tables_number   1
_chemical_formula_structural   Y19Ho(Cd3Ir)2
_chemical_formula_sum   'Y19 Ho1 Cd6 Ir2'
_cell_volume   799.77455167
_cell_formula_units_Z   1
loop_
 _symmetry_equiv_pos_site_id
 _symmetry_equiv_pos_as_xyz
  1  'x, y, z'
loop_
 _atom_site_type_symbol
 _atom_site_label
 _atom_site_symmetry_multiplicity
 _atom_site_fract_x
 _atom_site_fract_y
 _atom_site_fract_z
 _atom_site_occupancy
  Y  Y0  1  0.000442  0.999558  0.499851  1
  Y  Y1  1  0.999896  0.000104  0.999973  1
  Y  Y2  1  0.209492  0.419237  0.440853  1
  Y  Y3  1  0.580763  0.790508  0.440853  1
  Y  Y4  1  0.790649  0.209351  0.559410  1
  Y  Y5  1  0.790997  0.581049  0.559251  1
  Y  Y6  1  0.418951  0.209003  0.559251  1
  Y  Y7  1  0.790422  0.209578  0.940615  1
  Y  Y8  1  0.790583  0.581033  0.940673  1
  Y  Y9  1  0.418967  0.209417  0.940673  1
  Y  Y10  1  0.209183  0.790817  0.059384  1
  Y  Y11  1  0.209708  0.419377  0.059392  1
  Y  Y12  1  0.580623  0.790292  0.059392  1
  Y  Y13  1  0.541661  0.458339  0.250239  1
  Y  Y14  1  0.540981  0.082285  0.250285  1
  Y  Y15  1  0.917715  0.459019  0.250285  1
  Y  Y16  1  0.458695  0.541305  0.750003  1
  Y  Y17  1  0.458293  0.916816  0.749542  1
  Y  Y18  1  0.083184  0.541707  0.749542  1
  Ho  Ho19  1  0.210069  0.789931  0.440091  1
  Cd  Cd20  1  0.885167  0.114833  0.250193  1
  Cd  Cd21  1  0.885096  0.770264  0.249857  1
  Cd  Cd22  1  0.229736  0.114904  0.249857  1
  Cd  Cd23  1  0.114920  0.885080  0.749957  1
  Cd  Cd24  1  0.114798  0.229792  0.750021  1
  Cd  Cd25  1  0.770208  0.885202  0.750021  1
  Ir  Ir26  1  0.332204  0.667796  0.250654  1
  Ir  Ir27  1  0.666597  0.333403  0.749881  1
