# generated using pymatgen
data_TmLu2CdSn3Ir2
_symmetry_space_group_name_H-M   'P 1'
_cell_length_a   7.66059141
_cell_length_b   7.65952752
_cell_length_c   3.87498500
_cell_angle_alpha   90.00000000
_cell_angle_beta   90.00000000
_cell_angle_gamma   119.93513531
_symmetry_Int_Tables_number   1
_chemical_formula_structural   TmLu2CdSn3Ir2
_chemical_formula_sum   'Tm1 Lu2 Cd1 Sn3 Ir2'
_cell_volume   197.03729177
_cell_formula_units_Z   1
loop_
 _symmetry_equiv_pos_site_id
 _symmetry_equiv_pos_as_xyz
  1  'x, y, z'
loop_
 _atom_site_type_symbol
 _atom_site_label
 _atom_site_symmetry_multiplicity
 _atom_site_fract_x
 _atom_site_fract_y
 _atom_site_fract_z
 _atom_site_occupancy
  Tm  Tm0  1  0.409673  0.028381  0.500000  1
  Lu  Lu1  1  0.970771  0.380637  0.500000  1
  Lu  Lu2  1  0.619675  0.590252  0.500000  1
  Cd  Cd3  1  0.333238  0.666274  0.000000  1
  Sn  Sn4  1  0.000108  0.743092  0.000000  1
  Sn  Sn5  1  0.256577  0.257180  0.000000  1
  Sn  Sn6  1  0.743096  0.999721  0.000000  1
  Ir  Ir7  1  0.667343  0.334401  0.000000  1
  Ir  Ir8  1  0.999518  0.000061  0.500000  1
