# generated using pymatgen
data_CeInSn5Rh4
_symmetry_space_group_name_H-M   'P 1'
_cell_length_a   6.93382087
_cell_length_b   7.02318836
_cell_length_c   6.95020000
_cell_angle_alpha   120.25126993
_cell_angle_beta   119.82451925
_cell_angle_gamma   90.16744140
_symmetry_Int_Tables_number   1
_chemical_formula_structural   CeInSn5Rh4
_chemical_formula_sum   'Ce1 In1 Sn5 Rh4'
_cell_volume   238.69470830
_cell_formula_units_Z   1
loop_
 _symmetry_equiv_pos_site_id
 _symmetry_equiv_pos_as_xyz
  1  'x, y, z'
loop_
 _atom_site_type_symbol
 _atom_site_label
 _atom_site_symmetry_multiplicity
 _atom_site_fract_x
 _atom_site_fract_y
 _atom_site_fract_z
 _atom_site_occupancy
  Ce  Ce0  1  0.999629  0.999345  0.000081  1
  In  In1  1  0.467327  0.123885  0.000170  1
  Sn  Sn2  1  0.129479  0.460746  0.999886  1
  Sn  Sn3  1  0.872052  0.873014  0.337879  1
  Sn  Sn4  1  0.500634  0.002391  0.501450  1
  Sn  Sn5  1  0.999016  0.500817  0.498332  1
  Sn  Sn6  1  0.533873  0.535107  0.662082  1
  Rh  Rh7  1  0.759367  0.398872  0.999952  1
  Rh  Rh8  1  0.391208  0.752553  0.999926  1
  Rh  Rh9  1  0.608764  0.611830  0.370390  1
  Rh  Rh10  1  0.238651  0.241440  0.629848  1
