# generated using pymatgen
data_K2BiRh6Pb11
_symmetry_space_group_name_H-M   'P 1'
_cell_length_a   14.34485890
_cell_length_b   14.39718579
_cell_length_c   4.58264800
_cell_angle_alpha   90.00000000
_cell_angle_beta   90.00000000
_cell_angle_gamma   145.70735848
_symmetry_Int_Tables_number   1
_chemical_formula_structural   K2BiRh6Pb11
_chemical_formula_sum   'K2 Bi1 Rh6 Pb11'
_cell_volume   533.23986435
_cell_formula_units_Z   1
loop_
 _symmetry_equiv_pos_site_id
 _symmetry_equiv_pos_as_xyz
  1  'x, y, z'
loop_
 _atom_site_type_symbol
 _atom_site_label
 _atom_site_symmetry_multiplicity
 _atom_site_fract_x
 _atom_site_fract_y
 _atom_site_fract_z
 _atom_site_occupancy
  K  K0  1  0.582778  0.411949  0.250000  1
  K  K1  1  0.413915  0.584453  0.750000  1
  Bi  Bi2  1  0.754715  0.845453  0.250000  1
  Rh  Rh3  1  0.972522  0.410308  0.750000  1
  Rh  Rh4  1  0.957404  0.030595  0.750000  1
  Rh  Rh5  1  0.031673  0.596638  0.250000  1
  Rh  Rh6  1  0.034620  0.961741  0.250000  1
  Rh  Rh7  1  0.407539  0.971681  0.250000  1
  Rh  Rh8  1  0.596391  0.032116  0.750000  1
  Pb  Pb9  1  0.844733  0.749314  0.750000  1
  Pb  Pb10  1  0.145551  0.241888  0.250000  1
  Pb  Pb11  1  0.525787  0.869485  0.250000  1
  Pb  Pb12  1  0.137244  0.483353  0.250000  1
  Pb  Pb13  1  0.866842  0.522081  0.750000  1
  Pb  Pb14  1  0.240708  0.144918  0.750000  1
  Pb  Pb15  1  0.751272  0.252685  0.250000  1
  Pb  Pb16  1  0.253490  0.751788  0.750000  1
  Pb  Pb17  1  0.135665  0.865489  0.250000  1
  Pb  Pb18  1  0.869102  0.140426  0.750000  1
  Pb  Pb19  1  0.478049  0.133639  0.750000  1
