# generated using pymatgen
data_Sm3Sc7(Si5Ir2)4
_symmetry_space_group_name_H-M   'P 1'
_cell_length_a   12.46256900
_cell_length_b   12.46256956
_cell_length_c   4.14720100
_cell_angle_alpha   90.00000000
_cell_angle_beta   90.00000000
_cell_angle_gamma   90.09340141
_symmetry_Int_Tables_number   1
_chemical_formula_structural   Sm3Sc7(Si5Ir2)4
_chemical_formula_sum   'Sm3 Sc7 Si20 Ir8'
_cell_volume   644.12429284
_cell_formula_units_Z   1
loop_
 _symmetry_equiv_pos_site_id
 _symmetry_equiv_pos_as_xyz
  1  'x, y, z'
loop_
 _atom_site_type_symbol
 _atom_site_label
 _atom_site_symmetry_multiplicity
 _atom_site_fract_x
 _atom_site_fract_y
 _atom_site_fract_z
 _atom_site_occupancy
  Sm  Sm0  1  0.115625  0.615528  0.500000  1
  Sm  Sm1  1  0.884472  0.384375  0.500000  1
  Sm  Sm2  1  0.615082  0.884918  0.500000  1
  Sc  Sc3  1  0.384527  0.115473  0.500000  1
  Sc  Sc4  1  0.673349  0.174285  0.500000  1
  Sc  Sc5  1  0.325715  0.826651  0.500000  1
  Sc  Sc6  1  0.175392  0.324608  0.500000  1
  Sc  Sc7  1  0.825659  0.674341  0.500000  1
  Sc  Sc8  1  0.000550  0.000050  0.000000  1
  Sc  Sc9  1  0.499950  0.499450  0.000000  1
  Si  Si10  1  0.566066  0.068253  0.000000  1
  Si  Si11  1  0.431747  0.933934  0.000000  1
  Si  Si12  1  0.068424  0.431576  0.000000  1
  Si  Si13  1  0.931909  0.568091  0.000000  1
  Si  Si14  1  0.201429  0.164995  0.000000  1
  Si  Si15  1  0.800465  0.834760  0.000000  1
  Si  Si16  1  0.165983  0.801641  0.000000  1
  Si  Si17  1  0.698359  0.334017  0.000000  1
  Si  Si18  1  0.834255  0.199566  0.000000  1
  Si  Si19  1  0.300434  0.665745  0.000000  1
  Si  Si20  1  0.665240  0.699535  0.000000  1
  Si  Si21  1  0.335005  0.298571  0.000000  1
  Si  Si22  1  0.007596  0.150309  0.500000  1
  Si  Si23  1  0.992944  0.849799  0.500000  1
  Si  Si24  1  0.152456  0.994209  0.500000  1
  Si  Si25  1  0.505791  0.347544  0.500000  1
  Si  Si26  1  0.849351  0.007945  0.500000  1
  Si  Si27  1  0.492055  0.650649  0.500000  1
  Si  Si28  1  0.650201  0.507056  0.500000  1
  Si  Si29  1  0.349691  0.492404  0.500000  1
  Ir  Ir30  1  0.021833  0.242643  0.000000  1
  Ir  Ir31  1  0.978955  0.757216  0.000000  1
  Ir  Ir32  1  0.246110  0.981038  0.000000  1
  Ir  Ir33  1  0.518962  0.253890  0.000000  1
  Ir  Ir34  1  0.755613  0.021333  0.000000  1
  Ir  Ir35  1  0.478667  0.744387  0.000000  1
  Ir  Ir36  1  0.742784  0.521045  0.000000  1
  Ir  Ir37  1  0.257357  0.478167  0.000000  1
