# generated using pymatgen
data_Tb7ThGePd24
_symmetry_space_group_name_H-M   'P 1'
_cell_length_a   8.39409703
_cell_length_b   8.39409703
_cell_length_c   8.39409703
_cell_angle_alpha   89.99362460
_cell_angle_beta   89.99362460
_cell_angle_gamma   89.99362460
_symmetry_Int_Tables_number   1
_chemical_formula_structural   Tb7ThGePd24
_chemical_formula_sum   'Tb7 Th1 Ge1 Pd24'
_cell_volume   591.45532537
_cell_formula_units_Z   1
loop_
 _symmetry_equiv_pos_site_id
 _symmetry_equiv_pos_as_xyz
  1  'x, y, z'
loop_
 _atom_site_type_symbol
 _atom_site_label
 _atom_site_symmetry_multiplicity
 _atom_site_fract_x
 _atom_site_fract_y
 _atom_site_fract_z
 _atom_site_occupancy
  Tb  Tb0  1  0.746022  0.746022  0.746022  1
  Tb  Tb1  1  0.746098  0.746098  0.253918  1
  Tb  Tb2  1  0.746098  0.253918  0.746098  1
  Tb  Tb3  1  0.253793  0.253793  0.746571  1
  Tb  Tb4  1  0.253793  0.746571  0.253793  1
  Tb  Tb5  1  0.253918  0.746098  0.746098  1
  Tb  Tb6  1  0.746571  0.253793  0.253793  1
  Th  Th7  1  0.254694  0.254694  0.254694  1
  Ge  Ge8  1  0.999239  0.999239  0.999239  1
  Pd  Pd9  1  0.259283  0.500045  0.999960  1
  Pd  Pd10  1  0.740740  0.500104  0.999979  1
  Pd  Pd11  1  0.999960  0.259283  0.500045  1
  Pd  Pd12  1  0.500045  0.259283  0.999960  1
  Pd  Pd13  1  0.999979  0.740740  0.500104  1
  Pd  Pd14  1  0.500104  0.740740  0.999979  1
  Pd  Pd15  1  0.500045  0.999960  0.259283  1
  Pd  Pd16  1  0.259283  0.999960  0.500045  1
  Pd  Pd17  1  0.500104  0.999979  0.740740  1
  Pd  Pd18  1  0.740740  0.999979  0.500104  1
  Pd  Pd19  1  0.999960  0.500045  0.259283  1
  Pd  Pd20  1  0.999979  0.500104  0.740740  1
  Pd  Pd21  1  0.252989  0.500297  0.500297  1
  Pd  Pd22  1  0.747104  0.500029  0.500029  1
  Pd  Pd23  1  0.500297  0.252989  0.500297  1
  Pd  Pd24  1  0.500029  0.747104  0.500029  1
  Pd  Pd25  1  0.500297  0.500297  0.252989  1
  Pd  Pd26  1  0.500029  0.500029  0.747104  1
  Pd  Pd27  1  0.288939  0.999275  0.999275  1
  Pd  Pd28  1  0.711454  0.999931  0.999931  1
  Pd  Pd29  1  0.999275  0.288939  0.999275  1
  Pd  Pd30  1  0.999931  0.711454  0.999931  1
  Pd  Pd31  1  0.999275  0.999275  0.288939  1
  Pd  Pd32  1  0.999931  0.999931  0.711454  1
