# generated using pymatgen
data_Dy5Y3Nb12Si15Ge
_symmetry_space_group_name_H-M   'P 1'
_cell_length_a   6.89198645
_cell_length_b   7.08798362
_cell_length_c   13.46704511
_cell_angle_alpha   90.04869349
_cell_angle_beta   89.93243559
_cell_angle_gamma   90.02191608
_symmetry_Int_Tables_number   1
_chemical_formula_structural   Dy5Y3Nb12Si15Ge
_chemical_formula_sum   'Dy5 Y3 Nb12 Si15 Ge1'
_cell_volume   657.86827681
_cell_formula_units_Z   1
loop_
 _symmetry_equiv_pos_site_id
 _symmetry_equiv_pos_as_xyz
  1  'x, y, z'
loop_
 _atom_site_type_symbol
 _atom_site_label
 _atom_site_symmetry_multiplicity
 _atom_site_fract_x
 _atom_site_fract_y
 _atom_site_fract_z
 _atom_site_occupancy
  Dy  Dy0  1  0.997142  0.828483  0.904629  1
  Dy  Dy1  1  0.497022  0.671320  0.904469  1
  Dy  Dy2  1  0.996987  0.829292  0.595999  1
  Dy  Dy3  1  0.503361  0.327311  0.403327  1
  Dy  Dy4  1  0.002770  0.171664  0.095534  1
  Y  Y5  1  0.502862  0.328778  0.095744  1
  Y  Y6  1  0.001779  0.170867  0.403885  1
  Y  Y7  1  0.500252  0.673248  0.596431  1
  Nb  Nb8  1  0.664712  0.008697  0.750235  1
  Nb  Nb9  1  0.164532  0.490545  0.751913  1
  Nb  Nb10  1  0.335026  0.991296  0.249808  1
  Nb  Nb11  1  0.835313  0.509014  0.249805  1
  Nb  Nb12  1  0.836490  0.324370  0.625954  1
  Nb  Nb13  1  0.338167  0.174941  0.874697  1
  Nb  Nb14  1  0.161694  0.675333  0.125334  1
  Nb  Nb15  1  0.661347  0.825259  0.373999  1
  Nb  Nb16  1  0.160198  0.677646  0.372901  1
  Nb  Nb17  1  0.661038  0.824675  0.125324  1
  Nb  Nb18  1  0.838090  0.324734  0.874696  1
  Nb  Nb19  1  0.340688  0.171533  0.626781  1
  Si  Si20  1  0.797389  0.625569  0.750248  1
  Si  Si21  1  0.296199  0.873389  0.750641  1
  Si  Si22  1  0.203132  0.374521  0.249689  1
  Si  Si23  1  0.703273  0.125524  0.249606  1
  Si  Si24  1  0.542945  0.376208  0.750455  1
  Si  Si25  1  0.042939  0.124013  0.750101  1
  Si  Si26  1  0.456642  0.623926  0.249919  1
  Si  Si27  1  0.956017  0.876577  0.249015  1
  Si  Si28  1  0.663655  0.037763  0.540121  1
  Si  Si29  1  0.162873  0.462644  0.959547  1
  Si  Si30  1  0.336600  0.962739  0.040501  1
  Si  Si31  1  0.832987  0.538249  0.458675  1
  Si  Si32  1  0.336484  0.962262  0.459546  1
  Si  Si33  1  0.837198  0.537477  0.040678  1
  Si  Si34  1  0.663185  0.037257  0.959481  1
  Ge  Ge35  1  0.169011  0.462874  0.540312  1
