# generated using pymatgen
data_NdSm3(B4Ru)4
_symmetry_space_group_name_H-M   'P 1'
_cell_length_a   3.60981500
_cell_length_b   6.03122425
_cell_length_c   11.66392461
_cell_angle_alpha   89.94287913
_cell_angle_beta   90.00000000
_cell_angle_gamma   90.00000000
_symmetry_Int_Tables_number   1
_chemical_formula_structural   NdSm3(B4Ru)4
_chemical_formula_sum   'Nd1 Sm3 B16 Ru4'
_cell_volume   253.94221873
_cell_formula_units_Z   1
loop_
 _symmetry_equiv_pos_site_id
 _symmetry_equiv_pos_as_xyz
  1  'x, y, z'
loop_
 _atom_site_type_symbol
 _atom_site_label
 _atom_site_symmetry_multiplicity
 _atom_site_fract_x
 _atom_site_fract_y
 _atom_site_fract_z
 _atom_site_occupancy
  Nd  Nd0  1  0.000000  0.872418  0.150405  1
  Sm  Sm1  1  0.000000  0.627605  0.650272  1
  Sm  Sm2  1  0.000000  0.372298  0.349936  1
  Sm  Sm3  1  0.000000  0.127792  0.849527  1
  B  B4  1  0.500000  0.975552  0.690224  1
  B  B5  1  0.500000  0.024846  0.310555  1
  B  B6  1  0.500000  0.475593  0.809575  1
  B  B7  1  0.500000  0.523216  0.190298  1
  B  B8  1  0.500000  0.785947  0.815325  1
  B  B9  1  0.500000  0.215783  0.184658  1
  B  B10  1  0.500000  0.285767  0.684470  1
  B  B11  1  0.500000  0.713882  0.316235  1
  B  B12  1  0.500000  0.861545  0.968491  1
  B  B13  1  0.500000  0.138947  0.030432  1
  B  B14  1  0.500000  0.361809  0.530838  1
  B  B15  1  0.500000  0.637947  0.469309  1
  B  B16  1  0.500000  0.888910  0.545932  1
  B  B17  1  0.500000  0.111128  0.454359  1
  B  B18  1  0.500000  0.388847  0.953843  1
  B  B19  1  0.500000  0.609997  0.045346  1
  Ru  Ru20  1  0.000000  0.638041  0.907878  1
  Ru  Ru21  1  0.000000  0.362064  0.091303  1
  Ru  Ru22  1  0.000000  0.138528  0.591655  1
  Ru  Ru23  1  0.000000  0.861537  0.409132  1
