# generated using pymatgen
data_Tm2LuMg(ZnPt)4
_symmetry_space_group_name_H-M   'P 1'
_cell_length_a   4.18521700
_cell_length_b   6.72416033
_cell_length_c   7.97270615
_cell_angle_alpha   91.35615255
_cell_angle_beta   90.00000000
_cell_angle_gamma   90.00000000
_symmetry_Int_Tables_number   1
_chemical_formula_structural   Tm2LuMg(ZnPt)4
_chemical_formula_sum   'Tm2 Lu1 Mg1 Zn4 Pt4'
_cell_volume   224.30560864
_cell_formula_units_Z   1
loop_
 _symmetry_equiv_pos_site_id
 _symmetry_equiv_pos_as_xyz
  1  'x, y, z'
loop_
 _atom_site_type_symbol
 _atom_site_label
 _atom_site_symmetry_multiplicity
 _atom_site_fract_x
 _atom_site_fract_y
 _atom_site_fract_z
 _atom_site_occupancy
  Tm  Tm0  1  0.750000  0.468357  0.824162  1
  Tm  Tm1  1  0.250000  0.033361  0.310961  1
  Lu  Lu2  1  0.750000  0.962440  0.681451  1
  Mg  Mg3  1  0.250000  0.533973  0.182542  1
  Zn  Zn4  1  0.250000  0.641171  0.557692  1
  Zn  Zn5  1  0.750000  0.361602  0.438040  1
  Zn  Zn6  1  0.750000  0.852560  0.063337  1
  Zn  Zn7  1  0.250000  0.146766  0.939532  1
  Pt  Pt8  1  0.250000  0.756601  0.878783  1
  Pt  Pt9  1  0.750000  0.246810  0.122857  1
  Pt  Pt10  1  0.750000  0.743273  0.376644  1
  Pt  Pt11  1  0.250000  0.253088  0.623999  1
