# generated using pymatgen
data_Yb2BeP2
_symmetry_space_group_name_H-M   'P 1'
_cell_length_a   7.70359711
_cell_length_b   7.70359686
_cell_length_c   6.86692000
_cell_angle_alpha   90.00000000
_cell_angle_beta   90.00000000
_cell_angle_gamma   150.46935575
_symmetry_Int_Tables_number   1
_chemical_formula_structural   Yb2BeP2
_chemical_formula_sum   'Yb4 Be2 P4'
_cell_volume   200.86220080
_cell_formula_units_Z   2
loop_
 _symmetry_equiv_pos_site_id
 _symmetry_equiv_pos_as_xyz
  1  'x, y, z'
loop_
 _atom_site_type_symbol
 _atom_site_label
 _atom_site_symmetry_multiplicity
 _atom_site_fract_x
 _atom_site_fract_y
 _atom_site_fract_z
 _atom_site_occupancy
  Yb  Yb0  1  0.707453  0.292547  0.472455  1
  Yb  Yb1  1  0.292547  0.707453  0.972455  1
  Yb  Yb2  1  0.532067  0.467933  0.790492  1
  Yb  Yb3  1  0.467933  0.532067  0.290492  1
  Be  Be4  1  0.909124  0.090876  0.650570  1
  Be  Be5  1  0.090876  0.909124  0.150570  1
  P  P6  1  0.938722  0.061278  0.995044  1
  P  P7  1  0.061278  0.938722  0.495044  1
  P  P8  1  0.660573  0.339427  0.078128  1
  P  P9  1  0.339427  0.660573  0.578128  1
