# generated using pymatgen
data_LaInGa3Ni
_symmetry_space_group_name_H-M   'P 1'
_cell_length_a   8.33992369
_cell_length_b   8.33992357
_cell_length_c   6.74816000
_cell_angle_alpha   90.00000000
_cell_angle_beta   90.00000000
_cell_angle_gamma   149.95626510
_symmetry_Int_Tables_number   1
_chemical_formula_structural   LaInGa3Ni
_chemical_formula_sum   'La2 In2 Ga6 Ni2'
_cell_volume   234.99206657
_cell_formula_units_Z   2
loop_
 _symmetry_equiv_pos_site_id
 _symmetry_equiv_pos_as_xyz
  1  'x, y, z'
loop_
 _atom_site_type_symbol
 _atom_site_label
 _atom_site_symmetry_multiplicity
 _atom_site_fract_x
 _atom_site_fract_y
 _atom_site_fract_z
 _atom_site_occupancy
  La  La0  1  0.880006  0.119994  0.750000  1
  La  La1  1  0.119994  0.880006  0.250000  1
  In  In2  1  0.500000  0.500000  0.000000  1
  In  In3  1  0.500000  0.500000  0.500000  1
  Ga  Ga4  1  0.078060  0.921940  0.750000  1
  Ga  Ga5  1  0.921940  0.078060  0.250000  1
  Ga  Ga6  1  0.690884  0.309116  0.945969  1
  Ga  Ga7  1  0.309116  0.690884  0.054031  1
  Ga  Ga8  1  0.690884  0.309116  0.554031  1
  Ga  Ga9  1  0.309116  0.690884  0.445969  1
  Ni  Ni10  1  0.224539  0.775461  0.750000  1
  Ni  Ni11  1  0.775461  0.224539  0.250000  1
