# generated using pymatgen
data_CsRb7Er6BBr20
_symmetry_space_group_name_H-M   'P 1'
_cell_length_a   12.34242953
_cell_length_b   12.34242877
_cell_length_c   12.34242901
_cell_angle_alpha   59.47911641
_cell_angle_beta   59.47911999
_cell_angle_gamma   59.47911825
_symmetry_Int_Tables_number   1
_chemical_formula_structural   CsRb7Er6BBr20
_chemical_formula_sum   'Cs1 Rb7 Er6 B1 Br20'
_cell_volume   1313.74413588
_cell_formula_units_Z   1
loop_
 _symmetry_equiv_pos_site_id
 _symmetry_equiv_pos_as_xyz
  1  'x, y, z'
loop_
 _atom_site_type_symbol
 _atom_site_label
 _atom_site_symmetry_multiplicity
 _atom_site_fract_x
 _atom_site_fract_y
 _atom_site_fract_z
 _atom_site_occupancy
  Cs  Cs0  1  0.358334  0.358334  0.358334  1
  Rb  Rb1  1  0.640653  0.640653  0.640653  1
  Rb  Rb2  1  0.359784  0.359784  0.919841  1
  Rb  Rb3  1  0.359784  0.919841  0.359784  1
  Rb  Rb4  1  0.640747  0.640747  0.079220  1
  Rb  Rb5  1  0.640747  0.079220  0.640747  1
  Rb  Rb6  1  0.919841  0.359784  0.359784  1
  Rb  Rb7  1  0.079220  0.640747  0.640747  1
  Er  Er8  1  0.852862  0.149226  0.149226  1
  Er  Er9  1  0.147498  0.850796  0.850796  1
  Er  Er10  1  0.149226  0.852862  0.149226  1
  Er  Er11  1  0.850796  0.147498  0.850796  1
  Er  Er12  1  0.149226  0.149226  0.852862  1
  Er  Er13  1  0.850796  0.850796  0.147498  1
  B  B14  1  0.999978  0.999978  0.999978  1
  Br  Br15  1  0.328483  0.998645  0.998645  1
  Br  Br16  1  0.671518  0.001196  0.001196  1
  Br  Br17  1  0.000133  0.325695  0.674374  1
  Br  Br18  1  0.000133  0.674374  0.325695  1
  Br  Br19  1  0.998645  0.328483  0.998645  1
  Br  Br20  1  0.674374  0.000133  0.325695  1
  Br  Br21  1  0.001196  0.671518  0.001196  1
  Br  Br22  1  0.325695  0.000133  0.674374  1
  Br  Br23  1  0.998645  0.998645  0.328483  1
  Br  Br24  1  0.001196  0.001196  0.671518  1
  Br  Br25  1  0.674374  0.325695  0.000133  1
  Br  Br26  1  0.325695  0.674374  0.000133  1
  Br  Br27  1  0.689050  0.315614  0.315614  1
  Br  Br28  1  0.315926  0.684264  0.684264  1
  Br  Br29  1  0.315614  0.689050  0.315614  1
  Br  Br30  1  0.684264  0.315926  0.684264  1
  Br  Br31  1  0.315614  0.315614  0.689050  1
  Br  Br32  1  0.684264  0.684264  0.315926  1
  Br  Br33  1  0.245986  0.245986  0.245986  1
  Br  Br34  1  0.749700  0.749700  0.749700  1
