# generated using pymatgen
data_Nd9Er(Ga2Sn)2
_symmetry_space_group_name_H-M   'P 1'
_cell_length_a   9.11200115
_cell_length_b   9.11200036
_cell_length_c   9.11200011
_cell_angle_alpha   127.21195809
_cell_angle_beta   127.21196458
_cell_angle_gamma   77.90514530
_symmetry_Int_Tables_number   1
_chemical_formula_structural   Nd9Er(Ga2Sn)2
_chemical_formula_sum   'Nd9 Er1 Ga4 Sn2'
_cell_volume   465.07140224
_cell_formula_units_Z   1
loop_
 _symmetry_equiv_pos_site_id
 _symmetry_equiv_pos_as_xyz
  1  'x, y, z'
loop_
 _atom_site_type_symbol
 _atom_site_label
 _atom_site_symmetry_multiplicity
 _atom_site_fract_x
 _atom_site_fract_y
 _atom_site_fract_z
 _atom_site_occupancy
  Nd  Nd0  1  0.000000  0.000000  0.000000  1
  Nd  Nd1  1  0.523559  0.024086  0.837491  1
  Nd  Nd2  1  0.186592  0.686066  0.162509  1
  Nd  Nd3  1  0.024086  0.186592  0.500527  1
  Nd  Nd4  1  0.686066  0.523559  0.499473  1
  Nd  Nd5  1  0.476441  0.975914  0.162509  1
  Nd  Nd6  1  0.813408  0.313934  0.837491  1
  Nd  Nd7  1  0.975914  0.813408  0.499473  1
  Nd  Nd8  1  0.313934  0.476441  0.500527  1
  Er  Er9  1  0.500000  0.500000  0.000000  1
  Ga  Ga10  1  0.872375  0.380154  0.252528  1
  Ga  Ga11  1  0.127625  0.619846  0.747472  1
  Ga  Ga12  1  0.380154  0.127625  0.507778  1
  Ga  Ga13  1  0.619846  0.872375  0.492222  1
  Sn  Sn14  1  0.252340  0.252340  0.000000  1
  Sn  Sn15  1  0.747660  0.747660  0.000000  1
