# generated using pymatgen
data_MgTa2F12
_symmetry_space_group_name_H-M   'P 1'
_cell_length_a   5.53108451
_cell_length_b   11.34075645
_cell_length_c   5.59160286
_cell_angle_alpha   58.27312220
_cell_angle_beta   58.04426090
_cell_angle_gamma   58.98522381
_symmetry_Int_Tables_number   1
_chemical_formula_structural   MgTa2F12
_chemical_formula_sum   'Mg1 Ta2 F12'
_cell_volume   239.08873570
_cell_formula_units_Z   1
loop_
 _symmetry_equiv_pos_site_id
 _symmetry_equiv_pos_as_xyz
  1  'x, y, z'
loop_
 _atom_site_type_symbol
 _atom_site_label
 _atom_site_symmetry_multiplicity
 _atom_site_fract_x
 _atom_site_fract_y
 _atom_site_fract_z
 _atom_site_occupancy
  Mg  Mg0  1  0.500000  0.750000  0.500000  1
  Ta  Ta1  1  0.013530  0.004524  0.980964  1
  Ta  Ta2  1  0.986470  0.495476  0.019036  1
  F  F3  1  0.362111  0.056800  0.768191  1
  F  F4  1  0.301718  0.592115  0.760812  1
  F  F5  1  0.118191  0.390706  0.344308  1
  F  F6  1  0.175457  0.871622  0.316667  1
  F  F7  1  0.227893  0.345887  0.857481  1
  F  F8  1  0.248326  0.835686  0.829667  1
  F  F9  1  0.881809  0.109294  0.655692  1
  F  F10  1  0.824543  0.628378  0.683333  1
  F  F11  1  0.637889  0.443200  0.231809  1
  F  F12  1  0.698282  0.907885  0.239188  1
  F  F13  1  0.772107  0.154113  0.142519  1
  F  F14  1  0.751674  0.664314  0.170333  1
