# generated using pymatgen
data_LaPu2(CdAu)3
_symmetry_space_group_name_H-M   'P 1'
_cell_length_a   7.97914061
_cell_length_b   7.97914091
_cell_length_c   4.02135800
_cell_angle_alpha   90.00000000
_cell_angle_beta   90.00000000
_cell_angle_gamma   120.27683068
_symmetry_Int_Tables_number   1
_chemical_formula_structural   LaPu2(CdAu)3
_chemical_formula_sum   'La1 Pu2 Cd3 Au3'
_cell_volume   221.10439418
_cell_formula_units_Z   1
loop_
 _symmetry_equiv_pos_site_id
 _symmetry_equiv_pos_as_xyz
  1  'x, y, z'
loop_
 _atom_site_type_symbol
 _atom_site_label
 _atom_site_symmetry_multiplicity
 _atom_site_fract_x
 _atom_site_fract_y
 _atom_site_fract_z
 _atom_site_occupancy
  La  La0  1  0.407319  0.407319  0.000000  1
  Pu  Pu1  1  0.595046  0.001484  0.000000  1
  Pu  Pu2  1  0.001484  0.595046  0.000000  1
  Cd  Cd3  1  0.257131  0.996896  0.500000  1
  Cd  Cd4  1  0.996896  0.257131  0.500000  1
  Cd  Cd5  1  0.743473  0.743473  0.500000  1
  Au  Au6  1  0.331410  0.670798  0.500000  1
  Au  Au7  1  0.670798  0.331410  0.500000  1
  Au  Au8  1  0.996442  0.996442  0.000000  1
