# generated using pymatgen
data_KSr2B2Pt7
_symmetry_space_group_name_H-M   'P 1'
_cell_length_a   8.48947042
_cell_length_b   8.48946984
_cell_length_c   8.48946904
_cell_angle_alpha   38.64990108
_cell_angle_beta   38.64990640
_cell_angle_gamma   38.64989610
_symmetry_Int_Tables_number   1
_chemical_formula_structural   KSr2B2Pt7
_chemical_formula_sum   'K1 Sr2 B2 Pt7'
_cell_volume   214.49512281
_cell_formula_units_Z   1
loop_
 _symmetry_equiv_pos_site_id
 _symmetry_equiv_pos_as_xyz
  1  'x, y, z'
loop_
 _atom_site_type_symbol
 _atom_site_label
 _atom_site_symmetry_multiplicity
 _atom_site_fract_x
 _atom_site_fract_y
 _atom_site_fract_z
 _atom_site_occupancy
  K  K0  1  0.855942  0.855942  0.855942  1
  Sr  Sr1  1  0.146057  0.146057  0.146057  1
  Sr  Sr2  1  0.997512  0.997512  0.997512  1
  B  B3  1  0.669237  0.669237  0.669237  1
  B  B4  1  0.331269  0.331269  0.331269  1
  Pt  Pt5  1  0.437813  0.931976  0.437813  1
  Pt  Pt6  1  0.437813  0.437813  0.931976  1
  Pt  Pt7  1  0.931976  0.437813  0.437813  1
  Pt  Pt8  1  0.562031  0.068424  0.562031  1
  Pt  Pt9  1  0.562031  0.562031  0.068424  1
  Pt  Pt10  1  0.068424  0.562031  0.562031  1
  Pt  Pt11  1  0.499893  0.499893  0.499893  1
