# generated using pymatgen
data_Zr10Tl4GaCuBi2
_symmetry_space_group_name_H-M   'P 1'
_cell_length_a   8.76209707
_cell_length_b   8.76733363
_cell_length_c   5.89317600
_cell_angle_alpha   90.02761098
_cell_angle_beta   89.94474503
_cell_angle_gamma   119.98024031
_symmetry_Int_Tables_number   1
_chemical_formula_structural   Zr10Tl4GaCuBi2
_chemical_formula_sum   'Zr10 Tl4 Ga1 Cu1 Bi2'
_cell_volume   392.14065857
_cell_formula_units_Z   1
loop_
 _symmetry_equiv_pos_site_id
 _symmetry_equiv_pos_as_xyz
  1  'x, y, z'
loop_
 _atom_site_type_symbol
 _atom_site_label
 _atom_site_symmetry_multiplicity
 _atom_site_fract_x
 _atom_site_fract_y
 _atom_site_fract_z
 _atom_site_occupancy
  Zr  Zr0  1  0.736325  0.000000  0.245757  1
  Zr  Zr1  1  0.001152  0.738848  0.248033  1
  Zr  Zr2  1  0.262304  0.261152  0.248033  1
  Zr  Zr3  1  0.256780  0.000000  0.752646  1
  Zr  Zr4  1  0.999748  0.258241  0.753025  1
  Zr  Zr5  1  0.741508  0.741759  0.753025  1
  Zr  Zr6  1  0.334081  0.667655  0.497559  1
  Zr  Zr7  1  0.666427  0.332345  0.497559  1
  Zr  Zr8  1  0.667039  0.332198  0.002768  1
  Zr  Zr9  1  0.334839  0.667802  0.002768  1
  Tl  Tl10  1  0.386477  0.000000  0.249870  1
  Tl  Tl11  1  0.000799  0.384456  0.250295  1
  Tl  Tl12  1  0.616343  0.615544  0.250295  1
  Tl  Tl13  1  0.612370  0.000000  0.749086  1
  Ga  Ga14  1  0.997410  0.000000  0.493244  1
  Cu  Cu15  1  0.997632  0.000000  0.007171  1
  Bi  Bi16  1  0.000389  0.612012  0.749433  1
  Bi  Bi17  1  0.388377  0.387988  0.749433  1
