# generated using pymatgen
data_Sm8ZnGaPd23
_symmetry_space_group_name_H-M   'P 1'
_cell_length_a   8.34474000
_cell_length_b   8.44576300
_cell_length_c   8.54648200
_cell_angle_alpha   90.00000000
_cell_angle_beta   90.00000000
_cell_angle_gamma   90.00000000
_symmetry_Int_Tables_number   1
_chemical_formula_structural   Sm8ZnGaPd23
_chemical_formula_sum   'Sm8 Zn1 Ga1 Pd23'
_cell_volume   602.33636314
_cell_formula_units_Z   1
loop_
 _symmetry_equiv_pos_site_id
 _symmetry_equiv_pos_as_xyz
  1  'x, y, z'
loop_
 _atom_site_type_symbol
 _atom_site_label
 _atom_site_symmetry_multiplicity
 _atom_site_fract_x
 _atom_site_fract_y
 _atom_site_fract_z
 _atom_site_occupancy
  Sm  Sm0  1  0.250820  0.245608  0.260538  1
  Sm  Sm1  1  0.748186  0.746908  0.749575  1
  Sm  Sm2  1  0.748186  0.746908  0.250425  1
  Sm  Sm3  1  0.748186  0.253092  0.749575  1
  Sm  Sm4  1  0.250820  0.245608  0.739462  1
  Sm  Sm5  1  0.250820  0.754392  0.260538  1
  Sm  Sm6  1  0.250820  0.754392  0.739462  1
  Sm  Sm7  1  0.748186  0.253092  0.250425  1
  Zn  Zn8  1  0.270873  0.500000  0.000000  1
  Ga  Ga9  1  0.996539  0.000000  0.000000  1
  Pd  Pd10  1  0.743206  0.500000  0.000000  1
  Pd  Pd11  1  0.996797  0.259451  0.500000  1
  Pd  Pd12  1  0.490724  0.267438  0.000000  1
  Pd  Pd13  1  0.996797  0.740549  0.500000  1
  Pd  Pd14  1  0.490724  0.732562  0.000000  1
  Pd  Pd15  1  0.501069  0.000000  0.262666  1
  Pd  Pd16  1  0.258731  0.000000  0.500000  1
  Pd  Pd17  1  0.501069  0.000000  0.737334  1
  Pd  Pd18  1  0.740035  0.000000  0.500000  1
  Pd  Pd19  1  0.003946  0.500000  0.261456  1
  Pd  Pd20  1  0.003946  0.500000  0.738544  1
  Pd  Pd21  1  0.252955  0.500000  0.500000  1
  Pd  Pd22  1  0.746609  0.500000  0.500000  1
  Pd  Pd23  1  0.502229  0.254742  0.500000  1
  Pd  Pd24  1  0.502229  0.745258  0.500000  1
  Pd  Pd25  1  0.493938  0.500000  0.252554  1
  Pd  Pd26  1  0.493938  0.500000  0.747446  1
  Pd  Pd27  1  0.293537  0.000000  0.000000  1
  Pd  Pd28  1  0.700424  0.000000  0.000000  1
  Pd  Pd29  1  0.014885  0.296776  0.000000  1
  Pd  Pd30  1  0.014885  0.703224  0.000000  1
  Pd  Pd31  1  0.996945  0.000000  0.289312  1
  Pd  Pd32  1  0.996945  0.000000  0.710688  1
