# generated using pymatgen
data_Ba5DyY7Ni4O21
_symmetry_space_group_name_H-M   'P 1'
_cell_length_a   10.21939663
_cell_length_b   10.21939593
_cell_length_c   10.22026601
_cell_angle_alpha   94.53558584
_cell_angle_beta   94.54093276
_cell_angle_gamma   147.32399245
_symmetry_Int_Tables_number   1
_chemical_formula_structural   Ba5DyY7Ni4O21
_chemical_formula_sum   'Ba5 Dy1 Y7 Ni4 O21'
_cell_volume   552.99124841
_cell_formula_units_Z   1
loop_
 _symmetry_equiv_pos_site_id
 _symmetry_equiv_pos_as_xyz
  1  'x, y, z'
loop_
 _atom_site_type_symbol
 _atom_site_label
 _atom_site_symmetry_multiplicity
 _atom_site_fract_x
 _atom_site_fract_y
 _atom_site_fract_z
 _atom_site_occupancy
  Ba  Ba0  1  0.999988  0.000006  0.999994  1
  Ba  Ba1  1  0.138295  0.534951  0.673245  1
  Ba  Ba2  1  0.861707  0.465046  0.326754  1
  Ba  Ba3  1  0.465054  0.138292  0.603346  1
  Ba  Ba4  1  0.534964  0.861700  0.396663  1
  Dy  Dy5  1  0.166817  0.249819  0.416636  1
  Y  Y6  1  0.833222  0.750103  0.583325  1
  Y  Y7  1  0.750106  0.166773  0.916879  1
  Y  Y8  1  0.249896  0.833207  0.083103  1
  Y  Y9  1  0.357564  0.410641  0.768206  1
  Y  Y10  1  0.642431  0.589383  0.231814  1
  Y  Y11  1  0.589370  0.357551  0.946921  1
  Y  Y12  1  0.410626  0.642444  0.053070  1
  Ni  Ni13  1  0.246383  0.040977  0.287361  1
  Ni  Ni14  1  0.753584  0.959063  0.712646  1
  Ni  Ni15  1  0.959178  0.246433  0.205612  1
  Ni  Ni16  1  0.040940  0.753567  0.794507  1
  O  O17  1  0.500001  0.499993  0.999994  1
  O  O18  1  0.963040  0.630171  0.593210  1
  O  O19  1  0.037091  0.369728  0.406819  1
  O  O20  1  0.369847  0.963062  0.332911  1
  O  O21  1  0.630167  0.036963  0.667128  1
  O  O22  1  0.295091  0.427311  0.225979  1
  O  O23  1  0.201693  0.069418  0.774209  1
  O  O24  1  0.069413  0.295208  0.867725  1
  O  O25  1  0.427486  0.201683  0.132274  1
  O  O26  1  0.704790  0.572516  0.774209  1
  O  O27  1  0.798669  0.930889  0.225979  1
  O  O28  1  0.930592  0.704788  0.132274  1
  O  O29  1  0.572516  0.798310  0.867725  1
  O  O30  1  0.496161  0.607154  0.594697  1
  O  O31  1  0.012905  0.902172  0.405039  1
  O  O32  1  0.901716  0.496707  0.888970  1
  O  O33  1  0.607749  0.012759  0.111035  1
  O  O34  1  0.502868  0.392135  0.405039  1
  O  O35  1  0.987542  0.098535  0.594697  1
  O  O36  1  0.098276  0.503286  0.111035  1
  O  O37  1  0.392263  0.987255  0.888970  1
