# generated using pymatgen
data_K9Rb3(AlTe3)4
_symmetry_space_group_name_H-M   'P 1'
_cell_length_a   14.45677486
_cell_length_b   8.80872248
_cell_length_c   11.28827931
_cell_angle_alpha   52.63522719
_cell_angle_beta   89.80599805
_cell_angle_gamma   89.70641464
_symmetry_Int_Tables_number   1
_chemical_formula_structural   K9Rb3(AlTe3)4
_chemical_formula_sum   'K9 Rb3 Al4 Te12'
_cell_volume   1142.50369521
_cell_formula_units_Z   1
loop_
 _symmetry_equiv_pos_site_id
 _symmetry_equiv_pos_as_xyz
  1  'x, y, z'
loop_
 _atom_site_type_symbol
 _atom_site_label
 _atom_site_symmetry_multiplicity
 _atom_site_fract_x
 _atom_site_fract_y
 _atom_site_fract_z
 _atom_site_occupancy
  K  K0  1  0.895123  0.317025  0.403024  1
  K  K1  1  0.611943  0.360397  0.475000  1
  K  K2  1  0.112177  0.639600  0.025343  1
  K  K3  1  0.387329  0.639830  0.525221  1
  K  K4  1  0.888271  0.360831  0.974545  1
  K  K5  1  0.605823  0.316714  0.903217  1
  K  K6  1  0.106078  0.683408  0.596996  1
  K  K7  1  0.393890  0.683312  0.096685  1
  K  K8  1  0.189009  0.148197  0.572719  1
  Rb  Rb9  1  0.311946  0.150449  0.069528  1
  Rb  Rb10  1  0.687406  0.850247  0.930362  1
  Rb  Rb11  1  0.812957  0.849975  0.430910  1
  Al  Al12  1  0.066226  0.944341  0.158437  1
  Al  Al13  1  0.564682  0.053620  0.341869  1
  Al  Al14  1  0.433750  0.948828  0.657463  1
  Al  Al15  1  0.935112  0.053622  0.841305  1
  Te  Te16  1  0.401016  0.183230  0.360742  1
  Te  Te17  1  0.902620  0.819061  0.138583  1
  Te  Te18  1  0.597058  0.818062  0.639185  1
  Te  Te19  1  0.099108  0.178813  0.860005  1
  Te  Te20  1  0.690666  0.323756  0.198578  1
  Te  Te21  1  0.190886  0.668731  0.304716  1
  Te  Te22  1  0.306403  0.682000  0.798893  1
  Te  Te23  1  0.808571  0.324283  0.698536  1
  Te  Te24  1  0.552773  0.860700  0.236062  1
  Te  Te25  1  0.054324  0.139243  0.262851  1
  Te  Te26  1  0.446642  0.140553  0.764118  1
  Te  Te27  1  0.948210  0.861174  0.735107  1
