# generated using pymatgen
data_RbAs2PdRu
_symmetry_space_group_name_H-M   'P 1'
_cell_length_a   7.71660941
_cell_length_b   7.71660952
_cell_length_c   7.71660885
_cell_angle_alpha   149.34575686
_cell_angle_beta   149.34575445
_cell_angle_gamma   43.90262043
_symmetry_Int_Tables_number   1
_chemical_formula_structural   RbAs2PdRu
_chemical_formula_sum   'Rb1 As2 Pd1 Ru1'
_cell_volume   119.10937705
_cell_formula_units_Z   1
loop_
 _symmetry_equiv_pos_site_id
 _symmetry_equiv_pos_as_xyz
  1  'x, y, z'
loop_
 _atom_site_type_symbol
 _atom_site_label
 _atom_site_symmetry_multiplicity
 _atom_site_fract_x
 _atom_site_fract_y
 _atom_site_fract_z
 _atom_site_occupancy
  Rb  Rb0  1  0.000000  0.000000  0.000000  1
  As  As1  1  0.347637  0.347637  0.000000  1
  As  As2  1  0.652363  0.652363  0.000000  1
  Pd  Pd3  1  0.750000  0.250000  0.500000  1
  Ru  Ru4  1  0.250000  0.750000  0.500000  1
