# generated using pymatgen
data_Y2GaSi5AsRh12
_symmetry_space_group_name_H-M   'P 1'
_cell_length_a   9.80561604
_cell_length_b   9.85912694
_cell_length_c   3.88145318
_cell_angle_alpha   90.02937410
_cell_angle_beta   90.00086255
_cell_angle_gamma   120.19657151
_symmetry_Int_Tables_number   1
_chemical_formula_structural   Y2GaSi5AsRh12
_chemical_formula_sum   'Y2 Ga1 Si5 As1 Rh12'
_cell_volume   324.32064100
_cell_formula_units_Z   1
loop_
 _symmetry_equiv_pos_site_id
 _symmetry_equiv_pos_as_xyz
  1  'x, y, z'
loop_
 _atom_site_type_symbol
 _atom_site_label
 _atom_site_symmetry_multiplicity
 _atom_site_fract_x
 _atom_site_fract_y
 _atom_site_fract_z
 _atom_site_occupancy
  Y  Y0  1  0.339105  0.667459  0.751086  1
  Y  Y1  1  0.998130  0.000327  0.251120  1
  Ga  Ga2  1  0.665996  0.333971  0.584366  1
  Si  Si3  1  0.954775  0.220127  0.750453  1
  Si  Si4  1  0.774704  0.733334  0.750531  1
  Si  Si5  1  0.268440  0.046769  0.750592  1
  Si  Si6  1  0.376189  0.441249  0.251686  1
  Si  Si7  1  0.557299  0.933862  0.250449  1
  As  As8  1  0.070930  0.622746  0.251266  1
  Rh  Rh9  1  0.731788  0.952962  0.751916  1
  Rh  Rh10  1  0.045005  0.784790  0.751284  1
  Rh  Rh11  1  0.220417  0.265686  0.751338  1
  Rh  Rh12  1  0.603429  0.716630  0.250597  1
  Rh  Rh13  1  0.283676  0.892572  0.249879  1
  Rh  Rh14  1  0.111425  0.389164  0.250093  1
  Rh  Rh15  1  0.943411  0.455457  0.751467  1
  Rh  Rh16  1  0.538430  0.484070  0.751054  1
  Rh  Rh17  1  0.516038  0.055234  0.749499  1
  Rh  Rh18  1  0.404167  0.213266  0.251426  1
  Rh  Rh19  1  0.787168  0.190434  0.252205  1
  Rh  Rh20  1  0.809478  0.599892  0.251877  1
