# generated using pymatgen
data_Sr9Ca11Sb12
_symmetry_space_group_name_H-M   'P 1'
_cell_length_a   8.53307534
_cell_length_b   9.79987239
_cell_length_c   13.03410280
_cell_angle_alpha   89.94389119
_cell_angle_beta   90.19232031
_cell_angle_gamma   90.02595182
_symmetry_Int_Tables_number   1
_chemical_formula_structural   Sr9Ca11Sb12
_chemical_formula_sum   'Sr9 Ca11 Sb12'
_cell_volume   1089.94464993
_cell_formula_units_Z   1
loop_
 _symmetry_equiv_pos_site_id
 _symmetry_equiv_pos_as_xyz
  1  'x, y, z'
loop_
 _atom_site_type_symbol
 _atom_site_label
 _atom_site_symmetry_multiplicity
 _atom_site_fract_x
 _atom_site_fract_y
 _atom_site_fract_z
 _atom_site_occupancy
  Sr  Sr0  1  0.308446  0.958501  0.074679  1
  Sr  Sr1  1  0.682969  0.749267  0.228820  1
  Sr  Sr2  1  0.180909  0.251295  0.272943  1
  Sr  Sr3  1  0.317947  0.250320  0.771285  1
  Sr  Sr4  1  0.817755  0.749809  0.728328  1
  Sr  Sr5  1  0.156090  0.747936  0.294653  1
  Sr  Sr6  1  0.656907  0.250940  0.207396  1
  Sr  Sr7  1  0.842717  0.250074  0.706765  1
  Sr  Sr8  1  0.343379  0.748736  0.792227  1
  Ca  Ca9  1  0.808960  0.040081  0.423916  1
  Ca  Ca10  1  0.691501  0.459273  0.923024  1
  Ca  Ca11  1  0.190663  0.539807  0.576195  1
  Ca  Ca12  1  0.692764  0.040182  0.923205  1
  Ca  Ca13  1  0.191122  0.960083  0.575863  1
  Ca  Ca14  1  0.308903  0.540117  0.076119  1
  Ca  Ca15  1  0.809071  0.459938  0.424105  1
  Ca  Ca16  1  0.535692  0.750038  0.504672  1
  Ca  Ca17  1  0.034831  0.252025  0.995221  1
  Ca  Ca18  1  0.464528  0.249957  0.495951  1
  Ca  Ca19  1  0.961803  0.747217  0.004169  1
  Sb  Sb20  1  0.938688  0.010716  0.167770  1
  Sb  Sb21  1  0.444517  0.990360  0.336293  1
  Sb  Sb22  1  0.055887  0.509396  0.833400  1
  Sb  Sb23  1  0.555621  0.490344  0.665821  1
  Sb  Sb24  1  0.055725  0.990444  0.833755  1
  Sb  Sb25  1  0.555555  0.009579  0.666851  1
  Sb  Sb26  1  0.943917  0.489849  0.166645  1
  Sb  Sb27  1  0.444366  0.509832  0.333757  1
  Sb  Sb28  1  0.585013  0.747618  0.982318  1
  Sb  Sb29  1  0.079732  0.250111  0.515743  1
  Sb  Sb30  1  0.424362  0.256257  0.013232  1
  Sb  Sb31  1  0.919659  0.749900  0.484879  1
