# generated using pymatgen
data_Nb3Si3Mo2Ir
_symmetry_space_group_name_H-M   'P 1'
_cell_length_a   6.83704093
_cell_length_b   6.83704060
_cell_length_c   3.47621900
_cell_angle_alpha   90.00000000
_cell_angle_beta   90.00000000
_cell_angle_gamma   120.79151260
_symmetry_Int_Tables_number   1
_chemical_formula_structural   Nb3Si3Mo2Ir
_chemical_formula_sum   'Nb3 Si3 Mo2 Ir1'
_cell_volume   139.59012620
_cell_formula_units_Z   1
loop_
 _symmetry_equiv_pos_site_id
 _symmetry_equiv_pos_as_xyz
  1  'x, y, z'
loop_
 _atom_site_type_symbol
 _atom_site_label
 _atom_site_symmetry_multiplicity
 _atom_site_fract_x
 _atom_site_fract_y
 _atom_site_fract_z
 _atom_site_occupancy
  Nb  Nb0  1  0.405763  0.981168  0.500000  1
  Nb  Nb1  1  0.981168  0.405763  0.500000  1
  Nb  Nb2  1  0.614047  0.614047  0.500000  1
  Si  Si3  1  0.327308  0.649462  0.000000  1
  Si  Si4  1  0.649462  0.327308  0.000000  1
  Si  Si5  1  0.022408  0.022408  0.500000  1
  Mo  Mo6  1  0.746137  0.998623  0.000000  1
  Mo  Mo7  1  0.998623  0.746137  0.000000  1
  Ir  Ir8  1  0.255083  0.255083  0.000000  1
