# generated using pymatgen
data_Sc9URe3Se
_symmetry_space_group_name_H-M   'P 1'
_cell_length_a   8.49042600
_cell_length_b   8.91685932
_cell_length_c   8.91685766
_cell_angle_alpha   119.96775110
_cell_angle_beta   90.00000000
_cell_angle_gamma   90.00000000
_symmetry_Int_Tables_number   1
_chemical_formula_structural   Sc9URe3Se
_chemical_formula_sum   'Sc18 U2 Re6 Se2'
_cell_volume   584.82361283
_cell_formula_units_Z   2
loop_
 _symmetry_equiv_pos_site_id
 _symmetry_equiv_pos_as_xyz
  1  'x, y, z'
loop_
 _atom_site_type_symbol
 _atom_site_label
 _atom_site_symmetry_multiplicity
 _atom_site_fract_x
 _atom_site_fract_y
 _atom_site_fract_z
 _atom_site_occupancy
  Sc  Sc0  1  0.542153  0.799906  0.599791  1
  Sc  Sc1  1  0.542087  0.799910  0.200090  1
  Sc  Sc2  1  0.542153  0.400209  0.200094  1
  Sc  Sc3  1  0.457847  0.200094  0.400209  1
  Sc  Sc4  1  0.457913  0.200090  0.799910  1
  Sc  Sc5  1  0.457847  0.599791  0.799906  1
  Sc  Sc6  1  0.042153  0.200094  0.400209  1
  Sc  Sc7  1  0.042087  0.200090  0.799910  1
  Sc  Sc8  1  0.042153  0.599791  0.799906  1
  Sc  Sc9  1  0.957847  0.799906  0.599791  1
  Sc  Sc10  1  0.957913  0.799910  0.200090  1
  Sc  Sc11  1  0.957847  0.400209  0.200094  1
  Sc  Sc12  1  0.750000  0.456040  0.912193  1
  Sc  Sc13  1  0.750000  0.456087  0.543913  1
  Sc  Sc14  1  0.750000  0.087807  0.543960  1
  Sc  Sc15  1  0.250000  0.543960  0.087807  1
  Sc  Sc16  1  0.250000  0.543913  0.456087  1
  Sc  Sc17  1  0.250000  0.912193  0.456040  1
  U  U18  1  0.500000  0.000000  0.000000  1
  U  U19  1  0.000000  0.000000  0.000000  1
  Re  Re20  1  0.750000  0.108764  0.217415  1
  Re  Re21  1  0.750000  0.108784  0.891216  1
  Re  Re22  1  0.750000  0.782585  0.891236  1
  Re  Re23  1  0.250000  0.891236  0.782585  1
  Re  Re24  1  0.250000  0.891216  0.108784  1
  Re  Re25  1  0.250000  0.217415  0.108764  1
  Se  Se26  1  0.750000  0.666667  0.333333  1
  Se  Se27  1  0.250000  0.333333  0.666667  1
