# generated using pymatgen
data_Ho4Cu5SiRh7
_symmetry_space_group_name_H-M   'P 1'
_cell_length_a   7.08279673
_cell_length_b   7.08279548
_cell_length_c   7.08279666
_cell_angle_alpha   108.46388774
_cell_angle_beta   109.97722182
_cell_angle_gamma   109.97722632
_symmetry_Int_Tables_number   1
_chemical_formula_structural   Ho4Cu5SiRh7
_chemical_formula_sum   'Ho4 Cu5 Si1 Rh7'
_cell_volume   273.45878062
_cell_formula_units_Z   1
loop_
 _symmetry_equiv_pos_site_id
 _symmetry_equiv_pos_as_xyz
  1  'x, y, z'
loop_
 _atom_site_type_symbol
 _atom_site_label
 _atom_site_symmetry_multiplicity
 _atom_site_fract_x
 _atom_site_fract_y
 _atom_site_fract_z
 _atom_site_occupancy
  Ho  Ho0  1  0.990627  0.995314  0.495314  1
  Ho  Ho1  1  0.009373  0.504686  0.004686  1
  Ho  Ho2  1  0.500000  0.995314  0.004686  1
  Ho  Ho3  1  0.500000  0.504686  0.495314  1
  Cu  Cu4  1  0.749857  0.251168  0.501310  1
  Cu  Cu5  1  0.749857  0.498690  0.248547  1
  Cu  Cu6  1  0.500000  0.250000  0.750000  1
  Cu  Cu7  1  0.250143  0.498690  0.748832  1
  Cu  Cu8  1  0.250143  0.751453  0.501310  1
  Si  Si9  1  0.000000  0.000000  0.000000  1
  Rh  Rh10  1  0.500000  0.750000  0.250000  1
  Rh  Rh11  1  0.715867  0.705519  0.989653  1
  Rh  Rh12  1  0.284133  0.010347  0.294481  1
  Rh  Rh13  1  0.000000  0.286208  0.286208  1
  Rh  Rh14  1  0.284133  0.273786  0.989653  1
  Rh  Rh15  1  0.715867  0.010347  0.726214  1
  Rh  Rh16  1  0.000000  0.713792  0.713792  1
