# generated using pymatgen
data_Ca2Tb3Pb3Cl
_symmetry_space_group_name_H-M   'P 1'
_cell_length_a   9.26666816
_cell_length_b   9.26666920
_cell_length_c   6.97020600
_cell_angle_alpha   90.00000000
_cell_angle_beta   90.00000000
_cell_angle_gamma   120.09455906
_symmetry_Int_Tables_number   1
_chemical_formula_structural   Ca2Tb3Pb3Cl
_chemical_formula_sum   'Ca4 Tb6 Pb6 Cl2'
_cell_volume   517.85588244
_cell_formula_units_Z   2
loop_
 _symmetry_equiv_pos_site_id
 _symmetry_equiv_pos_as_xyz
  1  'x, y, z'
loop_
 _atom_site_type_symbol
 _atom_site_label
 _atom_site_symmetry_multiplicity
 _atom_site_fract_x
 _atom_site_fract_y
 _atom_site_fract_z
 _atom_site_occupancy
  Ca  Ca0  1  0.256330  0.001490  0.250000  1
  Ca  Ca1  1  0.743670  0.998510  0.750000  1
  Ca  Ca2  1  0.001490  0.256330  0.250000  1
  Ca  Ca3  1  0.998510  0.743670  0.750000  1
  Tb  Tb4  1  0.744305  0.744305  0.250000  1
  Tb  Tb5  1  0.255695  0.255695  0.750000  1
  Tb  Tb6  1  0.332272  0.667728  0.000000  1
  Tb  Tb7  1  0.667728  0.332272  0.000000  1
  Tb  Tb8  1  0.667728  0.332272  0.500000  1
  Tb  Tb9  1  0.332272  0.667728  0.500000  1
  Pb  Pb10  1  0.604660  0.997321  0.250000  1
  Pb  Pb11  1  0.395340  0.002679  0.750000  1
  Pb  Pb12  1  0.997321  0.604660  0.250000  1
  Pb  Pb13  1  0.002679  0.395340  0.750000  1
  Pb  Pb14  1  0.399802  0.399802  0.250000  1
  Pb  Pb15  1  0.600198  0.600198  0.750000  1
  Cl  Cl16  1  0.000000  0.000000  0.000000  1
  Cl  Cl17  1  0.000000  0.000000  0.500000  1
