# generated using pymatgen
data_YbPa7(BiPt2)4
_symmetry_space_group_name_H-M   'P 1'
_cell_length_a   7.81630926
_cell_length_b   7.81630933
_cell_length_c   7.58141800
_cell_angle_alpha   90.00000000
_cell_angle_beta   90.00000000
_cell_angle_gamma   90.47236792
_symmetry_Int_Tables_number   1
_chemical_formula_structural   YbPa7(BiPt2)4
_chemical_formula_sum   'Yb1 Pa7 Bi4 Pt8'
_cell_volume   463.16864871
_cell_formula_units_Z   1
loop_
 _symmetry_equiv_pos_site_id
 _symmetry_equiv_pos_as_xyz
  1  'x, y, z'
loop_
 _atom_site_type_symbol
 _atom_site_label
 _atom_site_symmetry_multiplicity
 _atom_site_fract_x
 _atom_site_fract_y
 _atom_site_fract_z
 _atom_site_occupancy
  Yb  Yb0  1  0.177848  0.822152  0.500000  1
  Pa  Pa1  1  0.682195  0.679635  0.000000  1
  Pa  Pa2  1  0.339425  0.343326  0.500000  1
  Pa  Pa3  1  0.821920  0.178080  0.500000  1
  Pa  Pa4  1  0.656674  0.660575  0.500000  1
  Pa  Pa5  1  0.320365  0.317805  0.000000  1
  Pa  Pa6  1  0.842400  0.157600  0.000000  1
  Pa  Pa7  1  0.160556  0.839444  0.000000  1
  Bi  Bi8  1  0.492571  0.997724  0.747417  1
  Bi  Bi9  1  0.492571  0.997724  0.252583  1
  Bi  Bi10  1  0.002276  0.507429  0.747417  1
  Bi  Bi11  1  0.002276  0.507429  0.252583  1
  Pt  Pt12  1  0.866503  0.873135  0.734437  1
  Pt  Pt13  1  0.126865  0.133497  0.734437  1
  Pt  Pt14  1  0.632820  0.367180  0.771459  1
  Pt  Pt15  1  0.632820  0.367180  0.228541  1
  Pt  Pt16  1  0.378274  0.621726  0.222812  1
  Pt  Pt17  1  0.126865  0.133497  0.265563  1
  Pt  Pt18  1  0.866503  0.873135  0.265563  1
  Pt  Pt19  1  0.378274  0.621726  0.777188  1
