# generated using pymatgen
data_NdErSi5(AsRh6)2
_symmetry_space_group_name_H-M   'P 1'
_cell_length_a   9.83563562
_cell_length_b   9.83763102
_cell_length_c   3.89355006
_cell_angle_alpha   89.97605810
_cell_angle_beta   90.00715116
_cell_angle_gamma   120.17986944
_symmetry_Int_Tables_number   1
_chemical_formula_structural   NdErSi5(AsRh6)2
_chemical_formula_sum   'Nd1 Er1 Si5 As2 Rh12'
_cell_volume   325.67116401
_cell_formula_units_Z   1
loop_
 _symmetry_equiv_pos_site_id
 _symmetry_equiv_pos_as_xyz
  1  'x, y, z'
loop_
 _atom_site_type_symbol
 _atom_site_label
 _atom_site_symmetry_multiplicity
 _atom_site_fract_x
 _atom_site_fract_y
 _atom_site_fract_z
 _atom_site_occupancy
  Nd  Nd0  1  0.666704  0.329377  0.749105  1
  Er  Er1  1  0.334403  0.669105  0.251992  1
  Si  Si2  1  0.999982  0.000625  0.575643  1
  Si  Si3  1  0.290276  0.887597  0.752370  1
  Si  Si4  1  0.110767  0.400565  0.752189  1
  Si  Si5  1  0.598755  0.714302  0.750960  1
  Si  Si6  1  0.710539  0.106360  0.249810  1
  As  As7  1  0.886875  0.597599  0.249187  1
  As  As8  1  0.401610  0.289399  0.248652  1
  Rh  Rh9  1  0.072642  0.622387  0.753441  1
  Rh  Rh10  1  0.375783  0.451594  0.752169  1
  Rh  Rh11  1  0.555678  0.933509  0.752774  1
  Rh  Rh12  1  0.943255  0.380836  0.249437  1
  Rh  Rh13  1  0.613475  0.563490  0.248470  1
  Rh  Rh14  1  0.441832  0.054208  0.249947  1
  Rh  Rh15  1  0.265187  0.116954  0.748746  1
  Rh  Rh16  1  0.879419  0.146335  0.747612  1
  Rh  Rh17  1  0.851400  0.735848  0.748136  1
  Rh  Rh18  1  0.745588  0.884224  0.256358  1
  Rh  Rh19  1  0.117693  0.859949  0.258135  1
  Rh  Rh20  1  0.138132  0.255739  0.258491  1
