# generated using pymatgen
data_Dy2UCo2Si7
_symmetry_space_group_name_H-M   'P 1'
_cell_length_a   4.01976301
_cell_length_b   4.02446000
_cell_length_c   12.36887318
_cell_angle_alpha   90.00000000
_cell_angle_beta   99.35175173
_cell_angle_gamma   90.00000000
_symmetry_Int_Tables_number   1
_chemical_formula_structural   Dy2UCo2Si7
_chemical_formula_sum   'Dy2 U1 Co2 Si7'
_cell_volume   197.43650008
_cell_formula_units_Z   1
loop_
 _symmetry_equiv_pos_site_id
 _symmetry_equiv_pos_as_xyz
  1  'x, y, z'
loop_
 _atom_site_type_symbol
 _atom_site_label
 _atom_site_symmetry_multiplicity
 _atom_site_fract_x
 _atom_site_fract_y
 _atom_site_fract_z
 _atom_site_occupancy
  Dy  Dy0  1  0.316122  0.000000  0.632245  1
  Dy  Dy1  1  0.683878  0.000000  0.367755  1
  U  U2  1  0.000000  0.500000  0.000000  1
  Co  Co3  1  0.127895  0.500000  0.255789  1
  Co  Co4  1  0.872105  0.500000  0.744211  1
  Si  Si5  1  0.500000  0.000000  0.000000  1
  Si  Si6  1  0.413329  0.500000  0.826657  1
  Si  Si7  1  0.586671  0.500000  0.173343  1
  Si  Si8  1  0.086586  0.000000  0.173171  1
  Si  Si9  1  0.913414  0.000000  0.826829  1
  Si  Si10  1  0.221261  0.500000  0.442522  1
  Si  Si11  1  0.778739  0.500000  0.557478  1
