# generated using pymatgen
data_Hf2Zr2GaSi3Mo4
_symmetry_space_group_name_H-M   'P 1'
_cell_length_a   3.51529100
_cell_length_b   7.01680279
_cell_length_c   8.30637900
_cell_angle_alpha   90.38478831
_cell_angle_beta   90.00000000
_cell_angle_gamma   90.00000000
_symmetry_Int_Tables_number   1
_chemical_formula_structural   Hf2Zr2GaSi3Mo4
_chemical_formula_sum   'Hf2 Zr2 Ga1 Si3 Mo4'
_cell_volume   204.88138538
_cell_formula_units_Z   1
loop_
 _symmetry_equiv_pos_site_id
 _symmetry_equiv_pos_as_xyz
  1  'x, y, z'
loop_
 _atom_site_type_symbol
 _atom_site_label
 _atom_site_symmetry_multiplicity
 _atom_site_fract_x
 _atom_site_fract_y
 _atom_site_fract_z
 _atom_site_occupancy
  Hf  Hf0  1  0.250000  0.046185  0.329728  1
  Hf  Hf1  1  0.250000  0.544167  0.168936  1
  Zr  Zr2  1  0.750000  0.948837  0.666799  1
  Zr  Zr3  1  0.750000  0.456523  0.838442  1
  Ga  Ga4  1  0.250000  0.254458  0.637392  1
  Si  Si5  1  0.750000  0.746666  0.361599  1
  Si  Si6  1  0.250000  0.756480  0.863684  1
  Si  Si7  1  0.750000  0.243424  0.137469  1
  Mo  Mo8  1  0.750000  0.373701  0.430737  1
  Mo  Mo9  1  0.250000  0.633034  0.558336  1
  Mo  Mo10  1  0.750000  0.867104  0.064180  1
  Mo  Mo11  1  0.250000  0.129421  0.942697  1
