# generated using pymatgen
data_Tb10FeHg3
_symmetry_space_group_name_H-M   'P 1'
_cell_length_a   9.63631800
_cell_length_b   9.63631907
_cell_length_c   9.65658900
_cell_angle_alpha   90.00000000
_cell_angle_beta   90.00000000
_cell_angle_gamma   119.99998946
_symmetry_Int_Tables_number   1
_chemical_formula_structural   Tb10FeHg3
_chemical_formula_sum   'Tb20 Fe2 Hg6'
_cell_volume   776.56304630
_cell_formula_units_Z   2
loop_
 _symmetry_equiv_pos_site_id
 _symmetry_equiv_pos_as_xyz
  1  'x, y, z'
loop_
 _atom_site_type_symbol
 _atom_site_label
 _atom_site_symmetry_multiplicity
 _atom_site_fract_x
 _atom_site_fract_y
 _atom_site_fract_z
 _atom_site_occupancy
  Tb  Tb0  1  0.000000  0.000000  0.500000  1
  Tb  Tb1  1  0.000000  0.000000  0.000000  1
  Tb  Tb2  1  0.541813  0.458187  0.250000  1
  Tb  Tb3  1  0.541813  0.083627  0.250000  1
  Tb  Tb4  1  0.916373  0.458187  0.250000  1
  Tb  Tb5  1  0.458187  0.541813  0.750000  1
  Tb  Tb6  1  0.458187  0.916373  0.750000  1
  Tb  Tb7  1  0.083627  0.541813  0.750000  1
  Tb  Tb8  1  0.211984  0.788016  0.435563  1
  Tb  Tb9  1  0.211984  0.423969  0.435563  1
  Tb  Tb10  1  0.576031  0.788016  0.435563  1
  Tb  Tb11  1  0.788016  0.211984  0.564437  1
  Tb  Tb12  1  0.788016  0.576031  0.564437  1
  Tb  Tb13  1  0.423969  0.211984  0.564437  1
  Tb  Tb14  1  0.788016  0.211984  0.935563  1
  Tb  Tb15  1  0.788016  0.576031  0.935563  1
  Tb  Tb16  1  0.423969  0.211984  0.935563  1
  Tb  Tb17  1  0.211984  0.788016  0.064437  1
  Tb  Tb18  1  0.211984  0.423969  0.064437  1
  Tb  Tb19  1  0.576031  0.788016  0.064437  1
  Fe  Fe20  1  0.333333  0.666667  0.250000  1
  Fe  Fe21  1  0.666667  0.333333  0.750000  1
  Hg  Hg22  1  0.881884  0.118116  0.250000  1
  Hg  Hg23  1  0.881884  0.763769  0.250000  1
  Hg  Hg24  1  0.236231  0.118116  0.250000  1
  Hg  Hg25  1  0.118116  0.881884  0.750000  1
  Hg  Hg26  1  0.118116  0.236231  0.750000  1
  Hg  Hg27  1  0.763769  0.881884  0.750000  1
