# generated using pymatgen
data_Cs2K4Al4Sb5As
_symmetry_space_group_name_H-M   'P 1'
_cell_length_a   6.78647500
_cell_length_b   8.13407645
_cell_length_c   11.28772927
_cell_angle_alpha   71.02904140
_cell_angle_beta   90.00000000
_cell_angle_gamma   90.00000000
_symmetry_Int_Tables_number   1
_chemical_formula_structural   Cs2K4Al4Sb5As
_chemical_formula_sum   'Cs2 K4 Al4 Sb5 As1'
_cell_volume   589.25718681
_cell_formula_units_Z   1
loop_
 _symmetry_equiv_pos_site_id
 _symmetry_equiv_pos_as_xyz
  1  'x, y, z'
loop_
 _atom_site_type_symbol
 _atom_site_label
 _atom_site_symmetry_multiplicity
 _atom_site_fract_x
 _atom_site_fract_y
 _atom_site_fract_z
 _atom_site_occupancy
  Cs  Cs0  1  0.750000  0.153202  0.891698  1
  Cs  Cs1  1  0.750000  0.508575  0.153273  1
  K  K2  1  0.250000  0.361985  0.482930  1
  K  K3  1  0.250000  0.520772  0.840564  1
  K  K4  1  0.750000  0.629537  0.512486  1
  K  K5  1  0.250000  0.863112  0.132574  1
  Al  Al6  1  0.987714  0.058939  0.337471  1
  Al  Al7  1  0.501870  0.934605  0.655413  1
  Al  Al8  1  0.512286  0.058939  0.337471  1
  Al  Al9  1  0.998130  0.934605  0.655413  1
  Sb  Sb10  1  0.250000  0.812215  0.499459  1
  Sb  Sb11  1  0.750000  0.190712  0.494105  1
  Sb  Sb12  1  0.250000  0.290258  0.192344  1
  Sb  Sb13  1  0.750000  0.692939  0.797321  1
  Sb  Sb14  1  0.250000  0.065562  0.784799  1
  As  As15  1  0.750000  0.924042  0.232679  1
