# generated using pymatgen
data_Au4Se4BrCl3
_symmetry_space_group_name_H-M   'P 1'
_cell_length_a   7.05827900
_cell_length_b   7.58060521
_cell_length_c   12.12958771
_cell_angle_alpha   90.09428795
_cell_angle_beta   90.00000000
_cell_angle_gamma   90.00000000
_symmetry_Int_Tables_number   1
_chemical_formula_structural   Au4Se4BrCl3
_chemical_formula_sum   'Au8 Se8 Br2 Cl6'
_cell_volume   649.00516379
_cell_formula_units_Z   2
loop_
 _symmetry_equiv_pos_site_id
 _symmetry_equiv_pos_as_xyz
  1  'x, y, z'
loop_
 _atom_site_type_symbol
 _atom_site_label
 _atom_site_symmetry_multiplicity
 _atom_site_fract_x
 _atom_site_fract_y
 _atom_site_fract_z
 _atom_site_occupancy
  Au  Au0  1  0.334524  0.748083  0.750799  1
  Au  Au1  1  0.834359  0.749881  0.750663  1
  Au  Au2  1  0.165476  0.248083  0.250799  1
  Au  Au3  1  0.665641  0.249881  0.250663  1
  Au  Au4  1  0.587607  0.361744  0.749180  1
  Au  Au5  1  0.087505  0.137367  0.752257  1
  Au  Au6  1  0.912393  0.861744  0.249180  1
  Au  Au7  1  0.412495  0.637367  0.252257  1
  Se  Se8  1  0.584427  0.619032  0.876809  1
  Se  Se9  1  0.084812  0.880419  0.625286  1
  Se  Se10  1  0.415522  0.376738  0.378163  1
  Se  Se11  1  0.584395  0.620448  0.623417  1
  Se  Se12  1  0.084478  0.876738  0.878163  1
  Se  Se13  1  0.915573  0.119032  0.376809  1
  Se  Se14  1  0.415188  0.380419  0.125286  1
  Se  Se15  1  0.915605  0.120448  0.123417  1
  Br  Br16  1  0.413979  0.864712  0.101237  1
  Br  Br17  1  0.086021  0.364712  0.601237  1
  Cl  Cl18  1  0.911071  0.644694  0.390182  1
  Cl  Cl19  1  0.087803  0.355021  0.893303  1
  Cl  Cl20  1  0.587605  0.141862  0.608703  1
  Cl  Cl21  1  0.588929  0.144694  0.890182  1
  Cl  Cl22  1  0.412197  0.855021  0.393303  1
  Cl  Cl23  1  0.912395  0.641862  0.108703  1
