# generated using pymatgen
data_SmDy3Er2(Si3Ru)8
_symmetry_space_group_name_H-M   'P 1'
_cell_length_a   10.12428900
_cell_length_b   10.12428858
_cell_length_c   8.15400665
_cell_angle_alpha   90.09008539
_cell_angle_beta   89.90990983
_cell_angle_gamma   132.51729246
_symmetry_Int_Tables_number   1
_chemical_formula_structural   SmDy3Er2(Si3Ru)8
_chemical_formula_sum   'Sm1 Dy3 Er2 Si24 Ru8'
_cell_volume   616.04184133
_cell_formula_units_Z   1
loop_
 _symmetry_equiv_pos_site_id
 _symmetry_equiv_pos_as_xyz
  1  'x, y, z'
loop_
 _atom_site_type_symbol
 _atom_site_label
 _atom_site_symmetry_multiplicity
 _atom_site_fract_x
 _atom_site_fract_y
 _atom_site_fract_z
 _atom_site_occupancy
  Sm  Sm0  1  0.502787  0.002787  0.750000  1
  Dy  Dy1  1  0.997726  0.497726  0.250000  1
  Dy  Dy2  1  0.497344  0.997344  0.250000  1
  Dy  Dy3  1  0.002748  0.502748  0.750000  1
  Er  Er4  1  0.499973  0.500043  0.499950  1
  Er  Er5  1  0.000043  0.999973  0.000050  1
  Si  Si6  1  0.795362  0.206187  0.499013  1
  Si  Si7  1  0.293995  0.704708  0.001073  1
  Si  Si8  1  0.204708  0.793995  0.498927  1
  Si  Si9  1  0.706187  0.295362  0.000987  1
  Si  Si10  1  0.332397  0.332180  0.832942  1
  Si  Si11  1  0.667719  0.667764  0.166884  1
  Si  Si12  1  0.167764  0.167719  0.333116  1
  Si  Si13  1  0.832180  0.832397  0.667058  1
  Si  Si14  1  0.121277  0.887140  0.728344  1
  Si  Si15  1  0.113023  0.879282  0.271627  1
  Si  Si16  1  0.611218  0.377314  0.228143  1
  Si  Si17  1  0.622422  0.388163  0.771024  1
  Si  Si18  1  0.877314  0.111218  0.271857  1
  Si  Si19  1  0.888163  0.122422  0.728976  1
  Si  Si20  1  0.387140  0.621277  0.771656  1
  Si  Si21  1  0.379282  0.613023  0.228373  1
  Si  Si22  1  0.345636  0.112240  0.503667  1
  Si  Si23  1  0.888416  0.655772  0.495587  1
  Si  Si24  1  0.387719  0.153842  0.006186  1
  Si  Si25  1  0.844359  0.611723  0.994973  1
  Si  Si26  1  0.653842  0.887719  0.493814  1
  Si  Si27  1  0.111723  0.344359  0.505027  1
  Si  Si28  1  0.612240  0.845636  0.996333  1
  Si  Si29  1  0.155772  0.388416  0.004413  1
  Ru  Ru30  1  0.670428  0.333665  0.498455  1
  Ru  Ru31  1  0.166325  0.829400  0.000765  1
  Ru  Ru32  1  0.329400  0.666325  0.499235  1
  Ru  Ru33  1  0.833665  0.170428  0.001545  1
  Ru  Ru34  1  0.126173  0.126060  0.627318  1
  Ru  Ru35  1  0.873720  0.873747  0.372957  1
  Ru  Ru36  1  0.373747  0.373720  0.127043  1
  Ru  Ru37  1  0.626060  0.626173  0.872682  1
