# generated using pymatgen
data_Tb15Er(In3Os)2
_symmetry_space_group_name_H-M   'P 1'
_cell_length_a   10.45119300
_cell_length_b   10.45128673
_cell_length_c   7.08812700
_cell_angle_alpha   89.99968059
_cell_angle_beta   89.99977171
_cell_angle_gamma   119.99972928
_symmetry_Int_Tables_number   1
_chemical_formula_structural   Tb15Er(In3Os)2
_chemical_formula_sum   'Tb15 Er1 In6 Os2'
_cell_volume   670.50023940
_cell_formula_units_Z   1
loop_
 _symmetry_equiv_pos_site_id
 _symmetry_equiv_pos_as_xyz
  1  'x, y, z'
loop_
 _atom_site_type_symbol
 _atom_site_label
 _atom_site_symmetry_multiplicity
 _atom_site_fract_x
 _atom_site_fract_y
 _atom_site_fract_z
 _atom_site_occupancy
  Tb  Tb0  1  0.533416  0.066832  0.793672  1
  Tb  Tb1  1  0.933169  0.466584  0.793672  1
  Tb  Tb2  1  0.533417  0.466583  0.793673  1
  Tb  Tb3  1  0.466562  0.933123  0.293637  1
  Tb  Tb4  1  0.066878  0.533439  0.293634  1
  Tb  Tb5  1  0.466560  0.533438  0.293635  1
  Tb  Tb6  1  0.823250  0.646498  0.499710  1
  Tb  Tb7  1  0.353500  0.176750  0.499708  1
  Tb  Tb8  1  0.823250  0.176749  0.499709  1
  Tb  Tb9  1  0.176790  0.353577  0.000561  1
  Tb  Tb10  1  0.646423  0.823210  0.000561  1
  Tb  Tb11  1  0.176789  0.823214  0.000560  1
  Tb  Tb12  1  0.666668  0.333334  0.170125  1
  Tb  Tb13  1  0.333333  0.666666  0.669984  1
  Tb  Tb14  1  0.000001  0.000001  0.779253  1
  Er  Er15  1  0.999992  0.999995  0.278619  1
  In  In16  1  0.837368  0.674737  0.039842  1
  In  In17  1  0.325262  0.162632  0.039842  1
  In  In18  1  0.837371  0.162632  0.039843  1
  In  In19  1  0.162664  0.325328  0.538950  1
  In  In20  1  0.674677  0.837339  0.538949  1
  In  In21  1  0.162659  0.837340  0.538952  1
  Os  Os22  1  0.666667  0.333334  0.569696  1
  Os  Os23  1  0.333335  0.666664  0.069118  1
