# generated using pymatgen
data_TbDy5(Ho3Co2)2
_symmetry_space_group_name_H-M   'P 1'
_cell_length_a   6.19115213
_cell_length_b   6.92385032
_cell_length_c   9.40294600
_cell_angle_alpha   90.00037238
_cell_angle_beta   89.65516743
_cell_angle_gamma   89.98263305
_symmetry_Int_Tables_number   1
_chemical_formula_structural   TbDy5(Ho3Co2)2
_chemical_formula_sum   'Tb1 Dy5 Ho6 Co4'
_cell_volume   403.06510640
_cell_formula_units_Z   1
loop_
 _symmetry_equiv_pos_site_id
 _symmetry_equiv_pos_as_xyz
  1  'x, y, z'
loop_
 _atom_site_type_symbol
 _atom_site_label
 _atom_site_symmetry_multiplicity
 _atom_site_fract_x
 _atom_site_fract_y
 _atom_site_fract_z
 _atom_site_occupancy
  Tb  Tb0  1  0.360543  0.957433  0.750074  1
  Dy  Dy1  1  0.322472  0.675045  0.431311  1
  Dy  Dy2  1  0.177520  0.175737  0.068707  1
  Dy  Dy3  1  0.858518  0.542009  0.249399  1
  Dy  Dy4  1  0.641042  0.042295  0.250588  1
  Dy  Dy5  1  0.139584  0.457486  0.750000  1
  Ho  Ho6  1  0.326092  0.674324  0.067009  1
  Ho  Ho7  1  0.174121  0.175163  0.433050  1
  Ho  Ho8  1  0.674274  0.325710  0.568357  1
  Ho  Ho9  1  0.825981  0.825428  0.931858  1
  Ho  Ho10  1  0.676341  0.324657  0.931876  1
  Ho  Ho11  1  0.823887  0.824328  0.567931  1
  Co  Co12  1  0.049818  0.886738  0.250259  1
  Co  Co13  1  0.450273  0.386649  0.249642  1
  Co  Co14  1  0.948549  0.113659  0.745754  1
  Co  Co15  1  0.550988  0.613341  0.754185  1
