# generated using pymatgen
data_PrTh3(ZnSn)4
_symmetry_space_group_name_H-M   'P 1'
_cell_length_a   4.51001900
_cell_length_b   4.51001836
_cell_length_c   17.16070800
_cell_angle_alpha   90.00000000
_cell_angle_beta   90.00000000
_cell_angle_gamma   120.00001202
_symmetry_Int_Tables_number   1
_chemical_formula_structural   PrTh3(ZnSn)4
_chemical_formula_sum   'Pr1 Th3 Zn4 Sn4'
_cell_volume   302.28908236
_cell_formula_units_Z   1
loop_
 _symmetry_equiv_pos_site_id
 _symmetry_equiv_pos_as_xyz
  1  'x, y, z'
loop_
 _atom_site_type_symbol
 _atom_site_label
 _atom_site_symmetry_multiplicity
 _atom_site_fract_x
 _atom_site_fract_y
 _atom_site_fract_z
 _atom_site_occupancy
  Pr  Pr0  1  0.000000  0.000000  0.000000  1
  Th  Th1  1  0.000000  0.000000  0.500000  1
  Th  Th2  1  0.000000  0.000000  0.249785  1
  Th  Th3  1  0.000000  0.000000  0.750215  1
  Zn  Zn4  1  0.333333  0.666667  0.389960  1
  Zn  Zn5  1  0.666667  0.333333  0.610040  1
  Zn  Zn6  1  0.666667  0.333333  0.848427  1
  Zn  Zn7  1  0.333333  0.666667  0.151573  1
  Sn  Sn8  1  0.333333  0.666667  0.882760  1
  Sn  Sn9  1  0.666667  0.333333  0.117240  1
  Sn  Sn10  1  0.666667  0.333333  0.370575  1
  Sn  Sn11  1  0.333333  0.666667  0.629425  1
