# generated using pymatgen
data_Dy5Lu3Hg4
_symmetry_space_group_name_H-M   'P 1'
_cell_length_a   5.04406800
_cell_length_b   7.10955289
_cell_length_c   9.14355693
_cell_angle_alpha   89.95636879
_cell_angle_beta   90.00000000
_cell_angle_gamma   90.00000000
_symmetry_Int_Tables_number   1
_chemical_formula_structural   Dy5Lu3Hg4
_chemical_formula_sum   'Dy5 Lu3 Hg4'
_cell_volume   327.89762382
_cell_formula_units_Z   1
loop_
 _symmetry_equiv_pos_site_id
 _symmetry_equiv_pos_as_xyz
  1  'x, y, z'
loop_
 _atom_site_type_symbol
 _atom_site_label
 _atom_site_symmetry_multiplicity
 _atom_site_fract_x
 _atom_site_fract_y
 _atom_site_fract_z
 _atom_site_occupancy
  Dy  Dy0  1  0.750000  0.663479  0.424723  1
  Dy  Dy1  1  0.250000  0.483203  0.187880  1
  Dy  Dy2  1  0.250000  0.986281  0.309800  1
  Dy  Dy3  1  0.750000  0.515904  0.810765  1
  Dy  Dy4  1  0.750000  0.016312  0.690450  1
  Lu  Lu5  1  0.250000  0.839585  0.926560  1
  Lu  Lu6  1  0.250000  0.334923  0.575609  1
  Lu  Lu7  1  0.750000  0.162566  0.074048  1
  Hg  Hg8  1  0.250000  0.258202  0.897443  1
  Hg  Hg9  1  0.250000  0.757155  0.606785  1
  Hg  Hg10  1  0.750000  0.744141  0.099391  1
  Hg  Hg11  1  0.750000  0.238248  0.396545  1
