# generated using pymatgen
data_ThP12Os3Ru
_symmetry_space_group_name_H-M   'P 1'
_cell_length_a   7.03617661
_cell_length_b   7.03192837
_cell_length_c   7.03192816
_cell_angle_alpha   109.45897947
_cell_angle_beta   109.48345709
_cell_angle_gamma   109.48345641
_symmetry_Int_Tables_number   1
_chemical_formula_structural   ThP12Os3Ru
_chemical_formula_sum   'Th1 P12 Os3 Ru1'
_cell_volume   267.79231636
_cell_formula_units_Z   1
loop_
 _symmetry_equiv_pos_site_id
 _symmetry_equiv_pos_as_xyz
  1  'x, y, z'
loop_
 _atom_site_type_symbol
 _atom_site_label
 _atom_site_symmetry_multiplicity
 _atom_site_fract_x
 _atom_site_fract_y
 _atom_site_fract_z
 _atom_site_occupancy
  Th  Th0  1  0.000000  0.000000  0.000000  1
  P  P1  1  0.856331  0.644738  0.501112  1
  P  P2  1  0.143669  0.355262  0.498888  1
  P  P3  1  0.144327  0.645482  0.788849  1
  P  P4  1  0.855673  0.354518  0.211151  1
  P  P5  1  0.644780  0.501112  0.856374  1
  P  P6  1  0.355220  0.498888  0.143626  1
  P  P7  1  0.644522  0.788849  0.143367  1
  P  P8  1  0.355478  0.211151  0.856633  1
  P  P9  1  0.501156  0.856633  0.645482  1
  P  P10  1  0.498844  0.143367  0.354518  1
  P  P11  1  0.211593  0.856374  0.355262  1
  P  P12  1  0.788407  0.143626  0.644738  1
  Os  Os13  1  0.500000  0.500000  0.500000  1
  Os  Os14  1  0.000000  0.500000  0.000000  1
  Os  Os15  1  0.000000  0.000000  0.500000  1
  Ru  Ru16  1  0.500000  0.000000  0.000000  1
