# generated using pymatgen
data_Tb2Dy7Cd5Ni4
_symmetry_space_group_name_H-M   'P 1'
_cell_length_a   10.78971492
_cell_length_b   10.78971492
_cell_length_c   3.68340900
_cell_angle_alpha   90.00000000
_cell_angle_beta   90.00000000
_cell_angle_gamma   89.80943729
_symmetry_Int_Tables_number   1
_chemical_formula_structural   Tb2Dy7Cd5Ni4
_chemical_formula_sum   'Tb2 Dy7 Cd5 Ni4'
_cell_volume   428.81254582
_cell_formula_units_Z   1
loop_
 _symmetry_equiv_pos_site_id
 _symmetry_equiv_pos_as_xyz
  1  'x, y, z'
loop_
 _atom_site_type_symbol
 _atom_site_label
 _atom_site_symmetry_multiplicity
 _atom_site_fract_x
 _atom_site_fract_y
 _atom_site_fract_z
 _atom_site_occupancy
  Tb  Tb0  1  0.324741  0.675259  0.500000  1
  Tb  Tb1  1  0.675259  0.324741  0.500000  1
  Dy  Dy2  1  0.324575  0.324575  0.500000  1
  Dy  Dy3  1  0.675425  0.675425  0.500000  1
  Dy  Dy4  1  0.000204  0.282315  0.500000  1
  Dy  Dy5  1  0.999796  0.717685  0.500000  1
  Dy  Dy6  1  0.282315  0.000204  0.500000  1
  Dy  Dy7  1  0.717685  0.999796  0.500000  1
  Dy  Dy8  1  0.000000  0.000000  0.000000  1
  Cd  Cd9  1  0.499703  0.143997  0.000000  1
  Cd  Cd10  1  0.500297  0.856003  0.000000  1
  Cd  Cd11  1  0.143997  0.499703  0.000000  1
  Cd  Cd12  1  0.856003  0.500297  0.000000  1
  Cd  Cd13  1  0.500000  0.500000  0.000000  1
  Ni  Ni14  1  0.189951  0.189951  0.000000  1
  Ni  Ni15  1  0.810049  0.810049  0.000000  1
  Ni  Ni16  1  0.189600  0.810400  0.000000  1
  Ni  Ni17  1  0.810400  0.189600  0.000000  1
