# generated using pymatgen
data_YbLu3(Rh2O7)2
_symmetry_space_group_name_H-M   'P 1'
_cell_length_a   7.13435467
_cell_length_b   7.16692402
_cell_length_c   7.13435400
_cell_angle_alpha   60.15020781
_cell_angle_beta   59.99999383
_cell_angle_gamma   60.15021518
_symmetry_Int_Tables_number   1
_chemical_formula_structural   YbLu3(Rh2O7)2
_chemical_formula_sum   'Yb1 Lu3 Rh4 O14'
_cell_volume   258.52911087
_cell_formula_units_Z   1
loop_
 _symmetry_equiv_pos_site_id
 _symmetry_equiv_pos_as_xyz
  1  'x, y, z'
loop_
 _atom_site_type_symbol
 _atom_site_label
 _atom_site_symmetry_multiplicity
 _atom_site_fract_x
 _atom_site_fract_y
 _atom_site_fract_z
 _atom_site_occupancy
  Yb  Yb0  1  0.125000  0.625000  0.125000  1
  Lu  Lu1  1  0.125000  0.125000  0.125000  1
  Lu  Lu2  1  0.625000  0.125000  0.125000  1
  Lu  Lu3  1  0.125000  0.125000  0.625000  1
  Rh  Rh4  1  0.625000  0.625000  0.625000  1
  Rh  Rh5  1  0.625000  0.625000  0.125000  1
  Rh  Rh6  1  0.125000  0.625000  0.625000  1
  Rh  Rh7  1  0.625000  0.125000  0.625000  1
  O  O8  1  0.253793  0.238620  0.253793  1
  O  O9  1  0.289311  0.720470  0.289311  1
  O  O10  1  0.961818  0.963328  0.537427  1
  O  O11  1  0.537427  0.963328  0.537427  1
  O  O12  1  0.700908  0.720470  0.289311  1
  O  O13  1  0.960689  0.529530  0.549092  1
  O  O14  1  0.712573  0.286672  0.712573  1
  O  O15  1  0.288182  0.286672  0.712573  1
  O  O16  1  0.712573  0.286672  0.288182  1
  O  O17  1  0.289311  0.720470  0.700908  1
  O  O18  1  0.960689  0.529530  0.960689  1
  O  O19  1  0.549092  0.529530  0.960689  1
  O  O20  1  0.996207  0.011380  0.996207  1
  O  O21  1  0.537427  0.963328  0.961818  1
