# generated using pymatgen
data_Dy5Si12Tc3Ni16
_symmetry_space_group_name_H-M   'P 1'
_cell_length_a   12.32052500
_cell_length_b   12.32052456
_cell_length_c   3.79240500
_cell_angle_alpha   90.00000000
_cell_angle_beta   90.00000000
_cell_angle_gamma   119.99999312
_symmetry_Int_Tables_number   1
_chemical_formula_structural   Dy5Si12Tc3Ni16
_chemical_formula_sum   'Dy5 Si12 Tc3 Ni16'
_cell_volume   498.54433480
_cell_formula_units_Z   1
loop_
 _symmetry_equiv_pos_site_id
 _symmetry_equiv_pos_as_xyz
  1  'x, y, z'
loop_
 _atom_site_type_symbol
 _atom_site_label
 _atom_site_symmetry_multiplicity
 _atom_site_fract_x
 _atom_site_fract_y
 _atom_site_fract_z
 _atom_site_occupancy
  Dy  Dy0  1  0.666667  0.333333  0.000000  1
  Dy  Dy1  1  0.333333  0.666667  0.000000  1
  Dy  Dy2  1  0.188490  0.188490  0.500000  1
  Dy  Dy3  1  0.811510  0.000000  0.500000  1
  Dy  Dy4  1  0.000000  0.811510  0.500000  1
  Si  Si5  1  0.370306  0.370306  0.000000  1
  Si  Si6  1  0.629694  0.000000  0.000000  1
  Si  Si7  1  0.000000  0.629694  0.000000  1
  Si  Si8  1  0.838185  0.315242  0.500000  1
  Si  Si9  1  0.684758  0.522943  0.500000  1
  Si  Si10  1  0.477057  0.161815  0.500000  1
  Si  Si11  1  0.315242  0.838185  0.500000  1
  Si  Si12  1  0.522943  0.684758  0.500000  1
  Si  Si13  1  0.161815  0.477057  0.500000  1
  Si  Si14  1  0.818659  0.818659  0.000000  1
  Si  Si15  1  0.181341  0.000000  0.000000  1
  Si  Si16  1  0.000000  0.181341  0.000000  1
  Tc  Tc17  1  0.563820  0.563820  0.000000  1
  Tc  Tc18  1  0.436180  0.000000  0.000000  1
  Tc  Tc19  1  0.000000  0.436180  0.000000  1
  Ni  Ni20  1  0.816806  0.194324  0.000000  1
  Ni  Ni21  1  0.805676  0.622482  0.000000  1
  Ni  Ni22  1  0.377518  0.183194  0.000000  1
  Ni  Ni23  1  0.194324  0.816806  0.000000  1
  Ni  Ni24  1  0.622482  0.805676  0.000000  1
  Ni  Ni25  1  0.183194  0.377518  0.000000  1
  Ni  Ni26  1  0.643147  0.123814  0.500000  1
  Ni  Ni27  1  0.876186  0.519332  0.500000  1
  Ni  Ni28  1  0.480668  0.356853  0.500000  1
  Ni  Ni29  1  0.123814  0.643147  0.500000  1
  Ni  Ni30  1  0.519332  0.876186  0.500000  1
  Ni  Ni31  1  0.356853  0.480668  0.500000  1
  Ni  Ni32  1  0.722966  0.722966  0.500000  1
  Ni  Ni33  1  0.277034  0.000000  0.500000  1
  Ni  Ni34  1  0.000000  0.277034  0.500000  1
  Ni  Ni35  1  0.000000  0.000000  0.000000  1
