# generated using pymatgen
data_Y8Sc12Si15Pt
_symmetry_space_group_name_H-M   'P 1'
_cell_length_a   7.09336406
_cell_length_b   7.44701058
_cell_length_c   14.00248000
_cell_angle_alpha   90.00000000
_cell_angle_beta   90.00000000
_cell_angle_gamma   90.23100112
_symmetry_Int_Tables_number   1
_chemical_formula_structural   Y8Sc12Si15Pt
_chemical_formula_sum   'Y8 Sc12 Si15 Pt1'
_cell_volume   739.66599385
_cell_formula_units_Z   1
loop_
 _symmetry_equiv_pos_site_id
 _symmetry_equiv_pos_as_xyz
  1  'x, y, z'
loop_
 _atom_site_type_symbol
 _atom_site_label
 _atom_site_symmetry_multiplicity
 _atom_site_fract_x
 _atom_site_fract_y
 _atom_site_fract_z
 _atom_site_occupancy
  Y  Y0  1  0.011606  0.177844  0.096519  1
  Y  Y1  1  0.990374  0.821996  0.905314  1
  Y  Y2  1  0.488944  0.676393  0.904719  1
  Y  Y3  1  0.990374  0.821996  0.594686  1
  Y  Y4  1  0.511002  0.323213  0.096850  1
  Y  Y5  1  0.011606  0.177844  0.403481  1
  Y  Y6  1  0.511002  0.323213  0.403150  1
  Y  Y7  1  0.488944  0.676393  0.595281  1
  Sc  Sc8  1  0.158930  0.502546  0.750000  1
  Sc  Sc9  1  0.838351  0.497843  0.250000  1
  Sc  Sc10  1  0.339105  0.004296  0.250000  1
  Sc  Sc11  1  0.665997  0.999482  0.750000  1
  Sc  Sc12  1  0.324012  0.173951  0.625194  1
  Sc  Sc13  1  0.671359  0.825600  0.373484  1
  Sc  Sc14  1  0.170649  0.676971  0.373702  1
  Sc  Sc15  1  0.671359  0.825600  0.126516  1
  Sc  Sc16  1  0.830561  0.323587  0.625195  1
  Sc  Sc17  1  0.324012  0.173951  0.874806  1
  Sc  Sc18  1  0.830561  0.323587  0.874805  1
  Sc  Sc19  1  0.170649  0.676971  0.126298  1
  Si  Si20  1  0.969487  0.884955  0.250000  1
  Si  Si21  1  0.468368  0.615575  0.250000  1
  Si  Si22  1  0.531414  0.386807  0.750000  1
  Si  Si23  1  0.287835  0.868896  0.750000  1
  Si  Si24  1  0.713378  0.129878  0.250000  1
  Si  Si25  1  0.212385  0.372066  0.250000  1
  Si  Si26  1  0.780663  0.625488  0.750000  1
  Si  Si27  1  0.158975  0.466316  0.537894  1
  Si  Si28  1  0.842031  0.535936  0.460527  1
  Si  Si29  1  0.345030  0.965097  0.460467  1
  Si  Si30  1  0.842031  0.535936  0.039473  1
  Si  Si31  1  0.658192  0.034074  0.538607  1
  Si  Si32  1  0.158975  0.466316  0.962106  1
  Si  Si33  1  0.658192  0.034074  0.961393  1
  Si  Si34  1  0.345030  0.965097  0.039533  1
  Pt  Pt35  1  0.028617  0.110210  0.750000  1
