# generated using pymatgen
data_Y5Ho3Ti3Si16Mo9
_symmetry_space_group_name_H-M   'P 1'
_cell_length_a   6.91696812
_cell_length_b   6.91685410
_cell_length_c   12.81472944
_cell_angle_alpha   89.99932141
_cell_angle_beta   89.99526244
_cell_angle_gamma   89.78801744
_symmetry_Int_Tables_number   1
_chemical_formula_structural   Y5Ho3Ti3Si16Mo9
_chemical_formula_sum   'Y5 Ho3 Ti3 Si16 Mo9'
_cell_volume   613.09935097
_cell_formula_units_Z   1
loop_
 _symmetry_equiv_pos_site_id
 _symmetry_equiv_pos_as_xyz
  1  'x, y, z'
loop_
 _atom_site_type_symbol
 _atom_site_label
 _atom_site_symmetry_multiplicity
 _atom_site_fract_x
 _atom_site_fract_y
 _atom_site_fract_z
 _atom_site_occupancy
  Y  Y0  1  0.339849  0.002306  0.468461  1
  Y  Y1  1  0.496521  0.839649  0.719081  1
  Y  Y2  1  0.499947  0.160986  0.217200  1
  Y  Y3  1  0.839705  0.496565  0.280872  1
  Y  Y4  1  0.160996  0.499996  0.782814  1
  Ho  Ho5  1  0.658998  0.999496  0.968777  1
  Ho  Ho6  1  0.001917  0.340241  0.531514  1
  Ho  Ho7  1  0.999500  0.659014  0.031204  1
  Ti  Ti8  1  0.170842  0.830713  0.248406  1
  Ti  Ti9  1  0.830782  0.170982  0.751570  1
  Ti  Ti10  1  0.669613  0.669325  0.500065  1
  Si  Si11  1  0.199598  0.129670  0.683986  1
  Si  Si12  1  0.373758  0.696731  0.934863  1
  Si  Si13  1  0.629181  0.299951  0.434292  1
  Si  Si14  1  0.696726  0.373757  0.065103  1
  Si  Si15  1  0.299413  0.628185  0.565885  1
  Si  Si16  1  0.797690  0.871333  0.184028  1
  Si  Si17  1  0.129060  0.200140  0.315914  1
  Si  Si18  1  0.871329  0.797611  0.815946  1
  Si  Si19  1  0.287146  0.962964  0.061267  1
  Si  Si20  1  0.540418  0.790035  0.313455  1
  Si  Si21  1  0.457883  0.211487  0.815251  1
  Si  Si22  1  0.790540  0.540104  0.686354  1
  Si  Si23  1  0.211473  0.457884  0.184698  1
  Si  Si24  1  0.711328  0.042147  0.563693  1
  Si  Si25  1  0.962962  0.287166  0.938742  1
  Si  Si26  1  0.041647  0.710440  0.436414  1
  Mo  Mo27  1  0.331158  0.331119  0.000006  1
  Mo  Mo28  1  0.155002  0.001944  0.873270  1
  Mo  Mo29  1  0.495972  0.666421  0.124683  1
  Mo  Mo30  1  0.506201  0.340808  0.624804  1
  Mo  Mo31  1  0.666448  0.496009  0.875263  1
  Mo  Mo32  1  0.340592  0.505989  0.375302  1
  Mo  Mo33  1  0.841009  0.993015  0.374407  1
  Mo  Mo34  1  0.001866  0.155011  0.126700  1
  Mo  Mo35  1  0.992932  0.840807  0.625711  1
