# generated using pymatgen
data_AcNd(AgSn)2
_symmetry_space_group_name_H-M   'P 1'
_cell_length_a   4.86045400
_cell_length_b   4.86045381
_cell_length_c   8.09489800
_cell_angle_alpha   90.00000000
_cell_angle_beta   90.00000000
_cell_angle_gamma   119.99998766
_symmetry_Int_Tables_number   1
_chemical_formula_structural   AcNd(AgSn)2
_chemical_formula_sum   'Ac1 Nd1 Ag2 Sn2'
_cell_volume   165.61349577
_cell_formula_units_Z   1
loop_
 _symmetry_equiv_pos_site_id
 _symmetry_equiv_pos_as_xyz
  1  'x, y, z'
loop_
 _atom_site_type_symbol
 _atom_site_label
 _atom_site_symmetry_multiplicity
 _atom_site_fract_x
 _atom_site_fract_y
 _atom_site_fract_z
 _atom_site_occupancy
  Ac  Ac0  1  0.000000  0.000000  0.755411  1
  Nd  Nd1  1  0.000000  0.000000  0.257385  1
  Ag  Ag2  1  0.666667  0.333333  0.001425  1
  Ag  Ag3  1  0.333333  0.666667  0.444493  1
  Sn  Sn4  1  0.333333  0.666667  0.045713  1
  Sn  Sn5  1  0.666667  0.333333  0.515574  1
