# generated using pymatgen
data_MgV2Co5(AsO8)2
_symmetry_space_group_name_H-M   'P 1'
_cell_length_a   8.52181430
_cell_length_b   5.36321620
_cell_length_c   9.06896485
_cell_angle_alpha   61.14461053
_cell_angle_beta   90.58757153
_cell_angle_gamma   90.01633176
_symmetry_Int_Tables_number   1
_chemical_formula_structural   MgV2Co5(AsO8)2
_chemical_formula_sum   'Mg1 V2 Co5 As2 O16'
_cell_volume   363.00377390
_cell_formula_units_Z   1
loop_
 _symmetry_equiv_pos_site_id
 _symmetry_equiv_pos_as_xyz
  1  'x, y, z'
loop_
 _atom_site_type_symbol
 _atom_site_label
 _atom_site_symmetry_multiplicity
 _atom_site_fract_x
 _atom_site_fract_y
 _atom_site_fract_z
 _atom_site_occupancy
  Mg  Mg0  1  0.496481  0.501215  0.996172  1
  V  V1  1  0.302763  0.854329  0.193388  1
  V  V2  1  0.804675  0.148742  0.305464  1
  Co  Co3  1  0.995391  0.499960  0.503756  1
  Co  Co4  1  0.361108  0.486791  0.604304  1
  Co  Co5  1  0.860087  0.512457  0.894605  1
  Co  Co6  1  0.141599  0.496004  0.107030  1
  Co  Co7  1  0.641419  0.504945  0.393940  1
  As  As8  1  0.193387  0.849739  0.694118  1
  As  As9  1  0.695528  0.146400  0.807500  1
  O  O10  1  0.875107  0.319334  0.751043  1
  O  O11  1  0.434545  0.697674  0.365110  1
  O  O12  1  0.640696  0.234114  0.958113  1
  O  O13  1  0.803038  0.776137  0.385006  1
  O  O14  1  0.140949  0.768831  0.537862  1
  O  O15  1  0.372895  0.672117  0.754196  1
  O  O16  1  0.302066  0.225024  0.115157  1
  O  O17  1  0.934447  0.303083  0.136437  1
  O  O18  1  0.067803  0.710090  0.863122  1
  O  O19  1  0.694900  0.783482  0.886876  1
  O  O20  1  0.624152  0.329252  0.241144  1
  O  O21  1  0.866309  0.223482  0.462161  1
  O  O22  1  0.195834  0.213456  0.614463  1
  O  O23  1  0.362931  0.777478  0.038830  1
  O  O24  1  0.569292  0.287656  0.635366  1
  O  O25  1  0.122597  0.678208  0.254836  1
