# generated using pymatgen
data_Nb4Zn2B4Ir3Ru7
_symmetry_space_group_name_H-M   'P 1'
_cell_length_a   9.44464753
_cell_length_b   9.36166756
_cell_length_c   2.97242400
_cell_angle_alpha   90.00000000
_cell_angle_beta   90.00000000
_cell_angle_gamma   90.12440173
_symmetry_Int_Tables_number   1
_chemical_formula_structural   Nb4Zn2B4Ir3Ru7
_chemical_formula_sum   'Nb4 Zn2 B4 Ir3 Ru7'
_cell_volume   262.81412636
_cell_formula_units_Z   1
loop_
 _symmetry_equiv_pos_site_id
 _symmetry_equiv_pos_as_xyz
  1  'x, y, z'
loop_
 _atom_site_type_symbol
 _atom_site_label
 _atom_site_symmetry_multiplicity
 _atom_site_fract_x
 _atom_site_fract_y
 _atom_site_fract_z
 _atom_site_occupancy
  Nb  Nb0  1  0.822040  0.675610  0.000000  1
  Nb  Nb1  1  0.173707  0.322022  0.000000  1
  Nb  Nb2  1  0.323239  0.823579  0.000000  1
  Nb  Nb3  1  0.681325  0.178219  0.000000  1
  Zn  Zn4  1  0.499886  0.499521  0.000000  1
  Zn  Zn5  1  0.999429  0.002616  0.000000  1
  B  B6  1  0.627800  0.879227  0.000000  1
  B  B7  1  0.372444  0.120686  0.000000  1
  B  B8  1  0.126750  0.620872  0.000000  1
  B  B9  1  0.873645  0.375651  0.000000  1
  Ir  Ir10  1  0.567580  0.717081  0.500000  1
  Ir  Ir11  1  0.430149  0.282753  0.500000  1
  Ir  Ir12  1  0.068258  0.784477  0.500000  1
  Ru  Ru13  1  0.931336  0.217625  0.500000  1
  Ru  Ru14  1  0.283199  0.568048  0.500000  1
  Ru  Ru15  1  0.716444  0.433133  0.500000  1
  Ru  Ru16  1  0.216946  0.065975  0.500000  1
  Ru  Ru17  1  0.784479  0.930898  0.500000  1
  Ru  Ru18  1  0.501703  0.001027  0.500000  1
  Ru  Ru19  1  0.999641  0.500980  0.500000  1
