# generated using pymatgen
data_Nd7GdSb20
_symmetry_space_group_name_H-M   'P 1'
_cell_length_a   4.26662200
_cell_length_b   13.52210787
_cell_length_c   15.21335500
_cell_angle_alpha   77.70235424
_cell_angle_beta   90.00000000
_cell_angle_gamma   90.00000000
_symmetry_Int_Tables_number   1
_chemical_formula_structural   Nd7GdSb20
_chemical_formula_sum   'Nd7 Gd1 Sb20'
_cell_volume   857.57532443
_cell_formula_units_Z   1
loop_
 _symmetry_equiv_pos_site_id
 _symmetry_equiv_pos_as_xyz
  1  'x, y, z'
loop_
 _atom_site_type_symbol
 _atom_site_label
 _atom_site_symmetry_multiplicity
 _atom_site_fract_x
 _atom_site_fract_y
 _atom_site_fract_z
 _atom_site_occupancy
  Nd  Nd0  1  0.750000  0.335450  0.145280  1
  Nd  Nd1  1  0.250000  0.949259  0.361259  1
  Nd  Nd2  1  0.250000  0.665006  0.857672  1
  Nd  Nd3  1  0.250000  0.668883  0.575488  1
  Nd  Nd4  1  0.750000  0.049465  0.637607  1
  Nd  Nd5  1  0.750000  0.331353  0.422472  1
  Nd  Nd6  1  0.250000  0.395445  0.773465  1
  Gd  Gd7  1  0.750000  0.604317  0.227136  1
  Sb  Sb8  1  0.750000  0.850793  0.818863  1
  Sb  Sb9  1  0.250000  0.861354  0.674617  1
  Sb  Sb10  1  0.250000  0.142399  0.477521  1
  Sb  Sb11  1  0.750000  0.284135  0.941196  1
  Sb  Sb12  1  0.250000  0.143765  0.778725  1
  Sb  Sb13  1  0.750000  0.574614  0.441919  1
  Sb  Sb14  1  0.750000  0.137251  0.325192  1
  Sb  Sb15  1  0.250000  0.706597  0.350510  1
  Sb  Sb16  1  0.750000  0.292671  0.646882  1
  Sb  Sb17  1  0.750000  0.854108  0.219457  1
  Sb  Sb18  1  0.250000  0.420889  0.976668  1
  Sb  Sb19  1  0.250000  0.425126  0.555750  1
  Sb  Sb20  1  0.750000  0.578124  0.735040  1
  Sb  Sb21  1  0.250000  0.427285  0.264288  1
  Sb  Sb22  1  0.750000  0.857416  0.521442  1
  Sb  Sb23  1  0.750000  0.030069  0.889165  1
  Sb  Sb24  1  0.250000  0.715812  0.064356  1
  Sb  Sb25  1  0.250000  0.969688  0.109801  1
  Sb  Sb26  1  0.250000  0.148751  0.180957  1
  Sb  Sb27  1  0.750000  0.579974  0.027269  1
