# generated using pymatgen
data_Yb3HoEr4(B6Os)4
_symmetry_space_group_name_H-M   'P 1'
_cell_length_a   3.63185900
_cell_length_b   9.12768426
_cell_length_c   11.51815701
_cell_angle_alpha   89.93031325
_cell_angle_beta   90.00000000
_cell_angle_gamma   90.00000000
_symmetry_Int_Tables_number   1
_chemical_formula_structural   Yb3HoEr4(B6Os)4
_chemical_formula_sum   'Yb3 Ho1 Er4 B24 Os4'
_cell_volume   381.83194644
_cell_formula_units_Z   1
loop_
 _symmetry_equiv_pos_site_id
 _symmetry_equiv_pos_as_xyz
  1  'x, y, z'
loop_
 _atom_site_type_symbol
 _atom_site_label
 _atom_site_symmetry_multiplicity
 _atom_site_fract_x
 _atom_site_fract_y
 _atom_site_fract_z
 _atom_site_occupancy
  Yb  Yb0  1  0.000000  0.324604  0.414433  1
  Yb  Yb1  1  0.000000  0.675394  0.585176  1
  Yb  Yb2  1  0.000000  0.823254  0.086276  1
  Ho  Ho3  1  0.000000  0.175965  0.914864  1
  Er  Er4  1  0.000000  0.941429  0.367855  1
  Er  Er5  1  0.000000  0.057717  0.630422  1
  Er  Er6  1  0.000000  0.443288  0.131802  1
  Er  Er7  1  0.000000  0.558407  0.868919  1
  B  B8  1  0.500000  0.553235  0.433189  1
  B  B9  1  0.500000  0.446173  0.567639  1
  B  B10  1  0.500000  0.053695  0.066654  1
  B  B11  1  0.500000  0.946069  0.933453  1
  B  B12  1  0.500000  0.748516  0.417532  1
  B  B13  1  0.500000  0.251287  0.582511  1
  B  B14  1  0.500000  0.249037  0.081752  1
  B  B15  1  0.500000  0.751693  0.917990  1
  B  B16  1  0.500000  0.790874  0.264308  1
  B  B17  1  0.500000  0.208558  0.735856  1
  B  B18  1  0.500000  0.291212  0.234628  1
  B  B19  1  0.500000  0.709908  0.765083  1
  B  B20  1  0.500000  0.631086  0.186030  1
  B  B21  1  0.500000  0.368831  0.815054  1
  B  B22  1  0.500000  0.131136  0.313425  1
  B  B23  1  0.500000  0.869302  0.685421  1
  B  B24  1  0.500000  0.982740  0.210743  1
  B  B25  1  0.500000  0.017259  0.788385  1
  B  B26  1  0.500000  0.483389  0.288791  1
  B  B27  1  0.500000  0.516384  0.711988  1
  B  B28  1  0.500000  0.599294  0.027539  1
  B  B29  1  0.500000  0.399953  0.972485  1
  B  B30  1  0.500000  0.097349  0.472527  1
  B  B31  1  0.500000  0.902552  0.526483  1
  Os  Os32  1  0.000000  0.638540  0.320850  1
  Os  Os33  1  0.000000  0.360132  0.680688  1
  Os  Os34  1  0.000000  0.138476  0.178670  1
  Os  Os35  1  0.000000  0.863263  0.820576  1
