# generated using pymatgen
data_Er16TlIn3(PtRh)2
_symmetry_space_group_name_H-M   'P 1'
_cell_length_a   9.60634035
_cell_length_b   9.62042017
_cell_length_c   9.62036780
_cell_angle_alpha   60.08259750
_cell_angle_beta   60.04821807
_cell_angle_gamma   60.04840572
_symmetry_Int_Tables_number   1
_chemical_formula_structural   Er16TlIn3(PtRh)2
_chemical_formula_sum   'Er16 Tl1 In3 Pt2 Rh2'
_cell_volume   629.52966687
_cell_formula_units_Z   1
loop_
 _symmetry_equiv_pos_site_id
 _symmetry_equiv_pos_as_xyz
  1  'x, y, z'
loop_
 _atom_site_type_symbol
 _atom_site_label
 _atom_site_symmetry_multiplicity
 _atom_site_fract_x
 _atom_site_fract_y
 _atom_site_fract_z
 _atom_site_occupancy
  Er  Er0  1  0.192557  0.187084  0.810007  1
  Er  Er1  1  0.438345  0.062116  0.061195  1
  Er  Er2  1  0.437521  0.062837  0.438422  1
  Er  Er3  1  0.062037  0.437984  0.062761  1
  Er  Er4  1  0.649068  0.050216  0.651647  1
  Er  Er5  1  0.188756  0.810542  0.811946  1
  Er  Er6  1  0.061219  0.062837  0.438422  1
  Er  Er7  1  0.809425  0.190459  0.190692  1
  Er  Er8  1  0.811487  0.809608  0.186815  1
  Er  Er9  1  0.649284  0.651295  0.050138  1
  Er  Er10  1  0.647020  0.650357  0.650947  1
  Er  Er11  1  0.062540  0.437378  0.437542  1
  Er  Er12  1  0.051677  0.650357  0.650947  1
  Er  Er13  1  0.810352  0.187084  0.810007  1
  Er  Er14  1  0.437217  0.437984  0.062761  1
  Er  Er15  1  0.192090  0.809608  0.186815  1
  Tl  Tl16  1  0.415513  0.753739  0.415236  1
  In  In17  1  0.416968  0.416158  0.749905  1
  In  In18  1  0.751013  0.415897  0.416511  1
  In  In19  1  0.416578  0.415897  0.416511  1
  Pt  Pt20  1  0.857359  0.427774  0.857507  1
  Pt  Pt21  1  0.857341  0.857490  0.427827  1
  Rh  Rh22  1  0.427097  0.857648  0.857718  1
  Rh  Rh23  1  0.857537  0.857648  0.857718  1
