# generated using pymatgen
data_Dy2Ni2B6Ir
_symmetry_space_group_name_H-M   'P 1'
_cell_length_a   3.49554600
_cell_length_b   5.88112736
_cell_length_c   5.88112806
_cell_angle_alpha   94.74609717
_cell_angle_beta   90.00000000
_cell_angle_gamma   90.00000000
_symmetry_Int_Tables_number   1
_chemical_formula_structural   Dy2Ni2B6Ir
_chemical_formula_sum   'Dy2 Ni2 B6 Ir1'
_cell_volume   120.48820894
_cell_formula_units_Z   1
loop_
 _symmetry_equiv_pos_site_id
 _symmetry_equiv_pos_as_xyz
  1  'x, y, z'
loop_
 _atom_site_type_symbol
 _atom_site_label
 _atom_site_symmetry_multiplicity
 _atom_site_fract_x
 _atom_site_fract_y
 _atom_site_fract_z
 _atom_site_occupancy
  Dy  Dy0  1  0.000000  0.274116  0.725884  1
  Dy  Dy1  1  0.000000  0.725884  0.274116  1
  Ni  Ni2  1  0.000000  0.763950  0.763950  1
  Ni  Ni3  1  0.000000  0.236050  0.236050  1
  B  B4  1  0.500000  0.911868  0.612683  1
  B  B5  1  0.500000  0.088132  0.387317  1
  B  B6  1  0.500000  0.612683  0.911868  1
  B  B7  1  0.500000  0.387317  0.088132  1
  B  B8  1  0.500000  0.609515  0.609515  1
  B  B9  1  0.500000  0.390485  0.390485  1
  Ir  Ir10  1  0.500000  0.000000  0.000000  1
