# generated using pymatgen
data_Yb3Dy(ReOs3)2
_symmetry_space_group_name_H-M   'P 1'
_cell_length_a   5.43452100
_cell_length_b   5.43452054
_cell_length_c   8.43696000
_cell_angle_alpha   90.00000000
_cell_angle_beta   90.00000000
_cell_angle_gamma   119.99999672
_symmetry_Int_Tables_number   1
_chemical_formula_structural   Yb3Dy(ReOs3)2
_chemical_formula_sum   'Yb3 Dy1 Re2 Os6'
_cell_volume   215.79388902
_cell_formula_units_Z   1
loop_
 _symmetry_equiv_pos_site_id
 _symmetry_equiv_pos_as_xyz
  1  'x, y, z'
loop_
 _atom_site_type_symbol
 _atom_site_label
 _atom_site_symmetry_multiplicity
 _atom_site_fract_x
 _atom_site_fract_y
 _atom_site_fract_z
 _atom_site_occupancy
  Yb  Yb0  1  0.666667  0.333333  0.572028  1
  Yb  Yb1  1  0.666667  0.333333  0.932421  1
  Yb  Yb2  1  0.333333  0.666667  0.061307  1
  Dy  Dy3  1  0.333333  0.666667  0.431393  1
  Re  Re4  1  0.000000  0.000000  0.499000  1
  Re  Re5  1  0.000000  0.000000  0.003565  1
  Os  Os6  1  0.826788  0.173212  0.250357  1
  Os  Os7  1  0.826788  0.653577  0.250357  1
  Os  Os8  1  0.346423  0.173212  0.250357  1
  Os  Os9  1  0.172362  0.827638  0.749739  1
  Os  Os10  1  0.172362  0.344722  0.749739  1
  Os  Os11  1  0.655278  0.827638  0.749739  1
