# generated using pymatgen
data_Fe6Si2MoW3
_symmetry_space_group_name_H-M   'P 1'
_cell_length_a   4.74576100
_cell_length_b   4.74576024
_cell_length_c   7.70001500
_cell_angle_alpha   90.00000000
_cell_angle_beta   90.00000000
_cell_angle_gamma   119.99999831
_symmetry_Int_Tables_number   1
_chemical_formula_structural   Fe6Si2MoW3
_chemical_formula_sum   'Fe6 Si2 Mo1 W3'
_cell_volume   150.18752728
_cell_formula_units_Z   1
loop_
 _symmetry_equiv_pos_site_id
 _symmetry_equiv_pos_as_xyz
  1  'x, y, z'
loop_
 _atom_site_type_symbol
 _atom_site_label
 _atom_site_symmetry_multiplicity
 _atom_site_fract_x
 _atom_site_fract_y
 _atom_site_fract_z
 _atom_site_occupancy
  Fe  Fe0  1  0.829045  0.170955  0.249555  1
  Fe  Fe1  1  0.829045  0.658091  0.249555  1
  Fe  Fe2  1  0.341909  0.170955  0.249555  1
  Fe  Fe3  1  0.170852  0.829148  0.750217  1
  Fe  Fe4  1  0.170852  0.341702  0.750217  1
  Fe  Fe5  1  0.658298  0.829148  0.750217  1
  Si  Si6  1  0.000000  0.000000  0.499670  1
  Si  Si7  1  0.000000  0.000000  0.999969  1
  Mo  Mo8  1  0.333333  0.666667  0.436166  1
  W  W9  1  0.666667  0.333333  0.564474  1
  W  W10  1  0.666667  0.333333  0.934798  1
  W  W11  1  0.333333  0.666667  0.065605  1
