# generated using pymatgen
data_Yb20IrPt11
_symmetry_space_group_name_H-M   'P 1'
_cell_length_a   6.37076500
_cell_length_b   10.99331400
_cell_length_c   10.99331400
_cell_angle_alpha   90.00000000
_cell_angle_beta   90.00000000
_cell_angle_gamma   90.00000000
_symmetry_Int_Tables_number   1
_chemical_formula_structural   Yb20IrPt11
_chemical_formula_sum   'Yb20 Ir1 Pt11'
_cell_volume   769.92576122
_cell_formula_units_Z   1
loop_
 _symmetry_equiv_pos_site_id
 _symmetry_equiv_pos_as_xyz
  1  'x, y, z'
loop_
 _atom_site_type_symbol
 _atom_site_label
 _atom_site_symmetry_multiplicity
 _atom_site_fract_x
 _atom_site_fract_y
 _atom_site_fract_z
 _atom_site_occupancy
  Yb  Yb0  1  0.364517  0.836178  0.541667  1
  Yb  Yb1  1  0.864140  0.663366  0.541432  1
  Yb  Yb2  1  0.864140  0.836634  0.958568  1
  Yb  Yb3  1  0.364517  0.663822  0.958333  1
  Yb  Yb4  1  0.864140  0.541432  0.836634  1
  Yb  Yb5  1  0.364517  0.958333  0.836178  1
  Yb  Yb6  1  0.364517  0.541667  0.663822  1
  Yb  Yb7  1  0.864140  0.958568  0.663366  1
  Yb  Yb8  1  0.630521  0.164719  0.455834  1
  Yb  Yb9  1  0.138939  0.335049  0.456625  1
  Yb  Yb10  1  0.138939  0.164951  0.043376  1
  Yb  Yb11  1  0.630521  0.335281  0.044167  1
  Yb  Yb12  1  0.138939  0.456625  0.164951  1
  Yb  Yb13  1  0.630521  0.044167  0.164719  1
  Yb  Yb14  1  0.630521  0.455834  0.335281  1
  Yb  Yb15  1  0.138939  0.043376  0.335049  1
  Yb  Yb16  1  0.501158  0.750000  0.250000  1
  Yb  Yb17  1  0.000497  0.750000  0.250000  1
  Yb  Yb18  1  0.000497  0.250000  0.750000  1
  Yb  Yb19  1  0.501158  0.250000  0.750000  1
  Ir  Ir20  1  0.387329  0.250000  0.250000  1
  Pt  Pt21  1  0.250551  0.901833  0.095544  1
  Pt  Pt22  1  0.751097  0.596883  0.096382  1
  Pt  Pt23  1  0.751097  0.903117  0.403618  1
  Pt  Pt24  1  0.250551  0.598167  0.404456  1
  Pt  Pt25  1  0.751097  0.096382  0.903117  1
  Pt  Pt26  1  0.250551  0.404456  0.901833  1
  Pt  Pt27  1  0.250551  0.095544  0.598167  1
  Pt  Pt28  1  0.751097  0.403618  0.596883  1
  Pt  Pt29  1  0.110928  0.750000  0.750000  1
  Pt  Pt30  1  0.611427  0.750000  0.750000  1
  Pt  Pt31  1  0.887949  0.250000  0.250000  1
