# generated using pymatgen
data_Y2Ho3Hf5(Si5Ir2)4
_symmetry_space_group_name_H-M   'P 1'
_cell_length_a   12.48307384
_cell_length_b   12.48313784
_cell_length_c   4.16310900
_cell_angle_alpha   90.00000000
_cell_angle_beta   90.00000000
_cell_angle_gamma   90.04197432
_symmetry_Int_Tables_number   1
_chemical_formula_structural   Y2Ho3Hf5(Si5Ir2)4
_chemical_formula_sum   'Y2 Ho3 Hf5 Si20 Ir8'
_cell_volume   648.72848936
_cell_formula_units_Z   1
loop_
 _symmetry_equiv_pos_site_id
 _symmetry_equiv_pos_as_xyz
  1  'x, y, z'
loop_
 _atom_site_type_symbol
 _atom_site_label
 _atom_site_symmetry_multiplicity
 _atom_site_fract_x
 _atom_site_fract_y
 _atom_site_fract_z
 _atom_site_occupancy
  Y  Y0  1  0.884114  0.384709  0.500000  1
  Y  Y1  1  0.115886  0.615291  0.500000  1
  Ho  Ho2  1  0.000000  0.000000  0.000000  1
  Ho  Ho3  1  0.384699  0.115895  0.500000  1
  Ho  Ho4  1  0.615301  0.884105  0.500000  1
  Hf  Hf5  1  0.500000  0.500000  0.000000  1
  Hf  Hf6  1  0.673668  0.175169  0.500000  1
  Hf  Hf7  1  0.326332  0.824831  0.500000  1
  Hf  Hf8  1  0.175374  0.326126  0.500000  1
  Hf  Hf9  1  0.824626  0.673874  0.500000  1
  Si  Si10  1  0.565782  0.067870  0.000000  1
  Si  Si11  1  0.434218  0.932130  0.000000  1
  Si  Si12  1  0.068031  0.434040  0.000000  1
  Si  Si13  1  0.931969  0.565960  0.000000  1
  Si  Si14  1  0.665507  0.701607  0.000000  1
  Si  Si15  1  0.334493  0.298393  0.000000  1
  Si  Si16  1  0.163930  0.800671  0.000000  1
  Si  Si17  1  0.836070  0.199329  0.000000  1
  Si  Si18  1  0.298608  0.665542  0.000000  1
  Si  Si19  1  0.701392  0.334458  0.000000  1
  Si  Si20  1  0.199539  0.163891  0.000000  1
  Si  Si21  1  0.800461  0.836109  0.000000  1
  Si  Si22  1  0.650984  0.508080  0.500000  1
  Si  Si23  1  0.349016  0.491920  0.500000  1
  Si  Si24  1  0.156657  0.992710  0.500000  1
  Si  Si25  1  0.843343  0.007290  0.500000  1
  Si  Si26  1  0.491969  0.651086  0.500000  1
  Si  Si27  1  0.508031  0.348914  0.500000  1
  Si  Si28  1  0.007352  0.156539  0.500000  1
  Si  Si29  1  0.992648  0.843461  0.500000  1
  Ir  Ir30  1  0.741672  0.521918  0.000000  1
  Ir  Ir31  1  0.258328  0.478082  0.000000  1
  Ir  Ir32  1  0.246623  0.977949  0.000000  1
  Ir  Ir33  1  0.753377  0.022051  0.000000  1
  Ir  Ir34  1  0.478337  0.741989  0.000000  1
  Ir  Ir35  1  0.521663  0.258011  0.000000  1
  Ir  Ir36  1  0.022330  0.246277  0.000000  1
  Ir  Ir37  1  0.977670  0.753723  0.000000  1
