# generated using pymatgen
data_Y12InCoNi3Rh
_symmetry_space_group_name_H-M   'P 1'
_cell_length_a   8.37422492
_cell_length_b   8.37422512
_cell_length_c   8.37422539
_cell_angle_alpha   110.98180838
_cell_angle_beta   109.78691716
_cell_angle_gamma   107.66225539
_symmetry_Int_Tables_number   1
_chemical_formula_structural   Y12InCoNi3Rh
_chemical_formula_sum   'Y12 In1 Co1 Ni3 Rh1'
_cell_volume   451.68910775
_cell_formula_units_Z   1
loop_
 _symmetry_equiv_pos_site_id
 _symmetry_equiv_pos_as_xyz
  1  'x, y, z'
loop_
 _atom_site_type_symbol
 _atom_site_label
 _atom_site_symmetry_multiplicity
 _atom_site_fract_x
 _atom_site_fract_y
 _atom_site_fract_z
 _atom_site_occupancy
  Y  Y0  1  0.405054  0.212913  0.192141  1
  Y  Y1  1  0.594460  0.786472  0.807988  1
  Y  Y2  1  0.020773  0.212913  0.807859  1
  Y  Y3  1  0.978483  0.786472  0.192012  1
  Y  Y4  1  0.183296  0.291549  0.478251  1
  Y  Y5  1  0.813298  0.705045  0.521749  1
  Y  Y6  1  0.183296  0.705045  0.891748  1
  Y  Y7  1  0.813298  0.291549  0.108252  1
  Y  Y8  1  0.319851  0.623123  0.303273  1
  Y  Y9  1  0.683745  0.378310  0.694564  1
  Y  Y10  1  0.319851  0.016578  0.696727  1
  Y  Y11  1  0.683745  0.989181  0.305436  1
  In  In12  1  0.499707  0.499707  0.000000  1
  Co  Co13  1  0.885475  0.385475  0.500000  1
  Ni  Ni14  1  0.369356  0.999462  0.369894  1
  Ni  Ni15  1  0.629568  0.999462  0.630106  1
  Ni  Ni16  1  0.117895  0.617895  0.500000  1
  Rh  Rh17  1  0.998851  0.998851  0.000000  1
