# generated using pymatgen
data_Er4Tm4B24RuW3
_symmetry_space_group_name_H-M   'P 1'
_cell_length_a   3.58447700
_cell_length_b   9.21555075
_cell_length_c   11.60946671
_cell_angle_alpha   89.89671508
_cell_angle_beta   90.00000000
_cell_angle_gamma   90.00000000
_symmetry_Int_Tables_number   1
_chemical_formula_structural   Er4Tm4B24RuW3
_chemical_formula_sum   'Er4 Tm4 B24 Ru1 W3'
_cell_volume   383.49407457
_cell_formula_units_Z   1
loop_
 _symmetry_equiv_pos_site_id
 _symmetry_equiv_pos_as_xyz
  1  'x, y, z'
loop_
 _atom_site_type_symbol
 _atom_site_label
 _atom_site_symmetry_multiplicity
 _atom_site_fract_x
 _atom_site_fract_y
 _atom_site_fract_z
 _atom_site_occupancy
  Er  Er0  1  0.000000  0.320993  0.413377  1
  Er  Er1  1  0.000000  0.678354  0.585686  1
  Er  Er2  1  0.000000  0.821082  0.085501  1
  Er  Er3  1  0.000000  0.178077  0.913492  1
  Tm  Tm4  1  0.000000  0.944089  0.373162  1
  Tm  Tm5  1  0.000000  0.054366  0.630179  1
  Tm  Tm6  1  0.000000  0.445280  0.126573  1
  Tm  Tm7  1  0.000000  0.559343  0.871039  1
  B  B8  1  0.500000  0.550997  0.435028  1
  B  B9  1  0.500000  0.448272  0.565492  1
  B  B10  1  0.500000  0.050089  0.063369  1
  B  B11  1  0.500000  0.945086  0.931878  1
  B  B12  1  0.500000  0.751710  0.422423  1
  B  B13  1  0.500000  0.247589  0.578889  1
  B  B14  1  0.500000  0.252829  0.077364  1
  B  B15  1  0.500000  0.751763  0.918305  1
  B  B16  1  0.500000  0.795353  0.264533  1
  B  B17  1  0.500000  0.203994  0.737479  1
  B  B18  1  0.500000  0.294859  0.235648  1
  B  B19  1  0.500000  0.709464  0.765434  1
  B  B20  1  0.500000  0.631927  0.182478  1
  B  B21  1  0.500000  0.369461  0.818088  1
  B  B22  1  0.500000  0.130619  0.316853  1
  B  B23  1  0.500000  0.868717  0.686029  1
  B  B24  1  0.500000  0.977890  0.212711  1
  B  B25  1  0.500000  0.015969  0.788166  1
  B  B26  1  0.500000  0.478246  0.286681  1
  B  B27  1  0.500000  0.522944  0.712833  1
  B  B28  1  0.500000  0.603415  0.027061  1
  B  B29  1  0.500000  0.400462  0.971376  1
  B  B30  1  0.500000  0.100782  0.472803  1
  B  B31  1  0.500000  0.897526  0.530064  1
  Ru  Ru32  1  0.000000  0.860737  0.820334  1
  W  W33  1  0.000000  0.639089  0.320255  1
  W  W34  1  0.000000  0.360131  0.681026  1
  W  W35  1  0.000000  0.138496  0.178392  1
