# generated using pymatgen
data_Ho(ThH5)3
_symmetry_space_group_name_H-M   'P 1'
_cell_length_a   7.82412291
_cell_length_b   7.82058796
_cell_length_c   7.78974594
_cell_angle_alpha   109.44759897
_cell_angle_beta   109.46603471
_cell_angle_gamma   109.66892320
_symmetry_Int_Tables_number   1
_chemical_formula_structural   Ho(ThH5)3
_chemical_formula_sum   'Ho2 Th6 H30'
_cell_volume   366.15622589
_cell_formula_units_Z   2
loop_
 _symmetry_equiv_pos_site_id
 _symmetry_equiv_pos_as_xyz
  1  'x, y, z'
loop_
 _atom_site_type_symbol
 _atom_site_label
 _atom_site_symmetry_multiplicity
 _atom_site_fract_x
 _atom_site_fract_y
 _atom_site_fract_z
 _atom_site_occupancy
  Ho  Ho0  1  0.913778  0.914791  0.915439  1
  Ho  Ho1  1  0.498338  0.999351  0.084561  1
  Th  Th2  1  0.993942  0.079851  0.494804  1
  Th  Th3  1  0.085445  0.504732  0.001014  1
  Th  Th4  1  0.999139  0.585048  0.505196  1
  Th  Th5  1  0.584431  0.503718  0.998986  1
  Th  Th6  1  0.504207  0.998647  0.588132  1
  Th  Th7  1  0.416075  0.410515  0.411868  1
  H  H8  1  0.650445  0.965074  0.369621  1
  H  H9  1  0.218309  0.316505  0.846166  1
  H  H10  1  0.186250  0.403748  0.533924  1
  H  H11  1  0.095452  0.279189  0.124892  1
  H  H12  1  0.281633  0.121689  0.092888  1
  H  H13  1  0.124035  0.092858  0.275874  1
  H  H14  1  0.470561  0.154297  0.875108  1
  H  H15  1  0.719501  0.350197  0.813887  1
  H  H16  1  0.627563  0.379840  0.251121  1
  H  H17  1  0.250260  0.624392  0.376039  1
  H  H18  1  0.750164  0.872783  0.126573  1
  H  H19  1  0.123592  0.746211  0.873427  1
  H  H20  1  0.374221  0.248353  0.623961  1
  H  H21  1  0.876442  0.128719  0.748879  1
  H  H22  1  0.780824  0.595453  0.630379  1
  H  H23  1  0.318187  0.848915  0.221071  1
  H  H24  1  0.374673  0.659294  0.968175  1
  H  H25  1  0.964453  0.369124  0.650946  1
  H  H26  1  0.535795  0.184993  0.405131  1
  H  H27  1  0.405614  0.536310  0.186113  1
  H  H28  1  0.839602  0.217073  0.311694  1
  H  H29  1  0.906498  0.691119  0.031825  1
  H  H30  1  0.813507  0.718179  0.349054  1
  H  H31  1  0.152326  0.869824  0.466076  1
  H  H32  1  0.688745  0.028801  0.907112  1
  H  H33  1  0.348162  0.816984  0.724126  1
  H  H34  1  0.872142  0.470339  0.153834  1
  H  H35  1  0.630665  0.779862  0.594869  1
  H  H36  1  0.597116  0.627844  0.778929  1
  H  H37  1  0.027908  0.905380  0.688306  1
