# generated using pymatgen
data_TiNb3P4(RuRh)2
_symmetry_space_group_name_H-M   'P 1'
_cell_length_a   3.72479100
_cell_length_b   6.37013860
_cell_length_c   7.22544923
_cell_angle_alpha   90.81649306
_cell_angle_beta   90.00000000
_cell_angle_gamma   90.00000000
_symmetry_Int_Tables_number   1
_chemical_formula_structural   TiNb3P4(RuRh)2
_chemical_formula_sum   'Ti1 Nb3 P4 Ru2 Rh2'
_cell_volume   171.42396885
_cell_formula_units_Z   1
loop_
 _symmetry_equiv_pos_site_id
 _symmetry_equiv_pos_as_xyz
  1  'x, y, z'
loop_
 _atom_site_type_symbol
 _atom_site_label
 _atom_site_symmetry_multiplicity
 _atom_site_fract_x
 _atom_site_fract_y
 _atom_site_fract_z
 _atom_site_occupancy
  Ti  Ti0  1  0.250000  0.025121  0.823421  1
  Nb  Nb1  1  0.250000  0.527410  0.667400  1
  Nb  Nb2  1  0.750000  0.975042  0.173474  1
  Nb  Nb3  1  0.750000  0.471587  0.331625  1
  P  P4  1  0.250000  0.768295  0.378335  1
  P  P5  1  0.250000  0.259312  0.126331  1
  P  P6  1  0.750000  0.230861  0.624602  1
  P  P7  1  0.750000  0.742934  0.873061  1
  Ru  Ru8  1  0.250000  0.145359  0.439620  1
  Ru  Ru9  1  0.750000  0.858171  0.564600  1
  Rh  Rh10  1  0.250000  0.645484  0.061364  1
  Rh  Rh11  1  0.750000  0.350424  0.936167  1
