# generated using pymatgen
data_Nd2Ho3ErTa2O14
_symmetry_space_group_name_H-M   'P 1'
_cell_length_a   6.49560633
_cell_length_b   6.49592737
_cell_length_c   7.59058201
_cell_angle_alpha   89.99483582
_cell_angle_beta   89.99750300
_cell_angle_gamma   109.15015355
_symmetry_Int_Tables_number   1
_chemical_formula_structural   Nd2Ho3ErTa2O14
_chemical_formula_sum   'Nd2 Ho3 Er1 Ta2 O14'
_cell_volume   302.56064145
_cell_formula_units_Z   1
loop_
 _symmetry_equiv_pos_site_id
 _symmetry_equiv_pos_as_xyz
  1  'x, y, z'
loop_
 _atom_site_type_symbol
 _atom_site_label
 _atom_site_symmetry_multiplicity
 _atom_site_fract_x
 _atom_site_fract_y
 _atom_site_fract_z
 _atom_site_occupancy
  Nd  Nd0  1  0.513390  0.513064  0.499783  1
  Nd  Nd1  1  0.487379  0.487396  0.000254  1
  Ho  Ho2  1  0.999118  0.466662  0.746368  1
  Ho  Ho3  1  0.533783  0.000838  0.753730  1
  Ho  Ho4  1  0.466137  0.999221  0.253720  1
  Er  Er5  1  0.000962  0.533208  0.246189  1
  Ta  Ta6  1  0.001541  0.001728  0.499759  1
  Ta  Ta7  1  0.998336  0.998430  0.000203  1
  O  O8  1  0.934841  0.065359  0.750023  1
  O  O9  1  0.065439  0.934261  0.249980  1
  O  O10  1  0.355509  0.643622  0.250111  1
  O  O11  1  0.643594  0.356840  0.750015  1
  O  O12  1  0.363069  0.636592  0.750010  1
  O  O13  1  0.638416  0.363917  0.249879  1
  O  O14  1  0.323393  0.073203  0.971167  1
  O  O15  1  0.676356  0.926905  0.470907  1
  O  O16  1  0.316445  0.063213  0.537177  1
  O  O17  1  0.683260  0.936777  0.037421  1
  O  O18  1  0.062337  0.316289  0.461706  1
  O  O19  1  0.937138  0.683063  0.963422  1
  O  O20  1  0.927115  0.676189  0.528218  1
  O  O21  1  0.072443  0.323221  0.029959  1
