# generated using pymatgen
data_Nd5TaRuO12
_symmetry_space_group_name_H-M   'P 1'
_cell_length_a   7.06926521
_cell_length_b   7.06926594
_cell_length_c   7.75170317
_cell_angle_alpha   74.10976408
_cell_angle_beta   74.10976523
_cell_angle_gamma   50.34467773
_symmetry_Int_Tables_number   1
_chemical_formula_structural   Nd5TaRuO12
_chemical_formula_sum   'Nd5 Ta1 Ru1 O12'
_cell_volume   284.27318228
_cell_formula_units_Z   1
loop_
 _symmetry_equiv_pos_site_id
 _symmetry_equiv_pos_as_xyz
  1  'x, y, z'
loop_
 _atom_site_type_symbol
 _atom_site_label
 _atom_site_symmetry_multiplicity
 _atom_site_fract_x
 _atom_site_fract_y
 _atom_site_fract_z
 _atom_site_occupancy
  Nd  Nd0  1  0.302096  0.310357  0.358920  1
  Nd  Nd1  1  0.689643  0.697904  0.641080  1
  Nd  Nd2  1  0.685266  0.695308  0.169734  1
  Nd  Nd3  1  0.304692  0.314734  0.830266  1
  Nd  Nd4  1  0.999511  0.000489  0.500000  1
  Ta  Ta5  1  0.785401  0.214599  0.000000  1
  Ru  Ru6  1  0.247273  0.752727  0.000000  1
  O  O7  1  0.092657  0.596758  0.577002  1
  O  O8  1  0.998294  0.999992  0.191218  1
  O  O9  1  0.403242  0.907343  0.422998  1
  O  O10  1  0.507935  0.492541  0.173276  1
  O  O11  1  0.094400  0.586272  0.079670  1
  O  O12  1  0.900825  0.408939  0.422138  1
  O  O13  1  0.000008  0.001706  0.808782  1
  O  O14  1  0.591061  0.099174  0.577862  1
  O  O15  1  0.507459  0.492065  0.826724  1
  O  O16  1  0.577582  0.101073  0.079391  1
  O  O17  1  0.413728  0.905600  0.920330  1
  O  O18  1  0.898927  0.422418  0.920609  1
