# generated using pymatgen
data_KAc7(MnN3)4
_symmetry_space_group_name_H-M   'P 1'
_cell_length_a   6.38062170
_cell_length_b   6.38062201
_cell_length_c   12.48422670
_cell_angle_alpha   89.75401466
_cell_angle_beta   90.24598399
_cell_angle_gamma   127.38801957
_symmetry_Int_Tables_number   1
_chemical_formula_structural   KAc7(MnN3)4
_chemical_formula_sum   'K1 Ac7 Mn4 N12'
_cell_volume   403.83069220
_cell_formula_units_Z   1
loop_
 _symmetry_equiv_pos_site_id
 _symmetry_equiv_pos_as_xyz
  1  'x, y, z'
loop_
 _atom_site_type_symbol
 _atom_site_label
 _atom_site_symmetry_multiplicity
 _atom_site_fract_x
 _atom_site_fract_y
 _atom_site_fract_z
 _atom_site_occupancy
  K  K0  1  0.451330  0.548670  0.351589  1
  Ac  Ac1  1  0.565332  0.434668  0.640392  1
  Ac  Ac2  1  0.056532  0.943468  0.859097  1
  Ac  Ac3  1  0.939845  0.060155  0.145592  1
  Ac  Ac4  1  0.150885  0.849115  0.419346  1
  Ac  Ac5  1  0.860138  0.139862  0.577735  1
  Ac  Ac6  1  0.352430  0.647570  0.923371  1
  Ac  Ac7  1  0.641442  0.358558  0.076709  1
  Mn  Mn8  1  0.260202  0.739798  0.165959  1
  Mn  Mn9  1  0.736436  0.263564  0.838179  1
  Mn  Mn10  1  0.238021  0.761979  0.664355  1
  Mn  Mn11  1  0.767099  0.232901  0.336994  1
  N  N12  1  0.151245  0.848755  0.045545  1
  N  N13  1  0.847215  0.152785  0.958961  1
  N  N14  1  0.341653  0.658347  0.556502  1
  N  N15  1  0.674715  0.325285  0.458637  1
  N  N16  1  0.422242  0.577758  0.120359  1
  N  N17  1  0.567253  0.432747  0.869960  1
  N  N18  1  0.074801  0.925199  0.626081  1
  N  N19  1  0.920842  0.079158  0.371154  1
  N  N20  1  0.979518  0.502870  0.249475  1
  N  N21  1  0.501441  0.997748  0.747267  1
  N  N22  1  0.002252  0.498559  0.747267  1
  N  N23  1  0.497130  0.020482  0.249475  1
