# generated using pymatgen
data_LiAu2
_symmetry_space_group_name_H-M   'P 1'
_cell_length_a   7.55443531
_cell_length_b   7.55443439
_cell_length_c   4.68010200
_cell_angle_alpha   90.00000000
_cell_angle_beta   90.00000000
_cell_angle_gamma   157.63289846
_symmetry_Int_Tables_number   1
_chemical_formula_structural   LiAu2
_chemical_formula_sum   'Li2 Au4'
_cell_volume   101.63866833
_cell_formula_units_Z   2
loop_
 _symmetry_equiv_pos_site_id
 _symmetry_equiv_pos_as_xyz
  1  'x, y, z'
loop_
 _atom_site_type_symbol
 _atom_site_label
 _atom_site_symmetry_multiplicity
 _atom_site_fract_x
 _atom_site_fract_y
 _atom_site_fract_z
 _atom_site_occupancy
  Li  Li0  1  0.610821  0.389179  0.250000  1
  Li  Li1  1  0.389179  0.610821  0.750000  1
  Au  Au2  1  0.275591  0.724409  0.250000  1
  Au  Au3  1  0.946804  0.053196  0.250000  1
  Au  Au4  1  0.724409  0.275591  0.750000  1
  Au  Au5  1  0.053196  0.946804  0.750000  1
