# generated using pymatgen
data_Ca3Lu(ReB4)4
_symmetry_space_group_name_H-M   'P 1'
_cell_length_a   3.57692200
_cell_length_b   5.99731690
_cell_length_c   11.58971009
_cell_angle_alpha   90.11639541
_cell_angle_beta   90.00000000
_cell_angle_gamma   90.00000000
_symmetry_Int_Tables_number   1
_chemical_formula_structural   Ca3Lu(ReB4)4
_chemical_formula_sum   'Ca3 Lu1 Re4 B16'
_cell_volume   248.62119151
_cell_formula_units_Z   1
loop_
 _symmetry_equiv_pos_site_id
 _symmetry_equiv_pos_as_xyz
  1  'x, y, z'
loop_
 _atom_site_type_symbol
 _atom_site_label
 _atom_site_symmetry_multiplicity
 _atom_site_fract_x
 _atom_site_fract_y
 _atom_site_fract_z
 _atom_site_occupancy
  Ca  Ca0  1  0.500000  0.627977  0.848576  1
  Ca  Ca1  1  0.500000  0.127786  0.649961  1
  Ca  Ca2  1  0.500000  0.873038  0.350854  1
  Lu  Lu3  1  0.500000  0.371467  0.150400  1
  Re  Re4  1  0.500000  0.370266  0.414406  1
  Re  Re5  1  0.500000  0.630572  0.582931  1
  Re  Re6  1  0.500000  0.132335  0.917967  1
  Re  Re7  1  0.500000  0.869939  0.085628  1
  B  B8  1  0.000000  0.114284  0.048624  1
  B  B9  1  0.000000  0.885971  0.953100  1
  B  B10  1  0.000000  0.385542  0.546573  1
  B  B11  1  0.000000  0.613539  0.451762  1
  B  B12  1  0.000000  0.135012  0.467304  1
  B  B13  1  0.000000  0.864721  0.531794  1
  B  B14  1  0.000000  0.364589  0.969334  1
  B  B15  1  0.000000  0.635050  0.032574  1
  B  B16  1  0.000000  0.024954  0.192802  1
  B  B17  1  0.000000  0.976898  0.808248  1
  B  B18  1  0.000000  0.476541  0.692025  1
  B  B19  1  0.000000  0.522701  0.306177  1
  B  B20  1  0.000000  0.214978  0.314157  1
  B  B21  1  0.000000  0.784464  0.684554  1
  B  B22  1  0.000000  0.283618  0.815390  1
  B  B23  1  0.000000  0.713760  0.184857  1
