# generated using pymatgen
data_Mn2Fe4Mo6C
_symmetry_space_group_name_H-M   'P 1'
_cell_length_a   7.73091903
_cell_length_b   7.73091957
_cell_length_c   7.73091800
_cell_angle_alpha   59.99999816
_cell_angle_beta   59.99999587
_cell_angle_gamma   59.99999213
_symmetry_Int_Tables_number   1
_chemical_formula_structural   Mn2Fe4Mo6C
_chemical_formula_sum   'Mn4 Fe8 Mo12 C2'
_cell_volume   326.72194339
_cell_formula_units_Z   2
loop_
 _symmetry_equiv_pos_site_id
 _symmetry_equiv_pos_as_xyz
  1  'x, y, z'
loop_
 _atom_site_type_symbol
 _atom_site_label
 _atom_site_symmetry_multiplicity
 _atom_site_fract_x
 _atom_site_fract_y
 _atom_site_fract_z
 _atom_site_occupancy
  Mn  Mn0  1  0.125000  0.125000  0.625000  1
  Mn  Mn1  1  0.125000  0.625000  0.125000  1
  Mn  Mn2  1  0.125000  0.125000  0.125000  1
  Mn  Mn3  1  0.625000  0.125000  0.125000  1
  Fe  Fe4  1  0.921717  0.234850  0.921717  1
  Fe  Fe5  1  0.328283  0.015150  0.328283  1
  Fe  Fe6  1  0.328283  0.328283  0.328283  1
  Fe  Fe7  1  0.015150  0.328283  0.328283  1
  Fe  Fe8  1  0.921717  0.921717  0.234850  1
  Fe  Fe9  1  0.234850  0.921717  0.921717  1
  Fe  Fe10  1  0.328283  0.328283  0.015150  1
  Fe  Fe11  1  0.921717  0.921717  0.921717  1
  Mo  Mo12  1  0.303838  0.696162  0.696162  1
  Mo  Mo13  1  0.303838  0.303838  0.696162  1
  Mo  Mo14  1  0.553838  0.946162  0.553838  1
  Mo  Mo15  1  0.946162  0.553838  0.553838  1
  Mo  Mo16  1  0.553838  0.946162  0.946162  1
  Mo  Mo17  1  0.696162  0.303838  0.303838  1
  Mo  Mo18  1  0.946162  0.553838  0.946162  1
  Mo  Mo19  1  0.303838  0.696162  0.303838  1
  Mo  Mo20  1  0.553838  0.553838  0.946162  1
  Mo  Mo21  1  0.696162  0.303838  0.696162  1
  Mo  Mo22  1  0.696162  0.696162  0.303838  1
  Mo  Mo23  1  0.946162  0.946162  0.553838  1
  C  C24  1  0.750000  0.750000  0.750000  1
  C  C25  1  0.500000  0.500000  0.500000  1
