# generated using pymatgen
data_Lu3Al3Zn2Pd
_symmetry_space_group_name_H-M   'P 1'
_cell_length_a   6.84676100
_cell_length_b   6.84676078
_cell_length_c   4.29387800
_cell_angle_alpha   90.00000000
_cell_angle_beta   90.00000000
_cell_angle_gamma   119.99999621
_symmetry_Int_Tables_number   1
_chemical_formula_structural   Lu3Al3Zn2Pd
_chemical_formula_sum   'Lu3 Al3 Zn2 Pd1'
_cell_volume   174.32138667
_cell_formula_units_Z   1
loop_
 _symmetry_equiv_pos_site_id
 _symmetry_equiv_pos_as_xyz
  1  'x, y, z'
loop_
 _atom_site_type_symbol
 _atom_site_label
 _atom_site_symmetry_multiplicity
 _atom_site_fract_x
 _atom_site_fract_y
 _atom_site_fract_z
 _atom_site_occupancy
  Lu  Lu0  1  0.583031  0.000000  0.000000  1
  Lu  Lu1  1  0.000000  0.583031  0.000000  1
  Lu  Lu2  1  0.416969  0.416969  0.000000  1
  Al  Al3  1  0.236590  0.000000  0.500000  1
  Al  Al4  1  0.000000  0.236590  0.500000  1
  Al  Al5  1  0.763410  0.763410  0.500000  1
  Zn  Zn6  1  0.333333  0.666667  0.500000  1
  Zn  Zn7  1  0.666667  0.333333  0.500000  1
  Pd  Pd8  1  0.000000  0.000000  0.000000  1
