# generated using pymatgen
data_Ba2ScPaS6
_symmetry_space_group_name_H-M   'P 1'
_cell_length_a   7.26308291
_cell_length_b   7.26308358
_cell_length_c   7.26308300
_cell_angle_alpha   120.00000193
_cell_angle_beta   120.00000495
_cell_angle_gamma   60.00000235
_symmetry_Int_Tables_number   1
_chemical_formula_structural   Ba2ScPaS6
_chemical_formula_sum   'Ba2 Sc1 Pa1 S6'
_cell_volume   270.92434878
_cell_formula_units_Z   1
loop_
 _symmetry_equiv_pos_site_id
 _symmetry_equiv_pos_as_xyz
  1  'x, y, z'
loop_
 _atom_site_type_symbol
 _atom_site_label
 _atom_site_symmetry_multiplicity
 _atom_site_fract_x
 _atom_site_fract_y
 _atom_site_fract_z
 _atom_site_occupancy
  Ba  Ba0  1  0.750001  0.750001  0.250002  1
  Ba  Ba1  1  0.250000  0.250000  0.750002  1
  Sc  Sc2  1  0.500000  0.500000  0.500000  1
  Pa  Pa3  1  0.000000  0.000000  0.000000  1
  S  S4  1  0.746542  0.253458  0.253458  1
  S  S5  1  0.253458  0.746542  0.253458  1
  S  S6  1  0.253460  0.253460  0.253460  1
  S  S7  1  0.746540  0.746540  0.746541  1
  S  S8  1  0.746542  0.253459  0.746543  1
  S  S9  1  0.253459  0.746542  0.746543  1
