# generated using pymatgen
data_NdNb8CoSe16
_symmetry_space_group_name_H-M   'P 1'
_cell_length_a   7.01047300
_cell_length_b   7.01047127
_cell_length_c   13.81047200
_cell_angle_alpha   90.00000000
_cell_angle_beta   90.00000000
_cell_angle_gamma   120.00000345
_symmetry_Int_Tables_number   1
_chemical_formula_structural   NdNb8CoSe16
_chemical_formula_sum   'Nd1 Nb8 Co1 Se16'
_cell_volume   587.80553747
_cell_formula_units_Z   1
loop_
 _symmetry_equiv_pos_site_id
 _symmetry_equiv_pos_as_xyz
  1  'x, y, z'
loop_
 _atom_site_type_symbol
 _atom_site_label
 _atom_site_symmetry_multiplicity
 _atom_site_fract_x
 _atom_site_fract_y
 _atom_site_fract_z
 _atom_site_occupancy
  Nd  Nd0  1  0.000000  0.000000  0.500000  1
  Nb  Nb1  1  0.000000  0.000000  0.230905  1
  Nb  Nb2  1  0.000000  0.000000  0.769095  1
  Nb  Nb3  1  0.507345  0.014691  0.228339  1
  Nb  Nb4  1  0.985309  0.492655  0.228339  1
  Nb  Nb5  1  0.507345  0.492655  0.228339  1
  Nb  Nb6  1  0.492655  0.985309  0.771661  1
  Nb  Nb7  1  0.014691  0.507345  0.771661  1
  Nb  Nb8  1  0.492655  0.507345  0.771661  1
  Co  Co9  1  0.000000  0.000000  0.000000  1
  Se  Se10  1  0.333333  0.666667  0.895881  1
  Se  Se11  1  0.666667  0.333333  0.104119  1
  Se  Se12  1  0.666667  0.333333  0.355350  1
  Se  Se13  1  0.333333  0.666667  0.644650  1
  Se  Se14  1  0.170578  0.829422  0.350087  1
  Se  Se15  1  0.170578  0.341157  0.350087  1
  Se  Se16  1  0.658843  0.829422  0.350087  1
  Se  Se17  1  0.829422  0.170578  0.649913  1
  Se  Se18  1  0.829422  0.658843  0.649913  1
  Se  Se19  1  0.341157  0.170578  0.649913  1
  Se  Se20  1  0.833396  0.166604  0.890088  1
  Se  Se21  1  0.833396  0.666792  0.890088  1
  Se  Se22  1  0.333208  0.166604  0.890088  1
  Se  Se23  1  0.166604  0.833396  0.109912  1
  Se  Se24  1  0.166604  0.333208  0.109912  1
  Se  Se25  1  0.666792  0.833396  0.109912  1
