# generated using pymatgen
data_Pr5Eu5Ir4
_symmetry_space_group_name_H-M   'P 1'
_cell_length_a   8.91023819
_cell_length_b   9.00468397
_cell_length_c   7.64251300
_cell_angle_alpha   83.60963935
_cell_angle_beta   83.51200269
_cell_angle_gamma   45.01985450
_symmetry_Int_Tables_number   1
_chemical_formula_structural   Pr5Eu5Ir4
_chemical_formula_sum   'Pr5 Eu5 Ir4'
_cell_volume   430.53093591
_cell_formula_units_Z   1
loop_
 _symmetry_equiv_pos_site_id
 _symmetry_equiv_pos_as_xyz
  1  'x, y, z'
loop_
 _atom_site_type_symbol
 _atom_site_label
 _atom_site_symmetry_multiplicity
 _atom_site_fract_x
 _atom_site_fract_y
 _atom_site_fract_z
 _atom_site_occupancy
  Pr  Pr0  1  0.785312  0.649573  0.678136  1
  Pr  Pr1  1  0.644301  0.790198  0.179860  1
  Pr  Pr2  1  0.212288  0.353502  0.320589  1
  Pr  Pr3  1  0.565594  0.431685  0.750550  1
  Pr  Pr4  1  0.434581  0.564498  0.251389  1
  Eu  Eu5  1  0.013242  0.806150  0.914602  1
  Eu  Eu6  1  0.196275  0.987720  0.585385  1
  Eu  Eu7  1  0.987347  0.194667  0.084415  1
  Eu  Eu8  1  0.804656  0.011658  0.414475  1
  Eu  Eu9  1  0.352648  0.211054  0.818772  1
  Ir  Ir10  1  0.180002  0.594055  0.573299  1
  Ir  Ir11  1  0.411439  0.805434  0.925821  1
  Ir  Ir12  1  0.817179  0.415185  0.423153  1
  Ir  Ir13  1  0.595136  0.184619  0.079553  1
