# generated using pymatgen
data_PuTe29
_symmetry_space_group_name_H-M   'P 1'
_cell_length_a   8.42029179
_cell_length_b   10.83311600
_cell_length_c   13.00852800
_cell_angle_alpha   73.20374566
_cell_angle_beta   80.57913053
_cell_angle_gamma   67.28411043
_symmetry_Int_Tables_number   1
_chemical_formula_structural   PuTe29
_chemical_formula_sum   'Pu1 Te29'
_cell_volume   1046.04655987
_cell_formula_units_Z   1
loop_
 _symmetry_equiv_pos_site_id
 _symmetry_equiv_pos_as_xyz
  1  'x, y, z'
loop_
 _atom_site_type_symbol
 _atom_site_label
 _atom_site_symmetry_multiplicity
 _atom_site_fract_x
 _atom_site_fract_y
 _atom_site_fract_z
 _atom_site_occupancy
  Pu  Pu0  1  0.000000  0.000000  0.000000  1
  Te  Te1  1  0.500000  0.000000  0.000000  1
  Te  Te2  1  0.099299  0.202790  0.201117  1
  Te  Te3  1  0.698802  0.400463  0.401000  1
  Te  Te4  1  0.301198  0.599537  0.599000  1
  Te  Te5  1  0.598327  0.201610  0.201367  1
  Te  Te6  1  0.900701  0.797210  0.798883  1
  Te  Te7  1  0.199409  0.402024  0.401735  1
  Te  Te8  1  0.800591  0.597976  0.598265  1
  Te  Te9  1  0.401673  0.798390  0.798633  1
  Te  Te10  1  0.244649  0.097461  0.824124  1
  Te  Te11  1  0.652746  0.705057  0.974286  1
  Te  Te12  1  0.846651  0.297390  0.024540  1
  Te  Te13  1  0.252290  0.902606  0.175695  1
  Te  Te14  1  0.444220  0.496703  0.226135  1
  Te  Te15  1  0.747710  0.097394  0.824305  1
  Te  Te16  1  0.852812  0.104841  0.376122  1
  Te  Te17  1  0.153349  0.702610  0.975460  1
  Te  Te18  1  0.046338  0.697574  0.424152  1
  Te  Te19  1  0.347254  0.294943  0.025714  1
  Te  Te20  1  0.755351  0.902539  0.175876  1
  Te  Te21  1  0.453600  0.304720  0.574572  1
  Te  Te22  1  0.649148  0.891244  0.622707  1
  Te  Te23  1  0.948323  0.496574  0.226278  1
  Te  Te24  1  0.051677  0.503426  0.773722  1
  Te  Te25  1  0.350852  0.108756  0.377293  1
  Te  Te26  1  0.546400  0.695280  0.425428  1
  Te  Te27  1  0.953662  0.302426  0.575848  1
  Te  Te28  1  0.147188  0.895159  0.623878  1
  Te  Te29  1  0.555780  0.503297  0.773865  1
