# generated using pymatgen
data_Th4MgAl19Pt12
_symmetry_space_group_name_H-M   'P 1'
_cell_length_a   4.15855200
_cell_length_b   7.38107200
_cell_length_c   20.78855001
_cell_angle_alpha   90.00151801
_cell_angle_beta   90.00000000
_cell_angle_gamma   90.00000000
_symmetry_Int_Tables_number   1
_chemical_formula_structural   Th4MgAl19Pt12
_chemical_formula_sum   'Th4 Mg1 Al19 Pt12'
_cell_volume   638.09563904
_cell_formula_units_Z   1
loop_
 _symmetry_equiv_pos_site_id
 _symmetry_equiv_pos_as_xyz
  1  'x, y, z'
loop_
 _atom_site_type_symbol
 _atom_site_label
 _atom_site_symmetry_multiplicity
 _atom_site_fract_x
 _atom_site_fract_y
 _atom_site_fract_z
 _atom_site_occupancy
  Th  Th0  1  0.250000  0.120330  0.640861  1
  Th  Th1  1  0.750000  0.881587  0.358600  1
  Th  Th2  1  0.250000  0.382305  0.140011  1
  Th  Th3  1  0.750000  0.618776  0.859273  1
  Mg  Mg4  1  0.750000  0.362403  0.383704  1
  Al  Al5  1  0.750000  0.885886  0.984941  1
  Al  Al6  1  0.750000  0.690358  0.201008  1
  Al  Al7  1  0.250000  0.867776  0.497793  1
  Al  Al8  1  0.250000  0.631763  0.993791  1
  Al  Al9  1  0.250000  0.311020  0.798329  1
  Al  Al10  1  0.750000  0.072133  0.208285  1
  Al  Al11  1  0.250000  0.634669  0.617804  1
  Al  Al12  1  0.250000  0.571657  0.291629  1
  Al  Al13  1  0.250000  0.187915  0.297914  1
  Al  Al14  1  0.750000  0.138999  0.882357  1
  Al  Al15  1  0.250000  0.926671  0.791961  1
  Al  Al16  1  0.750000  0.368798  0.005619  1
  Al  Al17  1  0.750000  0.618497  0.486255  1
  Al  Al18  1  0.750000  0.128462  0.507174  1
  Al  Al19  1  0.250000  0.114875  0.015055  1
  Al  Al20  1  0.250000  0.860161  0.117120  1
  Al  Al21  1  0.250000  0.385206  0.512047  1
  Al  Al22  1  0.750000  0.426838  0.707509  1
  Al  Al23  1  0.750000  0.811642  0.702587  1
  Pt  Pt24  1  0.750000  0.382963  0.257000  1
  Pt  Pt25  1  0.250000  0.881273  0.238239  1
  Pt  Pt26  1  0.250000  0.617114  0.739254  1
  Pt  Pt27  1  0.750000  0.118693  0.761119  1
  Pt  Pt28  1  0.250000  0.144140  0.426556  1
  Pt  Pt29  1  0.750000  0.413155  0.583676  1
  Pt  Pt30  1  0.750000  0.085370  0.084791  1
  Pt  Pt31  1  0.250000  0.915655  0.915542  1
  Pt  Pt32  1  0.750000  0.841740  0.576697  1
  Pt  Pt33  1  0.250000  0.343565  0.925484  1
  Pt  Pt34  1  0.750000  0.657112  0.074496  1
  Pt  Pt35  1  0.250000  0.600494  0.415520  1
