# generated using pymatgen
data_Ho2Lu3Co16(TcP4)3
_symmetry_space_group_name_H-M   'P 1'
_cell_length_a   12.00413900
_cell_length_b   12.00413897
_cell_length_c   3.69741700
_cell_angle_alpha   90.00000000
_cell_angle_beta   90.00000000
_cell_angle_gamma   120.00000284
_symmetry_Int_Tables_number   1
_chemical_formula_structural   Ho2Lu3Co16(TcP4)3
_chemical_formula_sum   'Ho2 Lu3 Co16 Tc3 P12'
_cell_volume   461.41433524
_cell_formula_units_Z   1
loop_
 _symmetry_equiv_pos_site_id
 _symmetry_equiv_pos_as_xyz
  1  'x, y, z'
loop_
 _atom_site_type_symbol
 _atom_site_label
 _atom_site_symmetry_multiplicity
 _atom_site_fract_x
 _atom_site_fract_y
 _atom_site_fract_z
 _atom_site_occupancy
  Ho  Ho0  1  0.666667  0.333333  0.000000  1
  Ho  Ho1  1  0.333333  0.666667  0.000000  1
  Lu  Lu2  1  0.816291  0.816291  0.500000  1
  Lu  Lu3  1  0.183709  0.000000  0.500000  1
  Lu  Lu4  1  0.000000  0.183709  0.500000  1
  Co  Co5  1  0.873746  0.355473  0.500000  1
  Co  Co6  1  0.644527  0.518274  0.500000  1
  Co  Co7  1  0.481726  0.126254  0.500000  1
  Co  Co8  1  0.355473  0.873746  0.500000  1
  Co  Co9  1  0.518274  0.644527  0.500000  1
  Co  Co10  1  0.126254  0.481726  0.500000  1
  Co  Co11  1  0.804643  0.178329  0.000000  1
  Co  Co12  1  0.821671  0.626312  0.000000  1
  Co  Co13  1  0.373688  0.195357  0.000000  1
  Co  Co14  1  0.178329  0.804643  0.000000  1
  Co  Co15  1  0.626312  0.821671  0.000000  1
  Co  Co16  1  0.195357  0.373688  0.000000  1
  Co  Co17  1  0.280784  0.280784  0.500000  1
  Co  Co18  1  0.719216  0.000000  0.500000  1
  Co  Co19  1  0.000000  0.719216  0.500000  1
  Co  Co20  1  0.000000  0.000000  0.000000  1
  Tc  Tc21  1  0.446277  0.446277  0.000000  1
  Tc  Tc22  1  0.553723  0.000000  0.000000  1
  Tc  Tc23  1  0.000000  0.553723  0.000000  1
  P  P24  1  0.685457  0.164532  0.500000  1
  P  P25  1  0.835468  0.520925  0.500000  1
  P  P26  1  0.479075  0.314543  0.500000  1
  P  P27  1  0.164532  0.685457  0.500000  1
  P  P28  1  0.520925  0.835468  0.500000  1
  P  P29  1  0.314543  0.479075  0.500000  1
  P  P30  1  0.177201  0.177201  0.000000  1
  P  P31  1  0.822799  0.000000  0.000000  1
  P  P32  1  0.000000  0.822799  0.000000  1
  P  P33  1  0.638672  0.638672  0.000000  1
  P  P34  1  0.361328  0.000000  0.000000  1
  P  P35  1  0.000000  0.361328  0.000000  1
