# generated using pymatgen
data_LiEr4Pa2Co17P12
_symmetry_space_group_name_H-M   'P 1'
_cell_length_a   3.71320200
_cell_length_b   10.56160000
_cell_length_c   12.12962100
_cell_angle_alpha   90.00000000
_cell_angle_beta   90.00000000
_cell_angle_gamma   90.00000000
_symmetry_Int_Tables_number   1
_chemical_formula_structural   LiEr4Pa2Co17P12
_chemical_formula_sum   'Li1 Er4 Pa2 Co17 P12'
_cell_volume   475.69164359
_cell_formula_units_Z   1
loop_
 _symmetry_equiv_pos_site_id
 _symmetry_equiv_pos_as_xyz
  1  'x, y, z'
loop_
 _atom_site_type_symbol
 _atom_site_label
 _atom_site_symmetry_multiplicity
 _atom_site_fract_x
 _atom_site_fract_y
 _atom_site_fract_z
 _atom_site_occupancy
  Li  Li0  1  0.250000  0.250000  0.850690  1
  Er  Er1  1  0.250000  0.934053  0.795086  1
  Er  Er2  1  0.250000  0.565947  0.795086  1
  Er  Er3  1  0.750000  0.065159  0.203794  1
  Er  Er4  1  0.750000  0.434841  0.203794  1
  Pa  Pa5  1  0.750000  0.250000  0.471449  1
  Pa  Pa6  1  0.250000  0.750000  0.529514  1
  Co  Co7  1  0.750000  0.750000  0.159059  1
  Co  Co8  1  0.250000  0.250000  0.302319  1
  Co  Co9  1  0.750000  0.750000  0.696009  1
  Co  Co10  1  0.750000  0.250000  0.015303  1
  Co  Co11  1  0.250000  0.750000  0.985353  1
  Co  Co12  1  0.250000  0.418407  0.006403  1
  Co  Co13  1  0.250000  0.081593  0.006403  1
  Co  Co14  1  0.750000  0.585929  0.995429  1
  Co  Co15  1  0.750000  0.914071  0.995429  1
  Co  Co16  1  0.250000  0.450278  0.566148  1
  Co  Co17  1  0.250000  0.049722  0.566148  1
  Co  Co18  1  0.750000  0.551161  0.430588  1
  Co  Co19  1  0.750000  0.948839  0.430588  1
  Co  Co20  1  0.250000  0.869836  0.289886  1
  Co  Co21  1  0.250000  0.630164  0.289886  1
  Co  Co22  1  0.750000  0.128039  0.708169  1
  Co  Co23  1  0.750000  0.371961  0.708169  1
  P  P24  1  0.250000  0.250000  0.119314  1
  P  P25  1  0.750000  0.750000  0.878858  1
  P  P26  1  0.250000  0.250000  0.656339  1
  P  P27  1  0.750000  0.750000  0.343501  1
  P  P28  1  0.250000  0.443060  0.381576  1
  P  P29  1  0.250000  0.056940  0.381576  1
  P  P30  1  0.750000  0.556536  0.616957  1
  P  P31  1  0.750000  0.943464  0.616957  1
  P  P32  1  0.250000  0.902132  0.106569  1
  P  P33  1  0.250000  0.597868  0.106569  1
  P  P34  1  0.750000  0.092772  0.895541  1
  P  P35  1  0.750000  0.407228  0.895541  1
