# generated using pymatgen
data_Li3Yb6Ho2Si12Pd
_symmetry_space_group_name_H-M   'P 1'
_cell_length_a   8.30949400
_cell_length_b   8.30949409
_cell_length_c   8.06898700
_cell_angle_alpha   90.00000000
_cell_angle_beta   90.00000000
_cell_angle_gamma   119.99999964
_symmetry_Int_Tables_number   1
_chemical_formula_structural   Li3Yb6Ho2Si12Pd
_chemical_formula_sum   'Li3 Yb6 Ho2 Si12 Pd1'
_cell_volume   482.50165892
_cell_formula_units_Z   1
loop_
 _symmetry_equiv_pos_site_id
 _symmetry_equiv_pos_as_xyz
  1  'x, y, z'
loop_
 _atom_site_type_symbol
 _atom_site_label
 _atom_site_symmetry_multiplicity
 _atom_site_fract_x
 _atom_site_fract_y
 _atom_site_fract_z
 _atom_site_occupancy
  Li  Li0  1  0.333333  0.666667  0.002589  1
  Li  Li1  1  0.666667  0.333333  0.997664  1
  Li  Li2  1  0.666667  0.333333  0.502322  1
  Yb  Yb3  1  0.498534  0.997068  0.253159  1
  Yb  Yb4  1  0.496820  0.993640  0.746844  1
  Yb  Yb5  1  0.002932  0.501466  0.253159  1
  Yb  Yb6  1  0.006360  0.503180  0.746844  1
  Yb  Yb7  1  0.498534  0.501466  0.253159  1
  Yb  Yb8  1  0.496820  0.503180  0.746844  1
  Ho  Ho9  1  0.000000  0.000000  0.249931  1
  Ho  Ho10  1  0.000000  0.000000  0.750198  1
  Si  Si11  1  0.162251  0.324501  0.000827  1
  Si  Si12  1  0.836771  0.673542  0.999016  1
  Si  Si13  1  0.675499  0.837749  0.000827  1
  Si  Si14  1  0.838425  0.676853  0.500875  1
  Si  Si15  1  0.326458  0.163229  0.999016  1
  Si  Si16  1  0.164210  0.328421  0.498884  1
  Si  Si17  1  0.162251  0.837749  0.000827  1
  Si  Si18  1  0.323147  0.161575  0.500875  1
  Si  Si19  1  0.836771  0.163229  0.999016  1
  Si  Si20  1  0.671579  0.835790  0.498884  1
  Si  Si21  1  0.838425  0.161575  0.500875  1
  Si  Si22  1  0.164210  0.835790  0.498884  1
  Pd  Pd23  1  0.333333  0.666667  0.498485  1
