# generated using pymatgen
data_Ta2(Fe7B2)3
_symmetry_space_group_name_H-M   'P 1'
_cell_length_a   7.55034936
_cell_length_b   7.55027869
_cell_length_c   7.55026300
_cell_angle_alpha   60.00006436
_cell_angle_beta   60.00037400
_cell_angle_gamma   60.00002308
_symmetry_Int_Tables_number   1
_chemical_formula_structural   Ta2(Fe7B2)3
_chemical_formula_sum   'Ta2 Fe21 B6'
_cell_volume   304.35372827
_cell_formula_units_Z   1
loop_
 _symmetry_equiv_pos_site_id
 _symmetry_equiv_pos_as_xyz
  1  'x, y, z'
loop_
 _atom_site_type_symbol
 _atom_site_label
 _atom_site_symmetry_multiplicity
 _atom_site_fract_x
 _atom_site_fract_y
 _atom_site_fract_z
 _atom_site_occupancy
  Ta  Ta0  1  0.250010  0.249996  0.249997  1
  Ta  Ta1  1  0.749990  0.750004  0.750003  1
  Fe  Fe2  1  0.000000  0.000000  0.000000  1
  Fe  Fe3  1  0.847354  0.384215  0.384215  1
  Fe  Fe4  1  0.384218  0.847360  0.384211  1
  Fe  Fe5  1  0.384217  0.384211  0.847362  1
  Fe  Fe6  1  0.384217  0.384211  0.384210  1
  Fe  Fe7  1  0.152646  0.615785  0.615785  1
  Fe  Fe8  1  0.615782  0.152640  0.615789  1
  Fe  Fe9  1  0.615783  0.615789  0.152638  1
  Fe  Fe10  1  0.615783  0.615789  0.615790  1
  Fe  Fe11  1  0.657722  0.000001  0.000001  1
  Fe  Fe12  1  0.657722  0.000001  0.342277  1
  Fe  Fe13  1  0.657725  0.342275  0.000000  1
  Fe  Fe14  1  0.000001  0.657725  0.342273  1
  Fe  Fe15  1  0.000001  0.657725  0.000001  1
  Fe  Fe16  1  0.342275  0.657725  0.000000  1
  Fe  Fe17  1  0.999999  0.342275  0.657727  1
  Fe  Fe18  1  0.342278  0.999999  0.657723  1
  Fe  Fe19  1  0.000000  0.000000  0.657725  1
  Fe  Fe20  1  0.342278  0.999999  0.999999  1
  Fe  Fe21  1  0.999999  0.342275  0.999999  1
  Fe  Fe22  1  0.000000  0.000000  0.342275  1
  B  B23  1  0.725586  0.274410  0.274410  1
  B  B24  1  0.725586  0.274410  0.725594  1
  B  B25  1  0.725587  0.725595  0.274409  1
  B  B26  1  0.274414  0.725590  0.725590  1
  B  B27  1  0.274414  0.725590  0.274406  1
  B  B28  1  0.274413  0.274405  0.725591  1
