# generated using pymatgen
data_Sc8Al14Ru7Se
_symmetry_space_group_name_H-M   'P 1'
_cell_length_a   8.86995432
_cell_length_b   8.86995409
_cell_length_c   8.86995400
_cell_angle_alpha   120.09889340
_cell_angle_beta   119.95348153
_cell_angle_gamma   89.95469377
_symmetry_Int_Tables_number   1
_chemical_formula_structural   Sc8Al14Ru7Se
_chemical_formula_sum   'Sc8 Al14 Ru7 Se1'
_cell_volume   493.26030387
_cell_formula_units_Z   1
loop_
 _symmetry_equiv_pos_site_id
 _symmetry_equiv_pos_as_xyz
  1  'x, y, z'
loop_
 _atom_site_type_symbol
 _atom_site_label
 _atom_site_symmetry_multiplicity
 _atom_site_fract_x
 _atom_site_fract_y
 _atom_site_fract_z
 _atom_site_occupancy
  Sc  Sc0  1  0.793948  0.285788  0.074124  1
  Sc  Sc1  1  0.211665  0.285788  0.491840  1
  Sc  Sc2  1  0.207176  0.707176  0.500000  1
  Sc  Sc3  1  0.211665  0.719825  0.925876  1
  Sc  Sc4  1  0.793948  0.719825  0.508160  1
  Sc  Sc5  1  0.782077  0.282077  0.500000  1
  Sc  Sc6  1  0.379244  0.114158  0.734914  1
  Sc  Sc7  1  0.379244  0.644330  0.265086  1
  Al  Al8  1  0.164601  0.332511  0.167908  1
  Al  Al9  1  0.164601  0.996692  0.832092  1
  Al  Al10  1  0.162691  0.335425  0.827265  1
  Al  Al11  1  0.508158  0.335425  0.172735  1
  Al  Al12  1  0.836012  0.665177  0.829167  1
  Al  Al13  1  0.836012  0.006845  0.170833  1
  Al  Al14  1  0.837086  0.664964  0.172122  1
  Al  Al15  1  0.492843  0.664964  0.827878  1
  Al  Al16  1  0.375967  0.120715  0.255253  1
  Al  Al17  1  0.865463  0.120715  0.744747  1
  Al  Al18  1  0.620580  0.874430  0.253850  1
  Al  Al19  1  0.620580  0.366732  0.746150  1
  Al  Al20  1  0.623799  0.880108  0.743691  1
  Al  Al21  1  0.136416  0.880108  0.256309  1
  Ru  Ru22  1  0.992728  0.998113  0.496553  1
  Ru  Ru23  1  0.501559  0.998113  0.005385  1
  Ru  Ru24  1  0.503290  0.503290  0.000000  1
  Ru  Ru25  1  0.501559  0.496174  0.503447  1
  Ru  Ru26  1  0.992728  0.496174  0.994615  1
  Ru  Ru27  1  0.999938  0.999938  0.000000  1
  Ru  Ru28  1  0.509182  0.009182  0.500000  1
  Se  Se29  1  0.995239  0.495239  0.500000  1
