# generated using pymatgen
data_Ca2BePt2
_symmetry_space_group_name_H-M   'P 1'
_cell_length_a   5.66002244
_cell_length_b   5.66002220
_cell_length_c   7.36992573
_cell_angle_alpha   80.66746083
_cell_angle_beta   80.66745890
_cell_angle_gamma   60.30252367
_symmetry_Int_Tables_number   1
_chemical_formula_structural   Ca2BePt2
_chemical_formula_sum   'Ca4 Be2 Pt4'
_cell_volume   201.45182527
_cell_formula_units_Z   2
loop_
 _symmetry_equiv_pos_site_id
 _symmetry_equiv_pos_as_xyz
  1  'x, y, z'
loop_
 _atom_site_type_symbol
 _atom_site_label
 _atom_site_symmetry_multiplicity
 _atom_site_fract_x
 _atom_site_fract_y
 _atom_site_fract_z
 _atom_site_occupancy
  Ca  Ca0  1  0.777814  0.522066  0.852083  1
  Ca  Ca1  1  0.477934  0.222186  0.647917  1
  Ca  Ca2  1  0.222186  0.477934  0.147917  1
  Ca  Ca3  1  0.522066  0.777814  0.352083  1
  Be  Be4  1  0.076298  0.923702  0.750000  1
  Be  Be5  1  0.923702  0.076298  0.250000  1
  Pt  Pt6  1  0.003614  0.745729  0.507444  1
  Pt  Pt7  1  0.254271  0.996386  0.992556  1
  Pt  Pt8  1  0.996386  0.254271  0.492556  1
  Pt  Pt9  1  0.745729  0.003614  0.007444  1
