# generated using pymatgen
data_Tm3Al12Fe2RuPt
_symmetry_space_group_name_H-M   'P 1'
_cell_length_a   8.71271363
_cell_length_b   8.73045141
_cell_length_c   9.39834800
_cell_angle_alpha   90.00000000
_cell_angle_beta   90.00000000
_cell_angle_gamma   119.85454993
_symmetry_Int_Tables_number   1
_chemical_formula_structural   Tm3Al12Fe2RuPt
_chemical_formula_sum   'Tm6 Al24 Fe4 Ru2 Pt2'
_cell_volume   620.02179090
_cell_formula_units_Z   2
loop_
 _symmetry_equiv_pos_site_id
 _symmetry_equiv_pos_as_xyz
  1  'x, y, z'
loop_
 _atom_site_type_symbol
 _atom_site_label
 _atom_site_symmetry_multiplicity
 _atom_site_fract_x
 _atom_site_fract_y
 _atom_site_fract_z
 _atom_site_occupancy
  Tm  Tm0  1  0.805176  0.195421  0.750000  1
  Tm  Tm1  1  0.194824  0.804579  0.250000  1
  Tm  Tm2  1  0.388136  0.190589  0.750000  1
  Tm  Tm3  1  0.611864  0.809411  0.250000  1
  Tm  Tm4  1  0.810197  0.612913  0.750000  1
  Tm  Tm5  1  0.189803  0.387087  0.250000  1
  Al  Al6  1  0.675594  0.334168  0.978365  1
  Al  Al7  1  0.324406  0.665832  0.021635  1
  Al  Al8  1  0.324406  0.665832  0.478365  1
  Al  Al9  1  0.675594  0.334168  0.521635  1
  Al  Al10  1  0.841720  0.163778  0.423395  1
  Al  Al11  1  0.158280  0.836222  0.576605  1
  Al  Al12  1  0.318253  0.155077  0.423093  1
  Al  Al13  1  0.158280  0.836222  0.923395  1
  Al  Al14  1  0.681747  0.844923  0.576907  1
  Al  Al15  1  0.841720  0.163778  0.076605  1
  Al  Al16  1  0.847416  0.680174  0.423775  1
  Al  Al17  1  0.681747  0.844923  0.923093  1
  Al  Al18  1  0.152584  0.319826  0.576225  1
  Al  Al19  1  0.318253  0.155077  0.076907  1
  Al  Al20  1  0.152584  0.319826  0.923775  1
  Al  Al21  1  0.847416  0.680174  0.076225  1
  Al  Al22  1  0.435527  0.563817  0.750000  1
  Al  Al23  1  0.564473  0.436183  0.250000  1
  Al  Al24  1  0.117448  0.558261  0.750000  1
  Al  Al25  1  0.882552  0.441739  0.250000  1
  Al  Al26  1  0.438541  0.876471  0.750000  1
  Al  Al27  1  0.561459  0.123529  0.250000  1
  Al  Al28  1  0.000430  0.999011  0.750000  1
  Al  Al29  1  0.999570  0.000989  0.250000  1
  Fe  Fe30  1  0.000000  0.500000  0.000000  1
  Fe  Fe31  1  0.000000  0.500000  0.500000  1
  Fe  Fe32  1  0.000000  0.000000  0.000000  1
  Fe  Fe33  1  0.000000  0.000000  0.500000  1
  Ru  Ru34  1  0.500000  0.000000  0.000000  1
  Ru  Ru35  1  0.500000  0.000000  0.500000  1
  Pt  Pt36  1  0.500000  0.500000  0.000000  1
  Pt  Pt37  1  0.500000  0.500000  0.500000  1
