# generated using pymatgen
data_Tb3Pr2Si3Ge
_symmetry_space_group_name_H-M   'P 1'
_cell_length_a   7.57485427
_cell_length_b   7.88398281
_cell_length_c   14.96877290
_cell_angle_alpha   90.01146259
_cell_angle_beta   90.59463899
_cell_angle_gamma   90.08822344
_symmetry_Int_Tables_number   1
_chemical_formula_structural   Tb3Pr2Si3Ge
_chemical_formula_sum   'Tb12 Pr8 Si12 Ge4'
_cell_volume   893.88620619
_cell_formula_units_Z   4
loop_
 _symmetry_equiv_pos_site_id
 _symmetry_equiv_pos_as_xyz
  1  'x, y, z'
loop_
 _atom_site_type_symbol
 _atom_site_label
 _atom_site_symmetry_multiplicity
 _atom_site_fract_x
 _atom_site_fract_y
 _atom_site_fract_z
 _atom_site_occupancy
  Tb  Tb0  1  0.326545  0.176905  0.623794  1
  Tb  Tb1  1  0.674724  0.821353  0.376904  1
  Tb  Tb2  1  0.659443  0.989457  0.750671  1
  Tb  Tb3  1  0.173655  0.680191  0.377125  1
  Tb  Tb4  1  0.829815  0.321997  0.876629  1
  Tb  Tb5  1  0.824867  0.320499  0.622576  1
  Tb  Tb6  1  0.839524  0.489112  0.250793  1
  Tb  Tb7  1  0.340889  0.010860  0.250901  1
  Tb  Tb8  1  0.331892  0.176123  0.875135  1
  Tb  Tb9  1  0.168960  0.676291  0.123735  1
  Tb  Tb10  1  0.669755  0.824608  0.124112  1
  Tb  Tb11  1  0.160144  0.510962  0.750565  1
  Pr  Pr12  1  0.019164  0.179739  0.401441  1
  Pr  Pr13  1  0.519720  0.319318  0.401118  1
  Pr  Pr14  1  0.485259  0.681034  0.900112  1
  Pr  Pr15  1  0.482266  0.681715  0.599134  1
  Pr  Pr16  1  0.978993  0.820318  0.598520  1
  Pr  Pr17  1  0.981975  0.820723  0.900860  1
  Pr  Pr18  1  0.516280  0.319166  0.099395  1
  Pr  Pr19  1  0.015841  0.180180  0.098919  1
  Si  Si20  1  0.275703  0.879014  0.749471  1
  Si  Si21  1  0.464172  0.612370  0.250646  1
  Si  Si22  1  0.034248  0.111544  0.749141  1
  Si  Si23  1  0.535454  0.388433  0.749024  1
  Si  Si24  1  0.965887  0.889254  0.250481  1
  Si  Si25  1  0.723978  0.120441  0.250366  1
  Si  Si26  1  0.645953  0.031822  0.539037  1
  Si  Si27  1  0.354186  0.968506  0.461002  1
  Si  Si28  1  0.848489  0.532499  0.459931  1
  Si  Si29  1  0.777703  0.619606  0.749569  1
  Si  Si30  1  0.222898  0.380302  0.250392  1
  Si  Si31  1  0.657835  0.034135  0.960022  1
  Ge  Ge32  1  0.152446  0.466672  0.539620  1
  Ge  Ge33  1  0.835555  0.535894  0.040290  1
  Ge  Ge34  1  0.341574  0.964653  0.039001  1
  Ge  Ge35  1  0.164211  0.464304  0.959569  1
