# generated using pymatgen
data_Tb3SnRh3Pb2
_symmetry_space_group_name_H-M   'P 1'
_cell_length_a   7.67261521
_cell_length_b   7.67261544
_cell_length_c   3.93209500
_cell_angle_alpha   90.00000000
_cell_angle_beta   90.00000000
_cell_angle_gamma   120.52068235
_symmetry_Int_Tables_number   1
_chemical_formula_structural   Tb3SnRh3Pb2
_chemical_formula_sum   'Tb3 Sn1 Rh3 Pb2'
_cell_volume   199.40629193
_cell_formula_units_Z   1
loop_
 _symmetry_equiv_pos_site_id
 _symmetry_equiv_pos_as_xyz
  1  'x, y, z'
loop_
 _atom_site_type_symbol
 _atom_site_label
 _atom_site_symmetry_multiplicity
 _atom_site_fract_x
 _atom_site_fract_y
 _atom_site_fract_z
 _atom_site_occupancy
  Tb  Tb0  1  0.404907  0.006518  0.500000  1
  Tb  Tb1  1  0.006518  0.404907  0.500000  1
  Tb  Tb2  1  0.591671  0.591671  0.500000  1
  Sn  Sn3  1  0.262470  0.262470  0.000000  1
  Rh  Rh4  1  0.330020  0.656203  0.000000  1
  Rh  Rh5  1  0.656203  0.330020  0.000000  1
  Rh  Rh6  1  0.012835  0.012835  0.500000  1
  Pb  Pb7  1  0.736033  0.999344  0.000000  1
  Pb  Pb8  1  0.999344  0.736033  0.000000  1
