# generated using pymatgen
data_LiZr14Pd19
_symmetry_space_group_name_H-M   'P 1'
_cell_length_a   8.18397500
_cell_length_b   8.18397458
_cell_length_c   9.75128645
_cell_angle_alpha   90.27439083
_cell_angle_beta   90.27439351
_cell_angle_gamma   106.78520039
_symmetry_Int_Tables_number   1
_chemical_formula_structural   LiZr14Pd19
_chemical_formula_sum   'Li1 Zr14 Pd19'
_cell_volume   625.26948176
_cell_formula_units_Z   1
loop_
 _symmetry_equiv_pos_site_id
 _symmetry_equiv_pos_as_xyz
  1  'x, y, z'
loop_
 _atom_site_type_symbol
 _atom_site_label
 _atom_site_symmetry_multiplicity
 _atom_site_fract_x
 _atom_site_fract_y
 _atom_site_fract_z
 _atom_site_occupancy
  Li  Li0  1  0.886933  0.886933  0.113658  1
  Zr  Zr1  1  0.202439  0.808125  0.996149  1
  Zr  Zr2  1  0.691062  0.307253  0.499269  1
  Zr  Zr3  1  0.311596  0.311596  0.687896  1
  Zr  Zr4  1  0.673250  0.673250  0.326060  1
  Zr  Zr5  1  0.808125  0.202439  0.996149  1
  Zr  Zr6  1  0.999824  0.503061  0.748545  1
  Zr  Zr7  1  0.999843  0.499500  0.250364  1
  Zr  Zr8  1  0.813446  0.813446  0.804635  1
  Zr  Zr9  1  0.502269  0.502269  0.001800  1
  Zr  Zr10  1  0.499500  0.999843  0.250364  1
  Zr  Zr11  1  0.307253  0.691062  0.499269  1
  Zr  Zr12  1  0.503061  0.999824  0.748545  1
  Zr  Zr13  1  0.196662  0.196662  0.186596  1
  Zr  Zr14  1  0.999198  0.999198  0.497196  1
  Pd  Pd15  1  0.646406  0.349995  0.206840  1
  Pd  Pd16  1  0.060798  0.352485  0.496654  1
  Pd  Pd17  1  0.648094  0.356972  0.793008  1
  Pd  Pd18  1  0.854756  0.136269  0.284982  1
  Pd  Pd19  1  0.136269  0.854756  0.284982  1
  Pd  Pd20  1  0.602687  0.602687  0.605055  1
  Pd  Pd21  1  0.437715  0.144964  0.995579  1
  Pd  Pd22  1  0.356972  0.648094  0.793008  1
  Pd  Pd23  1  0.150503  0.859006  0.707141  1
  Pd  Pd24  1  0.144964  0.437715  0.995579  1
  Pd  Pd25  1  0.576240  0.857285  0.005186  1
  Pd  Pd26  1  0.939319  0.646640  0.501759  1
  Pd  Pd27  1  0.646640  0.939319  0.501759  1
  Pd  Pd28  1  0.090711  0.090711  0.908613  1
  Pd  Pd29  1  0.394692  0.394692  0.397535  1
  Pd  Pd30  1  0.857285  0.576240  0.005186  1
  Pd  Pd31  1  0.352485  0.060798  0.496654  1
  Pd  Pd32  1  0.859006  0.150503  0.707141  1
  Pd  Pd33  1  0.349995  0.646406  0.206840  1
