# generated using pymatgen
data_Pr2Zn19Au3
_symmetry_space_group_name_H-M   'P 1'
_cell_length_a   8.39553194
_cell_length_b   8.38961684
_cell_length_c   8.37671810
_cell_angle_alpha   99.80673656
_cell_angle_beta   99.93220997
_cell_angle_gamma   130.85840086
_symmetry_Int_Tables_number   1
_chemical_formula_structural   Pr2Zn19Au3
_chemical_formula_sum   'Pr2 Zn19 Au3'
_cell_volume   406.56982054
_cell_formula_units_Z   1
loop_
 _symmetry_equiv_pos_site_id
 _symmetry_equiv_pos_as_xyz
  1  'x, y, z'
loop_
 _atom_site_type_symbol
 _atom_site_label
 _atom_site_symmetry_multiplicity
 _atom_site_fract_x
 _atom_site_fract_y
 _atom_site_fract_z
 _atom_site_occupancy
  Pr  Pr0  1  0.503912  0.502011  0.004339  1
  Pr  Pr1  1  0.747223  0.249516  0.496858  1
  Zn  Zn2  1  0.123237  0.871405  0.750759  1
  Zn  Zn3  1  0.253383  0.427476  0.583453  1
  Zn  Zn4  1  0.325703  0.740862  0.172771  1
  Zn  Zn5  1  0.996191  0.323731  0.915908  1
  Zn  Zn6  1  0.253908  0.669135  0.827233  1
  Zn  Zn7  1  0.249255  0.748622  0.497782  1
  Zn  Zn8  1  0.992620  0.079713  0.672811  1
  Zn  Zn9  1  0.000877  0.000155  0.000776  1
  Zn  Zn10  1  0.679575  0.005388  0.087345  1
  Zn  Zn11  1  0.402787  0.320040  0.325780  1
  Zn  Zn12  1  0.924333  0.009462  0.326865  1
  Zn  Zn13  1  0.846005  0.677829  0.417860  1
  Zn  Zn14  1  0.569557  0.742414  0.410636  1
  Zn  Zn15  1  0.684288  0.596382  0.672856  1
  Zn  Zn16  1  0.398336  0.072067  0.083969  1
  Zn  Zn17  1  0.926523  0.599494  0.914000  1
  Zn  Zn18  1  0.571449  0.155966  0.830658  1
  Zn  Zn19  1  0.124638  0.875880  0.247597  1
  Zn  Zn20  1  0.128628  0.375548  0.249903  1
  Au  Au21  1  0.844863  0.430063  0.175624  1
  Au  Au22  1  0.328883  0.153089  0.585241  1
  Au  Au23  1  0.623826  0.873753  0.748976  1
