# generated using pymatgen
data_Pr8Al(Si4Pt)3
_symmetry_space_group_name_H-M   'P 1'
_cell_length_a   8.25614200
_cell_length_b   8.25614275
_cell_length_c   8.67328700
_cell_angle_alpha   90.00000000
_cell_angle_beta   90.00000000
_cell_angle_gamma   120.00000500
_symmetry_Int_Tables_number   1
_chemical_formula_structural   Pr8Al(Si4Pt)3
_chemical_formula_sum   'Pr8 Al1 Si12 Pt3'
_cell_volume   511.99848354
_cell_formula_units_Z   1
loop_
 _symmetry_equiv_pos_site_id
 _symmetry_equiv_pos_as_xyz
  1  'x, y, z'
loop_
 _atom_site_type_symbol
 _atom_site_label
 _atom_site_symmetry_multiplicity
 _atom_site_fract_x
 _atom_site_fract_y
 _atom_site_fract_z
 _atom_site_occupancy
  Pr  Pr0  1  0.498909  0.501091  0.749159  1
  Pr  Pr1  1  0.499760  0.500240  0.250723  1
  Pr  Pr2  1  0.002184  0.501091  0.749159  1
  Pr  Pr3  1  0.000478  0.500240  0.250723  1
  Pr  Pr4  1  0.498909  0.997816  0.749159  1
  Pr  Pr5  1  0.499760  0.999522  0.250723  1
  Pr  Pr6  1  0.000000  0.000000  0.749528  1
  Pr  Pr7  1  0.000000  0.000000  0.250642  1
  Al  Al8  1  0.666667  0.333333  0.997304  1
  Si  Si9  1  0.837270  0.162730  0.000855  1
  Si  Si10  1  0.168134  0.831866  0.999321  1
  Si  Si11  1  0.325459  0.162730  0.000855  1
  Si  Si12  1  0.166361  0.833639  0.500467  1
  Si  Si13  1  0.663733  0.831866  0.999321  1
  Si  Si14  1  0.833765  0.166235  0.499552  1
  Si  Si15  1  0.837270  0.674541  0.000855  1
  Si  Si16  1  0.667280  0.833639  0.500467  1
  Si  Si17  1  0.168134  0.336267  0.999321  1
  Si  Si18  1  0.332470  0.166235  0.499552  1
  Si  Si19  1  0.166361  0.332720  0.500467  1
  Si  Si20  1  0.833765  0.667530  0.499552  1
  Pt  Pt21  1  0.333333  0.666667  0.001951  1
  Pt  Pt22  1  0.333333  0.666667  0.498541  1
  Pt  Pt23  1  0.666667  0.333333  0.501803  1
