# generated using pymatgen
data_Ac(Sn2Ir)2
_symmetry_space_group_name_H-M   'P 1'
_cell_length_a   4.62172800
_cell_length_b   7.33352200
_cell_length_c   18.89593000
_cell_angle_alpha   90.00000000
_cell_angle_beta   90.00000000
_cell_angle_gamma   90.00000000
_symmetry_Int_Tables_number   1
_chemical_formula_structural   Ac(Sn2Ir)2
_chemical_formula_sum   'Ac4 Sn16 Ir8'
_cell_volume   640.45003423
_cell_formula_units_Z   4
loop_
 _symmetry_equiv_pos_site_id
 _symmetry_equiv_pos_as_xyz
  1  'x, y, z'
loop_
 _atom_site_type_symbol
 _atom_site_label
 _atom_site_symmetry_multiplicity
 _atom_site_fract_x
 _atom_site_fract_y
 _atom_site_fract_z
 _atom_site_occupancy
  Ac  Ac0  1  0.250000  0.997441  0.858012  1
  Ac  Ac1  1  0.250000  0.502559  0.358012  1
  Ac  Ac2  1  0.750000  0.002559  0.141988  1
  Ac  Ac3  1  0.750000  0.497441  0.641988  1
  Sn  Sn4  1  0.250000  0.307271  0.182429  1
  Sn  Sn5  1  0.250000  0.192729  0.682429  1
  Sn  Sn6  1  0.750000  0.692729  0.817571  1
  Sn  Sn7  1  0.750000  0.807271  0.317571  1
  Sn  Sn8  1  0.250000  0.718695  0.194693  1
  Sn  Sn9  1  0.250000  0.781305  0.694693  1
  Sn  Sn10  1  0.750000  0.281305  0.805307  1
  Sn  Sn11  1  0.750000  0.218695  0.305307  1
  Sn  Sn12  1  0.250000  0.860420  0.030453  1
  Sn  Sn13  1  0.250000  0.639580  0.530453  1
  Sn  Sn14  1  0.750000  0.139580  0.969547  1
  Sn  Sn15  1  0.750000  0.360420  0.469547  1
  Sn  Sn16  1  0.250000  0.518273  0.932105  1
  Sn  Sn17  1  0.250000  0.981727  0.432105  1
  Sn  Sn18  1  0.750000  0.481727  0.067895  1
  Sn  Sn19  1  0.750000  0.018273  0.567895  1
  Ir  Ir20  1  0.250000  0.250690  0.034563  1
  Ir  Ir21  1  0.250000  0.249310  0.534563  1
  Ir  Ir22  1  0.750000  0.749310  0.965437  1
  Ir  Ir23  1  0.750000  0.750690  0.465437  1
  Ir  Ir24  1  0.250000  0.017649  0.286746  1
  Ir  Ir25  1  0.250000  0.482351  0.786746  1
  Ir  Ir26  1  0.750000  0.982351  0.713254  1
  Ir  Ir27  1  0.750000  0.517649  0.213254  1
