# generated using pymatgen
data_Tb2Al4CoNi
_symmetry_space_group_name_H-M   'P 1'
_cell_length_a   5.50764416
_cell_length_b   5.50764375
_cell_length_c   6.96692700
_cell_angle_alpha   90.00000000
_cell_angle_beta   90.00000000
_cell_angle_gamma   136.95675283
_symmetry_Int_Tables_number   1
_chemical_formula_structural   Tb2Al4CoNi
_chemical_formula_sum   'Tb2 Al4 Co1 Ni1'
_cell_volume   144.24725925
_cell_formula_units_Z   1
loop_
 _symmetry_equiv_pos_site_id
 _symmetry_equiv_pos_as_xyz
  1  'x, y, z'
loop_
 _atom_site_type_symbol
 _atom_site_label
 _atom_site_symmetry_multiplicity
 _atom_site_fract_x
 _atom_site_fract_y
 _atom_site_fract_z
 _atom_site_occupancy
  Tb  Tb0  1  0.942385  0.057615  0.750000  1
  Tb  Tb1  1  0.059012  0.940988  0.250000  1
  Al  Al2  1  0.661645  0.338355  0.943585  1
  Al  Al3  1  0.338981  0.661019  0.054455  1
  Al  Al4  1  0.338981  0.661019  0.445545  1
  Al  Al5  1  0.661645  0.338355  0.556415  1
  Co  Co6  1  0.214622  0.785378  0.750000  1
  Ni  Ni7  1  0.782731  0.217269  0.250000  1
