# generated using pymatgen
data_Er4CdCu
_symmetry_space_group_name_H-M   'P 1'
_cell_length_a   9.56065293
_cell_length_b   9.56065262
_cell_length_c   9.56065400
_cell_angle_alpha   59.99999524
_cell_angle_beta   59.99999628
_cell_angle_gamma   60.00000048
_symmetry_Int_Tables_number   1
_chemical_formula_structural   Er4CdCu
_chemical_formula_sum   'Er16 Cd4 Cu4'
_cell_volume   617.94193536
_cell_formula_units_Z   4
loop_
 _symmetry_equiv_pos_site_id
 _symmetry_equiv_pos_as_xyz
  1  'x, y, z'
loop_
 _atom_site_type_symbol
 _atom_site_label
 _atom_site_symmetry_multiplicity
 _atom_site_fract_x
 _atom_site_fract_y
 _atom_site_fract_z
 _atom_site_occupancy
  Er  Er0  1  0.352428  0.352428  0.352428  1
  Er  Er1  1  0.352428  0.352428  0.942718  1
  Er  Er2  1  0.352428  0.942718  0.352428  1
  Er  Er3  1  0.942718  0.352428  0.352428  1
  Er  Er4  1  0.812314  0.187686  0.187686  1
  Er  Er5  1  0.187686  0.812314  0.812314  1
  Er  Er6  1  0.187686  0.812314  0.187686  1
  Er  Er7  1  0.812314  0.187686  0.812314  1
  Er  Er8  1  0.187686  0.187686  0.812314  1
  Er  Er9  1  0.812314  0.812314  0.187686  1
  Er  Er10  1  0.934245  0.565755  0.565755  1
  Er  Er11  1  0.565755  0.934245  0.934245  1
  Er  Er12  1  0.565755  0.934245  0.565755  1
  Er  Er13  1  0.934245  0.565755  0.934245  1
  Er  Er14  1  0.565755  0.565755  0.934245  1
  Er  Er15  1  0.934245  0.934245  0.565755  1
  Cd  Cd16  1  0.581443  0.581443  0.581443  1
  Cd  Cd17  1  0.581443  0.581443  0.255669  1
  Cd  Cd18  1  0.581443  0.255669  0.581443  1
  Cd  Cd19  1  0.255669  0.581443  0.581443  1
  Cu  Cu20  1  0.144389  0.144389  0.144389  1
  Cu  Cu21  1  0.144389  0.144389  0.566834  1
  Cu  Cu22  1  0.144389  0.566834  0.144389  1
  Cu  Cu23  1  0.566834  0.144389  0.144389  1
