# generated using pymatgen
data_NdSmY4(Co3P2)6
_symmetry_space_group_name_H-M   'P 1'
_cell_length_a   3.72012100
_cell_length_b   10.55898200
_cell_length_c   12.22809700
_cell_angle_alpha   90.00000000
_cell_angle_beta   90.00000000
_cell_angle_gamma   90.00000000
_symmetry_Int_Tables_number   1
_chemical_formula_structural   NdSmY4(Co3P2)6
_chemical_formula_sum   'Nd1 Sm1 Y4 Co18 P12'
_cell_volume   480.32809582
_cell_formula_units_Z   1
loop_
 _symmetry_equiv_pos_site_id
 _symmetry_equiv_pos_as_xyz
  1  'x, y, z'
loop_
 _atom_site_type_symbol
 _atom_site_label
 _atom_site_symmetry_multiplicity
 _atom_site_fract_x
 _atom_site_fract_y
 _atom_site_fract_z
 _atom_site_occupancy
  Nd  Nd0  1  0.000000  0.500000  0.522075  1
  Sm  Sm1  1  0.500000  0.000000  0.478246  1
  Y  Y2  1  0.500000  0.817443  0.205214  1
  Y  Y3  1  0.500000  0.182557  0.205214  1
  Y  Y4  1  0.000000  0.682876  0.795039  1
  Y  Y5  1  0.000000  0.317124  0.795039  1
  Co  Co6  1  0.500000  0.500000  0.156321  1
  Co  Co7  1  0.000000  0.000000  0.842864  1
  Co  Co8  1  0.500000  0.500000  0.705860  1
  Co  Co9  1  0.000000  0.000000  0.294998  1
  Co  Co10  1  0.000000  0.500000  0.986671  1
  Co  Co11  1  0.500000  0.000000  0.013551  1
  Co  Co12  1  0.500000  0.333241  0.994954  1
  Co  Co13  1  0.500000  0.666759  0.994954  1
  Co  Co14  1  0.000000  0.166516  0.005059  1
  Co  Co15  1  0.000000  0.833484  0.005059  1
  Co  Co16  1  0.500000  0.295702  0.429324  1
  Co  Co17  1  0.500000  0.704298  0.429324  1
  Co  Co18  1  0.000000  0.201931  0.570636  1
  Co  Co19  1  0.000000  0.798069  0.570636  1
  Co  Co20  1  0.500000  0.880102  0.711988  1
  Co  Co21  1  0.500000  0.119898  0.711988  1
  Co  Co22  1  0.000000  0.620511  0.287764  1
  Co  Co23  1  0.000000  0.379489  0.287764  1
  P  P24  1  0.500000  0.500000  0.883918  1
  P  P25  1  0.000000  0.000000  0.116551  1
  P  P26  1  0.500000  0.500000  0.339238  1
  P  P27  1  0.000000  0.000000  0.659165  1
  P  P28  1  0.500000  0.306950  0.617049  1
  P  P29  1  0.500000  0.693050  0.617049  1
  P  P30  1  0.000000  0.191131  0.383398  1
  P  P31  1  0.000000  0.808869  0.383398  1
  P  P32  1  0.500000  0.847275  0.894175  1
  P  P33  1  0.500000  0.152725  0.894175  1
  P  P34  1  0.000000  0.653128  0.105671  1
  P  P35  1  0.000000  0.346872  0.105671  1
