# generated using pymatgen
data_Cs3K2Tl(TcH9)3
_symmetry_space_group_name_H-M   'P 1'
_cell_length_a   9.97509600
_cell_length_b   9.94794710
_cell_length_c   5.95907000
_cell_angle_alpha   90.00000000
_cell_angle_beta   90.00000000
_cell_angle_gamma   120.09031224
_symmetry_Int_Tables_number   1
_chemical_formula_structural   Cs3K2Tl(TcH9)3
_chemical_formula_sum   'Cs3 K2 Tl1 Tc3 H27'
_cell_volume   511.63909513
_cell_formula_units_Z   1
loop_
 _symmetry_equiv_pos_site_id
 _symmetry_equiv_pos_as_xyz
  1  'x, y, z'
loop_
 _atom_site_type_symbol
 _atom_site_label
 _atom_site_symmetry_multiplicity
 _atom_site_fract_x
 _atom_site_fract_y
 _atom_site_fract_z
 _atom_site_occupancy
  Cs  Cs0  1  0.587964  0.000000  0.000000  1
  Cs  Cs1  1  0.000630  0.590228  0.000000  1
  Cs  Cs2  1  0.410402  0.409772  0.000000  1
  K  K3  1  0.000495  0.261610  0.500000  1
  K  K4  1  0.738885  0.738390  0.500000  1
  Tl  Tl5  1  0.264460  0.000000  0.500000  1
  Tc  Tc6  1  0.998493  0.000000  0.000000  1
  Tc  Tc7  1  0.333495  0.666889  0.500000  1
  Tc  Tc8  1  0.666607  0.333111  0.500000  1
  H  H9  1  0.879172  0.000000  0.203442  1
  H  H10  1  0.999475  0.880042  0.201297  1
  H  H11  1  0.879172  0.000000  0.796558  1
  H  H12  1  0.999475  0.880042  0.798703  1
  H  H13  1  0.119433  0.119958  0.201297  1
  H  H14  1  0.119433  0.119958  0.798703  1
  H  H15  1  0.165683  0.000000  0.000000  1
  H  H16  1  0.999917  0.168654  0.000000  1
  H  H17  1  0.831264  0.831346  0.000000  1
  H  H18  1  0.228907  0.536611  0.297180  1
  H  H19  1  0.463434  0.692154  0.297251  1
  H  H20  1  0.228907  0.536611  0.702820  1
  H  H21  1  0.537046  0.229429  0.704739  1
  H  H22  1  0.307616  0.770571  0.295261  1
  H  H23  1  0.463434  0.692154  0.702749  1
  H  H24  1  0.692296  0.463389  0.702820  1
  H  H25  1  0.537046  0.229429  0.295261  1
  H  H26  1  0.307616  0.770571  0.704739  1
  H  H27  1  0.692296  0.463389  0.297180  1
  H  H28  1  0.771280  0.307846  0.702749  1
  H  H29  1  0.771280  0.307846  0.297251  1
  H  H30  1  0.368034  0.519726  0.500000  1
  H  H31  1  0.482266  0.848666  0.500000  1
  H  H32  1  0.520951  0.369728  0.500000  1
  H  H33  1  0.151222  0.630272  0.500000  1
  H  H34  1  0.848309  0.480274  0.500000  1
  H  H35  1  0.633601  0.151334  0.500000  1
