# generated using pymatgen
data_AlV(SeO3)4
_symmetry_space_group_name_H-M   'P 1'
_cell_length_a   8.03240400
_cell_length_b   7.99240961
_cell_length_c   8.04601286
_cell_angle_alpha   90.27523773
_cell_angle_beta   90.00000000
_cell_angle_gamma   90.00000000
_symmetry_Int_Tables_number   1
_chemical_formula_structural   AlV(SeO3)4
_chemical_formula_sum   'Al2 V2 Se8 O24'
_cell_volume   516.53408864
_cell_formula_units_Z   2
loop_
 _symmetry_equiv_pos_site_id
 _symmetry_equiv_pos_as_xyz
  1  'x, y, z'
loop_
 _atom_site_type_symbol
 _atom_site_label
 _atom_site_symmetry_multiplicity
 _atom_site_fract_x
 _atom_site_fract_y
 _atom_site_fract_z
 _atom_site_occupancy
  Al  Al0  1  0.000000  0.000000  0.500000  1
  Al  Al1  1  0.500000  0.000000  0.000000  1
  V  V2  1  0.000000  0.500000  0.000000  1
  V  V3  1  0.500000  0.500000  0.500000  1
  Se  Se4  1  0.328385  0.682994  0.168849  1
  Se  Se5  1  0.828385  0.317006  0.331151  1
  Se  Se6  1  0.676654  0.837623  0.678670  1
  Se  Se7  1  0.176654  0.162377  0.821330  1
  Se  Se8  1  0.671615  0.317006  0.831151  1
  Se  Se9  1  0.171615  0.682994  0.668849  1
  Se  Se10  1  0.323346  0.162377  0.321330  1
  Se  Se11  1  0.823346  0.837623  0.178670  1
  O  O12  1  0.232286  0.531081  0.041165  1
  O  O13  1  0.732286  0.468919  0.458835  1
  O  O14  1  0.765808  0.966056  0.535509  1
  O  O15  1  0.265808  0.033944  0.964491  1
  O  O16  1  0.534257  0.969897  0.766279  1
  O  O17  1  0.464515  0.543108  0.267749  1
  O  O18  1  0.964515  0.456892  0.232251  1
  O  O19  1  0.034257  0.030103  0.733721  1
  O  O20  1  0.961679  0.236158  0.472632  1
  O  O21  1  0.536771  0.728172  0.540829  1
  O  O22  1  0.461679  0.763842  0.027368  1
  O  O23  1  0.036771  0.271828  0.959171  1
  O  O24  1  0.767714  0.468919  0.958835  1
  O  O25  1  0.267714  0.531081  0.541165  1
  O  O26  1  0.234192  0.033944  0.464491  1
  O  O27  1  0.734192  0.966056  0.035509  1
  O  O28  1  0.465743  0.030103  0.233721  1
  O  O29  1  0.535485  0.456892  0.732251  1
  O  O30  1  0.035485  0.543108  0.767749  1
  O  O31  1  0.965743  0.969897  0.266279  1
  O  O32  1  0.038321  0.763842  0.527368  1
  O  O33  1  0.463229  0.271828  0.459171  1
  O  O34  1  0.538321  0.236158  0.972632  1
  O  O35  1  0.963229  0.728172  0.040829  1
