# generated using pymatgen
data_TmCuIO6
_symmetry_space_group_name_H-M   'P 1'
_cell_length_a   5.13681340
_cell_length_b   5.13734171
_cell_length_c   9.68235900
_cell_angle_alpha   90.02575183
_cell_angle_beta   89.97750247
_cell_angle_gamma   120.00163364
_symmetry_Int_Tables_number   1
_chemical_formula_structural   TmCuIO6
_chemical_formula_sum   'Tm2 Cu2 I2 O12'
_cell_volume   221.27729559
_cell_formula_units_Z   2
loop_
 _symmetry_equiv_pos_site_id
 _symmetry_equiv_pos_as_xyz
  1  'x, y, z'
loop_
 _atom_site_type_symbol
 _atom_site_label
 _atom_site_symmetry_multiplicity
 _atom_site_fract_x
 _atom_site_fract_y
 _atom_site_fract_z
 _atom_site_occupancy
  Tm  Tm0  1  0.997779  0.992973  0.000043  1
  Tm  Tm1  1  0.005171  0.999229  0.500031  1
  Cu  Cu2  1  0.338255  0.662835  0.249935  1
  Cu  Cu3  1  0.666302  0.325736  0.750175  1
  I  I4  1  0.668207  0.329669  0.250084  1
  I  I5  1  0.333279  0.663058  0.749913  1
  O  O6  1  0.645012  0.623719  0.136933  1
  O  O7  1  0.356144  0.009939  0.144509  1
  O  O8  1  0.951539  0.323394  0.130448  1
  O  O9  1  0.371928  0.353597  0.361495  1
  O  O10  1  0.985485  0.642422  0.355194  1
  O  O11  1  0.671787  0.046828  0.371497  1
  O  O12  1  0.356962  0.987062  0.640580  1
  O  O13  1  0.645549  0.662474  0.643332  1
  O  O14  1  0.049913  0.380406  0.627798  1
  O  O15  1  0.010101  0.651780  0.854603  1
  O  O16  1  0.623097  0.975687  0.865406  1
  O  O17  1  0.323485  0.369182  0.868024  1
