# generated using pymatgen
data_NdNi4SbH4
_symmetry_space_group_name_H-M   'P 1'
_cell_length_a   5.29264899
_cell_length_b   5.28977525
_cell_length_c   4.17796300
_cell_angle_alpha   90.00000000
_cell_angle_beta   90.00000000
_cell_angle_gamma   116.70982903
_symmetry_Int_Tables_number   1
_chemical_formula_structural   NdNi4SbH4
_chemical_formula_sum   'Nd1 Ni4 Sb1 H4'
_cell_volume   104.48873293
_cell_formula_units_Z   1
loop_
 _symmetry_equiv_pos_site_id
 _symmetry_equiv_pos_as_xyz
  1  'x, y, z'
loop_
 _atom_site_type_symbol
 _atom_site_label
 _atom_site_symmetry_multiplicity
 _atom_site_fract_x
 _atom_site_fract_y
 _atom_site_fract_z
 _atom_site_occupancy
  Nd  Nd0  1  0.500000  0.500000  0.500000  1
  Ni  Ni1  1  0.847781  0.152158  0.500000  1
  Ni  Ni2  1  0.152219  0.847842  0.500000  1
  Ni  Ni3  1  0.000000  0.500000  0.000000  1
  Ni  Ni4  1  0.500000  0.000000  0.000000  1
  Sb  Sb5  1  0.000000  0.000000  0.000000  1
  H  H6  1  0.649358  0.350556  0.000000  1
  H  H7  1  0.350642  0.649444  0.000000  1
  H  H8  1  0.000000  0.500000  0.500000  1
  H  H9  1  0.500000  0.000000  0.500000  1
