# generated using pymatgen
data_Cs2MgSn3S8
_symmetry_space_group_name_H-M   'P 1'
_cell_length_a   6.53052200
_cell_length_b   7.25054800
_cell_length_c   17.13735000
_cell_angle_alpha   90.00000000
_cell_angle_beta   90.00000000
_cell_angle_gamma   90.00000000
_symmetry_Int_Tables_number   1
_chemical_formula_structural   Cs2MgSn3S8
_chemical_formula_sum   'Cs4 Mg2 Sn6 S16'
_cell_volume   811.45117856
_cell_formula_units_Z   2
loop_
 _symmetry_equiv_pos_site_id
 _symmetry_equiv_pos_as_xyz
  1  'x, y, z'
loop_
 _atom_site_type_symbol
 _atom_site_label
 _atom_site_symmetry_multiplicity
 _atom_site_fract_x
 _atom_site_fract_y
 _atom_site_fract_z
 _atom_site_occupancy
  Cs  Cs0  1  0.361731  0.000000  0.000000  1
  Cs  Cs1  1  0.626470  0.500000  0.500000  1
  Cs  Cs2  1  0.021125  0.000000  0.500000  1
  Cs  Cs3  1  0.972174  0.500000  0.000000  1
  Mg  Mg4  1  0.002432  0.000000  0.248936  1
  Mg  Mg5  1  0.002432  0.000000  0.751064  1
  Sn  Sn6  1  0.999593  0.500000  0.249972  1
  Sn  Sn7  1  0.999593  0.500000  0.750028  1
  Sn  Sn8  1  0.500614  0.243684  0.249212  1
  Sn  Sn9  1  0.500614  0.756316  0.750788  1
  Sn  Sn10  1  0.500614  0.756316  0.249212  1
  Sn  Sn11  1  0.500614  0.243684  0.750788  1
  S  S12  1  0.829890  0.252213  0.334174  1
  S  S13  1  0.829890  0.747787  0.665826  1
  S  S14  1  0.170809  0.748154  0.164757  1
  S  S15  1  0.170809  0.251846  0.835243  1
  S  S16  1  0.170809  0.251846  0.164757  1
  S  S17  1  0.170809  0.748154  0.835243  1
  S  S18  1  0.829890  0.747787  0.334174  1
  S  S19  1  0.829890  0.252213  0.665826  1
  S  S20  1  0.667436  0.000000  0.162908  1
  S  S21  1  0.667436  0.000000  0.837092  1
  S  S22  1  0.330066  0.500000  0.334708  1
  S  S23  1  0.330066  0.500000  0.665292  1
  S  S24  1  0.341814  0.000000  0.336856  1
  S  S25  1  0.341814  0.000000  0.663144  1
  S  S26  1  0.665281  0.500000  0.163816  1
  S  S27  1  0.665281  0.500000  0.836184  1
