# generated using pymatgen
data_TbDy2Zr(NiAs)4
_symmetry_space_group_name_H-M   'P 1'
_cell_length_a   4.03549800
_cell_length_b   4.03549869
_cell_length_c   15.25045900
_cell_angle_alpha   90.00000000
_cell_angle_beta   90.00000000
_cell_angle_gamma   120.00001077
_symmetry_Int_Tables_number   1
_chemical_formula_structural   TbDy2Zr(NiAs)4
_chemical_formula_sum   'Tb1 Dy2 Zr1 Ni4 As4'
_cell_volume   215.08387205
_cell_formula_units_Z   1
loop_
 _symmetry_equiv_pos_site_id
 _symmetry_equiv_pos_as_xyz
  1  'x, y, z'
loop_
 _atom_site_type_symbol
 _atom_site_label
 _atom_site_symmetry_multiplicity
 _atom_site_fract_x
 _atom_site_fract_y
 _atom_site_fract_z
 _atom_site_occupancy
  Tb  Tb0  1  0.000000  0.000000  0.006928  1
  Dy  Dy1  1  0.000000  0.000000  0.749968  1
  Dy  Dy2  1  0.000000  0.000000  0.493146  1
  Zr  Zr3  1  0.000000  0.000000  0.250228  1
  Ni  Ni4  1  0.333333  0.666667  0.159027  1
  Ni  Ni5  1  0.666667  0.333333  0.873746  1
  Ni  Ni6  1  0.666667  0.333333  0.625523  1
  Ni  Ni7  1  0.333333  0.666667  0.341381  1
  As  As8  1  0.333333  0.666667  0.618757  1
  As  As9  1  0.666667  0.333333  0.375805  1
  As  As10  1  0.666667  0.333333  0.124822  1
  As  As11  1  0.333333  0.666667  0.880669  1
