# generated using pymatgen
data_Pu2SnRh3
_symmetry_space_group_name_H-M   'P 1'
_cell_length_a   5.31794623
_cell_length_b   5.31828266
_cell_length_c   5.31795910
_cell_angle_alpha   64.35872188
_cell_angle_beta   64.36391631
_cell_angle_gamma   64.35891542
_symmetry_Int_Tables_number   1
_chemical_formula_structural   Pu2SnRh3
_chemical_formula_sum   'Pu2 Sn1 Rh3'
_cell_volume   116.53472069
_cell_formula_units_Z   1
loop_
 _symmetry_equiv_pos_site_id
 _symmetry_equiv_pos_as_xyz
  1  'x, y, z'
loop_
 _atom_site_type_symbol
 _atom_site_label
 _atom_site_symmetry_multiplicity
 _atom_site_fract_x
 _atom_site_fract_y
 _atom_site_fract_z
 _atom_site_occupancy
  Pu  Pu0  1  0.378554  0.378559  0.378554  1
  Pu  Pu1  1  0.621446  0.621441  0.621446  1
  Sn  Sn2  1  0.000000  0.000000  0.000000  1
  Rh  Rh3  1  0.500000  0.000000  0.000000  1
  Rh  Rh4  1  0.000000  0.500000  0.000000  1
  Rh  Rh5  1  0.000000  0.000000  0.500000  1
