# generated using pymatgen
data_YEr7Sc12Si11Ge5
_symmetry_space_group_name_H-M   'P 1'
_cell_length_a   7.11989192
_cell_length_b   7.37091031
_cell_length_c   14.01443246
_cell_angle_alpha   89.98782847
_cell_angle_beta   88.94851373
_cell_angle_gamma   90.06451672
_symmetry_Int_Tables_number   1
_chemical_formula_structural   YEr7Sc12Si11Ge5
_chemical_formula_sum   'Y1 Er7 Sc12 Si11 Ge5'
_cell_volume   735.35426921
_cell_formula_units_Z   1
loop_
 _symmetry_equiv_pos_site_id
 _symmetry_equiv_pos_as_xyz
  1  'x, y, z'
loop_
 _atom_site_type_symbol
 _atom_site_label
 _atom_site_symmetry_multiplicity
 _atom_site_fract_x
 _atom_site_fract_y
 _atom_site_fract_z
 _atom_site_occupancy
  Y  Y0  1  0.009303  0.174903  0.096273  1
  Er  Er1  1  0.991874  0.824062  0.902038  1
  Er  Er2  1  0.491070  0.676507  0.902144  1
  Er  Er3  1  0.998487  0.821047  0.598939  1
  Er  Er4  1  0.506245  0.323047  0.097348  1
  Er  Er5  1  0.001214  0.178648  0.401050  1
  Er  Er6  1  0.500732  0.321284  0.401300  1
  Er  Er7  1  0.498943  0.678301  0.598969  1
  Sc  Sc8  1  0.171266  0.500950  0.749791  1
  Sc  Sc9  1  0.829051  0.499237  0.251521  1
  Sc  Sc10  1  0.329507  0.000816  0.250297  1
  Sc  Sc11  1  0.670514  0.998970  0.749989  1
  Sc  Sc12  1  0.344373  0.170717  0.626555  1
  Sc  Sc13  1  0.655540  0.829898  0.373780  1
  Sc  Sc14  1  0.155991  0.670411  0.374095  1
  Sc  Sc15  1  0.662176  0.825412  0.126139  1
  Sc  Sc16  1  0.844587  0.329911  0.626235  1
  Sc  Sc17  1  0.336063  0.176028  0.874569  1
  Sc  Sc18  1  0.836362  0.322918  0.874732  1
  Sc  Sc19  1  0.166042  0.676025  0.124628  1
  Si  Si20  1  0.041922  0.115563  0.751071  1
  Si  Si21  1  0.958148  0.882946  0.248810  1
  Si  Si22  1  0.457883  0.615887  0.249075  1
  Si  Si23  1  0.542769  0.383828  0.751209  1
  Si  Si24  1  0.293290  0.870888  0.751001  1
  Si  Si25  1  0.706146  0.129485  0.249204  1
  Si  Si26  1  0.206609  0.371469  0.249069  1
  Si  Si27  1  0.793702  0.628862  0.751314  1
  Si  Si28  1  0.164577  0.465035  0.959385  1
  Si  Si29  1  0.658747  0.034487  0.960524  1
  Si  Si30  1  0.342844  0.964386  0.038986  1
  Ge  Ge31  1  0.182017  0.459993  0.541029  1
  Ge  Ge32  1  0.817744  0.539855  0.459090  1
  Ge  Ge33  1  0.318037  0.959449  0.459607  1
  Ge  Ge34  1  0.834287  0.537976  0.039482  1
  Ge  Ge35  1  0.681941  0.040800  0.540751  1
