# generated using pymatgen
data_Tb13Y3(TmSn4)4
_symmetry_space_group_name_H-M   'P 1'
_cell_length_a   8.03027800
_cell_length_b   8.19122100
_cell_length_c   15.49731500
_cell_angle_alpha   90.00079430
_cell_angle_beta   89.99934274
_cell_angle_gamma   90.00030372
_symmetry_Int_Tables_number   1
_chemical_formula_structural   Tb13Y3(TmSn4)4
_chemical_formula_sum   'Tb13 Y3 Tm4 Sn16'
_cell_volume   1019.37900430
_cell_formula_units_Z   1
loop_
 _symmetry_equiv_pos_site_id
 _symmetry_equiv_pos_as_xyz
  1  'x, y, z'
loop_
 _atom_site_type_symbol
 _atom_site_label
 _atom_site_symmetry_multiplicity
 _atom_site_fract_x
 _atom_site_fract_y
 _atom_site_fract_z
 _atom_site_occupancy
  Tb  Tb0  1  0.133088  0.337130  0.122052  1
  Tb  Tb1  1  0.633075  0.162892  0.122074  1
  Tb  Tb2  1  0.133053  0.337111  0.377934  1
  Tb  Tb3  1  0.366951  0.837106  0.622082  1
  Tb  Tb4  1  0.866956  0.662883  0.877923  1
  Tb  Tb5  1  0.519834  0.320442  0.902631  1
  Tb  Tb6  1  0.019838  0.179562  0.597372  1
  Tb  Tb7  1  0.480167  0.679571  0.402635  1
  Tb  Tb8  1  0.980161  0.820453  0.097374  1
  Tb  Tb9  1  0.480148  0.679526  0.097374  1
  Tb  Tb10  1  0.980133  0.820460  0.402632  1
  Tb  Tb11  1  0.519863  0.320467  0.597373  1
  Tb  Tb12  1  0.019862  0.179530  0.902618  1
  Y  Y13  1  0.366872  0.837170  0.877926  1
  Y  Y14  1  0.866870  0.662830  0.622065  1
  Y  Y15  1  0.633117  0.162828  0.377945  1
  Tm  Tm16  1  0.198318  0.502667  0.750015  1
  Tm  Tm17  1  0.698313  0.997336  0.749980  1
  Tm  Tm18  1  0.801688  0.497337  0.250016  1
  Tm  Tm19  1  0.301698  0.002660  0.249990  1
  Sn  Sn20  1  0.293086  0.035809  0.042542  1
  Sn  Sn21  1  0.793058  0.464161  0.457454  1
  Sn  Sn22  1  0.706946  0.964158  0.542551  1
  Sn  Sn23  1  0.206958  0.535880  0.957421  1
  Sn  Sn24  1  0.706850  0.964141  0.957417  1
  Sn  Sn25  1  0.206852  0.535857  0.542583  1
  Sn  Sn26  1  0.293147  0.035857  0.457414  1
  Sn  Sn27  1  0.793085  0.464155  0.042580  1
  Sn  Sn28  1  0.563793  0.618285  0.749985  1
  Sn  Sn29  1  0.063793  0.881712  0.750016  1
  Sn  Sn30  1  0.436235  0.381722  0.249994  1
  Sn  Sn31  1  0.936184  0.118259  0.250015  1
  Sn  Sn32  1  0.328889  0.148368  0.750007  1
  Sn  Sn33  1  0.828896  0.351641  0.749996  1
  Sn  Sn34  1  0.671110  0.851644  0.250010  1
  Sn  Sn35  1  0.171115  0.648390  0.250005  1
