# generated using pymatgen
data_K4Zr6GaBr18
_symmetry_space_group_name_H-M   'P 1'
_cell_length_a   10.58544547
_cell_length_b   10.76052222
_cell_length_c   10.85573704
_cell_angle_alpha   118.76011743
_cell_angle_beta   100.27589582
_cell_angle_gamma   103.75989161
_symmetry_Int_Tables_number   1
_chemical_formula_structural   K4Zr6GaBr18
_chemical_formula_sum   'K4 Zr6 Ga1 Br18'
_cell_volume   988.65628916
_cell_formula_units_Z   1
loop_
 _symmetry_equiv_pos_site_id
 _symmetry_equiv_pos_as_xyz
  1  'x, y, z'
loop_
 _atom_site_type_symbol
 _atom_site_label
 _atom_site_symmetry_multiplicity
 _atom_site_fract_x
 _atom_site_fract_y
 _atom_site_fract_z
 _atom_site_occupancy
  K  K0  1  0.651043  0.536341  0.227109  1
  K  K1  1  0.348957  0.463659  0.772891  1
  K  K2  1  0.687500  0.227387  0.564952  1
  K  K3  1  0.312500  0.772613  0.435048  1
  Zr  Zr4  1  0.158409  0.056925  0.244030  1
  Zr  Zr5  1  0.841591  0.943075  0.755970  1
  Zr  Zr6  1  0.854292  0.135694  0.142190  1
  Zr  Zr7  1  0.145708  0.864306  0.857810  1
  Zr  Zr8  1  0.152277  0.251996  0.045052  1
  Zr  Zr9  1  0.847723  0.748004  0.954948  1
  Ga  Ga10  1  0.000000  0.000000  0.000000  1
  Br  Br11  1  0.010570  0.414682  0.201698  1
  Br  Br12  1  0.989430  0.585318  0.798302  1
  Br  Br13  1  0.330771  0.334001  0.312087  1
  Br  Br14  1  0.669229  0.665999  0.687913  1
  Br  Br15  1  0.329086  0.527169  0.101416  1
  Br  Br16  1  0.670914  0.472831  0.898584  1
  Br  Br17  1  0.005301  0.792776  0.212412  1
  Br  Br18  1  0.994699  0.207224  0.787588  1
  Br  Br19  1  0.702215  0.282227  0.294719  1
  Br  Br20  1  0.297785  0.717773  0.705281  1
  Br  Br21  1  0.319674  0.127283  0.903386  1
  Br  Br22  1  0.680326  0.872717  0.096614  1
  Br  Br23  1  0.017811  0.208901  0.413264  1
  Br  Br24  1  0.982189  0.791099  0.586736  1
  Br  Br25  1  0.324027  0.922459  0.110268  1
  Br  Br26  1  0.675973  0.077541  0.889732  1
  Br  Br27  1  0.339412  0.121665  0.507808  1
  Br  Br28  1  0.660588  0.878335  0.492192  1
