# generated using pymatgen
data_YV3P3Rh2
_symmetry_space_group_name_H-M   'P 1'
_cell_length_a   3.89330400
_cell_length_b   6.85318257
_cell_length_c   9.92174034
_cell_angle_alpha   79.99965721
_cell_angle_beta   90.00000000
_cell_angle_gamma   90.00000000
_symmetry_Int_Tables_number   1
_chemical_formula_structural   YV3P3Rh2
_chemical_formula_sum   'Y2 V6 P6 Rh4'
_cell_volume   260.70506898
_cell_formula_units_Z   2
loop_
 _symmetry_equiv_pos_site_id
 _symmetry_equiv_pos_as_xyz
  1  'x, y, z'
loop_
 _atom_site_type_symbol
 _atom_site_label
 _atom_site_symmetry_multiplicity
 _atom_site_fract_x
 _atom_site_fract_y
 _atom_site_fract_z
 _atom_site_occupancy
  Y  Y0  1  0.250000  0.804422  0.790722  1
  Y  Y1  1  0.750000  0.195578  0.209278  1
  V  V2  1  0.250000  0.611597  0.514076  1
  V  V3  1  0.750000  0.388403  0.485924  1
  V  V4  1  0.250000  0.129318  0.500531  1
  V  V5  1  0.750000  0.870682  0.499469  1
  V  V6  1  0.250000  0.320842  0.725781  1
  V  V7  1  0.750000  0.679158  0.274219  1
  P  P8  1  0.250000  0.255599  0.976203  1
  P  P9  1  0.750000  0.744401  0.023797  1
  P  P10  1  0.250000  0.428574  0.329707  1
  P  P11  1  0.750000  0.571426  0.670293  1
  P  P12  1  0.250000  0.901542  0.338415  1
  P  P13  1  0.750000  0.098458  0.661585  1
  Rh  Rh14  1  0.250000  0.527759  0.095853  1
  Rh  Rh15  1  0.750000  0.472241  0.904147  1
  Rh  Rh16  1  0.250000  0.926694  0.099039  1
  Rh  Rh17  1  0.750000  0.073306  0.900961  1
