# generated using pymatgen
data_Rb2V5CoSe6
_symmetry_space_group_name_H-M   'P 1'
_cell_length_a   9.52933237
_cell_length_b   9.25929267
_cell_length_c   4.33646000
_cell_angle_alpha   90.00000000
_cell_angle_beta   90.00000000
_cell_angle_gamma   119.70871523
_symmetry_Int_Tables_number   1
_chemical_formula_structural   Rb2V5CoSe6
_chemical_formula_sum   'Rb2 V5 Co1 Se6'
_cell_volume   332.33304444
_cell_formula_units_Z   1
loop_
 _symmetry_equiv_pos_site_id
 _symmetry_equiv_pos_as_xyz
  1  'x, y, z'
loop_
 _atom_site_type_symbol
 _atom_site_label
 _atom_site_symmetry_multiplicity
 _atom_site_fract_x
 _atom_site_fract_y
 _atom_site_fract_z
 _atom_site_occupancy
  Rb  Rb0  1  0.335574  0.673410  0.250000  1
  Rb  Rb1  1  0.664470  0.325357  0.750000  1
  V  V2  1  0.153351  0.177016  0.250000  1
  V  V3  1  0.848340  0.820719  0.750000  1
  V  V4  1  0.814593  0.971845  0.250000  1
  V  V5  1  0.026321  0.876573  0.250000  1
  V  V6  1  0.971156  0.125222  0.750000  1
  Co  Co7  1  0.178264  0.027564  0.750000  1
  Se  Se8  1  0.954837  0.287400  0.250000  1
  Se  Se9  1  0.058508  0.733861  0.750000  1
  Se  Se10  1  0.722176  0.661956  0.250000  1
  Se  Se11  1  0.334072  0.053930  0.250000  1
  Se  Se12  1  0.661695  0.945446  0.750000  1
  Se  Se13  1  0.276643  0.319699  0.750000  1
