# generated using pymatgen
data_KLaB12
_symmetry_space_group_name_H-M   'P 1'
_cell_length_a   5.92790361
_cell_length_b   5.92790468
_cell_length_c   5.92790400
_cell_angle_alpha   60.00000380
_cell_angle_beta   59.99999780
_cell_angle_gamma   59.99999809
_symmetry_Int_Tables_number   1
_chemical_formula_structural   KLaB12
_chemical_formula_sum   'K1 La1 B12'
_cell_volume   147.29517053
_cell_formula_units_Z   1
loop_
 _symmetry_equiv_pos_site_id
 _symmetry_equiv_pos_as_xyz
  1  'x, y, z'
loop_
 _atom_site_type_symbol
 _atom_site_label
 _atom_site_symmetry_multiplicity
 _atom_site_fract_x
 _atom_site_fract_y
 _atom_site_fract_z
 _atom_site_occupancy
  K  K0  1  0.000000  0.000000  0.000000  1
  La  La1  1  0.500000  0.500000  0.500000  1
  B  B2  1  0.898561  0.601439  0.601439  1
  B  B3  1  0.398561  0.101439  0.101439  1
  B  B4  1  0.898561  0.898561  0.601439  1
  B  B5  1  0.398561  0.398561  0.101439  1
  B  B6  1  0.601439  0.898561  0.601439  1
  B  B7  1  0.101439  0.398561  0.101439  1
  B  B8  1  0.601439  0.601439  0.898561  1
  B  B9  1  0.101439  0.101439  0.398561  1
  B  B10  1  0.898561  0.601439  0.898561  1
  B  B11  1  0.398561  0.101439  0.398561  1
  B  B12  1  0.601439  0.898561  0.898561  1
  B  B13  1  0.101439  0.398561  0.398561  1
