# generated using pymatgen
data_Er3Tm5B24Ru3W
_symmetry_space_group_name_H-M   'P 1'
_cell_length_a   3.61207900
_cell_length_b   9.11545468
_cell_length_c   11.50383400
_cell_angle_alpha   89.85776830
_cell_angle_beta   90.00000000
_cell_angle_gamma   90.00000000
_symmetry_Int_Tables_number   1
_chemical_formula_structural   Er3Tm5B24Ru3W
_chemical_formula_sum   'Er3 Tm5 B24 Ru3 W1'
_cell_volume   378.77110823
_cell_formula_units_Z   1
loop_
 _symmetry_equiv_pos_site_id
 _symmetry_equiv_pos_as_xyz
  1  'x, y, z'
loop_
 _atom_site_type_symbol
 _atom_site_label
 _atom_site_symmetry_multiplicity
 _atom_site_fract_x
 _atom_site_fract_y
 _atom_site_fract_z
 _atom_site_occupancy
  Er  Er0  1  0.000000  0.320984  0.413729  1
  Er  Er1  1  0.000000  0.678101  0.585411  1
  Er  Er2  1  0.000000  0.820203  0.086844  1
  Tm  Tm3  1  0.000000  0.177127  0.914743  1
  Tm  Tm4  1  0.000000  0.946364  0.373310  1
  Tm  Tm5  1  0.000000  0.057798  0.628882  1
  Tm  Tm6  1  0.000000  0.442250  0.125675  1
  Tm  Tm7  1  0.000000  0.556771  0.871031  1
  B  B8  1  0.500000  0.549848  0.436866  1
  B  B9  1  0.500000  0.445762  0.568559  1
  B  B10  1  0.500000  0.053904  0.066303  1
  B  B11  1  0.500000  0.946449  0.933354  1
  B  B12  1  0.500000  0.752652  0.422785  1
  B  B13  1  0.500000  0.251377  0.581287  1
  B  B14  1  0.500000  0.248388  0.079370  1
  B  B15  1  0.500000  0.751158  0.919108  1
  B  B16  1  0.500000  0.796233  0.263723  1
  B  B17  1  0.500000  0.208255  0.734886  1
  B  B18  1  0.500000  0.290518  0.232374  1
  B  B19  1  0.500000  0.709206  0.765645  1
  B  B20  1  0.500000  0.631783  0.181426  1
  B  B21  1  0.500000  0.367950  0.815471  1
  B  B22  1  0.500000  0.131679  0.314425  1
  B  B23  1  0.500000  0.869689  0.685322  1
  B  B24  1  0.500000  0.983773  0.212543  1
  B  B25  1  0.500000  0.017778  0.788351  1
  B  B26  1  0.500000  0.476287  0.286132  1
  B  B27  1  0.500000  0.516734  0.713215  1
  B  B28  1  0.500000  0.605489  0.027179  1
  B  B29  1  0.500000  0.392731  0.969448  1
  B  B30  1  0.500000  0.107230  0.471431  1
  B  B31  1  0.500000  0.896996  0.530690  1
  Ru  Ru32  1  0.000000  0.361018  0.680601  1
  Ru  Ru33  1  0.000000  0.137654  0.177933  1
  Ru  Ru34  1  0.000000  0.862267  0.820680  1
  W  W35  1  0.000000  0.637598  0.321270  1
