# generated using pymatgen
data_Tb6AlCoTc
_symmetry_space_group_name_H-M   'P 1'
_cell_length_a   8.39525710
_cell_length_b   8.39525704
_cell_length_c   8.39525622
_cell_angle_alpha   112.47665036
_cell_angle_beta   111.65417680
_cell_angle_gamma   104.39998608
_symmetry_Int_Tables_number   1
_chemical_formula_structural   Tb6AlCoTc
_chemical_formula_sum   'Tb12 Al2 Co2 Tc2'
_cell_volume   452.82090840
_cell_formula_units_Z   2
loop_
 _symmetry_equiv_pos_site_id
 _symmetry_equiv_pos_as_xyz
  1  'x, y, z'
loop_
 _atom_site_type_symbol
 _atom_site_label
 _atom_site_symmetry_multiplicity
 _atom_site_fract_x
 _atom_site_fract_y
 _atom_site_fract_z
 _atom_site_occupancy
  Tb  Tb0  1  0.052687  0.745578  0.307108  1
  Tb  Tb1  1  0.947313  0.254422  0.692892  1
  Tb  Tb2  1  0.561530  0.254422  0.307108  1
  Tb  Tb3  1  0.438470  0.745578  0.692892  1
  Tb  Tb4  1  0.674101  0.856337  0.182236  1
  Tb  Tb5  1  0.325899  0.508135  0.182236  1
  Tb  Tb6  1  0.325899  0.143663  0.817764  1
  Tb  Tb7  1  0.674101  0.491865  0.817764  1
  Tb  Tb8  1  0.183003  0.217185  0.400188  1
  Tb  Tb9  1  0.816997  0.217185  0.034182  1
  Tb  Tb10  1  0.183003  0.782815  0.965818  1
  Tb  Tb11  1  0.816997  0.782815  0.599812  1
  Al  Al12  1  0.000000  0.500000  0.500000  1
  Al  Al13  1  0.500000  0.000000  0.500000  1
  Co  Co14  1  0.889859  0.889859  0.000000  1
  Co  Co15  1  0.110141  0.110141  0.000000  1
  Tc  Tc16  1  0.686992  0.500000  0.186992  1
  Tc  Tc17  1  0.313008  0.500000  0.813008  1
