# generated using pymatgen
data_CsFeAs2O7
_symmetry_space_group_name_H-M   'P 1'
_cell_length_a   6.61010523
_cell_length_b   6.66706890
_cell_length_c   8.70429530
_cell_angle_alpha   96.46720300
_cell_angle_beta   102.48272060
_cell_angle_gamma   103.58000339
_symmetry_Int_Tables_number   1
_chemical_formula_structural   CsFeAs2O7
_chemical_formula_sum   'Cs2 Fe2 As4 O14'
_cell_volume   358.62454252
_cell_formula_units_Z   2
loop_
 _symmetry_equiv_pos_site_id
 _symmetry_equiv_pos_as_xyz
  1  'x, y, z'
loop_
 _atom_site_type_symbol
 _atom_site_label
 _atom_site_symmetry_multiplicity
 _atom_site_fract_x
 _atom_site_fract_y
 _atom_site_fract_z
 _atom_site_occupancy
  Cs  Cs0  1  0.000000  0.500000  0.500000  1
  Cs  Cs1  1  0.000000  0.500000  0.000000  1
  Fe  Fe2  1  0.375007  0.182283  0.730867  1
  Fe  Fe3  1  0.624993  0.817717  0.269133  1
  As  As4  1  0.816396  0.024823  0.683363  1
  As  As5  1  0.494632  0.741960  0.836385  1
  As  As6  1  0.183604  0.975177  0.316637  1
  As  As7  1  0.505368  0.258040  0.163615  1
  O  O8  1  0.231880  0.134321  0.165333  1
  O  O9  1  0.330330  0.872023  0.733750  1
  O  O10  1  0.570655  0.504442  0.269305  1
  O  O11  1  0.923095  0.833260  0.237167  1
  O  O12  1  0.669670  0.127977  0.266250  1
  O  O13  1  0.768120  0.865679  0.834667  1
  O  O14  1  0.331519  0.796713  0.314426  1
  O  O15  1  0.481463  0.749328  0.029120  1
  O  O16  1  0.429345  0.495558  0.730695  1
  O  O17  1  0.233353  0.142871  0.489863  1
  O  O18  1  0.766647  0.857129  0.510137  1
  O  O19  1  0.076905  0.166740  0.762833  1
  O  O20  1  0.518537  0.250672  0.970880  1
  O  O21  1  0.668481  0.203287  0.685574  1
