# generated using pymatgen
data_Pr2CdPt2Au
_symmetry_space_group_name_H-M   'P 1'
_cell_length_a   4.17323300
_cell_length_b   7.47313400
_cell_length_c   8.92001100
_cell_angle_alpha   90.00000000
_cell_angle_beta   90.00000000
_cell_angle_gamma   90.00000000
_symmetry_Int_Tables_number   1
_chemical_formula_structural   Pr2CdPt2Au
_chemical_formula_sum   'Pr4 Cd2 Pt4 Au2'
_cell_volume   278.18953750
_cell_formula_units_Z   2
loop_
 _symmetry_equiv_pos_site_id
 _symmetry_equiv_pos_as_xyz
  1  'x, y, z'
loop_
 _atom_site_type_symbol
 _atom_site_label
 _atom_site_symmetry_multiplicity
 _atom_site_fract_x
 _atom_site_fract_y
 _atom_site_fract_z
 _atom_site_occupancy
  Pr  Pr0  1  0.750000  0.437445  0.812277  1
  Pr  Pr1  1  0.250000  0.053282  0.316094  1
  Pr  Pr2  1  0.750000  0.937445  0.687723  1
  Pr  Pr3  1  0.250000  0.553282  0.183906  1
  Cd  Cd4  1  0.750000  0.377233  0.442390  1
  Cd  Cd5  1  0.750000  0.877233  0.057610  1
  Pt  Pt6  1  0.250000  0.728171  0.877902  1
  Pt  Pt7  1  0.250000  0.228171  0.622098  1
  Pt  Pt8  1  0.750000  0.765067  0.362123  1
  Pt  Pt9  1  0.750000  0.265067  0.137877  1
  Au  Au10  1  0.250000  0.638801  0.564222  1
  Au  Au11  1  0.250000  0.138801  0.935778  1
