# generated using pymatgen
data_Ho10Ga3SiPb2
_symmetry_space_group_name_H-M   'P 1'
_cell_length_a   8.70157788
_cell_length_b   8.70157623
_cell_length_c   8.76999300
_cell_angle_alpha   125.91126902
_cell_angle_beta   125.91127740
_cell_angle_gamma   79.49702497
_symmetry_Int_Tables_number   1
_chemical_formula_structural   Ho10Ga3SiPb2
_chemical_formula_sum   'Ho10 Ga3 Si1 Pb2'
_cell_volume   422.15122854
_cell_formula_units_Z   1
loop_
 _symmetry_equiv_pos_site_id
 _symmetry_equiv_pos_as_xyz
  1  'x, y, z'
loop_
 _atom_site_type_symbol
 _atom_site_label
 _atom_site_symmetry_multiplicity
 _atom_site_fract_x
 _atom_site_fract_y
 _atom_site_fract_z
 _atom_site_occupancy
  Ho  Ho0  1  0.001173  0.000394  0.001567  1
  Ho  Ho1  1  0.499606  0.498827  0.998433  1
  Ho  Ho2  1  0.016034  0.511974  0.812406  1
  Ho  Ho3  1  0.703628  0.199567  0.187594  1
  Ho  Ho4  1  0.519692  0.701954  0.500000  1
  Ho  Ho5  1  0.196911  0.023810  0.500000  1
  Ho  Ho6  1  0.988026  0.483966  0.187594  1
  Ho  Ho7  1  0.300433  0.796372  0.812406  1
  Ho  Ho8  1  0.476190  0.303089  0.500000  1
  Ho  Ho9  1  0.798046  0.980308  0.500000  1
  Ga  Ga10  1  0.357556  0.858906  0.216461  1
  Ga  Ga11  1  0.641094  0.142444  0.783539  1
  Ga  Ga12  1  0.862056  0.637944  0.500000  1
  Si  Si13  1  0.137420  0.362580  0.500000  1
  Pb  Pb14  1  0.751069  0.748931  0.000000  1
  Pb  Pb15  1  0.251069  0.248931  0.000000  1
