# generated using pymatgen
data_Tc3(TeBr)7
_symmetry_space_group_name_H-M   'P 1'
_cell_length_a   13.36433163
_cell_length_b   13.36433089
_cell_length_c   13.36433127
_cell_angle_alpha   46.92225808
_cell_angle_beta   46.92225762
_cell_angle_gamma   46.92225628
_symmetry_Int_Tables_number   1
_chemical_formula_structural   Tc3(TeBr)7
_chemical_formula_sum   'Tc6 Te14 Br14'
_cell_volume   1163.91186932
_cell_formula_units_Z   2
loop_
 _symmetry_equiv_pos_site_id
 _symmetry_equiv_pos_as_xyz
  1  'x, y, z'
loop_
 _atom_site_type_symbol
 _atom_site_label
 _atom_site_symmetry_multiplicity
 _atom_site_fract_x
 _atom_site_fract_y
 _atom_site_fract_z
 _atom_site_occupancy
  Tc  Tc0  1  0.873058  0.164315  0.057059  1
  Tc  Tc1  1  0.835685  0.942941  0.126942  1
  Tc  Tc2  1  0.126942  0.835685  0.942941  1
  Tc  Tc3  1  0.164315  0.057059  0.873058  1
  Tc  Tc4  1  0.942941  0.126942  0.835685  1
  Tc  Tc5  1  0.057059  0.873058  0.164315  1
  Te  Te6  1  0.344895  0.766237  0.980433  1
  Te  Te7  1  0.689330  0.395422  0.133867  1
  Te  Te8  1  0.233763  0.019567  0.655105  1
  Te  Te9  1  0.133867  0.689330  0.395422  1
  Te  Te10  1  0.980433  0.344895  0.766237  1
  Te  Te11  1  0.310670  0.604578  0.866133  1
  Te  Te12  1  0.866133  0.310670  0.604578  1
  Te  Te13  1  0.907541  0.907541  0.907541  1
  Te  Te14  1  0.604578  0.866133  0.310670  1
  Te  Te15  1  0.655105  0.233763  0.019567  1
  Te  Te16  1  0.395422  0.133867  0.689330  1
  Te  Te17  1  0.019567  0.655105  0.233763  1
  Te  Te18  1  0.092459  0.092459  0.092459  1
  Te  Te19  1  0.766237  0.980433  0.344895  1
  Br  Br20  1  0.633800  0.292271  0.699783  1
  Br  Br21  1  0.366200  0.707729  0.300217  1
  Br  Br22  1  0.547352  0.964072  0.846699  1
  Br  Br23  1  0.637078  0.637078  0.637078  1
  Br  Br24  1  0.846699  0.547352  0.964072  1
  Br  Br25  1  0.153301  0.452648  0.035928  1
  Br  Br26  1  0.362922  0.362922  0.362922  1
  Br  Br27  1  0.964072  0.846699  0.547352  1
  Br  Br28  1  0.035928  0.153301  0.452648  1
  Br  Br29  1  0.699783  0.633800  0.292271  1
  Br  Br30  1  0.300217  0.366200  0.707729  1
  Br  Br31  1  0.707729  0.300217  0.366200  1
  Br  Br32  1  0.292271  0.699783  0.633800  1
  Br  Br33  1  0.452648  0.035928  0.153301  1
