# generated using pymatgen
data_Ho2Fe5CoP4
_symmetry_space_group_name_H-M   'P 1'
_cell_length_a   3.71154200
_cell_length_b   10.49198722
_cell_length_c   12.12799057
_cell_angle_alpha   89.92541666
_cell_angle_beta   90.00000000
_cell_angle_gamma   90.00000000
_symmetry_Int_Tables_number   1
_chemical_formula_structural   Ho2Fe5CoP4
_chemical_formula_sum   'Ho6 Fe15 Co3 P12'
_cell_volume   472.28115323
_cell_formula_units_Z   3
loop_
 _symmetry_equiv_pos_site_id
 _symmetry_equiv_pos_as_xyz
  1  'x, y, z'
loop_
 _atom_site_type_symbol
 _atom_site_label
 _atom_site_symmetry_multiplicity
 _atom_site_fract_x
 _atom_site_fract_y
 _atom_site_fract_z
 _atom_site_occupancy
  Ho  Ho0  1  0.000000  0.500726  0.525550  1
  Ho  Ho1  1  0.500000  0.999267  0.474189  1
  Ho  Ho2  1  0.500000  0.818614  0.205046  1
  Ho  Ho3  1  0.500000  0.180250  0.207209  1
  Ho  Ho4  1  0.000000  0.681322  0.795912  1
  Ho  Ho5  1  0.000000  0.320309  0.792917  1
  Fe  Fe6  1  0.000000  0.496600  0.988345  1
  Fe  Fe7  1  0.500000  0.001667  0.011838  1
  Fe  Fe8  1  0.500000  0.299022  0.429552  1
  Fe  Fe9  1  0.500000  0.700935  0.429367  1
  Fe  Fe10  1  0.000000  0.200708  0.570399  1
  Fe  Fe11  1  0.000000  0.799051  0.570746  1
  Fe  Fe12  1  0.500000  0.882371  0.710237  1
  Fe  Fe13  1  0.500000  0.117260  0.708170  1
  Fe  Fe14  1  0.000000  0.617914  0.288886  1
  Fe  Fe15  1  0.000000  0.382747  0.291947  1
  Fe  Fe16  1  0.500000  0.325965  0.996316  1
  Fe  Fe17  1  0.500000  0.669114  0.994330  1
  Fe  Fe18  1  0.000000  0.173436  0.003728  1
  Fe  Fe19  1  0.500000  0.498176  0.152087  1
  Fe  Fe20  1  0.000000  0.000709  0.847413  1
  Co  Co21  1  0.000000  0.833361  0.006973  1
  Co  Co22  1  0.500000  0.499658  0.698901  1
  Co  Co23  1  0.000000  0.999778  0.300719  1
  P  P24  1  0.500000  0.306012  0.614255  1
  P  P25  1  0.500000  0.694497  0.615118  1
  P  P26  1  0.000000  0.193824  0.385725  1
  P  P27  1  0.000000  0.805120  0.385210  1
  P  P28  1  0.500000  0.500723  0.884629  1
  P  P29  1  0.000000  0.001276  0.116250  1
  P  P30  1  0.500000  0.848017  0.893155  1
  P  P31  1  0.500000  0.148064  0.887423  1
  P  P32  1  0.000000  0.651988  0.104955  1
  P  P33  1  0.000000  0.351382  0.112838  1
  P  P34  1  0.500000  0.501139  0.339428  1
  P  P35  1  0.000000  0.998997  0.660236  1
