# generated using pymatgen
data_Zr12Re(Si4Rh)3
_symmetry_space_group_name_H-M   'P 1'
_cell_length_a   3.89864800
_cell_length_b   10.47816461
_cell_length_c   11.81270608
_cell_angle_alpha   90.16811855
_cell_angle_beta   90.00000000
_cell_angle_gamma   90.00000000
_symmetry_Int_Tables_number   1
_chemical_formula_structural   Zr12Re(Si4Rh)3
_chemical_formula_sum   'Zr12 Re1 Si12 Rh3'
_cell_volume   482.55494557
_cell_formula_units_Z   1
loop_
 _symmetry_equiv_pos_site_id
 _symmetry_equiv_pos_as_xyz
  1  'x, y, z'
loop_
 _atom_site_type_symbol
 _atom_site_label
 _atom_site_symmetry_multiplicity
 _atom_site_fract_x
 _atom_site_fract_y
 _atom_site_fract_z
 _atom_site_occupancy
  Zr  Zr0  1  0.250000  0.875383  0.022864  1
  Zr  Zr1  1  0.250000  0.625097  0.521730  1
  Zr  Zr2  1  0.750000  0.121899  0.978514  1
  Zr  Zr3  1  0.750000  0.377341  0.482330  1
  Zr  Zr4  1  0.250000  0.927997  0.595194  1
  Zr  Zr5  1  0.250000  0.572442  0.095705  1
  Zr  Zr6  1  0.750000  0.073193  0.403145  1
  Zr  Zr7  1  0.750000  0.426778  0.898322  1
  Zr  Zr8  1  0.250000  0.658894  0.800560  1
  Zr  Zr9  1  0.250000  0.842618  0.300328  1
  Zr  Zr10  1  0.750000  0.342112  0.199754  1
  Zr  Zr11  1  0.750000  0.157696  0.700110  1
  Re  Re12  1  0.250000  0.384326  0.680042  1
  Si  Si13  1  0.250000  0.013962  0.826031  1
  Si  Si14  1  0.250000  0.483391  0.324700  1
  Si  Si15  1  0.750000  0.982341  0.175139  1
  Si  Si16  1  0.750000  0.523041  0.674222  1
  Si  Si17  1  0.250000  0.245744  0.845073  1
  Si  Si18  1  0.250000  0.250752  0.342643  1
  Si  Si19  1  0.750000  0.749134  0.156752  1
  Si  Si20  1  0.750000  0.753448  0.655973  1
  Si  Si21  1  0.250000  0.193646  0.541810  1
  Si  Si22  1  0.250000  0.306647  0.042495  1
  Si  Si23  1  0.750000  0.807802  0.457453  1
  Si  Si24  1  0.750000  0.691735  0.958059  1
  Rh  Rh25  1  0.250000  0.114133  0.181902  1
  Rh  Rh26  1  0.750000  0.614473  0.319042  1
  Rh  Rh27  1  0.750000  0.883976  0.820105  1
