# generated using pymatgen
data_SrPr2Ag2Sn5Au4
_symmetry_space_group_name_H-M   'P 1'
_cell_length_a   4.70539800
_cell_length_b   10.28756400
_cell_length_c   14.02862300
_cell_angle_alpha   90.00000000
_cell_angle_beta   90.00000000
_cell_angle_gamma   90.00000000
_symmetry_Int_Tables_number   1
_chemical_formula_structural   SrPr2Ag2Sn5Au4
_chemical_formula_sum   'Sr2 Pr4 Ag4 Sn10 Au8'
_cell_volume   679.08471893
_cell_formula_units_Z   2
loop_
 _symmetry_equiv_pos_site_id
 _symmetry_equiv_pos_as_xyz
  1  'x, y, z'
loop_
 _atom_site_type_symbol
 _atom_site_label
 _atom_site_symmetry_multiplicity
 _atom_site_fract_x
 _atom_site_fract_y
 _atom_site_fract_z
 _atom_site_occupancy
  Sr  Sr0  1  0.000000  0.746853  0.500000  1
  Sr  Sr1  1  0.500000  0.253147  0.000000  1
  Pr  Pr2  1  0.000000  0.747712  0.807190  1
  Pr  Pr3  1  0.000000  0.747712  0.192810  1
  Pr  Pr4  1  0.500000  0.252288  0.692810  1
  Pr  Pr5  1  0.500000  0.252288  0.307190  1
  Ag  Ag6  1  0.000000  0.545638  0.000000  1
  Ag  Ag7  1  0.500000  0.454362  0.500000  1
  Ag  Ag8  1  0.000000  0.938658  0.000000  1
  Ag  Ag9  1  0.500000  0.061342  0.500000  1
  Sn  Sn10  1  0.000000  0.381846  0.834699  1
  Sn  Sn11  1  0.000000  0.381846  0.165301  1
  Sn  Sn12  1  0.500000  0.618154  0.665301  1
  Sn  Sn13  1  0.500000  0.618154  0.334699  1
  Sn  Sn14  1  0.000000  0.024941  0.358298  1
  Sn  Sn15  1  0.000000  0.024941  0.641702  1
  Sn  Sn16  1  0.500000  0.975059  0.141702  1
  Sn  Sn17  1  0.500000  0.975059  0.858298  1
  Sn  Sn18  1  0.000000  0.273179  0.500000  1
  Sn  Sn19  1  0.500000  0.726821  0.000000  1
  Au  Au20  1  0.000000  0.114794  0.836415  1
  Au  Au21  1  0.000000  0.114794  0.163585  1
  Au  Au22  1  0.500000  0.885206  0.663585  1
  Au  Au23  1  0.500000  0.885206  0.336415  1
  Au  Au24  1  0.000000  0.473569  0.355496  1
  Au  Au25  1  0.000000  0.473569  0.644504  1
  Au  Au26  1  0.500000  0.526431  0.144504  1
  Au  Au27  1  0.500000  0.526431  0.855496  1
