# generated using pymatgen
data_Al3V12Zn4GaN4
_symmetry_space_group_name_H-M   'P 1'
_cell_length_a   6.59482993
_cell_length_b   6.59482993
_cell_length_c   6.59482993
_cell_angle_alpha   90.04291060
_cell_angle_beta   90.04291060
_cell_angle_gamma   90.04291060
_symmetry_Int_Tables_number   1
_chemical_formula_structural   Al3V12Zn4GaN4
_chemical_formula_sum   'Al3 V12 Zn4 Ga1 N4'
_cell_volume   286.82066229
_cell_formula_units_Z   1
loop_
 _symmetry_equiv_pos_site_id
 _symmetry_equiv_pos_as_xyz
  1  'x, y, z'
loop_
 _atom_site_type_symbol
 _atom_site_label
 _atom_site_symmetry_multiplicity
 _atom_site_fract_x
 _atom_site_fract_y
 _atom_site_fract_z
 _atom_site_occupancy
  Al  Al0  1  0.177118  0.822913  0.322904  1
  Al  Al1  1  0.322904  0.177118  0.822913  1
  Al  Al2  1  0.822913  0.322904  0.177118  1
  V  V3  1  0.790862  0.960559  0.375093  1
  V  V4  1  0.709074  0.039340  0.875929  1
  V  V5  1  0.209722  0.460742  0.124155  1
  V  V6  1  0.290258  0.539374  0.624718  1
  V  V7  1  0.960559  0.375093  0.790862  1
  V  V8  1  0.039340  0.875929  0.709074  1
  V  V9  1  0.460742  0.124155  0.209722  1
  V  V10  1  0.539374  0.624718  0.290258  1
  V  V11  1  0.375093  0.790862  0.960559  1
  V  V12  1  0.875929  0.709074  0.039340  1
  V  V13  1  0.124155  0.209722  0.460742  1
  V  V14  1  0.624718  0.290258  0.539374  1
  Zn  Zn15  1  0.570881  0.428855  0.929430  1
  Zn  Zn16  1  0.428855  0.929430  0.570881  1
  Zn  Zn17  1  0.929430  0.570881  0.428855  1
  Zn  Zn18  1  0.070874  0.070874  0.070874  1
  Ga  Ga19  1  0.677623  0.677623  0.677623  1
  N  N20  1  0.873536  0.125873  0.626202  1
  N  N21  1  0.626202  0.873536  0.125873  1
  N  N22  1  0.125873  0.626202  0.873536  1
  N  N23  1  0.373966  0.373966  0.373966  1
