# generated using pymatgen
data_Gd2SnRu2
_symmetry_space_group_name_H-M   'P 1'
_cell_length_a   5.74952225
_cell_length_b   5.74952218
_cell_length_c   5.74952300
_cell_angle_alpha   134.76643000
_cell_angle_beta   118.10338585
_cell_angle_gamma   79.90490684
_symmetry_Int_Tables_number   1
_chemical_formula_structural   Gd2SnRu2
_chemical_formula_sum   'Gd2 Sn1 Ru2'
_cell_volume   115.25734732
_cell_formula_units_Z   1
loop_
 _symmetry_equiv_pos_site_id
 _symmetry_equiv_pos_as_xyz
  1  'x, y, z'
loop_
 _atom_site_type_symbol
 _atom_site_label
 _atom_site_symmetry_multiplicity
 _atom_site_fract_x
 _atom_site_fract_y
 _atom_site_fract_z
 _atom_site_occupancy
  Gd  Gd0  1  0.291473  0.791744  0.499728  1
  Gd  Gd1  1  0.707985  0.208256  0.499728  1
  Sn  Sn2  1  0.000129  0.000000  0.000129  1
  Ru  Ru3  1  0.292076  0.500000  0.792076  1
  Ru  Ru4  1  0.708337  0.500000  0.208337  1
