# generated using pymatgen
data_SrCdSn2Au
_symmetry_space_group_name_H-M   'P 1'
_cell_length_a   4.74199500
_cell_length_b   4.74199500
_cell_length_c   12.12370800
_cell_angle_alpha   90.00000000
_cell_angle_beta   90.00000000
_cell_angle_gamma   90.00000000
_symmetry_Int_Tables_number   1
_chemical_formula_structural   SrCdSn2Au
_chemical_formula_sum   'Sr2 Cd2 Sn4 Au2'
_cell_volume   272.61996095
_cell_formula_units_Z   2
loop_
 _symmetry_equiv_pos_site_id
 _symmetry_equiv_pos_as_xyz
  1  'x, y, z'
loop_
 _atom_site_type_symbol
 _atom_site_label
 _atom_site_symmetry_multiplicity
 _atom_site_fract_x
 _atom_site_fract_y
 _atom_site_fract_z
 _atom_site_occupancy
  Sr  Sr0  1  0.000000  0.500000  0.241650  1
  Sr  Sr1  1  0.500000  0.000000  0.758350  1
  Cd  Cd2  1  0.000000  0.000000  0.500000  1
  Cd  Cd3  1  0.500000  0.500000  0.500000  1
  Sn  Sn4  1  0.000000  0.000000  0.000000  1
  Sn  Sn5  1  0.500000  0.500000  0.000000  1
  Sn  Sn6  1  0.000000  0.500000  0.644948  1
  Sn  Sn7  1  0.500000  0.000000  0.355052  1
  Au  Au8  1  0.000000  0.500000  0.867048  1
  Au  Au9  1  0.500000  0.000000  0.132952  1
