# generated using pymatgen
data_Ho2Er3Ru2
_symmetry_space_group_name_H-M   'P 1'
_cell_length_a   6.28215601
_cell_length_b   7.26612374
_cell_length_c   8.40387544
_cell_angle_alpha   96.76836609
_cell_angle_beta   111.94802173
_cell_angle_gamma   89.99999920
_symmetry_Int_Tables_number   1
_chemical_formula_structural   Ho2Er3Ru2
_chemical_formula_sum   'Ho4 Er6 Ru4'
_cell_volume   352.92415642
_cell_formula_units_Z   2
loop_
 _symmetry_equiv_pos_site_id
 _symmetry_equiv_pos_as_xyz
  1  'x, y, z'
loop_
 _atom_site_type_symbol
 _atom_site_label
 _atom_site_symmetry_multiplicity
 _atom_site_fract_x
 _atom_site_fract_y
 _atom_site_fract_z
 _atom_site_occupancy
  Ho  Ho0  1  0.791139  0.584384  0.813484  1
  Ho  Ho1  1  0.977655  0.915616  0.186516  1
  Ho  Ho2  1  0.208861  0.415616  0.186516  1
  Ho  Ho3  1  0.022345  0.084384  0.813484  1
  Er  Er4  1  0.205618  0.684944  0.564980  1
  Er  Er5  1  0.640639  0.815056  0.435020  1
  Er  Er6  1  0.794382  0.315056  0.435020  1
  Er  Er7  1  0.359361  0.184944  0.564980  1
  Er  Er8  1  0.418668  0.750000  0.000000  1
  Er  Er9  1  0.581332  0.250000  0.000000  1
  Ru  Ru10  1  0.602113  0.923762  0.779651  1
  Ru  Ru11  1  0.822462  0.576238  0.220349  1
  Ru  Ru12  1  0.397887  0.076238  0.220349  1
  Ru  Ru13  1  0.177538  0.423762  0.779651  1
