# generated using pymatgen
data_NaCa2PuO6
_symmetry_space_group_name_H-M   'P 1'
_cell_length_a   5.68775670
_cell_length_b   5.94868600
_cell_length_c   8.33883804
_cell_angle_alpha   90.00000000
_cell_angle_beta   91.65203015
_cell_angle_gamma   90.00000000
_symmetry_Int_Tables_number   1
_chemical_formula_structural   NaCa2PuO6
_chemical_formula_sum   'Na2 Ca4 Pu2 O12'
_cell_volume   282.02463228
_cell_formula_units_Z   2
loop_
 _symmetry_equiv_pos_site_id
 _symmetry_equiv_pos_as_xyz
  1  'x, y, z'
loop_
 _atom_site_type_symbol
 _atom_site_label
 _atom_site_symmetry_multiplicity
 _atom_site_fract_x
 _atom_site_fract_y
 _atom_site_fract_z
 _atom_site_occupancy
  Na  Na0  1  0.500000  0.500000  0.000000  1
  Na  Na1  1  0.000000  0.000000  0.500000  1
  Ca  Ca2  1  0.477504  0.941026  0.763325  1
  Ca  Ca3  1  0.022496  0.441026  0.736675  1
  Ca  Ca4  1  0.522496  0.058974  0.236675  1
  Ca  Ca5  1  0.977504  0.558974  0.263325  1
  Pu  Pu6  1  0.500000  0.500000  0.500000  1
  Pu  Pu7  1  0.000000  0.000000  0.000000  1
  O  O8  1  0.332895  0.228120  0.590124  1
  O  O9  1  0.167105  0.728120  0.909876  1
  O  O10  1  0.667105  0.771880  0.409876  1
  O  O11  1  0.832895  0.271880  0.090124  1
  O  O12  1  0.635690  0.575918  0.719411  1
  O  O13  1  0.864310  0.075918  0.780589  1
  O  O14  1  0.364310  0.424082  0.280589  1
  O  O15  1  0.135690  0.924082  0.219411  1
  O  O16  1  0.213637  0.677248  0.550417  1
  O  O17  1  0.286363  0.177248  0.949583  1
  O  O18  1  0.786363  0.322752  0.449583  1
  O  O19  1  0.713637  0.822752  0.050417  1
