# generated using pymatgen
data_Y5Al3Si4Ni3
_symmetry_space_group_name_H-M   'P 1'
_cell_length_a   4.17607100
_cell_length_b   19.03438000
_cell_length_c   6.87226900
_cell_angle_alpha   90.00000000
_cell_angle_beta   90.00000000
_cell_angle_gamma   90.00000000
_symmetry_Int_Tables_number   1
_chemical_formula_structural   Y5Al3Si4Ni3
_chemical_formula_sum   'Y10 Al6 Si8 Ni6'
_cell_volume   546.26925671
_cell_formula_units_Z   2
loop_
 _symmetry_equiv_pos_site_id
 _symmetry_equiv_pos_as_xyz
  1  'x, y, z'
loop_
 _atom_site_type_symbol
 _atom_site_label
 _atom_site_symmetry_multiplicity
 _atom_site_fract_x
 _atom_site_fract_y
 _atom_site_fract_z
 _atom_site_occupancy
  Y  Y0  1  0.750000  0.119886  0.003953  1
  Y  Y1  1  0.750000  0.380114  0.003953  1
  Y  Y2  1  0.750000  0.250000  0.384057  1
  Y  Y3  1  0.750000  0.070728  0.501947  1
  Y  Y4  1  0.750000  0.429271  0.501947  1
  Y  Y5  1  0.250001  0.570728  0.498053  1
  Y  Y6  1  0.250001  0.929272  0.498053  1
  Y  Y7  1  0.250001  0.750000  0.615943  1
  Y  Y8  1  0.250001  0.619886  0.996047  1
  Y  Y9  1  0.250001  0.880114  0.996047  1
  Al  Al10  1  0.250001  0.250000  0.030932  1
  Al  Al11  1  0.750000  0.676636  0.318171  1
  Al  Al12  1  0.750000  0.823364  0.318171  1
  Al  Al13  1  0.250001  0.176636  0.681829  1
  Al  Al14  1  0.250001  0.323364  0.681829  1
  Al  Al15  1  0.750000  0.750000  0.969068  1
  Si  Si16  1  0.750000  0.536453  0.195457  1
  Si  Si17  1  0.750000  0.963547  0.195457  1
  Si  Si18  1  0.250001  0.143812  0.288883  1
  Si  Si19  1  0.250001  0.356188  0.288883  1
  Si  Si20  1  0.750000  0.643812  0.711117  1
  Si  Si21  1  0.750000  0.856188  0.711117  1
  Si  Si22  1  0.250001  0.036454  0.804543  1
  Si  Si23  1  0.250001  0.463546  0.804543  1
  Ni  Ni24  1  0.250001  0.025606  0.162409  1
  Ni  Ni25  1  0.250001  0.474394  0.162409  1
  Ni  Ni26  1  0.250001  0.750000  0.207444  1
  Ni  Ni27  1  0.750000  0.250000  0.792556  1
  Ni  Ni28  1  0.750000  0.525606  0.837591  1
  Ni  Ni29  1  0.750000  0.974394  0.837591  1
