# generated using pymatgen
data_Mn3GaF10
_symmetry_space_group_name_H-M   'P 1'
_cell_length_a   5.36567425
_cell_length_b   5.46290542
_cell_length_c   7.73633156
_cell_angle_alpha   67.50536267
_cell_angle_beta   70.02188710
_cell_angle_gamma   71.22618213
_symmetry_Int_Tables_number   1
_chemical_formula_structural   Mn3GaF10
_chemical_formula_sum   'Mn3 Ga1 F10'
_cell_volume   192.07852498
_cell_formula_units_Z   1
loop_
 _symmetry_equiv_pos_site_id
 _symmetry_equiv_pos_as_xyz
  1  'x, y, z'
loop_
 _atom_site_type_symbol
 _atom_site_label
 _atom_site_symmetry_multiplicity
 _atom_site_fract_x
 _atom_site_fract_y
 _atom_site_fract_z
 _atom_site_occupancy
  Mn  Mn0  1  0.534768  0.463175  0.758513  1
  Mn  Mn1  1  0.465232  0.536825  0.241487  1
  Mn  Mn2  1  0.000000  0.000000  0.500000  1
  Ga  Ga3  1  0.000000  0.000000  0.000000  1
  F  F4  1  0.107420  0.891075  0.239113  1
  F  F5  1  0.892580  0.108925  0.760887  1
  F  F6  1  0.217097  0.260485  0.375087  1
  F  F7  1  0.740108  0.782377  0.124375  1
  F  F8  1  0.714082  0.309050  0.042524  1
  F  F9  1  0.686842  0.287372  0.458429  1
  F  F10  1  0.285918  0.690950  0.957476  1
  F  F11  1  0.313158  0.712628  0.541571  1
  F  F12  1  0.259892  0.217623  0.875625  1
  F  F13  1  0.782903  0.739515  0.624913  1
