# generated using pymatgen
data_TmCoH6
_symmetry_space_group_name_H-M   'P 1'
_cell_length_a   4.60955015
_cell_length_b   4.61072119
_cell_length_c   4.62055094
_cell_angle_alpha   120.03491194
_cell_angle_beta   90.03986236
_cell_angle_gamma   119.87713811
_symmetry_Int_Tables_number   1
_chemical_formula_structural   TmCoH6
_chemical_formula_sum   'Tm1 Co1 H6'
_cell_volume   69.50741293
_cell_formula_units_Z   1
loop_
 _symmetry_equiv_pos_site_id
 _symmetry_equiv_pos_as_xyz
  1  'x, y, z'
loop_
 _atom_site_type_symbol
 _atom_site_label
 _atom_site_symmetry_multiplicity
 _atom_site_fract_x
 _atom_site_fract_y
 _atom_site_fract_z
 _atom_site_occupancy
  Tm  Tm0  1  0.377810  0.033349  0.893501  1
  Co  Co1  1  0.127536  0.534354  0.143981  1
  H  H2  1  0.356594  0.525600  0.376280  1
  H  H3  1  0.894154  0.543515  0.380192  1
  H  H4  1  0.354534  0.524168  0.901302  1
  H  H5  1  0.890129  0.064209  0.908957  1
  H  H6  1  0.893605  0.545175  0.918848  1
  H  H7  1  0.375362  0.003671  0.378667  1
