# generated using pymatgen
data_Yb2SiCl2O3
_symmetry_space_group_name_H-M   'P 1'
_cell_length_a   8.85560650
_cell_length_b   8.85560682
_cell_length_c   8.85560729
_cell_angle_alpha   106.10846606
_cell_angle_beta   106.10846745
_cell_angle_gamma   116.42888394
_symmetry_Int_Tables_number   1
_chemical_formula_structural   Yb2SiCl2O3
_chemical_formula_sum   'Yb8 Si4 Cl8 O12'
_cell_volume   528.62352297
_cell_formula_units_Z   4
loop_
 _symmetry_equiv_pos_site_id
 _symmetry_equiv_pos_as_xyz
  1  'x, y, z'
loop_
 _atom_site_type_symbol
 _atom_site_label
 _atom_site_symmetry_multiplicity
 _atom_site_fract_x
 _atom_site_fract_y
 _atom_site_fract_z
 _atom_site_occupancy
  Yb  Yb0  1  0.516007  0.184809  0.171571  1
  Yb  Yb1  1  0.488944  0.820057  0.828477  1
  Yb  Yb2  1  0.991580  0.660467  0.171523  1
  Yb  Yb3  1  0.820057  0.991580  0.331113  1
  Yb  Yb4  1  0.013239  0.344437  0.828429  1
  Yb  Yb5  1  0.660467  0.488944  0.668887  1
  Yb  Yb6  1  0.344437  0.516007  0.331198  1
  Yb  Yb7  1  0.184809  0.013239  0.668802  1
  Si  Si8  1  0.107676  0.812374  0.914944  1
  Si  Si9  1  0.192732  0.107676  0.295302  1
  Si  Si10  1  0.897429  0.192732  0.085056  1
  Si  Si11  1  0.812374  0.897429  0.704698  1
  Cl  Cl12  1  0.248270  0.748270  0.500000  1
  Cl  Cl13  1  0.748270  0.248270  0.500000  1
  Cl  Cl14  1  0.578858  0.244738  0.819670  1
  Cl  Cl15  1  0.714731  0.714731  0.000000  1
  Cl  Cl16  1  0.289690  0.289690  0.000000  1
  Cl  Cl17  1  0.425068  0.759188  0.180330  1
  Cl  Cl18  1  0.759188  0.578858  0.334120  1
  Cl  Cl19  1  0.244738  0.425068  0.665880  1
  O  O20  1  0.407123  0.295042  0.389481  1
  O  O21  1  0.825618  0.053316  0.873959  1
  O  O22  1  0.951659  0.825618  0.772302  1
  O  O23  1  0.179357  0.951659  0.126041  1
  O  O24  1  0.987006  0.597681  0.887227  1
  O  O25  1  0.053316  0.179357  0.227698  1
  O  O26  1  0.017642  0.407123  0.112081  1
  O  O27  1  0.597681  0.710455  0.610675  1
  O  O28  1  0.905561  0.017642  0.610519  1
  O  O29  1  0.710455  0.099779  0.112773  1
  O  O30  1  0.099779  0.987006  0.389325  1
  O  O31  1  0.295042  0.905561  0.887919  1
