# generated using pymatgen
data_HoLu7(InRu)2
_symmetry_space_group_name_H-M   'P 1'
_cell_length_a   9.47026388
_cell_length_b   9.47026416
_cell_length_c   9.45574800
_cell_angle_alpha   60.05069217
_cell_angle_beta   60.05069120
_cell_angle_gamma   59.89860975
_symmetry_Int_Tables_number   1
_chemical_formula_structural   HoLu7(InRu)2
_chemical_formula_sum   'Ho2 Lu14 In4 Ru4'
_cell_volume   599.65713467
_cell_formula_units_Z   2
loop_
 _symmetry_equiv_pos_site_id
 _symmetry_equiv_pos_as_xyz
  1  'x, y, z'
loop_
 _atom_site_type_symbol
 _atom_site_label
 _atom_site_symmetry_multiplicity
 _atom_site_fract_x
 _atom_site_fract_y
 _atom_site_fract_z
 _atom_site_occupancy
  Ho  Ho0  1  0.809645  0.809645  0.190355  1
  Ho  Ho1  1  0.190355  0.190355  0.809645  1
  Lu  Lu2  1  0.599165  0.599165  0.597502  1
  Lu  Lu3  1  0.599165  0.599165  0.204168  1
  Lu  Lu4  1  0.597502  0.204168  0.599165  1
  Lu  Lu5  1  0.204168  0.597502  0.599165  1
  Lu  Lu6  1  0.059124  0.440876  0.440876  1
  Lu  Lu7  1  0.440876  0.059124  0.059124  1
  Lu  Lu8  1  0.440876  0.059124  0.440876  1
  Lu  Lu9  1  0.059124  0.440876  0.059124  1
  Lu  Lu10  1  0.441424  0.441424  0.058576  1
  Lu  Lu11  1  0.058576  0.058576  0.441424  1
  Lu  Lu12  1  0.193905  0.806095  0.806095  1
  Lu  Lu13  1  0.806095  0.193905  0.193905  1
  Lu  Lu14  1  0.806095  0.193905  0.806095  1
  Lu  Lu15  1  0.193905  0.806095  0.193905  1
  In  In16  1  0.833223  0.833223  0.832298  1
  In  In17  1  0.833223  0.833223  0.501258  1
  In  In18  1  0.832298  0.501258  0.833223  1
  In  In19  1  0.501258  0.832298  0.833223  1
  Ru  Ru20  1  0.390739  0.390739  0.387991  1
  Ru  Ru21  1  0.390739  0.390739  0.830531  1
  Ru  Ru22  1  0.387991  0.830531  0.390739  1
  Ru  Ru23  1  0.830531  0.387991  0.390739  1
