# generated using pymatgen
data_Er4Hf3SnIr4
_symmetry_space_group_name_H-M   'P 1'
_cell_length_a   4.44132000
_cell_length_b   7.09800875
_cell_length_c   8.27762712
_cell_angle_alpha   93.30957794
_cell_angle_beta   90.00000000
_cell_angle_gamma   90.00000000
_symmetry_Int_Tables_number   1
_chemical_formula_structural   Er4Hf3SnIr4
_chemical_formula_sum   'Er4 Hf3 Sn1 Ir4'
_cell_volume   260.51307509
_cell_formula_units_Z   1
loop_
 _symmetry_equiv_pos_site_id
 _symmetry_equiv_pos_as_xyz
  1  'x, y, z'
loop_
 _atom_site_type_symbol
 _atom_site_label
 _atom_site_symmetry_multiplicity
 _atom_site_fract_x
 _atom_site_fract_y
 _atom_site_fract_z
 _atom_site_occupancy
  Er  Er0  1  0.250000  0.979209  0.320557  1
  Er  Er1  1  0.250000  0.469476  0.165390  1
  Er  Er2  1  0.750000  0.037038  0.682059  1
  Er  Er3  1  0.750000  0.506546  0.833170  1
  Hf  Hf4  1  0.250000  0.366655  0.572350  1
  Hf  Hf5  1  0.250000  0.856226  0.935428  1
  Hf  Hf6  1  0.750000  0.641308  0.430143  1
  Sn  Sn7  1  0.750000  0.145717  0.073480  1
  Ir  Ir8  1  0.250000  0.228674  0.870783  1
  Ir  Ir9  1  0.250000  0.741690  0.604162  1
  Ir  Ir10  1  0.750000  0.757000  0.111088  1
  Ir  Ir11  1  0.750000  0.270461  0.401392  1
