# generated using pymatgen
data_NaEr(BIr)4
_symmetry_space_group_name_H-M   'P 1'
_cell_length_a   7.05122798
_cell_length_b   6.12157793
_cell_length_c   5.46353235
_cell_angle_alpha   74.74140341
_cell_angle_beta   56.88262480
_cell_angle_gamma   48.37597147
_symmetry_Int_Tables_number   1
_chemical_formula_structural   NaEr(BIr)4
_chemical_formula_sum   'Na1 Er1 B4 Ir4'
_cell_volume   145.76560123
_cell_formula_units_Z   1
loop_
 _symmetry_equiv_pos_site_id
 _symmetry_equiv_pos_as_xyz
  1  'x, y, z'
loop_
 _atom_site_type_symbol
 _atom_site_label
 _atom_site_symmetry_multiplicity
 _atom_site_fract_x
 _atom_site_fract_y
 _atom_site_fract_z
 _atom_site_occupancy
  Na  Na0  1  0.250000  0.250000  0.250000  1
  Er  Er1  1  0.000000  0.000000  0.000000  1
  B  B2  1  0.321620  0.678380  0.321620  1
  B  B3  1  0.568086  0.931914  0.568086  1
  B  B4  1  0.678380  0.321620  0.678380  1
  B  B5  1  0.931914  0.568086  0.931914  1
  Ir  Ir6  1  0.630648  0.630648  0.369352  1
  Ir  Ir7  1  0.879372  0.879372  0.620628  1
  Ir  Ir8  1  0.620628  0.620628  0.879372  1
  Ir  Ir9  1  0.369352  0.369352  0.630648  1
