# generated using pymatgen
data_Sr6LiDy(CoO6)2
_symmetry_space_group_name_H-M   'P 1'
_cell_length_a   6.70684688
_cell_length_b   6.72562082
_cell_length_c   6.72333388
_cell_angle_alpha   92.12712807
_cell_angle_beta   92.30071260
_cell_angle_gamma   92.22992959
_symmetry_Int_Tables_number   1
_chemical_formula_structural   Sr6LiDy(CoO6)2
_chemical_formula_sum   'Sr6 Li1 Dy1 Co2 O12'
_cell_volume   302.57294421
_cell_formula_units_Z   1
loop_
 _symmetry_equiv_pos_site_id
 _symmetry_equiv_pos_as_xyz
  1  'x, y, z'
loop_
 _atom_site_type_symbol
 _atom_site_label
 _atom_site_symmetry_multiplicity
 _atom_site_fract_x
 _atom_site_fract_y
 _atom_site_fract_z
 _atom_site_occupancy
  Sr  Sr0  1  0.879941  0.248539  0.620609  1
  Sr  Sr1  1  0.249511  0.621925  0.878150  1
  Sr  Sr2  1  0.620372  0.878895  0.251908  1
  Sr  Sr3  1  0.750267  0.393775  0.106677  1
  Sr  Sr4  1  0.392877  0.106432  0.748872  1
  Sr  Sr5  1  0.106735  0.750805  0.393595  1
  Li  Li6  1  0.750280  0.748524  0.751192  1
  Dy  Dy7  1  0.250004  0.250627  0.249337  1
  Co  Co8  1  0.993956  0.995379  0.995253  1
  Co  Co9  1  0.505837  0.504623  0.505077  1
  O  O10  1  0.220327  0.414864  0.545104  1
  O  O11  1  0.414594  0.546279  0.219834  1
  O  O12  1  0.545425  0.218887  0.413758  1
  O  O13  1  0.918596  0.727567  0.046529  1
  O  O14  1  0.729411  0.046680  0.920038  1
  O  O15  1  0.046385  0.918296  0.727371  1
  O  O16  1  0.771141  0.580381  0.453600  1
  O  O17  1  0.581129  0.453219  0.771775  1
  O  O18  1  0.453360  0.772824  0.581642  1
  O  O19  1  0.085781  0.280648  0.953740  1
  O  O20  1  0.279243  0.954845  0.084795  1
  O  O21  1  0.954830  0.085986  0.281144  1
