# generated using pymatgen
data_Rb6CdSe4
_symmetry_space_group_name_H-M   'P 1'
_cell_length_a   10.84852500
_cell_length_b   10.84852454
_cell_length_c   8.43806400
_cell_angle_alpha   90.00000000
_cell_angle_beta   90.00000000
_cell_angle_gamma   119.99999836
_symmetry_Int_Tables_number   1
_chemical_formula_structural   Rb6CdSe4
_chemical_formula_sum   'Rb12 Cd2 Se8'
_cell_volume   860.03242184
_cell_formula_units_Z   2
loop_
 _symmetry_equiv_pos_site_id
 _symmetry_equiv_pos_as_xyz
  1  'x, y, z'
loop_
 _atom_site_type_symbol
 _atom_site_label
 _atom_site_symmetry_multiplicity
 _atom_site_fract_x
 _atom_site_fract_y
 _atom_site_fract_z
 _atom_site_occupancy
  Rb  Rb0  1  0.147427  0.852573  0.542510  1
  Rb  Rb1  1  0.294853  0.147427  0.042510  1
  Rb  Rb2  1  0.852573  0.705147  0.042510  1
  Rb  Rb3  1  0.147427  0.294853  0.542510  1
  Rb  Rb4  1  0.705147  0.852573  0.542510  1
  Rb  Rb5  1  0.852573  0.147427  0.042510  1
  Rb  Rb6  1  0.528565  0.471435  0.366801  1
  Rb  Rb7  1  0.057130  0.528565  0.866801  1
  Rb  Rb8  1  0.471435  0.942870  0.866801  1
  Rb  Rb9  1  0.528565  0.057130  0.366801  1
  Rb  Rb10  1  0.942870  0.471435  0.366801  1
  Rb  Rb11  1  0.471435  0.528565  0.866801  1
  Cd  Cd12  1  0.333333  0.666667  0.250682  1
  Cd  Cd13  1  0.666667  0.333333  0.750682  1
  Se  Se14  1  0.333333  0.666667  0.577677  1
  Se  Se15  1  0.666667  0.333333  0.077677  1
  Se  Se16  1  0.193792  0.806208  0.151137  1
  Se  Se17  1  0.387583  0.193792  0.651137  1
  Se  Se18  1  0.806208  0.612417  0.651137  1
  Se  Se19  1  0.193792  0.387583  0.151137  1
  Se  Se20  1  0.612417  0.806208  0.151137  1
  Se  Se21  1  0.806208  0.193792  0.651137  1
