# generated using pymatgen
data_Se(S2Cl3)2
_symmetry_space_group_name_H-M   'P 1'
_cell_length_a   7.21203475
_cell_length_b   7.27803047
_cell_length_c   7.93130799
_cell_angle_alpha   64.08490083
_cell_angle_beta   62.39654844
_cell_angle_gamma   60.95485498
_symmetry_Int_Tables_number   1
_chemical_formula_structural   Se(S2Cl3)2
_chemical_formula_sum   'Se1 S4 Cl6'
_cell_volume   310.20631190
_cell_formula_units_Z   1
loop_
 _symmetry_equiv_pos_site_id
 _symmetry_equiv_pos_as_xyz
  1  'x, y, z'
loop_
 _atom_site_type_symbol
 _atom_site_label
 _atom_site_symmetry_multiplicity
 _atom_site_fract_x
 _atom_site_fract_y
 _atom_site_fract_z
 _atom_site_occupancy
  Se  Se0  1  0.000000  0.000000  0.000000  1
  S  S1  1  0.555119  0.671525  0.324527  1
  S  S2  1  0.272130  0.596515  0.499960  1
  S  S3  1  0.727870  0.403485  0.500040  1
  S  S4  1  0.444883  0.328474  0.675474  1
  Cl  Cl5  1  0.034529  0.617793  0.180028  1
  Cl  Cl6  1  0.156958  0.014413  0.209224  1
  Cl  Cl7  1  0.629620  0.127876  0.221011  1
  Cl  Cl8  1  0.370379  0.872124  0.778990  1
  Cl  Cl9  1  0.843042  0.985586  0.790777  1
  Cl  Cl10  1  0.965472  0.382208  0.819971  1
