# generated using pymatgen
data_Ca20Hg5Pt7
_symmetry_space_group_name_H-M   'P 1'
_cell_length_a   7.75204104
_cell_length_b   7.75204125
_cell_length_c   14.89812500
_cell_angle_alpha   90.00550634
_cell_angle_beta   90.00550634
_cell_angle_gamma   90.68574333
_symmetry_Int_Tables_number   1
_chemical_formula_structural   Ca20Hg5Pt7
_chemical_formula_sum   'Ca20 Hg5 Pt7'
_cell_volume   895.22590707
_cell_formula_units_Z   1
loop_
 _symmetry_equiv_pos_site_id
 _symmetry_equiv_pos_as_xyz
  1  'x, y, z'
loop_
 _atom_site_type_symbol
 _atom_site_label
 _atom_site_symmetry_multiplicity
 _atom_site_fract_x
 _atom_site_fract_y
 _atom_site_fract_z
 _atom_site_occupancy
  Ca  Ca0  1  0.180663  0.171384  0.110669  1
  Ca  Ca1  1  0.657508  0.344823  0.111085  1
  Ca  Ca2  1  0.328342  0.668904  0.115027  1
  Ca  Ca3  1  0.831499  0.816905  0.110975  1
  Ca  Ca4  1  0.492024  0.996897  0.247894  1
  Ca  Ca5  1  0.003103  0.507976  0.252106  1
  Ca  Ca6  1  0.183095  0.168501  0.389025  1
  Ca  Ca7  1  0.655177  0.342491  0.388915  1
  Ca  Ca8  1  0.331096  0.671657  0.384973  1
  Ca  Ca9  1  0.828616  0.819337  0.389331  1
  Ca  Ca10  1  0.832332  0.170099  0.616879  1
  Ca  Ca11  1  0.330166  0.332545  0.618237  1
  Ca  Ca12  1  0.669836  0.667373  0.618323  1
  Ca  Ca13  1  0.168038  0.829454  0.617382  1
  Ca  Ca14  1  0.500338  0.000605  0.748089  1
  Ca  Ca15  1  0.999395  0.499662  0.751911  1
  Ca  Ca16  1  0.829901  0.167668  0.883121  1
  Ca  Ca17  1  0.332627  0.330163  0.881677  1
  Ca  Ca18  1  0.667455  0.669833  0.881763  1
  Ca  Ca19  1  0.170546  0.831962  0.882618  1
  Hg  Hg20  1  0.503641  0.999203  0.000340  1
  Hg  Hg21  1  0.872761  0.127240  0.250000  1
  Hg  Hg22  1  0.000797  0.496359  0.499660  1
  Hg  Hg23  1  0.503623  0.999296  0.502202  1
  Hg  Hg24  1  0.000704  0.496377  0.997798  1
  Pt  Pt25  1  0.369628  0.371150  0.249947  1
  Pt  Pt26  1  0.628850  0.630372  0.250053  1
  Pt  Pt27  1  0.128936  0.871065  0.250000  1
  Pt  Pt28  1  0.128533  0.128657  0.749966  1
  Pt  Pt29  1  0.629229  0.370771  0.750000  1
  Pt  Pt30  1  0.370198  0.629802  0.750000  1
  Pt  Pt31  1  0.871344  0.871468  0.750034  1
