# generated using pymatgen
data_Ca7Tb(OsC2)4
_symmetry_space_group_name_H-M   'P 1'
_cell_length_a   5.17768200
_cell_length_b   6.53178168
_cell_length_c   10.35184960
_cell_angle_alpha   90.26560513
_cell_angle_beta   90.00000000
_cell_angle_gamma   90.00000000
_symmetry_Int_Tables_number   1
_chemical_formula_structural   Ca7Tb(OsC2)4
_chemical_formula_sum   'Ca7 Tb1 Os4 C8'
_cell_volume   350.09049595
_cell_formula_units_Z   1
loop_
 _symmetry_equiv_pos_site_id
 _symmetry_equiv_pos_as_xyz
  1  'x, y, z'
loop_
 _atom_site_type_symbol
 _atom_site_label
 _atom_site_symmetry_multiplicity
 _atom_site_fract_x
 _atom_site_fract_y
 _atom_site_fract_z
 _atom_site_occupancy
  Ca  Ca0  1  0.750000  0.305348  0.449900  1
  Ca  Ca1  1  0.750000  0.807034  0.050518  1
  Ca  Ca2  1  0.250000  0.190658  0.949149  1
  Ca  Ca3  1  0.250000  0.535547  0.217647  1
  Ca  Ca4  1  0.750000  0.464317  0.782189  1
  Ca  Ca5  1  0.750000  0.966578  0.724738  1
  Ca  Ca6  1  0.250000  0.035880  0.277322  1
  Tb  Tb7  1  0.250000  0.683531  0.551839  1
  Os  Os8  1  0.250000  0.730526  0.850036  1
  Os  Os9  1  0.750000  0.267037  0.150212  1
  Os  Os10  1  0.750000  0.767732  0.351703  1
  Os  Os11  1  0.250000  0.230249  0.648674  1
  C  C12  1  0.250000  0.469273  0.755804  1
  C  C13  1  0.750000  0.531254  0.240955  1
  C  C14  1  0.750000  0.029635  0.259573  1
  C  C15  1  0.250000  0.963204  0.735637  1
  C  C16  1  0.250000  0.791589  0.024119  1
  C  C17  1  0.750000  0.210385  0.974843  1
  C  C18  1  0.750000  0.709604  0.528559  1
  C  C19  1  0.250000  0.310619  0.476580  1
