# generated using pymatgen
data_Mg8Si6Pd5Pt3
_symmetry_space_group_name_H-M   'P 1'
_cell_length_a   10.41875226
_cell_length_b   10.38581804
_cell_length_c   7.39393333
_cell_angle_alpha   72.63197592
_cell_angle_beta   72.41448499
_cell_angle_gamma   29.74180809
_symmetry_Int_Tables_number   1
_chemical_formula_structural   Mg8Si6Pd5Pt3
_chemical_formula_sum   'Mg8 Si6 Pd5 Pt3'
_cell_volume   377.25453216
_cell_formula_units_Z   1
loop_
 _symmetry_equiv_pos_site_id
 _symmetry_equiv_pos_as_xyz
  1  'x, y, z'
loop_
 _atom_site_type_symbol
 _atom_site_label
 _atom_site_symmetry_multiplicity
 _atom_site_fract_x
 _atom_site_fract_y
 _atom_site_fract_z
 _atom_site_occupancy
  Mg  Mg0  1  0.934947  0.199775  0.325703  1
  Mg  Mg1  1  0.072216  0.791143  0.671928  1
  Mg  Mg2  1  0.793803  0.071467  0.171241  1
  Mg  Mg3  1  0.458999  0.203965  0.906479  1
  Mg  Mg4  1  0.793010  0.544714  0.594278  1
  Mg  Mg5  1  0.208146  0.455563  0.404851  1
  Mg  Mg6  1  0.205462  0.929874  0.827982  1
  Mg  Mg7  1  0.539050  0.798837  0.093462  1
  Si  Si8  1  0.290616  0.042473  0.449577  1
  Si  Si9  1  0.380086  0.617774  0.250847  1
  Si  Si10  1  0.036081  0.297408  0.946248  1
  Si  Si11  1  0.706523  0.960333  0.552022  1
  Si  Si12  1  0.962183  0.704215  0.054281  1
  Si  Si13  1  0.620716  0.378743  0.751013  1
  Pd  Pd14  1  0.413348  0.710344  0.478782  1
  Pd  Pd15  1  0.628922  0.924537  0.307714  1
  Pd  Pd16  1  0.921069  0.633795  0.808599  1
  Pd  Pd17  1  0.370184  0.076857  0.693538  1
  Pd  Pd18  1  0.075194  0.369265  0.192454  1
  Pt  Pt19  1  0.591721  0.286213  0.520575  1
  Pt  Pt20  1  0.710826  0.414593  0.977418  1
  Pt  Pt21  1  0.286896  0.588112  0.021006  1
