# generated using pymatgen
data_Ta6V4ZnSi5B
_symmetry_space_group_name_H-M   'P 1'
_cell_length_a   7.47709166
_cell_length_b   7.48085710
_cell_length_c   5.01669094
_cell_angle_alpha   90.06998802
_cell_angle_beta   89.96498472
_cell_angle_gamma   120.01665727
_symmetry_Int_Tables_number   1
_chemical_formula_structural   Ta6V4ZnSi5B
_chemical_formula_sum   'Ta6 V4 Zn1 Si5 B1'
_cell_volume   242.97343699
_cell_formula_units_Z   1
loop_
 _symmetry_equiv_pos_site_id
 _symmetry_equiv_pos_as_xyz
  1  'x, y, z'
loop_
 _atom_site_type_symbol
 _atom_site_label
 _atom_site_symmetry_multiplicity
 _atom_site_fract_x
 _atom_site_fract_y
 _atom_site_fract_z
 _atom_site_occupancy
  Ta  Ta0  1  0.000000  0.755720  0.242720  1
  Ta  Ta1  1  0.245762  0.242214  0.243054  1
  Ta  Ta2  1  0.754238  0.996451  0.243054  1
  Ta  Ta3  1  0.000000  0.242353  0.758514  1
  Ta  Ta4  1  0.755072  0.755206  0.755935  1
  Ta  Ta5  1  0.244928  0.000134  0.755935  1
  V  V6  1  0.340420  0.672514  0.501845  1
  V  V7  1  0.659580  0.332093  0.501845  1
  V  V8  1  0.661254  0.332336  0.998094  1
  V  V9  1  0.338746  0.671084  0.998094  1
  Zn  Zn10  1  0.000000  0.404806  0.254190  1
  Si  Si11  1  0.594999  0.594061  0.247566  1
  Si  Si12  1  0.405001  0.999062  0.247566  1
  Si  Si13  1  0.000000  0.593247  0.749994  1
  Si  Si14  1  0.402188  0.405231  0.751174  1
  Si  Si15  1  0.597812  0.003043  0.751174  1
  B  B16  1  0.000000  0.000446  0.499245  1
