# generated using pymatgen
data_GdZr3N4
_symmetry_space_group_name_H-M   'P 1'
_cell_length_a   11.00346136
_cell_length_b   11.00346150
_cell_length_c   11.00346000
_cell_angle_alpha   17.31240512
_cell_angle_beta   17.31240270
_cell_angle_gamma   17.31241106
_symmetry_Int_Tables_number   1
_chemical_formula_structural   GdZr3N4
_chemical_formula_sum   'Gd1 Zr3 N4'
_cell_volume   102.94895507
_cell_formula_units_Z   1
loop_
 _symmetry_equiv_pos_site_id
 _symmetry_equiv_pos_as_xyz
  1  'x, y, z'
loop_
 _atom_site_type_symbol
 _atom_site_label
 _atom_site_symmetry_multiplicity
 _atom_site_fract_x
 _atom_site_fract_y
 _atom_site_fract_z
 _atom_site_occupancy
  Gd  Gd0  1  0.000000  0.000000  0.000000  1
  Zr  Zr1  1  0.247540  0.247540  0.247540  1
  Zr  Zr2  1  0.500000  0.500000  0.500000  1
  Zr  Zr3  1  0.752460  0.752460  0.752460  1
  N  N4  1  0.379920  0.379920  0.379920  1
  N  N5  1  0.126009  0.126009  0.126009  1
  N  N6  1  0.620080  0.620080  0.620080  1
  N  N7  1  0.873991  0.873991  0.873991  1
