# generated using pymatgen
data_Nb3InCu2N
_symmetry_space_group_name_H-M   'P 1'
_cell_length_a   8.38930300
_cell_length_b   8.38930347
_cell_length_c   8.38930300
_cell_angle_alpha   120.00000209
_cell_angle_beta   90.00000000
_cell_angle_gamma   120.00000209
_symmetry_Int_Tables_number   1
_chemical_formula_structural   Nb3InCu2N
_chemical_formula_sum   'Nb12 In4 Cu8 N4'
_cell_volume   417.50592202
_cell_formula_units_Z   4
loop_
 _symmetry_equiv_pos_site_id
 _symmetry_equiv_pos_as_xyz
  1  'x, y, z'
loop_
 _atom_site_type_symbol
 _atom_site_label
 _atom_site_symmetry_multiplicity
 _atom_site_fract_x
 _atom_site_fract_y
 _atom_site_fract_z
 _atom_site_occupancy
  Nb  Nb0  1  0.302996  0.750001  0.197004  1
  Nb  Nb1  1  0.947005  0.394009  0.197004  1
  Nb  Nb2  1  0.947005  0.750001  0.197004  1
  Nb  Nb3  1  0.697005  0.894009  0.447004  1
  Nb  Nb4  1  0.697005  0.250001  0.447004  1
  Nb  Nb5  1  0.052997  0.250001  0.447005  1
  Nb  Nb6  1  0.302996  0.105991  0.552997  1
  Nb  Nb7  1  0.302996  0.750001  0.552997  1
  Nb  Nb8  1  0.947005  0.750001  0.552997  1
  Nb  Nb9  1  0.697005  0.250001  0.802997  1
  Nb  Nb10  1  0.052996  0.605991  0.802997  1
  Nb  Nb11  1  0.052996  0.250001  0.802997  1
  In  In12  1  0.000000  0.000000  0.000000  1
  In  In13  1  0.500000  0.000000  0.000000  1
  In  In14  1  0.500000  0.500000  0.000000  1
  In  In15  1  0.500000  0.500000  0.500000  1
  Cu  Cu16  1  0.710292  0.920583  0.130877  1
  Cu  Cu17  1  0.289708  0.079416  0.210292  1
  Cu  Cu18  1  0.289708  0.420584  0.210292  1
  Cu  Cu19  1  0.630877  0.420584  0.210292  1
  Cu  Cu20  1  0.710292  0.579416  0.789708  1
  Cu  Cu21  1  0.710292  0.920583  0.789708  1
  Cu  Cu22  1  0.369123  0.579416  0.789708  1
  Cu  Cu23  1  0.289708  0.079416  0.869123  1
  N  N24  1  0.000000  0.500000  0.000000  1
  N  N25  1  0.000000  0.000000  0.500000  1
  N  N26  1  0.500000  0.000000  0.500000  1
  N  N27  1  0.000000  0.500000  0.500000  1
