# generated using pymatgen
data_V9Re2Si4W
_symmetry_space_group_name_H-M   'P 1'
_cell_length_a   4.68456000
_cell_length_b   4.73159551
_cell_length_c   9.59572713
_cell_angle_alpha   89.98277767
_cell_angle_beta   90.00000000
_cell_angle_gamma   90.00000000
_symmetry_Int_Tables_number   1
_chemical_formula_structural   V9Re2Si4W
_chemical_formula_sum   'V9 Re2 Si4 W1'
_cell_volume   212.69353351
_cell_formula_units_Z   1
loop_
 _symmetry_equiv_pos_site_id
 _symmetry_equiv_pos_as_xyz
  1  'x, y, z'
loop_
 _atom_site_type_symbol
 _atom_site_label
 _atom_site_symmetry_multiplicity
 _atom_site_fract_x
 _atom_site_fract_y
 _atom_site_fract_z
 _atom_site_occupancy
  V  V0  1  0.500000  0.249356  0.499136  1
  V  V1  1  0.750285  0.001050  0.251497  1
  V  V2  1  0.749101  0.000487  0.749650  1
  V  V3  1  0.000000  0.497767  0.125331  1
  V  V4  1  0.000000  0.499720  0.624920  1
  V  V5  1  0.500000  0.750463  0.999220  1
  V  V6  1  0.500000  0.751649  0.499127  1
  V  V7  1  0.249715  0.001050  0.251497  1
  V  V8  1  0.250899  0.000487  0.749650  1
  Re  Re9  1  0.000000  0.500018  0.375155  1
  Re  Re10  1  0.000000  0.499905  0.874394  1
  Si  Si11  1  0.500000  0.503748  0.249271  1
  Si  Si12  1  0.500000  0.502855  0.742951  1
  Si  Si13  1  0.000000  0.992210  0.004286  1
  Si  Si14  1  0.000000  0.999468  0.503756  1
  W  W15  1  0.500000  0.249764  0.000158  1
