# generated using pymatgen
data_DySc(SnRh)2
_symmetry_space_group_name_H-M   'P 1'
_cell_length_a   7.59586700
_cell_length_b   7.59586557
_cell_length_c   7.30391300
_cell_angle_alpha   90.00000000
_cell_angle_beta   90.00000000
_cell_angle_gamma   119.99999316
_symmetry_Int_Tables_number   1
_chemical_formula_structural   DySc(SnRh)2
_chemical_formula_sum   'Dy3 Sc3 Sn6 Rh6'
_cell_volume   364.95630841
_cell_formula_units_Z   3
loop_
 _symmetry_equiv_pos_site_id
 _symmetry_equiv_pos_as_xyz
  1  'x, y, z'
loop_
 _atom_site_type_symbol
 _atom_site_label
 _atom_site_symmetry_multiplicity
 _atom_site_fract_x
 _atom_site_fract_y
 _atom_site_fract_z
 _atom_site_occupancy
  Dy  Dy0  1  0.403516  0.000670  0.250000  1
  Dy  Dy1  1  0.597154  0.596484  0.250000  1
  Dy  Dy2  1  0.999330  0.402846  0.250000  1
  Sc  Sc3  1  0.394936  0.996781  0.750000  1
  Sc  Sc4  1  0.601845  0.605064  0.750000  1
  Sc  Sc5  1  0.003219  0.398155  0.750000  1
  Sn  Sn6  1  0.729837  0.001185  0.989660  1
  Sn  Sn7  1  0.271348  0.270163  0.510340  1
  Sn  Sn8  1  0.998815  0.728652  0.510340  1
  Sn  Sn9  1  0.998815  0.728652  0.989660  1
  Sn  Sn10  1  0.271348  0.270163  0.989660  1
  Sn  Sn11  1  0.729837  0.001185  0.510340  1
  Rh  Rh12  1  0.333333  0.666667  0.978320  1
  Rh  Rh13  1  0.333333  0.666667  0.521680  1
  Rh  Rh14  1  0.666667  0.333333  0.971611  1
  Rh  Rh15  1  0.666667  0.333333  0.528389  1
  Rh  Rh16  1  0.000000  0.000000  0.250000  1
  Rh  Rh17  1  0.000000  0.000000  0.750000  1
