# generated using pymatgen
data_GdDyTmTaO7
_symmetry_space_group_name_H-M   'P 1'
_cell_length_a   6.47116954
_cell_length_b   6.47116886
_cell_length_c   7.49723598
_cell_angle_alpha   89.95230247
_cell_angle_beta   89.95230314
_cell_angle_gamma   108.78751637
_symmetry_Int_Tables_number   1
_chemical_formula_structural   GdDyTmTaO7
_chemical_formula_sum   'Gd2 Dy2 Tm2 Ta2 O14'
_cell_volume   297.22651460
_cell_formula_units_Z   2
loop_
 _symmetry_equiv_pos_site_id
 _symmetry_equiv_pos_as_xyz
  1  'x, y, z'
loop_
 _atom_site_type_symbol
 _atom_site_label
 _atom_site_symmetry_multiplicity
 _atom_site_fract_x
 _atom_site_fract_y
 _atom_site_fract_z
 _atom_site_occupancy
  Gd  Gd0  1  0.474367  0.473486  0.001420  1
  Gd  Gd1  1  0.526514  0.525633  0.498580  1
  Dy  Dy2  1  0.999785  0.465704  0.744176  1
  Dy  Dy3  1  0.534296  0.000215  0.755824  1
  Tm  Tm4  1  0.001331  0.534610  0.244205  1
  Tm  Tm5  1  0.465390  0.998669  0.255795  1
  Ta  Ta6  1  0.002359  0.003001  0.498678  1
  Ta  Ta7  1  0.996999  0.997641  0.001322  1
  O  O8  1  0.932726  0.067274  0.750000  1
  O  O9  1  0.639653  0.360347  0.750000  1
  O  O10  1  0.313357  0.056242  0.538118  1
  O  O11  1  0.943758  0.686643  0.961882  1
  O  O12  1  0.634137  0.365863  0.250000  1
  O  O13  1  0.921389  0.673068  0.524817  1
  O  O14  1  0.326932  0.078611  0.975183  1
  O  O15  1  0.076641  0.325944  0.030248  1
  O  O16  1  0.674056  0.923359  0.469752  1
  O  O17  1  0.368665  0.631335  0.750000  1
  O  O18  1  0.686986  0.944280  0.043311  1
  O  O19  1  0.055720  0.313014  0.456689  1
  O  O20  1  0.356266  0.643734  0.250000  1
  O  O21  1  0.068673  0.931327  0.250000  1
