# generated using pymatgen
data_Dy4Tm6Si5Ge
_symmetry_space_group_name_H-M   'P 1'
_cell_length_a   8.36946209
_cell_length_b   8.39097179
_cell_length_c   6.28036800
_cell_angle_alpha   90.00000000
_cell_angle_beta   90.00000000
_cell_angle_gamma   120.09519229
_symmetry_Int_Tables_number   1
_chemical_formula_structural   Dy4Tm6Si5Ge
_chemical_formula_sum   'Dy4 Tm6 Si5 Ge1'
_cell_volume   381.59980801
_cell_formula_units_Z   1
loop_
 _symmetry_equiv_pos_site_id
 _symmetry_equiv_pos_as_xyz
  1  'x, y, z'
loop_
 _atom_site_type_symbol
 _atom_site_label
 _atom_site_symmetry_multiplicity
 _atom_site_fract_x
 _atom_site_fract_y
 _atom_site_fract_z
 _atom_site_occupancy
  Dy  Dy0  1  0.758476  0.758279  0.250000  1
  Dy  Dy1  1  0.242458  0.998277  0.250000  1
  Dy  Dy2  1  0.242224  0.242427  0.750000  1
  Dy  Dy3  1  0.757206  0.000039  0.750000  1
  Tm  Tm4  1  0.668441  0.333416  0.500775  1
  Tm  Tm5  1  0.332511  0.667523  0.500772  1
  Tm  Tm6  1  0.332511  0.667523  0.999228  1
  Tm  Tm7  1  0.668441  0.333416  0.999225  1
  Tm  Tm8  1  0.998412  0.243915  0.250000  1
  Tm  Tm9  1  0.999878  0.755689  0.750000  1
  Si  Si10  1  0.606174  0.000659  0.250000  1
  Si  Si11  1  0.999856  0.603797  0.250000  1
  Si  Si12  1  0.606507  0.605736  0.750000  1
  Si  Si13  1  0.393698  0.999396  0.750000  1
  Si  Si14  1  0.000152  0.396009  0.750000  1
  Ge  Ge15  1  0.393053  0.393897  0.250000  1
