# generated using pymatgen
data_LiF9
_symmetry_space_group_name_H-M   'P 1'
_cell_length_a   3.42796770
_cell_length_b   3.97421815
_cell_length_c   13.20743558
_cell_angle_alpha   105.16992208
_cell_angle_beta   88.49092654
_cell_angle_gamma   108.09724800
_symmetry_Int_Tables_number   1
_chemical_formula_structural   LiF9
_chemical_formula_sum   'Li1 F9'
_cell_volume   164.77418713
_cell_formula_units_Z   1
loop_
 _symmetry_equiv_pos_site_id
 _symmetry_equiv_pos_as_xyz
  1  'x, y, z'
loop_
 _atom_site_type_symbol
 _atom_site_label
 _atom_site_symmetry_multiplicity
 _atom_site_fract_x
 _atom_site_fract_y
 _atom_site_fract_z
 _atom_site_occupancy
  Li  Li0  1  0.943431  0.652349  0.449251  1
  F  F1  1  0.519895  0.886555  0.749686  1
  F  F2  1  0.228166  0.723911  0.201450  1
  F  F3  1  0.194137  0.269763  0.494648  1
  F  F4  1  0.408627  0.538843  0.397214  1
  F  F5  1  0.646401  0.598797  0.769450  1
  F  F6  1  0.179260  0.188978  0.982594  1
  F  F7  1  0.565023  0.992781  0.173456  1
  F  F8  1  0.088280  0.469633  0.948253  1
  F  F9  1  0.999079  0.037860  0.578766  1
