# generated using pymatgen
data_ZnCo5(AsO4)4
_symmetry_space_group_name_H-M   'P 1'
_cell_length_a   8.60332160
_cell_length_b   5.33451580
_cell_length_c   9.07534918
_cell_angle_alpha   60.83923133
_cell_angle_beta   89.47502713
_cell_angle_gamma   89.52415210
_symmetry_Int_Tables_number   1
_chemical_formula_structural   ZnCo5(AsO4)4
_chemical_formula_sum   'Zn1 Co5 As4 O16'
_cell_volume   363.70026148
_cell_formula_units_Z   1
loop_
 _symmetry_equiv_pos_site_id
 _symmetry_equiv_pos_as_xyz
  1  'x, y, z'
loop_
 _atom_site_type_symbol
 _atom_site_label
 _atom_site_symmetry_multiplicity
 _atom_site_fract_x
 _atom_site_fract_y
 _atom_site_fract_z
 _atom_site_occupancy
  Zn  Zn0  1  0.500000  0.500000  0.000000  1
  Co  Co1  1  0.140563  0.490542  0.106092  1
  Co  Co2  1  0.642645  0.511197  0.394566  1
  Co  Co3  1  0.859437  0.509458  0.893908  1
  Co  Co4  1  0.357355  0.488803  0.605434  1
  Co  Co5  1  0.000000  0.500000  0.500000  1
  As  As6  1  0.306566  0.848055  0.196030  1
  As  As7  1  0.807822  0.149277  0.305882  1
  As  As8  1  0.693434  0.151945  0.803970  1
  As  As9  1  0.192178  0.850723  0.694118  1
  O  O10  1  0.065700  0.702093  0.864228  1
  O  O11  1  0.566140  0.299008  0.636545  1
  O  O12  1  0.934300  0.297907  0.135772  1
  O  O13  1  0.433860  0.700992  0.363455  1
  O  O14  1  0.192801  0.216854  0.616168  1
  O  O15  1  0.695296  0.786245  0.882452  1
  O  O16  1  0.807199  0.783146  0.383832  1
  O  O17  1  0.304704  0.213755  0.117548  1
  O  O18  1  0.144138  0.774582  0.536343  1
  O  O19  1  0.644805  0.229715  0.962197  1
  O  O20  1  0.128597  0.671839  0.257850  1
  O  O21  1  0.629204  0.325464  0.246293  1
  O  O22  1  0.871403  0.328161  0.742150  1
  O  O23  1  0.370796  0.674536  0.753707  1
  O  O24  1  0.355195  0.770285  0.037803  1
  O  O25  1  0.855862  0.225418  0.463657  1
