# generated using pymatgen
data_Hf4ZnCu3Rh8
_symmetry_space_group_name_H-M   'P 1'
_cell_length_a   5.78520800
_cell_length_b   5.78491700
_cell_length_c   7.19101100
_cell_angle_alpha   90.00000000
_cell_angle_beta   90.00000000
_cell_angle_gamma   90.00000000
_symmetry_Int_Tables_number   1
_chemical_formula_structural   Hf4ZnCu3Rh8
_chemical_formula_sum   'Hf4 Zn1 Cu3 Rh8'
_cell_volume   240.66119198
_cell_formula_units_Z   1
loop_
 _symmetry_equiv_pos_site_id
 _symmetry_equiv_pos_as_xyz
  1  'x, y, z'
loop_
 _atom_site_type_symbol
 _atom_site_label
 _atom_site_symmetry_multiplicity
 _atom_site_fract_x
 _atom_site_fract_y
 _atom_site_fract_z
 _atom_site_occupancy
  Hf  Hf0  1  0.749802  0.250000  0.000000  1
  Hf  Hf1  1  0.250195  0.750001  0.000000  1
  Hf  Hf2  1  0.750152  0.250000  0.500000  1
  Hf  Hf3  1  0.249804  0.750001  0.500000  1
  Zn  Zn4  1  0.250017  0.250000  0.500003  1
  Cu  Cu5  1  0.250050  0.250000  0.000000  1
  Cu  Cu6  1  0.749967  0.750001  0.000000  1
  Cu  Cu7  1  0.750054  0.750001  0.499996  1
  Rh  Rh8  1  0.999470  0.999490  0.250476  1
  Rh  Rh9  1  0.999470  0.500511  0.250476  1
  Rh  Rh10  1  0.500519  0.999467  0.250673  1
  Rh  Rh11  1  0.500519  0.500532  0.250673  1
  Rh  Rh12  1  0.500522  0.999467  0.749326  1
  Rh  Rh13  1  0.500522  0.500534  0.749326  1
  Rh  Rh14  1  0.999470  0.999490  0.749524  1
  Rh  Rh15  1  0.999470  0.500509  0.749524  1
