# generated using pymatgen
data_Cs2Nd2MnSe5
_symmetry_space_group_name_H-M   'P 1'
_cell_length_a   4.39994900
_cell_length_b   16.84308500
_cell_length_c   19.39569800
_cell_angle_alpha   90.00000000
_cell_angle_beta   90.00000000
_cell_angle_gamma   90.00000000
_symmetry_Int_Tables_number   1
_chemical_formula_structural   Cs2Nd2MnSe5
_chemical_formula_sum   'Cs8 Nd8 Mn4 Se20'
_cell_volume   1437.39025536
_cell_formula_units_Z   4
loop_
 _symmetry_equiv_pos_site_id
 _symmetry_equiv_pos_as_xyz
  1  'x, y, z'
loop_
 _atom_site_type_symbol
 _atom_site_label
 _atom_site_symmetry_multiplicity
 _atom_site_fract_x
 _atom_site_fract_y
 _atom_site_fract_z
 _atom_site_occupancy
  Cs  Cs0  1  0.250000  0.507805  0.122638  1
  Cs  Cs1  1  0.750000  0.533173  0.382597  1
  Cs  Cs2  1  0.250000  0.966827  0.882597  1
  Cs  Cs3  1  0.750000  0.992195  0.622638  1
  Cs  Cs4  1  0.750000  0.492195  0.877362  1
  Cs  Cs5  1  0.750000  0.033173  0.117403  1
  Cs  Cs6  1  0.250000  0.466827  0.617403  1
  Cs  Cs7  1  0.250000  0.007805  0.377362  1
  Nd  Nd8  1  0.250000  0.251103  0.989043  1
  Nd  Nd9  1  0.750000  0.248897  0.489043  1
  Nd  Nd10  1  0.750000  0.713356  0.699681  1
  Nd  Nd11  1  0.750000  0.748897  0.010957  1
  Nd  Nd12  1  0.250000  0.786644  0.199681  1
  Nd  Nd13  1  0.750000  0.213356  0.800319  1
  Nd  Nd14  1  0.250000  0.751103  0.510957  1
  Nd  Nd15  1  0.250000  0.286644  0.300319  1
  Mn  Mn16  1  0.750000  0.793694  0.355673  1
  Mn  Mn17  1  0.750000  0.293694  0.144327  1
  Mn  Mn18  1  0.250000  0.206306  0.644327  1
  Mn  Mn19  1  0.250000  0.706306  0.855673  1
  Se  Se20  1  0.250000  0.110338  0.743548  1
  Se  Se21  1  0.250000  0.359926  0.442569  1
  Se  Se22  1  0.250000  0.859926  0.057431  1
  Se  Se23  1  0.750000  0.889662  0.256452  1
  Se  Se24  1  0.750000  0.389662  0.243548  1
  Se  Se25  1  0.750000  0.789553  0.850822  1
  Se  Se26  1  0.250000  0.316516  0.848777  1
  Se  Se27  1  0.250000  0.710447  0.350822  1
  Se  Se28  1  0.750000  0.683484  0.151223  1
  Se  Se29  1  0.250000  0.816516  0.651223  1
  Se  Se30  1  0.250000  0.138608  0.529838  1
  Se  Se31  1  0.250000  0.210447  0.149178  1
  Se  Se32  1  0.750000  0.289553  0.649178  1
  Se  Se33  1  0.750000  0.861392  0.470162  1
  Se  Se34  1  0.750000  0.640074  0.557431  1
  Se  Se35  1  0.250000  0.638608  0.970162  1
  Se  Se36  1  0.250000  0.610338  0.756452  1
  Se  Se37  1  0.750000  0.140074  0.942569  1
  Se  Se38  1  0.750000  0.183484  0.348777  1
  Se  Se39  1  0.750000  0.361392  0.029838  1
