# generated using pymatgen
data_Nd5YTiAl23Ru8
_symmetry_space_group_name_H-M   'P 1'
_cell_length_a   8.89556200
_cell_length_b   8.92295879
_cell_length_c   9.67306928
_cell_angle_alpha   90.05095214
_cell_angle_beta   90.00000000
_cell_angle_gamma   119.89849223
_symmetry_Int_Tables_number   1
_chemical_formula_structural   Nd5YTiAl23Ru8
_chemical_formula_sum   'Nd5 Y1 Ti1 Al23 Ru8'
_cell_volume   665.61069817
_cell_formula_units_Z   1
loop_
 _symmetry_equiv_pos_site_id
 _symmetry_equiv_pos_as_xyz
  1  'x, y, z'
loop_
 _atom_site_type_symbol
 _atom_site_label
 _atom_site_symmetry_multiplicity
 _atom_site_fract_x
 _atom_site_fract_y
 _atom_site_fract_z
 _atom_site_occupancy
  Nd  Nd0  1  0.807626  0.615255  0.748939  1
  Nd  Nd1  1  0.614518  0.807801  0.250477  1
  Nd  Nd2  1  0.384333  0.192000  0.748570  1
  Nd  Nd3  1  0.193284  0.807801  0.250477  1
  Nd  Nd4  1  0.807665  0.192000  0.748570  1
  Y  Y5  1  0.192844  0.385686  0.250819  1
  Ti  Ti6  1  0.332677  0.665354  0.991314  1
  Al  Al7  1  0.666687  0.333372  0.990122  1
  Al  Al8  1  0.666411  0.332821  0.508575  1
  Al  Al9  1  0.332802  0.665605  0.487405  1
  Al  Al10  1  0.161784  0.323570  0.573948  1
  Al  Al11  1  0.837797  0.675594  0.423144  1
  Al  Al12  1  0.675931  0.837736  0.575589  1
  Al  Al13  1  0.837392  0.674783  0.077593  1
  Al  Al14  1  0.323779  0.163666  0.422619  1
  Al  Al15  1  0.158712  0.317425  0.927128  1
  Al  Al16  1  0.161804  0.837736  0.575589  1
  Al  Al17  1  0.324474  0.163653  0.077904  1
  Al  Al18  1  0.839887  0.163666  0.422619  1
  Al  Al19  1  0.682105  0.841218  0.924920  1
  Al  Al20  1  0.839180  0.163653  0.077904  1
  Al  Al21  1  0.159114  0.841218  0.924920  1
  Al  Al22  1  0.563307  0.126613  0.252143  1
  Al  Al23  1  0.438790  0.877581  0.749909  1
  Al  Al24  1  0.876742  0.436823  0.252347  1
  Al  Al25  1  0.122435  0.560742  0.749505  1
  Al  Al26  1  0.560082  0.436823  0.252347  1
  Al  Al27  1  0.438306  0.560742  0.749505  1
  Al  Al28  1  0.001518  0.003036  0.249804  1
  Al  Al29  1  0.999882  0.999764  0.749135  1
  Ru  Ru30  1  0.497916  0.995831  0.003205  1
  Ru  Ru31  1  0.005192  0.501438  0.003928  1
  Ru  Ru32  1  0.499203  0.998407  0.502218  1
  Ru  Ru33  1  0.496247  0.501438  0.003928  1
  Ru  Ru34  1  0.001550  0.499758  0.501775  1
  Ru  Ru35  1  0.498208  0.499758  0.501775  1
  Ru  Ru36  1  0.999900  0.999800  0.000662  1
  Ru  Ru37  1  0.999918  0.999835  0.498669  1
