# generated using pymatgen
data_Zn2NiH12
_symmetry_space_group_name_H-M   'P 1'
_cell_length_a   4.61360338
_cell_length_b   4.60052688
_cell_length_c   12.94794994
_cell_angle_alpha   86.93623825
_cell_angle_beta   90.85613383
_cell_angle_gamma   88.51362274
_symmetry_Int_Tables_number   1
_chemical_formula_structural   Zn2NiH12
_chemical_formula_sum   'Zn2 Ni1 H12'
_cell_volume   274.29847056
_cell_formula_units_Z   1
loop_
 _symmetry_equiv_pos_site_id
 _symmetry_equiv_pos_as_xyz
  1  'x, y, z'
loop_
 _atom_site_type_symbol
 _atom_site_label
 _atom_site_symmetry_multiplicity
 _atom_site_fract_x
 _atom_site_fract_y
 _atom_site_fract_z
 _atom_site_occupancy
  Zn  Zn0  1  0.741105  0.088197  0.907447  1
  Zn  Zn1  1  0.233336  0.581222  0.944226  1
  Ni  Ni2  1  0.733697  0.584796  0.926364  1
  H  H3  1  0.531668  0.792387  0.853696  1
  H  H4  1  0.109936  0.358735  0.240842  1
  H  H5  1  0.252297  0.612370  0.456680  1
  H  H6  1  0.557040  0.386277  0.005054  1
  H  H7  1  0.613627  0.992880  0.548552  1
  H  H8  1  0.892359  0.412649  0.840501  1
  H  H9  1  0.016871  0.304915  0.198170  1
  H  H10  1  0.147470  0.853549  0.702346  1
  H  H11  1  0.213484  0.983812  0.675451  1
  H  H12  1  0.768742  0.968383  0.534133  1
  H  H13  1  0.201516  0.595337  0.511381  1
  H  H14  1  0.915220  0.741811  0.009428  1
