# generated using pymatgen
data_Tb9ThSn8
_symmetry_space_group_name_H-M   'P 1'
_cell_length_a   8.09941881
_cell_length_b   8.24879100
_cell_length_c   15.58267300
_cell_angle_alpha   90.00000000
_cell_angle_beta   89.77078568
_cell_angle_gamma   90.00000000
_symmetry_Int_Tables_number   1
_chemical_formula_structural   Tb9ThSn8
_chemical_formula_sum   'Tb18 Th2 Sn16'
_cell_volume   1041.07648798
_cell_formula_units_Z   2
loop_
 _symmetry_equiv_pos_site_id
 _symmetry_equiv_pos_as_xyz
  1  'x, y, z'
loop_
 _atom_site_type_symbol
 _atom_site_label
 _atom_site_symmetry_multiplicity
 _atom_site_fract_x
 _atom_site_fract_y
 _atom_site_fract_z
 _atom_site_occupancy
  Tb  Tb0  1  0.019403  0.179473  0.401538  1
  Tb  Tb1  1  0.368159  0.836710  0.121194  1
  Tb  Tb2  1  0.133415  0.336804  0.622295  1
  Tb  Tb3  1  0.480398  0.679280  0.902419  1
  Tb  Tb4  1  0.868431  0.663113  0.121490  1
  Tb  Tb5  1  0.131841  0.336710  0.878806  1
  Tb  Tb6  1  0.198256  0.502590  0.249007  1
  Tb  Tb7  1  0.698322  0.998664  0.249311  1
  Tb  Tb8  1  0.480597  0.679473  0.598462  1
  Tb  Tb9  1  0.301744  0.002590  0.750993  1
  Tb  Tb10  1  0.633192  0.163211  0.622446  1
  Tb  Tb11  1  0.801678  0.498664  0.750689  1
  Tb  Tb12  1  0.866808  0.663211  0.377554  1
  Tb  Tb13  1  0.019602  0.179280  0.097581  1
  Tb  Tb14  1  0.979714  0.820050  0.901231  1
  Tb  Tb15  1  0.631569  0.163113  0.878510  1
  Tb  Tb16  1  0.520286  0.320050  0.098769  1
  Tb  Tb17  1  0.366585  0.836804  0.377705  1
  Th  Th18  1  0.982697  0.819194  0.597712  1
  Th  Th19  1  0.517303  0.319194  0.402288  1
  Sn  Sn20  1  0.792963  0.463836  0.542395  1
  Sn  Sn21  1  0.707037  0.963836  0.457605  1
  Sn  Sn22  1  0.670714  0.853512  0.750502  1
  Sn  Sn23  1  0.205072  0.539478  0.459262  1
  Sn  Sn24  1  0.290865  0.035744  0.958073  1
  Sn  Sn25  1  0.829286  0.353512  0.249498  1
  Sn  Sn26  1  0.791343  0.463498  0.958316  1
  Sn  Sn27  1  0.565490  0.620514  0.250214  1
  Sn  Sn28  1  0.209135  0.535744  0.041927  1
  Sn  Sn29  1  0.434709  0.380284  0.750205  1
  Sn  Sn30  1  0.174667  0.644045  0.751482  1
  Sn  Sn31  1  0.934510  0.120514  0.749786  1
  Sn  Sn32  1  0.294928  0.039478  0.540738  1
  Sn  Sn33  1  0.708657  0.963498  0.041684  1
  Sn  Sn34  1  0.325333  0.144045  0.248518  1
  Sn  Sn35  1  0.065291  0.880284  0.249795  1
