# generated using pymatgen
data_Fe2Co2P4RuW3
_symmetry_space_group_name_H-M   'P 1'
_cell_length_a   3.75741700
_cell_length_b   5.79125374
_cell_length_c   6.69876385
_cell_angle_alpha   90.05777448
_cell_angle_beta   90.00000000
_cell_angle_gamma   90.00000000
_symmetry_Int_Tables_number   1
_chemical_formula_structural   Fe2Co2P4RuW3
_chemical_formula_sum   'Fe2 Co2 P4 Ru1 W3'
_cell_volume   145.76606721
_cell_formula_units_Z   1
loop_
 _symmetry_equiv_pos_site_id
 _symmetry_equiv_pos_as_xyz
  1  'x, y, z'
loop_
 _atom_site_type_symbol
 _atom_site_label
 _atom_site_symmetry_multiplicity
 _atom_site_fract_x
 _atom_site_fract_y
 _atom_site_fract_z
 _atom_site_occupancy
  Fe  Fe0  1  0.000000  0.356989  0.314449  1
  Fe  Fe1  1  0.000000  0.861387  0.682947  1
  Co  Co2  1  0.500000  0.639245  0.182475  1
  Co  Co3  1  0.500000  0.141762  0.824223  1
  P  P4  1  0.500000  0.267046  0.132742  1
  P  P5  1  0.500000  0.768056  0.869262  1
  P  P6  1  0.000000  0.735330  0.372778  1
  P  P7  1  0.000000  0.231543  0.627055  1
  Ru  Ru8  1  0.500000  0.036729  0.415515  1
  W  W9  1  0.500000  0.527116  0.579210  1
  W  W10  1  0.000000  0.468578  0.918076  1
  W  W11  1  0.000000  0.966218  0.081268  1
