# generated using pymatgen
data_Y5HoCd23P
_symmetry_space_group_name_H-M   'P 1'
_cell_length_a   9.99881221
_cell_length_b   9.95408489
_cell_length_c   9.95408400
_cell_angle_alpha   60.29759881
_cell_angle_beta   59.85129715
_cell_angle_gamma   59.85129602
_symmetry_Int_Tables_number   1
_chemical_formula_structural   Y5HoCd23P
_chemical_formula_sum   'Y5 Ho1 Cd23 P1'
_cell_volume   700.51762205
_cell_formula_units_Z   1
loop_
 _symmetry_equiv_pos_site_id
 _symmetry_equiv_pos_as_xyz
  1  'x, y, z'
loop_
 _atom_site_type_symbol
 _atom_site_label
 _atom_site_symmetry_multiplicity
 _atom_site_fract_x
 _atom_site_fract_y
 _atom_site_fract_z
 _atom_site_occupancy
  Y  Y0  1  0.803874  0.802317  0.197495  1
  Y  Y1  1  0.196740  0.801879  0.197190  1
  Y  Y2  1  0.802548  0.197764  0.197762  1
  Y  Y3  1  0.196740  0.197192  0.801880  1
  Y  Y4  1  0.803869  0.197498  0.802320  1
  Ho  Ho5  1  0.197401  0.801985  0.801994  1
  Cd  Cd6  1  0.835285  0.837232  0.491403  1
  Cd  Cd7  1  0.835284  0.491403  0.837232  1
  Cd  Cd8  1  0.492071  0.834955  0.834955  1
  Cd  Cd9  1  0.840089  0.838708  0.838706  1
  Cd  Cd10  1  0.165020  0.162203  0.508815  1
  Cd  Cd11  1  0.165022  0.508814  0.162203  1
  Cd  Cd12  1  0.508204  0.164712  0.164710  1
  Cd  Cd13  1  0.160448  0.161011  0.161011  1
  Cd  Cd14  1  0.621116  0.622417  0.135298  1
  Cd  Cd15  1  0.621116  0.135299  0.622417  1
  Cd  Cd16  1  0.133532  0.621143  0.621141  1
  Cd  Cd17  1  0.623297  0.619718  0.619719  1
  Cd  Cd18  1  0.378328  0.376932  0.866314  1
  Cd  Cd19  1  0.378328  0.866314  0.376932  1
  Cd  Cd20  1  0.864640  0.379557  0.379557  1
  Cd  Cd21  1  0.377066  0.380897  0.380896  1
  Cd  Cd22  1  0.999961  0.000138  0.500019  1
  Cd  Cd23  1  0.500016  0.999984  0.500036  1
  Cd  Cd24  1  0.000280  0.499660  0.499660  1
  Cd  Cd25  1  0.500016  0.500036  0.999985  1
  Cd  Cd26  1  0.999962  0.500019  0.000137  1
  Cd  Cd27  1  0.500359  0.999675  0.999674  1
  Cd  Cd28  1  0.498298  0.501577  0.501577  1
  P  P29  1  0.001100  0.998959  0.998958  1
