# generated using pymatgen
data_La9Pr11Sn16
_symmetry_space_group_name_H-M   'P 1'
_cell_length_a   8.42905641
_cell_length_b   8.58648486
_cell_length_c   16.28723940
_cell_angle_alpha   90.02351109
_cell_angle_beta   90.03358741
_cell_angle_gamma   90.04321916
_symmetry_Int_Tables_number   1
_chemical_formula_structural   La9Pr11Sn16
_chemical_formula_sum   'La9 Pr11 Sn16'
_cell_volume   1178.80403529
_cell_formula_units_Z   1
loop_
 _symmetry_equiv_pos_site_id
 _symmetry_equiv_pos_as_xyz
  1  'x, y, z'
loop_
 _atom_site_type_symbol
 _atom_site_label
 _atom_site_symmetry_multiplicity
 _atom_site_fract_x
 _atom_site_fract_y
 _atom_site_fract_z
 _atom_site_occupancy
  La  La0  1  0.868078  0.663111  0.880181  1
  La  La1  1  0.517733  0.319150  0.900631  1
  La  La2  1  0.017860  0.180582  0.599165  1
  La  La3  1  0.482227  0.680475  0.400600  1
  La  La4  1  0.982092  0.819549  0.099747  1
  La  La5  1  0.482206  0.680359  0.099538  1
  La  La6  1  0.982170  0.819513  0.400527  1
  La  La7  1  0.517739  0.319373  0.599154  1
  La  La8  1  0.017891  0.180439  0.900594  1
  Pr  Pr9  1  0.367188  0.837434  0.879458  1
  Pr  Pr10  1  0.867370  0.662750  0.620277  1
  Pr  Pr11  1  0.632709  0.162621  0.379468  1
  Pr  Pr12  1  0.132468  0.337521  0.120504  1
  Pr  Pr13  1  0.632190  0.162490  0.121063  1
  Pr  Pr14  1  0.132619  0.337226  0.379488  1
  Pr  Pr15  1  0.367464  0.837274  0.620254  1
  Pr  Pr16  1  0.199219  0.501581  0.749989  1
  Pr  Pr17  1  0.698983  0.998391  0.749799  1
  Pr  Pr18  1  0.800842  0.498511  0.250181  1
  Pr  Pr19  1  0.300789  0.001594  0.250026  1
  Sn  Sn20  1  0.292857  0.036685  0.041861  1
  Sn  Sn21  1  0.793042  0.463260  0.458039  1
  Sn  Sn22  1  0.707053  0.963293  0.541898  1
  Sn  Sn23  1  0.209261  0.535984  0.958219  1
  Sn  Sn24  1  0.705608  0.965205  0.958171  1
  Sn  Sn25  1  0.206961  0.536663  0.541940  1
  Sn  Sn26  1  0.293020  0.036726  0.458054  1
  Sn  Sn27  1  0.792653  0.462391  0.042877  1
  Sn  Sn28  1  0.566296  0.618563  0.749347  1
  Sn  Sn29  1  0.067623  0.882252  0.749521  1
  Sn  Sn30  1  0.432840  0.381318  0.250016  1
  Sn  Sn31  1  0.933040  0.118792  0.250020  1
  Sn  Sn32  1  0.323369  0.141881  0.749856  1
  Sn  Sn33  1  0.823173  0.357154  0.749420  1
  Sn  Sn34  1  0.676626  0.857994  0.250073  1
  Sn  Sn35  1  0.176739  0.641896  0.250048  1
