# generated using pymatgen
data_La4SnI5
_symmetry_space_group_name_H-M   'P 1'
_cell_length_a   10.29707125
_cell_length_b   10.29707139
_cell_length_c   9.37421926
_cell_angle_alpha   78.86273737
_cell_angle_beta   78.86273857
_cell_angle_gamma   25.51315375
_symmetry_Int_Tables_number   1
_chemical_formula_structural   La4SnI5
_chemical_formula_sum   'La4 Sn1 I5'
_cell_volume   419.63056996
_cell_formula_units_Z   1
loop_
 _symmetry_equiv_pos_site_id
 _symmetry_equiv_pos_as_xyz
  1  'x, y, z'
loop_
 _atom_site_type_symbol
 _atom_site_label
 _atom_site_symmetry_multiplicity
 _atom_site_fract_x
 _atom_site_fract_y
 _atom_site_fract_z
 _atom_site_occupancy
  La  La0  1  0.843659  0.843659  0.079413  1
  La  La1  1  0.156341  0.156341  0.920587  1
  La  La2  1  0.501717  0.501717  0.228875  1
  La  La3  1  0.498283  0.498283  0.771125  1
  Sn  Sn4  1  0.000000  0.000000  0.000000  1
  I  I5  1  0.671306  0.671306  0.168979  1
  I  I6  1  0.328694  0.328694  0.831021  1
  I  I7  1  0.664490  0.664490  0.666776  1
  I  I8  1  0.335510  0.335510  0.333224  1
  I  I9  1  0.000000  0.000000  0.500000  1
