# generated using pymatgen
data_BaPr3(PPd3)8
_symmetry_space_group_name_H-M   'P 1'
_cell_length_a   8.57056641
_cell_length_b   8.57056641
_cell_length_c   8.57056641
_cell_angle_alpha   90.16782190
_cell_angle_beta   90.16782190
_cell_angle_gamma   90.16782190
_symmetry_Int_Tables_number   1
_chemical_formula_structural   BaPr3(PPd3)8
_chemical_formula_sum   'Ba1 Pr3 P8 Pd24'
_cell_volume   629.53948342
_cell_formula_units_Z   1
loop_
 _symmetry_equiv_pos_site_id
 _symmetry_equiv_pos_as_xyz
  1  'x, y, z'
loop_
 _atom_site_type_symbol
 _atom_site_label
 _atom_site_symmetry_multiplicity
 _atom_site_fract_x
 _atom_site_fract_y
 _atom_site_fract_z
 _atom_site_occupancy
  Ba  Ba0  1  0.000000  0.000000  0.000000  1
  Pr  Pr1  1  0.500000  0.500000  0.000000  1
  Pr  Pr2  1  0.500000  0.000000  0.500000  1
  Pr  Pr3  1  0.000000  0.500000  0.500000  1
  P  P4  1  0.804397  0.309849  0.190044  1
  P  P5  1  0.190044  0.804397  0.309849  1
  P  P6  1  0.692049  0.692049  0.692049  1
  P  P7  1  0.309849  0.190044  0.804397  1
  P  P8  1  0.195603  0.690151  0.809956  1
  P  P9  1  0.809956  0.195603  0.690151  1
  P  P10  1  0.307951  0.307951  0.307951  1
  P  P11  1  0.690151  0.809956  0.195603  1
  Pd  Pd12  1  0.417701  0.847933  0.164013  1
  Pd  Pd13  1  0.578906  0.348584  0.337228  1
  Pd  Pd14  1  0.079166  0.158956  0.654498  1
  Pd  Pd15  1  0.923344  0.648618  0.830244  1
  Pd  Pd16  1  0.164013  0.417701  0.847933  1
  Pd  Pd17  1  0.337228  0.578906  0.348584  1
  Pd  Pd18  1  0.654498  0.079166  0.158956  1
  Pd  Pd19  1  0.830244  0.923344  0.648618  1
  Pd  Pd20  1  0.847933  0.164013  0.417701  1
  Pd  Pd21  1  0.348584  0.337228  0.578906  1
  Pd  Pd22  1  0.158956  0.654498  0.079166  1
  Pd  Pd23  1  0.648618  0.830244  0.923344  1
  Pd  Pd24  1  0.582299  0.152067  0.835987  1
  Pd  Pd25  1  0.421094  0.651416  0.662772  1
  Pd  Pd26  1  0.920834  0.841044  0.345502  1
  Pd  Pd27  1  0.076656  0.351382  0.169756  1
  Pd  Pd28  1  0.835987  0.582299  0.152067  1
  Pd  Pd29  1  0.662772  0.421094  0.651416  1
  Pd  Pd30  1  0.345502  0.920834  0.841044  1
  Pd  Pd31  1  0.169756  0.076656  0.351382  1
  Pd  Pd32  1  0.152067  0.835987  0.582299  1
  Pd  Pd33  1  0.651416  0.662772  0.421094  1
  Pd  Pd34  1  0.841044  0.345502  0.920834  1
  Pd  Pd35  1  0.351382  0.169756  0.076656  1
