# generated using pymatgen
data_Tb10Pt3RhPb8
_symmetry_space_group_name_H-M   'P 1'
_cell_length_a   3.77591100
_cell_length_b   8.18916548
_cell_length_c   18.46133769
_cell_angle_alpha   90.10250210
_cell_angle_beta   90.00000000
_cell_angle_gamma   90.00000000
_symmetry_Int_Tables_number   1
_chemical_formula_structural   Tb10Pt3RhPb8
_chemical_formula_sum   'Tb10 Pt3 Rh1 Pb8'
_cell_volume   570.85244774
_cell_formula_units_Z   1
loop_
 _symmetry_equiv_pos_site_id
 _symmetry_equiv_pos_as_xyz
  1  'x, y, z'
loop_
 _atom_site_type_symbol
 _atom_site_label
 _atom_site_symmetry_multiplicity
 _atom_site_fract_x
 _atom_site_fract_y
 _atom_site_fract_z
 _atom_site_occupancy
  Tb  Tb0  1  0.000000  0.113578  0.410303  1
  Tb  Tb1  1  0.000000  0.885714  0.586933  1
  Tb  Tb2  1  0.000000  0.386478  0.912827  1
  Tb  Tb3  1  0.000000  0.615427  0.088366  1
  Tb  Tb4  1  0.000000  0.237913  0.220181  1
  Tb  Tb5  1  0.000000  0.758173  0.781354  1
  Tb  Tb6  1  0.000000  0.257857  0.718436  1
  Tb  Tb7  1  0.000000  0.746811  0.281495  1
  Tb  Tb8  1  0.000000  0.999178  0.001013  1
  Tb  Tb9  1  0.000000  0.500834  0.498701  1
  Pt  Pt10  1  0.500000  0.970705  0.696921  1
  Pt  Pt11  1  0.500000  0.470775  0.802979  1
  Pt  Pt12  1  0.500000  0.527454  0.196821  1
  Rh  Rh13  1  0.500000  0.024891  0.304700  1
  Pb  Pb14  1  0.500000  0.414907  0.350238  1
  Pb  Pb15  1  0.500000  0.581675  0.648352  1
  Pb  Pb16  1  0.500000  0.082151  0.851486  1
  Pb  Pb17  1  0.500000  0.921684  0.151505  1
  Pb  Pb18  1  0.500000  0.291929  0.063270  1
  Pb  Pb19  1  0.500000  0.708800  0.937196  1
  Pb  Pb20  1  0.500000  0.208247  0.562278  1
  Pb  Pb21  1  0.500000  0.794821  0.434647  1
