# generated using pymatgen
data_Dy5Ho3Cd2(SnAu4)2
_symmetry_space_group_name_H-M   'P 1'
_cell_length_a   8.00932962
_cell_length_b   8.00948662
_cell_length_c   7.34599501
_cell_angle_alpha   89.99562743
_cell_angle_beta   90.00472311
_cell_angle_gamma   89.95501851
_symmetry_Int_Tables_number   1
_chemical_formula_structural   Dy5Ho3Cd2(SnAu4)2
_chemical_formula_sum   'Dy5 Ho3 Cd2 Sn2 Au8'
_cell_volume   471.24997515
_cell_formula_units_Z   1
loop_
 _symmetry_equiv_pos_site_id
 _symmetry_equiv_pos_as_xyz
  1  'x, y, z'
loop_
 _atom_site_type_symbol
 _atom_site_label
 _atom_site_symmetry_multiplicity
 _atom_site_fract_x
 _atom_site_fract_y
 _atom_site_fract_z
 _atom_site_occupancy
  Dy  Dy0  1  0.840982  0.159259  0.500035  1
  Dy  Dy1  1  0.159260  0.840980  0.499964  1
  Dy  Dy2  1  0.340725  0.340724  0.000000  1
  Dy  Dy3  1  0.659087  0.659086  0.000000  1
  Dy  Dy4  1  0.682150  0.682147  0.500000  1
  Ho  Ho5  1  0.317869  0.317855  0.500009  1
  Ho  Ho6  1  0.182112  0.818060  0.999990  1
  Ho  Ho7  1  0.818059  0.182121  0.000017  1
  Cd  Cd8  1  0.499912  0.000008  0.249900  1
  Cd  Cd9  1  0.000006  0.499910  0.750097  1
  Sn  Sn10  1  0.499981  0.000370  0.750036  1
  Sn  Sn11  1  0.000376  0.499994  0.249957  1
  Au  Au12  1  0.624621  0.367782  0.272822  1
  Au  Au13  1  0.374674  0.631590  0.272801  1
  Au  Au14  1  0.124951  0.131885  0.773135  1
  Au  Au15  1  0.875481  0.868499  0.773871  1
  Au  Au16  1  0.367782  0.624623  0.727176  1
  Au  Au17  1  0.631588  0.374675  0.727197  1
  Au  Au18  1  0.868497  0.875483  0.226126  1
  Au  Au19  1  0.131885  0.124950  0.226867  1
