# generated using pymatgen
data_Tb4CdPd10Pt
_symmetry_space_group_name_H-M   'P 1'
_cell_length_a   4.20677200
_cell_length_b   5.89292946
_cell_length_c   11.72342600
_cell_angle_alpha   86.84331551
_cell_angle_beta   90.00000000
_cell_angle_gamma   90.00000000
_symmetry_Int_Tables_number   1
_chemical_formula_structural   Tb4CdPd10Pt
_chemical_formula_sum   'Tb4 Cd1 Pd10 Pt1'
_cell_volume   290.18522712
_cell_formula_units_Z   1
loop_
 _symmetry_equiv_pos_site_id
 _symmetry_equiv_pos_as_xyz
  1  'x, y, z'
loop_
 _atom_site_type_symbol
 _atom_site_label
 _atom_site_symmetry_multiplicity
 _atom_site_fract_x
 _atom_site_fract_y
 _atom_site_fract_z
 _atom_site_occupancy
  Tb  Tb0  1  0.500000  0.757892  0.376681  1
  Tb  Tb1  1  0.500000  0.713872  0.861898  1
  Tb  Tb2  1  0.500000  0.286128  0.138102  1
  Tb  Tb3  1  0.500000  0.242108  0.623319  1
  Cd  Cd4  1  0.000000  0.000000  0.000000  1
  Pd  Pd5  1  0.000000  0.016276  0.250780  1
  Pd  Pd6  1  0.000000  0.983724  0.749220  1
  Pd  Pd7  1  0.000000  0.500000  0.500000  1
  Pd  Pd8  1  0.000000  0.521475  0.250503  1
  Pd  Pd9  1  0.000000  0.478525  0.749497  1
  Pd  Pd10  1  0.500000  0.256996  0.377815  1
  Pd  Pd11  1  0.500000  0.225582  0.880634  1
  Pd  Pd12  1  0.500000  0.774418  0.119366  1
  Pd  Pd13  1  0.500000  0.743004  0.622185  1
  Pd  Pd14  1  0.000000  0.000000  0.500000  1
  Pt  Pt15  1  0.000000  0.500000  0.000000  1
