# generated using pymatgen
data_Sm2MnFe2Co9P7
_symmetry_space_group_name_H-M   'P 1'
_cell_length_a   9.07349287
_cell_length_b   9.05997115
_cell_length_c   3.63776600
_cell_angle_alpha   90.00000000
_cell_angle_beta   90.00000000
_cell_angle_gamma   119.94346792
_symmetry_Int_Tables_number   1
_chemical_formula_structural   Sm2MnFe2Co9P7
_chemical_formula_sum   'Sm2 Mn1 Fe2 Co9 P7'
_cell_volume   259.12769032
_cell_formula_units_Z   1
loop_
 _symmetry_equiv_pos_site_id
 _symmetry_equiv_pos_as_xyz
  1  'x, y, z'
loop_
 _atom_site_type_symbol
 _atom_site_label
 _atom_site_symmetry_multiplicity
 _atom_site_fract_x
 _atom_site_fract_y
 _atom_site_fract_z
 _atom_site_occupancy
  Sm  Sm0  1  0.332930  0.668603  0.000000  1
  Sm  Sm1  1  0.667815  0.333732  0.500000  1
  Mn  Mn2  1  0.216907  0.117654  0.500000  1
  Fe  Fe3  1  0.876846  0.093082  0.500000  1
  Fe  Fe4  1  0.903634  0.782210  0.500000  1
  Co  Co5  1  0.430587  0.371850  0.000000  1
  Co  Co6  1  0.629923  0.058855  0.000000  1
  Co  Co7  1  0.941180  0.570252  0.000000  1
  Co  Co8  1  0.155201  0.883408  0.000000  1
  Co  Co9  1  0.117896  0.273163  0.000000  1
  Co  Co10  1  0.725405  0.843759  0.000000  1
  Co  Co11  1  0.384337  0.950660  0.500000  1
  Co  Co12  1  0.048822  0.432502  0.500000  1
  Co  Co13  1  0.567359  0.616337  0.500000  1
  P  P14  1  0.409473  0.109258  0.000000  1
  P  P15  1  0.890729  0.296995  0.000000  1
  P  P16  1  0.703481  0.593316  0.000000  1
  P  P17  1  0.107639  0.709648  0.500000  1
  P  P18  1  0.291771  0.404722  0.500000  1
  P  P19  1  0.601633  0.891336  0.500000  1
  P  P20  1  0.996433  0.998658  0.000000  1
