# generated using pymatgen
data_Li4PrTh2SiGe3
_symmetry_space_group_name_H-M   'P 1'
_cell_length_a   4.43489142
_cell_length_b   6.88366815
_cell_length_c   8.37740617
_cell_angle_alpha   114.21240383
_cell_angle_beta   105.34875149
_cell_angle_gamma   89.99999185
_symmetry_Int_Tables_number   1
_chemical_formula_structural   Li4PrTh2SiGe3
_chemical_formula_sum   'Li4 Pr1 Th2 Si1 Ge3'
_cell_volume   223.21091890
_cell_formula_units_Z   1
loop_
 _symmetry_equiv_pos_site_id
 _symmetry_equiv_pos_as_xyz
  1  'x, y, z'
loop_
 _atom_site_type_symbol
 _atom_site_label
 _atom_site_symmetry_multiplicity
 _atom_site_fract_x
 _atom_site_fract_y
 _atom_site_fract_z
 _atom_site_occupancy
  Li  Li0  1  0.670567  0.985368  0.341132  1
  Li  Li1  1  0.329828  0.018706  0.659658  1
  Li  Li2  1  0.330192  0.641177  0.660387  1
  Li  Li3  1  0.670952  0.356082  0.341903  1
  Pr  Pr4  1  0.870856  0.372237  0.741712  1
  Th  Th5  1  0.999788  0.996278  0.999574  1
  Th  Th6  1  0.128210  0.630240  0.256419  1
  Si  Si7  1  0.502436  0.689458  0.004873  1
  Ge  Ge8  1  0.502055  0.315362  0.004110  1
  Ge  Ge9  1  0.783994  0.784000  0.567987  1
  Ge  Ge10  1  0.211122  0.211093  0.422245  1
