# generated using pymatgen
data_Y2HoPa(Al8Pt3)3
_symmetry_space_group_name_H-M   'P 1'
_cell_length_a   7.55403914
_cell_length_b   7.56409837
_cell_length_c   13.14456002
_cell_angle_alpha   84.51420001
_cell_angle_beta   78.95602411
_cell_angle_gamma   59.92272949
_symmetry_Int_Tables_number   1
_chemical_formula_structural   Y2HoPa(Al8Pt3)3
_chemical_formula_sum   'Y2 Ho1 Pa1 Al24 Pt9'
_cell_volume   637.90499730
_cell_formula_units_Z   1
loop_
 _symmetry_equiv_pos_site_id
 _symmetry_equiv_pos_as_xyz
  1  'x, y, z'
loop_
 _atom_site_type_symbol
 _atom_site_label
 _atom_site_symmetry_multiplicity
 _atom_site_fract_x
 _atom_site_fract_y
 _atom_site_fract_z
 _atom_site_occupancy
  Y  Y0  1  0.606230  0.831464  0.192086  1
  Y  Y1  1  0.733604  0.498759  0.808056  1
  Ho  Ho2  1  0.266358  0.501280  0.192560  1
  Pa  Pa3  1  0.395331  0.168325  0.804672  1
  Al  Al4  1  0.684278  0.833509  0.944489  1
  Al  Al5  1  0.315303  0.166514  0.055446  1
  Al  Al6  1  0.146643  0.832745  0.560943  1
  Al  Al7  1  0.854473  0.167264  0.437923  1
  Al  Al8  1  0.480671  0.166651  0.558032  1
  Al  Al9  1  0.519974  0.832214  0.440928  1
  Al  Al10  1  0.217471  0.165441  0.330488  1
  Al  Al11  1  0.785214  0.832381  0.669484  1
  Al  Al12  1  0.437538  0.509055  0.669772  1
  Al  Al13  1  0.562223  0.493529  0.329809  1
  Al  Al14  1  0.107757  0.159686  0.668248  1
  Al  Al15  1  0.890149  0.839713  0.331060  1
  Al  Al16  1  0.352479  0.499909  0.944614  1
  Al  Al17  1  0.646943  0.500419  0.056105  1
  Al  Al18  1  0.015089  0.167690  0.953445  1
  Al  Al19  1  0.984385  0.832445  0.047633  1
  Al  Al20  1  0.185813  0.500384  0.440987  1
  Al  Al21  1  0.813554  0.500473  0.558449  1
  Al  Al22  1  0.734186  0.164084  0.183622  1
  Al  Al23  1  0.263666  0.838087  0.817222  1
  Al  Al24  1  0.063197  0.631208  0.815942  1
  Al  Al25  1  0.938919  0.368784  0.184761  1
  Al  Al26  1  0.855568  0.039780  0.816663  1
  Al  Al27  1  0.144555  0.958145  0.184055  1
  Pt  Pt28  1  0.120481  0.490964  0.640010  1
  Pt  Pt29  1  0.880003  0.507945  0.361407  1
  Pt  Pt30  1  0.656709  0.171941  0.999255  1
  Pt  Pt31  1  0.343375  0.828101  0.999537  1
  Pt  Pt32  1  0.537286  0.166847  0.361825  1
  Pt  Pt33  1  0.462129  0.833916  0.639729  1
  Pt  Pt34  1  0.777916  0.175266  0.638630  1
  Pt  Pt35  1  0.220792  0.824820  0.362731  1
  Pt  Pt36  1  0.999738  0.500265  0.999383  1
