# generated using pymatgen
data_Tb4Nd2PtBr10
_symmetry_space_group_name_H-M   'P 1'
_cell_length_a   7.46518259
_cell_length_b   9.37150989
_cell_length_c   9.57117010
_cell_angle_alpha   106.98925564
_cell_angle_beta   95.78614280
_cell_angle_gamma   105.94871998
_symmetry_Int_Tables_number   1
_chemical_formula_structural   Tb4Nd2PtBr10
_chemical_formula_sum   'Tb4 Nd2 Pt1 Br10'
_cell_volume   603.66860224
_cell_formula_units_Z   1
loop_
 _symmetry_equiv_pos_site_id
 _symmetry_equiv_pos_as_xyz
  1  'x, y, z'
loop_
 _atom_site_type_symbol
 _atom_site_label
 _atom_site_symmetry_multiplicity
 _atom_site_fract_x
 _atom_site_fract_y
 _atom_site_fract_z
 _atom_site_occupancy
  Tb  Tb0  1  0.969024  0.296821  0.090132  1
  Tb  Tb1  1  0.030976  0.703179  0.909868  1
  Tb  Tb2  1  0.358361  0.134687  0.174209  1
  Tb  Tb3  1  0.641639  0.865313  0.825791  1
  Nd  Nd4  1  0.135491  0.053790  0.752398  1
  Nd  Nd5  1  0.864509  0.946210  0.247602  1
  Pt  Pt6  1  0.000000  0.000000  0.000000  1
  Br  Br7  1  0.555154  0.176931  0.918639  1
  Br  Br8  1  0.444846  0.823069  0.081361  1
  Br  Br9  1  0.340982  0.445638  0.265698  1
  Br  Br10  1  0.659018  0.554362  0.734302  1
  Br  Br11  1  0.250352  0.079067  0.443496  1
  Br  Br12  1  0.749648  0.920933  0.556504  1
  Br  Br13  1  0.774462  0.253166  0.334014  1
  Br  Br14  1  0.225538  0.746834  0.665986  1
  Br  Br15  1  0.086330  0.378199  0.832941  1
  Br  Br16  1  0.913670  0.621801  0.167059  1
