# generated using pymatgen
data_Nd2Th5Te12
_symmetry_space_group_name_H-M   'P 1'
_cell_length_a   12.61600688
_cell_length_b   12.59549433
_cell_length_c   4.35846000
_cell_angle_alpha   90.00000000
_cell_angle_beta   90.00000000
_cell_angle_gamma   119.65197448
_symmetry_Int_Tables_number   1
_chemical_formula_structural   Nd2Th5Te12
_chemical_formula_sum   'Nd2 Th5 Te12'
_cell_volume   601.88457779
_cell_formula_units_Z   1
loop_
 _symmetry_equiv_pos_site_id
 _symmetry_equiv_pos_as_xyz
  1  'x, y, z'
loop_
 _atom_site_type_symbol
 _atom_site_label
 _atom_site_symmetry_multiplicity
 _atom_site_fract_x
 _atom_site_fract_y
 _atom_site_fract_z
 _atom_site_occupancy
  Nd  Nd0  1  0.726158  0.160446  0.000000  1
  Nd  Nd1  1  0.843809  0.565158  0.000000  1
  Th  Th2  1  0.432504  0.276165  0.000000  1
  Th  Th3  1  0.552038  0.712216  0.500000  1
  Th  Th4  1  0.288820  0.840739  0.500000  1
  Th  Th5  1  0.158322  0.448110  0.500000  1
  Th  Th6  1  0.994421  0.995035  0.000000  1
  Te  Te7  1  0.743141  0.748665  0.000000  1
  Te  Te8  1  0.246647  0.993954  0.000000  1
  Te  Te9  1  0.009004  0.253821  0.000000  1
  Te  Te10  1  0.491270  0.865741  0.000000  1
  Te  Te11  1  0.136297  0.627659  0.000000  1
  Te  Te12  1  0.373710  0.509431  0.000000  1
  Te  Te13  1  0.866250  0.387533  0.500000  1
  Te  Te14  1  0.215458  0.212401  0.500000  1
  Te  Te15  1  0.000114  0.791834  0.500000  1
  Te  Te16  1  0.791476  0.000140  0.500000  1
  Te  Te17  1  0.520442  0.136139  0.500000  1
  Te  Te18  1  0.610122  0.474810  0.500000  1
