# generated using pymatgen
data_Sn4BiSb3F28
_symmetry_space_group_name_H-M   'P 1'
_cell_length_a   5.73600131
_cell_length_b   9.24510710
_cell_length_c   12.39996500
_cell_angle_alpha   61.94555298
_cell_angle_beta   90.09753071
_cell_angle_gamma   89.97133966
_symmetry_Int_Tables_number   1
_chemical_formula_structural   Sn4BiSb3F28
_chemical_formula_sum   'Sn4 Bi1 Sb3 F28'
_cell_volume   580.30429519
_cell_formula_units_Z   1
loop_
 _symmetry_equiv_pos_site_id
 _symmetry_equiv_pos_as_xyz
  1  'x, y, z'
loop_
 _atom_site_type_symbol
 _atom_site_label
 _atom_site_symmetry_multiplicity
 _atom_site_fract_x
 _atom_site_fract_y
 _atom_site_fract_z
 _atom_site_occupancy
  Sn  Sn0  1  0.760173  0.276450  0.957605  1
  Sn  Sn1  1  0.260908  0.723723  0.540646  1
  Sn  Sn2  1  0.242793  0.724219  0.045083  1
  Sn  Sn3  1  0.735388  0.273584  0.457375  1
  Bi  Bi4  1  0.758462  0.811800  0.761482  1
  Sb  Sb5  1  0.265390  0.170721  0.745250  1
  Sb  Sb6  1  0.238531  0.177386  0.247907  1
  Sb  Sb7  1  0.739281  0.830937  0.254585  1
  F  F8  1  0.450638  0.706720  0.921692  1
  F  F9  1  0.944720  0.293916  0.576231  1
  F  F10  1  0.554930  0.299361  0.076981  1
  F  F11  1  0.057936  0.706917  0.417543  1
  F  F12  1  0.442761  0.270861  0.547824  1
  F  F13  1  0.955978  0.715456  0.954584  1
  F  F14  1  0.556521  0.728114  0.452969  1
  F  F15  1  0.047263  0.282047  0.046852  1
  F  F16  1  0.772794  0.519809  0.849023  1
  F  F17  1  0.282320  0.486156  0.645973  1
  F  F18  1  0.232897  0.484344  0.149993  1
  F  F19  1  0.716009  0.510697  0.348968  1
  F  F20  1  0.758129  0.025116  0.064279  1
  F  F21  1  0.252388  0.975006  0.438151  1
  F  F22  1  0.241163  0.973070  0.940218  1
  F  F23  1  0.742372  0.026941  0.556824  1
  F  F24  1  0.985218  0.741023  0.635292  1
  F  F25  1  0.484730  0.256690  0.865454  1
  F  F26  1  0.007790  0.255177  0.357995  1
  F  F27  1  0.518015  0.747075  0.135791  1
  F  F28  1  0.041116  0.759813  0.163954  1
  F  F29  1  0.533043  0.236980  0.334986  1
  F  F30  1  0.955451  0.240988  0.837908  1
  F  F31  1  0.451148  0.759116  0.665000  1
  F  F32  1  0.430625  0.979156  0.234590  1
  F  F33  1  0.920057  0.022916  0.267550  1
  F  F34  1  0.570350  0.029982  0.769370  1
  F  F35  1  0.092710  0.977730  0.734068  1
