# generated using pymatgen
data_Sc2Al(Ni10B3)2
_symmetry_space_group_name_H-M   'P 1'
_cell_length_a   7.46833539
_cell_length_b   7.46833618
_cell_length_c   7.46833600
_cell_angle_alpha   60.00000082
_cell_angle_beta   59.99999731
_cell_angle_gamma   59.99999916
_symmetry_Int_Tables_number   1
_chemical_formula_structural   Sc2Al(Ni10B3)2
_chemical_formula_sum   'Sc2 Al1 Ni20 B6'
_cell_volume   294.54829595
_cell_formula_units_Z   1
loop_
 _symmetry_equiv_pos_site_id
 _symmetry_equiv_pos_as_xyz
  1  'x, y, z'
loop_
 _atom_site_type_symbol
 _atom_site_label
 _atom_site_symmetry_multiplicity
 _atom_site_fract_x
 _atom_site_fract_y
 _atom_site_fract_z
 _atom_site_occupancy
  Sc  Sc0  1  0.750000  0.750000  0.750000  1
  Sc  Sc1  1  0.250000  0.250000  0.250000  1
  Al  Al2  1  0.000000  0.000000  0.000000  1
  Ni  Ni3  1  0.614426  0.614426  0.156722  1
  Ni  Ni4  1  0.614426  0.156722  0.614426  1
  Ni  Ni5  1  0.156722  0.614426  0.614426  1
  Ni  Ni6  1  0.614426  0.614426  0.614426  1
  Ni  Ni7  1  0.385574  0.385574  0.843278  1
  Ni  Ni8  1  0.385574  0.843278  0.385574  1
  Ni  Ni9  1  0.843278  0.385574  0.385574  1
  Ni  Ni10  1  0.385574  0.385574  0.385574  1
  Ni  Ni11  1  0.000000  0.000000  0.338674  1
  Ni  Ni12  1  0.661326  0.000000  0.338674  1
  Ni  Ni13  1  0.000000  0.661326  0.338674  1
  Ni  Ni14  1  0.661326  0.338674  0.000000  1
  Ni  Ni15  1  0.000000  0.338674  0.000000  1
  Ni  Ni16  1  0.000000  0.338674  0.661326  1
  Ni  Ni17  1  0.338674  0.661326  0.000000  1
  Ni  Ni18  1  0.338674  0.000000  0.661326  1
  Ni  Ni19  1  0.338674  0.000000  0.000000  1
  Ni  Ni20  1  0.000000  0.000000  0.661326  1
  Ni  Ni21  1  0.000000  0.661326  0.000000  1
  Ni  Ni22  1  0.661326  0.000000  0.000000  1
  B  B23  1  0.729531  0.729531  0.270469  1
  B  B24  1  0.270469  0.729531  0.270469  1
  B  B25  1  0.729531  0.270469  0.270469  1
  B  B26  1  0.270469  0.270469  0.729531  1
  B  B27  1  0.729531  0.270469  0.729531  1
  B  B28  1  0.270469  0.729531  0.729531  1
