# generated using pymatgen
data_Dy8Er2Ir3Ru
_symmetry_space_group_name_H-M   'P 1'
_cell_length_a   6.44430953
_cell_length_b   7.21945071
_cell_length_c   8.48137270
_cell_angle_alpha   96.60855977
_cell_angle_beta   111.92493599
_cell_angle_gamma   90.06815967
_symmetry_Int_Tables_number   1
_chemical_formula_structural   Dy8Er2Ir3Ru
_chemical_formula_sum   'Dy8 Er2 Ir3 Ru1'
_cell_volume   363.20135717
_cell_formula_units_Z   1
loop_
 _symmetry_equiv_pos_site_id
 _symmetry_equiv_pos_as_xyz
  1  'x, y, z'
loop_
 _atom_site_type_symbol
 _atom_site_label
 _atom_site_symmetry_multiplicity
 _atom_site_fract_x
 _atom_site_fract_y
 _atom_site_fract_z
 _atom_site_occupancy
  Dy  Dy0  1  0.791667  0.582553  0.815288  1
  Dy  Dy1  1  0.974084  0.917738  0.183251  1
  Dy  Dy2  1  0.208815  0.417419  0.181903  1
  Dy  Dy3  1  0.026402  0.084124  0.815851  1
  Dy  Dy4  1  0.210953  0.682654  0.562806  1
  Dy  Dy5  1  0.649621  0.816366  0.438528  1
  Dy  Dy6  1  0.789069  0.315439  0.439374  1
  Dy  Dy7  1  0.348718  0.184346  0.561927  1
  Er  Er8  1  0.426621  0.749146  0.999228  1
  Er  Er9  1  0.573561  0.249751  0.000148  1
  Ir  Ir10  1  0.604489  0.925876  0.780334  1
  Ir  Ir11  1  0.822818  0.574947  0.219618  1
  Ir  Ir12  1  0.397003  0.073710  0.219237  1
  Ru  Ru13  1  0.176178  0.425930  0.782505  1
