# generated using pymatgen
data_Th2Al20Re3Rh
_symmetry_space_group_name_H-M   'P 1'
_cell_length_a   6.92767457
_cell_length_b   6.92669036
_cell_length_c   9.24142406
_cell_angle_alpha   90.50127219
_cell_angle_beta   90.30517710
_cell_angle_gamma   97.00047641
_symmetry_Int_Tables_number   1
_chemical_formula_structural   Th2Al20Re3Rh
_chemical_formula_sum   'Th2 Al20 Re3 Rh1'
_cell_volume   440.12576065
_cell_formula_units_Z   1
loop_
 _symmetry_equiv_pos_site_id
 _symmetry_equiv_pos_as_xyz
  1  'x, y, z'
loop_
 _atom_site_type_symbol
 _atom_site_label
 _atom_site_symmetry_multiplicity
 _atom_site_fract_x
 _atom_site_fract_y
 _atom_site_fract_z
 _atom_site_occupancy
  Th  Th0  1  0.865939  0.123945  0.752914  1
  Th  Th1  1  0.134061  0.876055  0.247086  1
  Al  Al2  1  0.516905  0.779189  0.748172  1
  Al  Al3  1  0.483095  0.220811  0.251828  1
  Al  Al4  1  0.595668  0.860877  0.249824  1
  Al  Al5  1  0.774141  0.774148  0.998423  1
  Al  Al6  1  0.159648  0.840317  0.602270  1
  Al  Al7  1  0.225859  0.225852  0.001577  1
  Al  Al8  1  0.140489  0.407702  0.250397  1
  Al  Al9  1  0.621414  0.378337  0.953424  1
  Al  Al10  1  0.841046  0.161103  0.102752  1
  Al  Al11  1  0.380926  0.622253  0.450045  1
  Al  Al12  1  0.158954  0.838897  0.897248  1
  Al  Al13  1  0.219775  0.480217  0.753289  1
  Al  Al14  1  0.378586  0.621663  0.046576  1
  Al  Al15  1  0.840352  0.159683  0.397730  1
  Al  Al16  1  0.619074  0.377747  0.549955  1
  Al  Al17  1  0.404332  0.139123  0.750176  1
  Al  Al18  1  0.780225  0.519783  0.246711  1
  Al  Al19  1  0.773688  0.773238  0.500336  1
  Al  Al20  1  0.226312  0.226762  0.499664  1
  Al  Al21  1  0.859511  0.592298  0.749603  1
  Re  Re22  1  0.000000  0.500000  0.000000  1
  Re  Re23  1  0.500000  0.000000  0.000000  1
  Re  Re24  1  0.500000  0.000000  0.500000  1
  Rh  Rh25  1  0.000000  0.500000  0.500000  1
