# generated using pymatgen
data_Nd10Si4HgGe
_symmetry_space_group_name_H-M   'P 1'
_cell_length_a   7.82782500
_cell_length_b   9.06453972
_cell_length_c   7.82782500
_cell_angle_alpha   115.58075905
_cell_angle_beta   90.00000000
_cell_angle_gamma   115.58075905
_symmetry_Int_Tables_number   1
_chemical_formula_structural   Nd10Si4HgGe
_chemical_formula_sum   'Nd10 Si4 Hg1 Ge1'
_cell_volume   439.85117514
_cell_formula_units_Z   1
loop_
 _symmetry_equiv_pos_site_id
 _symmetry_equiv_pos_as_xyz
  1  'x, y, z'
loop_
 _atom_site_type_symbol
 _atom_site_label
 _atom_site_symmetry_multiplicity
 _atom_site_fract_x
 _atom_site_fract_y
 _atom_site_fract_z
 _atom_site_occupancy
  Nd  Nd0  1  0.999621  0.999242  0.999621  1
  Nd  Nd1  1  0.500379  0.000758  0.500379  1
  Nd  Nd2  1  0.531119  0.715366  0.677350  1
  Nd  Nd3  1  0.184248  0.715366  0.038017  1
  Nd  Nd4  1  0.677350  0.715366  0.184248  1
  Nd  Nd5  1  0.038017  0.715366  0.531119  1
  Nd  Nd6  1  0.461983  0.284634  0.315752  1
  Nd  Nd7  1  0.822650  0.284634  0.968881  1
  Nd  Nd8  1  0.315752  0.284634  0.822650  1
  Nd  Nd9  1  0.968881  0.284634  0.461983  1
  Si  Si10  1  0.884700  0.000000  0.615300  1
  Si  Si11  1  0.115300  0.000000  0.384700  1
  Si  Si12  1  0.615300  0.000000  0.115300  1
  Si  Si13  1  0.384700  0.000000  0.884700  1
  Hg  Hg14  1  0.750000  0.500000  0.750000  1
  Ge  Ge15  1  0.250000  0.500000  0.250000  1
