# generated using pymatgen
data_SrCd4PtAu
_symmetry_space_group_name_H-M   'P 1'
_cell_length_a   8.48593676
_cell_length_b   8.48593676
_cell_length_c   4.55413500
_cell_angle_alpha   90.00000000
_cell_angle_beta   90.00000000
_cell_angle_gamma   90.83402299
_symmetry_Int_Tables_number   1
_chemical_formula_structural   SrCd4PtAu
_chemical_formula_sum   'Sr2 Cd8 Pt2 Au2'
_cell_volume   327.91363034
_cell_formula_units_Z   2
loop_
 _symmetry_equiv_pos_site_id
 _symmetry_equiv_pos_as_xyz
  1  'x, y, z'
loop_
 _atom_site_type_symbol
 _atom_site_label
 _atom_site_symmetry_multiplicity
 _atom_site_fract_x
 _atom_site_fract_y
 _atom_site_fract_z
 _atom_site_occupancy
  Sr  Sr0  1  0.500000  0.500000  0.500000  1
  Sr  Sr1  1  0.000000  0.000000  0.000000  1
  Cd  Cd2  1  0.343568  0.095947  0.500000  1
  Cd  Cd3  1  0.656432  0.904053  0.500000  1
  Cd  Cd4  1  0.841221  0.414206  0.000000  1
  Cd  Cd5  1  0.158779  0.585794  0.000000  1
  Cd  Cd6  1  0.095947  0.343568  0.500000  1
  Cd  Cd7  1  0.904053  0.656432  0.500000  1
  Cd  Cd8  1  0.414206  0.841221  0.000000  1
  Cd  Cd9  1  0.585794  0.158779  0.000000  1
  Pt  Pt10  1  0.281958  0.281958  0.000000  1
  Pt  Pt11  1  0.718042  0.718042  0.000000  1
  Au  Au12  1  0.786480  0.213520  0.500000  1
  Au  Au13  1  0.213520  0.786480  0.500000  1
