# generated using pymatgen
data_Hf2TaTiAl3
_symmetry_space_group_name_H-M   'P 1'
_cell_length_a   5.24067000
_cell_length_b   5.24067019
_cell_length_c   5.27747100
_cell_angle_alpha   90.00000000
_cell_angle_beta   90.00000000
_cell_angle_gamma   120.00001140
_symmetry_Int_Tables_number   1
_chemical_formula_structural   Hf2TaTiAl3
_chemical_formula_sum   'Hf2 Ta1 Ti1 Al3'
_cell_volume   125.52495673
_cell_formula_units_Z   1
loop_
 _symmetry_equiv_pos_site_id
 _symmetry_equiv_pos_as_xyz
  1  'x, y, z'
loop_
 _atom_site_type_symbol
 _atom_site_label
 _atom_site_symmetry_multiplicity
 _atom_site_fract_x
 _atom_site_fract_y
 _atom_site_fract_z
 _atom_site_occupancy
  Hf  Hf0  1  0.333333  0.666667  0.503530  1
  Hf  Hf1  1  0.666667  0.333333  0.503530  1
  Ta  Ta2  1  0.000000  0.000000  0.732126  1
  Ti  Ti3  1  0.000000  0.000000  0.260527  1
  Al  Al4  1  0.500000  0.000000  0.000096  1
  Al  Al5  1  0.000000  0.500000  0.000096  1
  Al  Al6  1  0.500000  0.500000  0.000096  1
