# generated using pymatgen
data_Y4Zr3TcF28
_symmetry_space_group_name_H-M   'P 1'
_cell_length_a   5.71487927
_cell_length_b   9.06844046
_cell_length_c   12.22095425
_cell_angle_alpha   62.47533638
_cell_angle_beta   89.97649357
_cell_angle_gamma   89.99227360
_symmetry_Int_Tables_number   1
_chemical_formula_structural   Y4Zr3TcF28
_chemical_formula_sum   'Y4 Zr3 Tc1 F28'
_cell_volume   561.66362915
_cell_formula_units_Z   1
loop_
 _symmetry_equiv_pos_site_id
 _symmetry_equiv_pos_as_xyz
  1  'x, y, z'
loop_
 _atom_site_type_symbol
 _atom_site_label
 _atom_site_symmetry_multiplicity
 _atom_site_fract_x
 _atom_site_fract_y
 _atom_site_fract_z
 _atom_site_occupancy
  Y  Y0  1  0.258078  0.815596  0.262231  1
  Y  Y1  1  0.741984  0.182924  0.734930  1
  Y  Y2  1  0.756532  0.186461  0.233140  1
  Y  Y3  1  0.241998  0.814867  0.768270  1
  Zr  Zr4  1  0.243895  0.274437  0.955864  1
  Zr  Zr5  1  0.255865  0.274786  0.455321  1
  Zr  Zr6  1  0.743338  0.726211  0.544120  1
  Tc  Tc7  1  0.758728  0.726388  0.044365  1
  F  F8  1  0.960500  0.709826  0.418219  1
  F  F9  1  0.038315  0.291521  0.580569  1
  F  F10  1  0.461257  0.290737  0.081055  1
  F  F11  1  0.549391  0.708293  0.923851  1
  F  F12  1  0.488709  0.731571  0.142248  1
  F  F13  1  0.520064  0.265594  0.853640  1
  F  F14  1  0.981016  0.268549  0.351398  1
  F  F15  1  0.018685  0.732624  0.648149  1
  F  F16  1  0.963963  0.742716  0.168968  1
  F  F17  1  0.034814  0.252170  0.827417  1
  F  F18  1  0.462411  0.253281  0.325849  1
  F  F19  1  0.535118  0.747037  0.674089  1
  F  F20  1  0.770135  0.482861  0.139733  1
  F  F21  1  0.230327  0.526784  0.859925  1
  F  F22  1  0.278639  0.527093  0.358370  1
  F  F23  1  0.723302  0.473840  0.640722  1
  F  F24  1  0.946709  0.279547  0.048161  1
  F  F25  1  0.040960  0.720080  0.952949  1
  F  F26  1  0.446627  0.726361  0.449436  1
  F  F27  1  0.552897  0.274648  0.549777  1
  F  F28  1  0.741441  0.977931  0.441237  1
  F  F29  1  0.259195  0.023782  0.559974  1
  F  F30  1  0.239723  0.022859  0.057512  1
  F  F31  1  0.758007  0.969440  0.948154  1
  F  F32  1  0.574765  0.973213  0.232269  1
  F  F33  1  0.423296  0.026561  0.769347  1
  F  F34  1  0.073791  0.026926  0.264782  1
  F  F35  1  0.925525  0.972480  0.733957  1
