# generated using pymatgen
data_Ac2B8Os7Ru
_symmetry_space_group_name_H-M   'P 1'
_cell_length_a   4.00472116
_cell_length_b   7.74490557
_cell_length_c   7.75335183
_cell_angle_alpha   90.01354216
_cell_angle_beta   90.00198264
_cell_angle_gamma   89.93918411
_symmetry_Int_Tables_number   1
_chemical_formula_structural   Ac2B8Os7Ru
_chemical_formula_sum   'Ac2 B8 Os7 Ru1'
_cell_volume   240.47926921
_cell_formula_units_Z   1
loop_
 _symmetry_equiv_pos_site_id
 _symmetry_equiv_pos_as_xyz
  1  'x, y, z'
loop_
 _atom_site_type_symbol
 _atom_site_label
 _atom_site_symmetry_multiplicity
 _atom_site_fract_x
 _atom_site_fract_y
 _atom_site_fract_z
 _atom_site_occupancy
  Ac  Ac0  1  0.250095  0.250074  0.251698  1
  Ac  Ac1  1  0.753783  0.749429  0.749419  1
  B  B2  1  0.357110  0.915329  0.031185  1
  B  B3  1  0.357613  0.584457  0.465371  1
  B  B4  1  0.857693  0.532622  0.085018  1
  B  B5  1  0.856933  0.968293  0.415211  1
  B  B6  1  0.641982  0.085624  0.967682  1
  B  B7  1  0.642305  0.413883  0.531902  1
  B  B8  1  0.141493  0.464424  0.917520  1
  B  B9  1  0.142782  0.032629  0.585306  1
  Os  Os10  1  0.142264  0.106295  0.855441  1
  Os  Os11  1  0.642175  0.144982  0.606185  1
  Os  Os12  1  0.641495  0.356420  0.894608  1
  Os  Os13  1  0.857677  0.605184  0.355458  1
  Os  Os14  1  0.857312  0.895516  0.144577  1
  Os  Os15  1  0.357525  0.855211  0.394668  1
  Os  Os16  1  0.357727  0.644867  0.105074  1
  Ru  Ru17  1  0.142038  0.394759  0.643677  1
