# generated using pymatgen
data_TbBi11S18
_symmetry_space_group_name_H-M   'P 1'
_cell_length_a   4.09533300
_cell_length_b   10.86767383
_cell_length_c   18.48707001
_cell_angle_alpha   80.97549492
_cell_angle_beta   90.00000000
_cell_angle_gamma   90.00000000
_symmetry_Int_Tables_number   1
_chemical_formula_structural   TbBi11S18
_chemical_formula_sum   'Tb1 Bi11 S18'
_cell_volume   812.61412943
_cell_formula_units_Z   1
loop_
 _symmetry_equiv_pos_site_id
 _symmetry_equiv_pos_as_xyz
  1  'x, y, z'
loop_
 _atom_site_type_symbol
 _atom_site_label
 _atom_site_symmetry_multiplicity
 _atom_site_fract_x
 _atom_site_fract_y
 _atom_site_fract_z
 _atom_site_occupancy
  Tb  Tb0  1  0.250000  0.811579  0.024912  1
  Bi  Bi1  1  0.750000  0.563732  0.897951  1
  Bi  Bi2  1  0.250000  0.435727  0.107994  1
  Bi  Bi3  1  0.750000  0.479151  0.593728  1
  Bi  Bi4  1  0.250000  0.523306  0.404836  1
  Bi  Bi5  1  0.750000  0.196738  0.280130  1
  Bi  Bi6  1  0.250000  0.805020  0.722794  1
  Bi  Bi7  1  0.750000  0.828740  0.216880  1
  Bi  Bi8  1  0.250000  0.172504  0.777051  1
  Bi  Bi9  1  0.750000  0.100701  0.584778  1
  Bi  Bi10  1  0.250000  0.896763  0.412787  1
  Bi  Bi11  1  0.750000  0.180033  0.968618  1
  S  S12  1  0.750000  0.374967  0.470355  1
  S  S13  1  0.250000  0.626478  0.529937  1
  S  S14  1  0.750000  0.308517  0.825687  1
  S  S15  1  0.250000  0.692625  0.173419  1
  S  S16  1  0.750000  0.944491  0.070623  1
  S  S17  1  0.250000  0.042591  0.923797  1
  S  S18  1  0.750000  0.717502  0.365716  1
  S  S19  1  0.250000  0.283100  0.632095  1
  S  S20  1  0.750000  0.006381  0.731234  1
  S  S21  1  0.250000  0.996385  0.269081  1
  S  S22  1  0.750000  0.641958  0.718393  1
  S  S23  1  0.250000  0.360719  0.284787  1
  S  S24  1  0.250000  0.936037  0.577120  1
  S  S25  1  0.750000  0.059674  0.426463  1
  S  S26  1  0.250000  0.737731  0.880216  1
  S  S27  1  0.750000  0.267880  0.127296  1
  S  S28  1  0.250000  0.385757  0.969513  1
  S  S29  1  0.750000  0.623212  0.031806  1
