# generated using pymatgen
data_Tb5Ho5InSb5
_symmetry_space_group_name_H-M   'P 1'
_cell_length_a   8.97766300
_cell_length_b   8.96675458
_cell_length_c   6.38605000
_cell_angle_alpha   90.00000000
_cell_angle_beta   90.00000000
_cell_angle_gamma   120.04024731
_symmetry_Int_Tables_number   1
_chemical_formula_structural   Tb5Ho5InSb5
_chemical_formula_sum   'Tb5 Ho5 In1 Sb5'
_cell_volume   445.02586576
_cell_formula_units_Z   1
loop_
 _symmetry_equiv_pos_site_id
 _symmetry_equiv_pos_as_xyz
  1  'x, y, z'
loop_
 _atom_site_type_symbol
 _atom_site_label
 _atom_site_symmetry_multiplicity
 _atom_site_fract_x
 _atom_site_fract_y
 _atom_site_fract_z
 _atom_site_occupancy
  Tb  Tb0  1  0.756369  0.000000  0.750000  1
  Tb  Tb1  1  0.753518  0.755508  0.250000  1
  Tb  Tb2  1  0.998010  0.244492  0.250000  1
  Tb  Tb3  1  0.004013  0.757692  0.750000  1
  Tb  Tb4  1  0.246321  0.242308  0.750000  1
  Ho  Ho5  1  0.333786  0.668984  0.001062  1
  Ho  Ho6  1  0.664803  0.331016  0.498938  1
  Ho  Ho7  1  0.664803  0.331016  0.001062  1
  Ho  Ho8  1  0.333786  0.668984  0.498938  1
  Ho  Ho9  1  0.242556  0.000000  0.250000  1
  In  In10  1  0.395038  0.000000  0.750000  1
  Sb  Sb11  1  0.388719  0.389767  0.250000  1
  Sb  Sb12  1  0.998953  0.610233  0.250000  1
  Sb  Sb13  1  0.000933  0.390076  0.750000  1
  Sb  Sb14  1  0.610858  0.609924  0.750000  1
  Sb  Sb15  1  0.607534  0.000000  0.250000  1
