# generated using pymatgen
data_Ta6Al4ReRuC2
_symmetry_space_group_name_H-M   'P 1'
_cell_length_a   8.32095807
_cell_length_b   8.28517064
_cell_length_c   8.32095734
_cell_angle_alpha   60.14216194
_cell_angle_beta   60.33596787
_cell_angle_gamma   60.14216321
_symmetry_Int_Tables_number   1
_chemical_formula_structural   Ta6Al4ReRuC2
_chemical_formula_sum   'Ta12 Al8 Re2 Ru2 C4'
_cell_volume   407.52878657
_cell_formula_units_Z   2
loop_
 _symmetry_equiv_pos_site_id
 _symmetry_equiv_pos_as_xyz
  1  'x, y, z'
loop_
 _atom_site_type_symbol
 _atom_site_label
 _atom_site_symmetry_multiplicity
 _atom_site_fract_x
 _atom_site_fract_y
 _atom_site_fract_z
 _atom_site_occupancy
  Ta  Ta0  1  0.556299  0.943701  0.556299  1
  Ta  Ta1  1  0.308091  0.695191  0.688131  1
  Ta  Ta2  1  0.688131  0.308587  0.308091  1
  Ta  Ta3  1  0.310786  0.689214  0.310786  1
  Ta  Ta4  1  0.688131  0.695191  0.308091  1
  Ta  Ta5  1  0.308091  0.308587  0.688131  1
  Ta  Ta6  1  0.561869  0.554809  0.941909  1
  Ta  Ta7  1  0.941909  0.554809  0.561869  1
  Ta  Ta8  1  0.561869  0.941413  0.941909  1
  Ta  Ta9  1  0.941909  0.941413  0.561869  1
  Ta  Ta10  1  0.693701  0.306299  0.693701  1
  Ta  Ta11  1  0.939214  0.560786  0.939214  1
  Al  Al12  1  0.918867  0.912327  0.918867  1
  Al  Al13  1  0.996660  0.336840  0.329658  1
  Al  Al14  1  0.331133  0.000059  0.331133  1
  Al  Al15  1  0.329658  0.336840  0.996660  1
  Al  Al16  1  0.918867  0.249941  0.918867  1
  Al  Al17  1  0.920342  0.913160  0.253340  1
  Al  Al18  1  0.253340  0.913160  0.920342  1
  Al  Al19  1  0.331133  0.337673  0.331133  1
  Re  Re20  1  0.625000  0.125000  0.125000  1
  Re  Re21  1  0.125000  0.125000  0.625000  1
  Ru  Ru22  1  0.125000  0.125000  0.125000  1
  Ru  Ru23  1  0.125000  0.625000  0.125000  1
  C  C24  1  0.625000  0.625000  0.625000  1
  C  C25  1  0.125000  0.625000  0.625000  1
  C  C26  1  0.625000  0.125000  0.625000  1
  C  C27  1  0.625000  0.625000  0.125000  1
