# generated using pymatgen
data_Yb16In5Ga
_symmetry_space_group_name_H-M   'P 1'
_cell_length_a   9.50406553
_cell_length_b   9.51788262
_cell_length_c   9.60898483
_cell_angle_alpha   98.98908355
_cell_angle_beta   101.29956634
_cell_angle_gamma   119.70780308
_symmetry_Int_Tables_number   1
_chemical_formula_structural   Yb16In5Ga
_chemical_formula_sum   'Yb16 In5 Ga1'
_cell_volume   706.82461482
_cell_formula_units_Z   1
loop_
 _symmetry_equiv_pos_site_id
 _symmetry_equiv_pos_as_xyz
  1  'x, y, z'
loop_
 _atom_site_type_symbol
 _atom_site_label
 _atom_site_symmetry_multiplicity
 _atom_site_fract_x
 _atom_site_fract_y
 _atom_site_fract_z
 _atom_site_occupancy
  Yb  Yb0  1  0.076381  0.735478  0.106739  1
  Yb  Yb1  1  0.325484  0.370426  0.110925  1
  Yb  Yb2  1  0.710427  0.000499  0.111145  1
  Yb  Yb3  1  0.536582  0.202189  0.292507  1
  Yb  Yb4  1  0.768474  0.655580  0.295725  1
  Yb  Yb5  1  0.041454  0.441555  0.328945  1
  Yb  Yb6  1  0.465709  0.796927  0.350158  1
  Yb  Yb7  1  0.118978  0.099383  0.346512  1
  Yb  Yb8  1  0.881022  0.900617  0.653488  1
  Yb  Yb9  1  0.534291  0.203074  0.649843  1
  Yb  Yb10  1  0.958545  0.558445  0.671055  1
  Yb  Yb11  1  0.231526  0.344419  0.704275  1
  Yb  Yb12  1  0.463418  0.797810  0.707493  1
  Yb  Yb13  1  0.289573  0.999501  0.888855  1
  Yb  Yb14  1  0.674516  0.629573  0.889075  1
  Yb  Yb15  1  0.923619  0.264522  0.893261  1
  In  In16  1  0.675715  0.337887  0.023091  1
  In  In17  1  0.826138  0.159856  0.500003  1
  In  In18  1  0.500000  0.500000  0.500000  1
  In  In19  1  0.173862  0.840145  0.499997  1
  In  In20  1  0.324285  0.662112  0.976909  1
  Ga  Ga21  1  0.000000  0.000000  0.000000  1
