# generated using pymatgen
data_Nd7Gd(OsI4)2
_symmetry_space_group_name_H-M   'P 1'
_cell_length_a   11.15569202
_cell_length_b   11.13426525
_cell_length_c   6.41858200
_cell_angle_alpha   90.37279712
_cell_angle_beta   90.39494198
_cell_angle_gamma   89.58997412
_symmetry_Int_Tables_number   1
_chemical_formula_structural   Nd7Gd(OsI4)2
_chemical_formula_sum   'Nd7 Gd1 Os2 I8'
_cell_volume   797.19887975
_cell_formula_units_Z   1
loop_
 _symmetry_equiv_pos_site_id
 _symmetry_equiv_pos_as_xyz
  1  'x, y, z'
loop_
 _atom_site_type_symbol
 _atom_site_label
 _atom_site_symmetry_multiplicity
 _atom_site_fract_x
 _atom_site_fract_y
 _atom_site_fract_z
 _atom_site_occupancy
  Nd  Nd0  1  0.788187  0.084446  0.998401  1
  Nd  Nd1  1  0.084741  0.788865  0.498427  1
  Nd  Nd2  1  0.082573  0.210928  0.003513  1
  Nd  Nd3  1  0.210779  0.083429  0.503606  1
  Nd  Nd4  1  0.915281  0.789478  0.996496  1
  Nd  Nd5  1  0.915144  0.210954  0.501312  1
  Nd  Nd6  1  0.210647  0.914565  0.001521  1
  Gd  Gd7  1  0.796695  0.918862  0.496557  1
  Os  Os8  1  0.000265  0.000095  0.249795  1
  Os  Os9  1  0.000200  0.000081  0.750233  1
  I  I10  1  0.632190  0.155156  0.499945  1
  I  I11  1  0.840447  0.635377  0.500356  1
  I  I12  1  0.367073  0.157337  0.999293  1
  I  I13  1  0.157025  0.368095  0.499257  1
  I  I14  1  0.632193  0.842888  0.001550  1
  I  I15  1  0.368281  0.839846  0.499886  1
  I  I16  1  0.158890  0.630369  0.999953  1
  I  I17  1  0.839390  0.369230  0.999903  1
