# generated using pymatgen
data_Tb2V2Fe5Co5P7
_symmetry_space_group_name_H-M   'P 1'
_cell_length_a   3.63252300
_cell_length_b   9.02220267
_cell_length_c   9.04948261
_cell_angle_alpha   119.85134643
_cell_angle_beta   90.00000000
_cell_angle_gamma   90.00000000
_symmetry_Int_Tables_number   1
_chemical_formula_structural   Tb2V2Fe5Co5P7
_chemical_formula_sum   'Tb2 V2 Fe5 Co5 P7'
_cell_volume   257.23136932
_cell_formula_units_Z   1
loop_
 _symmetry_equiv_pos_site_id
 _symmetry_equiv_pos_as_xyz
  1  'x, y, z'
loop_
 _atom_site_type_symbol
 _atom_site_label
 _atom_site_symmetry_multiplicity
 _atom_site_fract_x
 _atom_site_fract_y
 _atom_site_fract_z
 _atom_site_occupancy
  Tb  Tb0  1  0.000000  0.665845  0.334222  1
  Tb  Tb1  1  0.500000  0.334251  0.667092  1
  V  V2  1  0.500000  0.111561  0.895315  1
  V  V3  1  0.500000  0.101211  0.215963  1
  Fe  Fe4  1  0.000000  0.574524  0.631247  1
  Fe  Fe5  1  0.000000  0.880670  0.726489  1
  Fe  Fe6  1  0.000000  0.274409  0.156721  1
  Fe  Fe7  1  0.000000  0.841901  0.118987  1
  Fe  Fe8  1  0.500000  0.784324  0.879770  1
  Co  Co9  1  0.000000  0.372525  0.939848  1
  Co  Co10  1  0.000000  0.059237  0.431364  1
  Co  Co11  1  0.500000  0.946952  0.563579  1
  Co  Co12  1  0.500000  0.437377  0.386812  1
  Co  Co13  1  0.500000  0.614807  0.048920  1
  P  P14  1  0.000000  0.110915  0.699678  1
  P  P15  1  0.000000  0.301854  0.412560  1
  P  P16  1  0.000000  0.593637  0.886857  1
  P  P17  1  0.500000  0.711552  0.602656  1
  P  P18  1  0.500000  0.403926  0.114522  1
  P  P19  1  0.500000  0.882910  0.288569  1
  P  P20  1  0.000000  0.995613  0.998827  1
