# generated using pymatgen
data_Nd3Y2Ni16(P4W)3
_symmetry_space_group_name_H-M   'P 1'
_cell_length_a   12.31838817
_cell_length_b   12.31838916
_cell_length_c   3.77672300
_cell_angle_alpha   90.00000000
_cell_angle_beta   90.00000000
_cell_angle_gamma   119.99267417
_symmetry_Int_Tables_number   1
_chemical_formula_structural   Nd3Y2Ni16(P4W)3
_chemical_formula_sum   'Nd3 Y2 Ni16 P12 W3'
_cell_volume   496.34725535
_cell_formula_units_Z   1
loop_
 _symmetry_equiv_pos_site_id
 _symmetry_equiv_pos_as_xyz
  1  'x, y, z'
loop_
 _atom_site_type_symbol
 _atom_site_label
 _atom_site_symmetry_multiplicity
 _atom_site_fract_x
 _atom_site_fract_y
 _atom_site_fract_z
 _atom_site_occupancy
  Nd  Nd0  1  0.186351  0.186351  0.500000  1
  Nd  Nd1  1  0.333547  0.666377  0.000000  1
  Nd  Nd2  1  0.666377  0.333547  0.000000  1
  Y  Y3  1  0.812822  0.999936  0.500000  1
  Y  Y4  1  0.999936  0.812822  0.500000  1
  Ni  Ni5  1  0.722033  0.722033  0.500000  1
  Ni  Ni6  1  0.278877  0.997920  0.500000  1
  Ni  Ni7  1  0.997920  0.278877  0.500000  1
  Ni  Ni8  1  0.182177  0.377374  0.000000  1
  Ni  Ni9  1  0.626074  0.808450  0.000000  1
  Ni  Ni10  1  0.192036  0.815969  0.000000  1
  Ni  Ni11  1  0.808450  0.626074  0.000000  1
  Ni  Ni12  1  0.815969  0.192036  0.000000  1
  Ni  Ni13  1  0.377374  0.182177  0.000000  1
  Ni  Ni14  1  0.362162  0.484890  0.500000  1
  Ni  Ni15  1  0.516739  0.876650  0.500000  1
  Ni  Ni16  1  0.122233  0.638700  0.500000  1
  Ni  Ni17  1  0.876650  0.516739  0.500000  1
  Ni  Ni18  1  0.638700  0.122233  0.500000  1
  Ni  Ni19  1  0.484890  0.362162  0.500000  1
  Ni  Ni20  1  0.999060  0.999060  0.000000  1
  P  P21  1  0.822665  0.822665  0.000000  1
  P  P22  1  0.177011  0.996730  0.000000  1
  P  P23  1  0.996730  0.177011  0.000000  1
  P  P24  1  0.162615  0.475501  0.500000  1
  P  P25  1  0.525060  0.688148  0.500000  1
  P  P26  1  0.313048  0.835770  0.500000  1
  P  P27  1  0.688148  0.525060  0.500000  1
  P  P28  1  0.835770  0.313048  0.500000  1
  P  P29  1  0.475501  0.162615  0.500000  1
  P  P30  1  0.369031  0.369031  0.000000  1
  P  P31  1  0.633659  0.999687  0.000000  1
  P  P32  1  0.999687  0.633659  0.000000  1
  W  W33  1  0.562683  0.562683  0.000000  1
  W  W34  1  0.439154  0.998855  0.000000  1
  W  W35  1  0.998855  0.439154  0.000000  1
