# generated using pymatgen
data_ErH2Br
_symmetry_space_group_name_H-M   'P 1'
_cell_length_a   3.71799859
_cell_length_b   3.71799829
_cell_length_c   10.91323342
_cell_angle_alpha   80.19220756
_cell_angle_beta   99.80779076
_cell_angle_gamma   119.99999130
_symmetry_Int_Tables_number   1
_chemical_formula_structural   ErH2Br
_chemical_formula_sum   'Er2 H4 Br2'
_cell_volume   128.09566352
_cell_formula_units_Z   2
loop_
 _symmetry_equiv_pos_site_id
 _symmetry_equiv_pos_as_xyz
  1  'x, y, z'
loop_
 _atom_site_type_symbol
 _atom_site_label
 _atom_site_symmetry_multiplicity
 _atom_site_fract_x
 _atom_site_fract_y
 _atom_site_fract_z
 _atom_site_occupancy
  Er  Er0  1  0.117393  0.882606  0.352182  1
  Er  Er1  1  0.882607  0.117394  0.647818  1
  H  H2  1  0.456182  0.543818  0.368546  1
  H  H3  1  0.814297  0.185703  0.442892  1
  H  H4  1  0.185703  0.814297  0.557109  1
  H  H5  1  0.543818  0.456182  0.631453  1
  Br  Br6  1  0.723958  0.276042  0.171874  1
  Br  Br7  1  0.276042  0.723957  0.828127  1
