# generated using pymatgen
data_Nd4Y3ThS12
_symmetry_space_group_name_H-M   'P 1'
_cell_length_a   4.02838500
_cell_length_b   10.58088388
_cell_length_c   10.90942900
_cell_angle_alpha   89.74980326
_cell_angle_beta   90.00000000
_cell_angle_gamma   90.00000000
_symmetry_Int_Tables_number   1
_chemical_formula_structural   Nd4Y3ThS12
_chemical_formula_sum   'Nd4 Y3 Th1 S12'
_cell_volume   464.99769270
_cell_formula_units_Z   1
loop_
 _symmetry_equiv_pos_site_id
 _symmetry_equiv_pos_as_xyz
  1  'x, y, z'
loop_
 _atom_site_type_symbol
 _atom_site_label
 _atom_site_symmetry_multiplicity
 _atom_site_fract_x
 _atom_site_fract_y
 _atom_site_fract_z
 _atom_site_occupancy
  Nd  Nd0  1  0.250000  0.007411  0.310175  1
  Nd  Nd1  1  0.750000  0.000187  0.693120  1
  Nd  Nd2  1  0.750000  0.497756  0.195378  1
  Nd  Nd3  1  0.250000  0.492028  0.803623  1
  Y  Y4  1  0.250000  0.686898  0.491518  1
  Y  Y5  1  0.750000  0.313452  0.508778  1
  Y  Y6  1  0.750000  0.188811  0.008624  1
  Th  Th7  1  0.250000  0.812523  0.990328  1
  S  S8  1  0.250000  0.056877  0.884231  1
  S  S9  1  0.750000  0.948482  0.120332  1
  S  S10  1  0.750000  0.553534  0.615137  1
  S  S11  1  0.250000  0.447706  0.385344  1
  S  S12  1  0.250000  0.133362  0.544552  1
  S  S13  1  0.750000  0.867645  0.455752  1
  S  S14  1  0.750000  0.626272  0.952656  1
  S  S15  1  0.250000  0.368001  0.043826  1
  S  S16  1  0.250000  0.701194  0.228443  1
  S  S17  1  0.750000  0.294701  0.768878  1
  S  S18  1  0.750000  0.205171  0.269268  1
  S  S19  1  0.250000  0.797988  0.730035  1
