# generated using pymatgen
data_Sm4Tm4Tc(B8Os)3
_symmetry_space_group_name_H-M   'P 1'
_cell_length_a   3.67359500
_cell_length_b   9.16611957
_cell_length_c   11.58944600
_cell_angle_alpha   89.94935510
_cell_angle_beta   90.00000000
_cell_angle_gamma   90.00000000
_symmetry_Int_Tables_number   1
_chemical_formula_structural   Sm4Tm4Tc(B8Os)3
_chemical_formula_sum   'Sm4 Tm4 Tc1 B24 Os3'
_cell_volume   390.24675486
_cell_formula_units_Z   1
loop_
 _symmetry_equiv_pos_site_id
 _symmetry_equiv_pos_as_xyz
  1  'x, y, z'
loop_
 _atom_site_type_symbol
 _atom_site_label
 _atom_site_symmetry_multiplicity
 _atom_site_fract_x
 _atom_site_fract_y
 _atom_site_fract_z
 _atom_site_occupancy
  Sm  Sm0  1  0.000000  0.323563  0.413030  1
  Sm  Sm1  1  0.000000  0.677527  0.583938  1
  Sm  Sm2  1  0.000000  0.820552  0.087650  1
  Sm  Sm3  1  0.000000  0.177629  0.914728  1
  Tm  Tm4  1  0.000000  0.942806  0.372435  1
  Tm  Tm5  1  0.000000  0.056680  0.627594  1
  Tm  Tm6  1  0.000000  0.444878  0.128431  1
  Tm  Tm7  1  0.000000  0.556386  0.872001  1
  Tc  Tc8  1  0.000000  0.638746  0.319962  1
  B  B9  1  0.500000  0.554201  0.431461  1
  B  B10  1  0.500000  0.445236  0.568684  1
  B  B11  1  0.500000  0.054912  0.068620  1
  B  B12  1  0.500000  0.944991  0.931689  1
  B  B13  1  0.500000  0.749458  0.417916  1
  B  B14  1  0.500000  0.250588  0.581953  1
  B  B15  1  0.500000  0.249666  0.081799  1
  B  B16  1  0.500000  0.750376  0.918126  1
  B  B17  1  0.500000  0.791319  0.266721  1
  B  B18  1  0.500000  0.208914  0.733378  1
  B  B19  1  0.500000  0.291083  0.232850  1
  B  B20  1  0.500000  0.709302  0.766573  1
  B  B21  1  0.500000  0.630391  0.185807  1
  B  B22  1  0.500000  0.369448  0.814726  1
  B  B23  1  0.500000  0.130355  0.314140  1
  B  B24  1  0.500000  0.869887  0.685430  1
  B  B25  1  0.500000  0.983679  0.213876  1
  B  B26  1  0.500000  0.016203  0.786541  1
  B  B27  1  0.500000  0.483297  0.286142  1
  B  B28  1  0.500000  0.516009  0.713862  1
  B  B29  1  0.500000  0.602687  0.027813  1
  B  B30  1  0.500000  0.397165  0.971476  1
  B  B31  1  0.500000  0.103211  0.471785  1
  B  B32  1  0.500000  0.897838  0.528682  1
  Os  Os33  1  0.000000  0.360946  0.680660  1
  Os  Os34  1  0.000000  0.138697  0.179685  1
  Os  Os35  1  0.000000  0.861373  0.819838  1
