# generated using pymatgen
data_Hf6Al6NiIr5
_symmetry_space_group_name_H-M   'P 1'
_cell_length_a   7.14681100
_cell_length_b   7.14681222
_cell_length_c   6.92809000
_cell_angle_alpha   90.00000000
_cell_angle_beta   90.00000000
_cell_angle_gamma   119.99999899
_symmetry_Int_Tables_number   1
_chemical_formula_structural   Hf6Al6NiIr5
_chemical_formula_sum   'Hf6 Al6 Ni1 Ir5'
_cell_volume   306.45649156
_cell_formula_units_Z   1
loop_
 _symmetry_equiv_pos_site_id
 _symmetry_equiv_pos_as_xyz
  1  'x, y, z'
loop_
 _atom_site_type_symbol
 _atom_site_label
 _atom_site_symmetry_multiplicity
 _atom_site_fract_x
 _atom_site_fract_y
 _atom_site_fract_z
 _atom_site_occupancy
  Hf  Hf0  1  0.595159  0.997801  0.750000  1
  Hf  Hf1  1  0.002199  0.597358  0.750000  1
  Hf  Hf2  1  0.402642  0.404841  0.750000  1
  Hf  Hf3  1  0.997992  0.597548  0.250000  1
  Hf  Hf4  1  0.599556  0.002008  0.250000  1
  Hf  Hf5  1  0.402452  0.400444  0.250000  1
  Al  Al6  1  0.744175  0.743981  0.993182  1
  Al  Al7  1  0.256019  0.000194  0.993182  1
  Al  Al8  1  0.999806  0.255825  0.993182  1
  Al  Al9  1  0.744175  0.743981  0.506818  1
  Al  Al10  1  0.256019  0.000194  0.506818  1
  Al  Al11  1  0.999806  0.255825  0.506818  1
  Ni  Ni12  1  0.000000  0.000000  0.750000  1
  Ir  Ir13  1  0.000000  0.000000  0.250000  1
  Ir  Ir14  1  0.666667  0.333333  0.995078  1
  Ir  Ir15  1  0.666667  0.333333  0.504922  1
  Ir  Ir16  1  0.333333  0.666667  0.499485  1
  Ir  Ir17  1  0.333333  0.666667  0.000516  1
