# generated using pymatgen
data_V3Sb14Os3
_symmetry_space_group_name_H-M   'P 1'
_cell_length_a   8.25180083
_cell_length_b   8.25179951
_cell_length_c   8.25179993
_cell_angle_alpha   108.45857631
_cell_angle_beta   109.33944001
_cell_angle_gamma   110.62297888
_symmetry_Int_Tables_number   1
_chemical_formula_structural   V3Sb14Os3
_chemical_formula_sum   'V3 Sb14 Os3'
_cell_volume   432.38153915
_cell_formula_units_Z   1
loop_
 _symmetry_equiv_pos_site_id
 _symmetry_equiv_pos_as_xyz
  1  'x, y, z'
loop_
 _atom_site_type_symbol
 _atom_site_label
 _atom_site_symmetry_multiplicity
 _atom_site_fract_x
 _atom_site_fract_y
 _atom_site_fract_z
 _atom_site_occupancy
  V  V0  1  0.344611  0.343087  0.001524  1
  V  V1  1  0.658437  0.656913  0.001524  1
  V  V2  1  0.344526  0.000000  0.344526  1
  Sb  Sb3  1  0.326893  0.004183  0.002553  1
  Sb  Sb4  1  0.671766  0.995002  0.999699  1
  Sb  Sb5  1  0.004697  0.327934  0.999699  1
  Sb  Sb6  1  0.998371  0.675661  0.002553  1
  Sb  Sb7  1  0.750951  0.500000  0.250951  1
  Sb  Sb8  1  0.495030  0.751154  0.246184  1
  Sb  Sb9  1  0.998371  0.995817  0.322710  1
  Sb  Sb10  1  0.326893  0.324340  0.322710  1
  Sb  Sb11  1  0.745161  0.249346  0.495815  1
  Sb  Sb12  1  0.246469  0.750654  0.495815  1
  Sb  Sb13  1  0.004697  0.004998  0.676764  1
  Sb  Sb14  1  0.671766  0.672067  0.676764  1
  Sb  Sb15  1  0.495030  0.248846  0.743877  1
  Sb  Sb16  1  0.251654  0.500000  0.751654  1
  Os  Os17  1  0.001037  0.343508  0.344545  1
  Os  Os18  1  0.662604  0.000000  0.662604  1
  Os  Os19  1  0.001037  0.656492  0.657530  1
