# generated using pymatgen
data_Sm3CrCo7NiP6
_symmetry_space_group_name_H-M   'P 1'
_cell_length_a   3.74690400
_cell_length_b   10.59618200
_cell_length_c   12.33180300
_cell_angle_alpha   90.00000000
_cell_angle_beta   90.00000000
_cell_angle_gamma   90.00000000
_symmetry_Int_Tables_number   1
_chemical_formula_structural   Sm3CrCo7NiP6
_chemical_formula_sum   'Sm6 Cr2 Co14 Ni2 P12'
_cell_volume   489.60805425
_cell_formula_units_Z   2
loop_
 _symmetry_equiv_pos_site_id
 _symmetry_equiv_pos_as_xyz
  1  'x, y, z'
loop_
 _atom_site_type_symbol
 _atom_site_label
 _atom_site_symmetry_multiplicity
 _atom_site_fract_x
 _atom_site_fract_y
 _atom_site_fract_z
 _atom_site_occupancy
  Sm  Sm0  1  0.000000  0.500000  0.520014  1
  Sm  Sm1  1  0.500000  0.000000  0.479986  1
  Sm  Sm2  1  0.500000  0.816018  0.204160  1
  Sm  Sm3  1  0.500000  0.183982  0.204160  1
  Sm  Sm4  1  0.000000  0.683982  0.795840  1
  Sm  Sm5  1  0.000000  0.316018  0.795840  1
  Cr  Cr6  1  0.500000  0.500000  0.155188  1
  Cr  Cr7  1  0.000000  0.000000  0.844812  1
  Co  Co8  1  0.000000  0.500000  0.987347  1
  Co  Co9  1  0.500000  0.000000  0.012653  1
  Co  Co10  1  0.500000  0.332830  0.993483  1
  Co  Co11  1  0.500000  0.667170  0.993483  1
  Co  Co12  1  0.000000  0.167170  0.006517  1
  Co  Co13  1  0.000000  0.832830  0.006517  1
  Co  Co14  1  0.500000  0.296550  0.430958  1
  Co  Co15  1  0.500000  0.703450  0.430958  1
  Co  Co16  1  0.000000  0.203450  0.569042  1
  Co  Co17  1  0.000000  0.796550  0.569042  1
  Co  Co18  1  0.500000  0.880792  0.710228  1
  Co  Co19  1  0.500000  0.119208  0.710228  1
  Co  Co20  1  0.000000  0.619208  0.289772  1
  Co  Co21  1  0.000000  0.380792  0.289772  1
  Ni  Ni22  1  0.500000  0.500000  0.703189  1
  Ni  Ni23  1  0.000000  0.000000  0.296811  1
  P  P24  1  0.500000  0.500000  0.885875  1
  P  P25  1  0.000000  0.000000  0.114125  1
  P  P26  1  0.500000  0.500000  0.341867  1
  P  P27  1  0.000000  0.000000  0.658133  1
  P  P28  1  0.500000  0.307711  0.614738  1
  P  P29  1  0.500000  0.692289  0.614738  1
  P  P30  1  0.000000  0.192289  0.385262  1
  P  P31  1  0.000000  0.807711  0.385262  1
  P  P32  1  0.500000  0.848410  0.894154  1
  P  P33  1  0.500000  0.151590  0.894154  1
  P  P34  1  0.000000  0.651590  0.105846  1
  P  P35  1  0.000000  0.348410  0.105846  1
