# generated using pymatgen
data_YbPrHo3Ru2
_symmetry_space_group_name_H-M   'P 1'
_cell_length_a   6.45071643
_cell_length_b   7.27544678
_cell_length_c   8.57424699
_cell_angle_alpha   96.90876184
_cell_angle_beta   112.09652213
_cell_angle_gamma   89.99999915
_symmetry_Int_Tables_number   1
_chemical_formula_structural   YbPrHo3Ru2
_chemical_formula_sum   'Yb2 Pr2 Ho6 Ru4'
_cell_volume   369.69374563
_cell_formula_units_Z   2
loop_
 _symmetry_equiv_pos_site_id
 _symmetry_equiv_pos_as_xyz
  1  'x, y, z'
loop_
 _atom_site_type_symbol
 _atom_site_label
 _atom_site_symmetry_multiplicity
 _atom_site_fract_x
 _atom_site_fract_y
 _atom_site_fract_z
 _atom_site_occupancy
  Yb  Yb0  1  0.018444  0.080900  0.813088  1
  Yb  Yb1  1  0.205356  0.419100  0.186912  1
  Pr  Pr2  1  0.981035  0.918257  0.189783  1
  Pr  Pr3  1  0.791253  0.581743  0.810217  1
  Ho  Ho4  1  0.633515  0.815624  0.431603  1
  Ho  Ho5  1  0.201913  0.684376  0.568397  1
  Ho  Ho6  1  0.365905  0.186672  0.567147  1
  Ho  Ho7  1  0.798757  0.313328  0.432853  1
  Ho  Ho8  1  0.424114  0.750000  0.000000  1
  Ho  Ho9  1  0.566901  0.250000  0.000000  1
  Ru  Ru10  1  0.817108  0.575903  0.225229  1
  Ru  Ru11  1  0.591879  0.924097  0.774771  1
  Ru  Ru12  1  0.185921  0.426007  0.768021  1
  Ru  Ru13  1  0.417900  0.073993  0.231979  1
