# generated using pymatgen
data_Dy2Pa3S10
_symmetry_space_group_name_H-M   'P 1'
_cell_length_a   10.19849200
_cell_length_b   10.19849200
_cell_length_c   6.27701800
_cell_angle_alpha   90.00000000
_cell_angle_beta   90.00000000
_cell_angle_gamma   90.00000000
_symmetry_Int_Tables_number   1
_chemical_formula_structural   Dy2Pa3S10
_chemical_formula_sum   'Dy4 Pa6 S20'
_cell_volume   652.86786583
_cell_formula_units_Z   2
loop_
 _symmetry_equiv_pos_site_id
 _symmetry_equiv_pos_as_xyz
  1  'x, y, z'
loop_
 _atom_site_type_symbol
 _atom_site_label
 _atom_site_symmetry_multiplicity
 _atom_site_fract_x
 _atom_site_fract_y
 _atom_site_fract_z
 _atom_site_occupancy
  Dy  Dy0  1  0.341492  0.651080  0.750549  1
  Dy  Dy1  1  0.151080  0.158508  0.750549  1
  Dy  Dy2  1  0.848920  0.841492  0.750549  1
  Dy  Dy3  1  0.658508  0.348920  0.750549  1
  Pa  Pa4  1  0.841781  0.152141  0.251052  1
  Pa  Pa5  1  0.652141  0.658219  0.251052  1
  Pa  Pa6  1  0.347859  0.341781  0.251052  1
  Pa  Pa7  1  0.158219  0.847859  0.251052  1
  Pa  Pa8  1  0.500000  0.000000  0.859515  1
  Pa  Pa9  1  0.000000  0.500000  0.136035  1
  S  S10  1  0.707580  0.088931  0.617964  1
  S  S11  1  0.588931  0.792420  0.617964  1
  S  S12  1  0.411069  0.207580  0.617964  1
  S  S13  1  0.292420  0.911069  0.617964  1
  S  S14  1  0.706416  0.911481  0.114325  1
  S  S15  1  0.588519  0.206416  0.114325  1
  S  S16  1  0.411481  0.793584  0.114325  1
  S  S17  1  0.293584  0.088519  0.114325  1
  S  S18  1  0.500000  0.500000  0.004590  1
  S  S19  1  0.000000  0.000000  0.004590  1
  S  S20  1  0.209730  0.410699  0.897004  1
  S  S21  1  0.089301  0.709730  0.897004  1
  S  S22  1  0.910699  0.290270  0.897004  1
  S  S23  1  0.790270  0.589301  0.897004  1
  S  S24  1  0.500000  0.500000  0.496322  1
  S  S25  1  0.000000  0.000000  0.496322  1
  S  S26  1  0.210676  0.588297  0.369763  1
  S  S27  1  0.088297  0.289324  0.369763  1
  S  S28  1  0.911703  0.710676  0.369763  1
  S  S29  1  0.789324  0.411703  0.369763  1
