# generated using pymatgen
data_PrY4(In2Pd)2
_symmetry_space_group_name_H-M   'P 1'
_cell_length_a   18.50311900
_cell_length_b   8.24753300
_cell_length_c   3.65500700
_cell_angle_alpha   90.00000000
_cell_angle_beta   90.00000000
_cell_angle_gamma   90.00000000
_symmetry_Int_Tables_number   1
_chemical_formula_structural   PrY4(In2Pd)2
_chemical_formula_sum   'Pr2 Y8 In8 Pd4'
_cell_volume   557.77265229
_cell_formula_units_Z   2
loop_
 _symmetry_equiv_pos_site_id
 _symmetry_equiv_pos_as_xyz
  1  'x, y, z'
loop_
 _atom_site_type_symbol
 _atom_site_label
 _atom_site_symmetry_multiplicity
 _atom_site_fract_x
 _atom_site_fract_y
 _atom_site_fract_z
 _atom_site_occupancy
  Pr  Pr0  1  0.000000  0.000000  0.000000  1
  Pr  Pr1  1  0.500000  0.500000  0.000000  1
  Y  Y2  1  0.416152  0.120675  0.000000  1
  Y  Y3  1  0.217757  0.236016  0.000000  1
  Y  Y4  1  0.717757  0.263984  0.000000  1
  Y  Y5  1  0.916152  0.379325  0.000000  1
  Y  Y6  1  0.083848  0.620675  0.000000  1
  Y  Y7  1  0.282243  0.736016  0.000000  1
  Y  Y8  1  0.782242  0.763983  0.000000  1
  Y  Y9  1  0.583848  0.879326  0.000000  1
  In  In10  1  0.845990  0.084672  0.500000  1
  In  In11  1  0.568876  0.199774  0.500000  1
  In  In12  1  0.068876  0.300227  0.500000  1
  In  In13  1  0.345990  0.415329  0.500000  1
  In  In14  1  0.654010  0.584672  0.500000  1
  In  In15  1  0.931124  0.699773  0.500000  1
  In  In16  1  0.431124  0.800228  0.500000  1
  In  In17  1  0.154011  0.915329  0.500000  1
  Pd  Pd18  1  0.304302  0.021734  0.500000  1
  Pd  Pd19  1  0.804302  0.478266  0.500000  1
  Pd  Pd20  1  0.195698  0.521735  0.500000  1
  Pd  Pd21  1  0.695698  0.978265  0.500000  1
