# generated using pymatgen
data_TbLu4In4RuPt
_symmetry_space_group_name_H-M   'P 1'
_cell_length_a   3.56097100
_cell_length_b   7.97994342
_cell_length_c   18.15463000
_cell_angle_alpha   89.91678408
_cell_angle_beta   90.00000000
_cell_angle_gamma   90.00000000
_symmetry_Int_Tables_number   1
_chemical_formula_structural   TbLu4In4RuPt
_chemical_formula_sum   'Tb2 Lu8 In8 Ru2 Pt2'
_cell_volume   515.88772322
_cell_formula_units_Z   2
loop_
 _symmetry_equiv_pos_site_id
 _symmetry_equiv_pos_as_xyz
  1  'x, y, z'
loop_
 _atom_site_type_symbol
 _atom_site_label
 _atom_site_symmetry_multiplicity
 _atom_site_fract_x
 _atom_site_fract_y
 _atom_site_fract_z
 _atom_site_occupancy
  Tb  Tb0  1  0.000000  0.000000  0.000000  1
  Tb  Tb1  1  0.000000  0.500000  0.500000  1
  Lu  Lu2  1  0.000000  0.116738  0.411733  1
  Lu  Lu3  1  0.000000  0.883262  0.588267  1
  Lu  Lu4  1  0.000000  0.381175  0.913358  1
  Lu  Lu5  1  0.000000  0.618825  0.086642  1
  Lu  Lu6  1  0.000000  0.236713  0.222863  1
  Lu  Lu7  1  0.000000  0.763287  0.777137  1
  Lu  Lu8  1  0.000000  0.247341  0.720400  1
  Lu  Lu9  1  0.000000  0.752659  0.279600  1
  In  In10  1  0.500000  0.424533  0.350964  1
  In  In11  1  0.500000  0.575467  0.649036  1
  In  In12  1  0.500000  0.069389  0.849450  1
  In  In13  1  0.500000  0.930611  0.150550  1
  In  In14  1  0.500000  0.294793  0.066131  1
  In  In15  1  0.500000  0.705207  0.933869  1
  In  In16  1  0.500000  0.203822  0.568319  1
  In  In17  1  0.500000  0.796178  0.431681  1
  Ru  Ru18  1  0.500000  0.023197  0.303904  1
  Ru  Ru19  1  0.500000  0.976803  0.696096  1
  Pt  Pt20  1  0.500000  0.475565  0.803602  1
  Pt  Pt21  1  0.500000  0.524435  0.196398  1
