# generated using pymatgen
data_Yb10Cu3Ag2Ru
_symmetry_space_group_name_H-M   'P 1'
_cell_length_a   8.94971945
_cell_length_b   8.94971986
_cell_length_c   8.90495131
_cell_angle_alpha   129.36582396
_cell_angle_beta   129.36582489
_cell_angle_gamma   74.79973284
_symmetry_Int_Tables_number   1
_chemical_formula_structural   Yb10Cu3Ag2Ru
_chemical_formula_sum   'Yb10 Cu3 Ag2 Ru1'
_cell_volume   414.44195717
_cell_formula_units_Z   1
loop_
 _symmetry_equiv_pos_site_id
 _symmetry_equiv_pos_as_xyz
  1  'x, y, z'
loop_
 _atom_site_type_symbol
 _atom_site_label
 _atom_site_symmetry_multiplicity
 _atom_site_fract_x
 _atom_site_fract_y
 _atom_site_fract_z
 _atom_site_occupancy
  Yb  Yb0  1  0.493502  0.500926  0.994428  1
  Yb  Yb1  1  0.000926  0.993502  0.994428  1
  Yb  Yb2  1  0.531817  0.031817  0.837733  1
  Yb  Yb3  1  0.188323  0.688323  0.147193  1
  Yb  Yb4  1  0.033751  0.203977  0.508920  1
  Yb  Yb5  1  0.703977  0.533751  0.508920  1
  Yb  Yb6  1  0.458871  0.958871  0.147193  1
  Yb  Yb7  1  0.805915  0.305915  0.837733  1
  Yb  Yb8  1  0.975169  0.804943  0.508920  1
  Yb  Yb9  1  0.304943  0.475169  0.508920  1
  Cu  Cu10  1  0.879770  0.379770  0.259540  1
  Cu  Cu11  1  0.617693  0.881317  0.499011  1
  Cu  Cu12  1  0.381317  0.117693  0.499011  1
  Ag  Ag13  1  0.251661  0.251661  0.003321  1
  Ag  Ag14  1  0.751661  0.751661  0.003321  1
  Ru  Ru15  1  0.120705  0.620705  0.741410  1
