# generated using pymatgen
data_Tm4Re2Os5W
_symmetry_space_group_name_H-M   'P 1'
_cell_length_a   5.46769623
_cell_length_b   5.22231914
_cell_length_c   8.91520400
_cell_angle_alpha   90.00000000
_cell_angle_beta   90.00000000
_cell_angle_gamma   120.76740070
_symmetry_Int_Tables_number   1
_chemical_formula_structural   Tm4Re2Os5W
_chemical_formula_sum   'Tm4 Re2 Os5 W1'
_cell_volume   218.73544560
_cell_formula_units_Z   1
loop_
 _symmetry_equiv_pos_site_id
 _symmetry_equiv_pos_as_xyz
  1  'x, y, z'
loop_
 _atom_site_type_symbol
 _atom_site_label
 _atom_site_symmetry_multiplicity
 _atom_site_fract_x
 _atom_site_fract_y
 _atom_site_fract_z
 _atom_site_occupancy
  Tm  Tm0  1  0.671067  0.341387  0.563512  1
  Tm  Tm1  1  0.329812  0.663949  0.435823  1
  Tm  Tm2  1  0.329812  0.663949  0.064177  1
  Tm  Tm3  1  0.671067  0.341387  0.936488  1
  Re  Re4  1  0.833245  0.659070  0.250000  1
  Re  Re5  1  0.830922  0.170975  0.250000  1
  Os  Os6  1  0.995515  0.005232  0.499073  1
  Os  Os7  1  0.995515  0.005232  0.000927  1
  Os  Os8  1  0.175700  0.824119  0.750000  1
  Os  Os9  1  0.651663  0.824648  0.750000  1
  Os  Os10  1  0.349820  0.172753  0.250000  1
  W  W11  1  0.165859  0.327300  0.750000  1
