# generated using pymatgen
data_Be8GeP8Pb3O32
_symmetry_space_group_name_H-M   'P 1'
_cell_length_a   9.10827807
_cell_length_b   8.12989957
_cell_length_c   8.51632401
_cell_angle_alpha   89.89418499
_cell_angle_beta   89.99650476
_cell_angle_gamma   89.98599056
_symmetry_Int_Tables_number   1
_chemical_formula_structural   Be8GeP8Pb3O32
_chemical_formula_sum   'Be8 Ge1 P8 Pb3 O32'
_cell_volume   630.62746850
_cell_formula_units_Z   1
loop_
 _symmetry_equiv_pos_site_id
 _symmetry_equiv_pos_as_xyz
  1  'x, y, z'
loop_
 _atom_site_type_symbol
 _atom_site_label
 _atom_site_symmetry_multiplicity
 _atom_site_fract_x
 _atom_site_fract_y
 _atom_site_fract_z
 _atom_site_occupancy
  Be  Be0  1  0.195758  0.423072  0.063331  1
  Be  Be1  1  0.690254  0.575121  0.434812  1
  Be  Be2  1  0.804459  0.577663  0.935464  1
  Be  Be3  1  0.305990  0.424265  0.564424  1
  Be  Be4  1  0.419488  0.932466  0.272764  1
  Be  Be5  1  0.916383  0.070600  0.228509  1
  Be  Be6  1  0.582258  0.071138  0.725932  1
  Be  Be7  1  0.082780  0.928299  0.774462  1
  Ge  Ge8  1  0.635185  0.245302  0.078152  1
  P  P9  1  0.910516  0.434241  0.230812  1
  P  P10  1  0.414011  0.560245  0.268597  1
  P  P11  1  0.086181  0.564505  0.770384  1
  P  P12  1  0.588297  0.437360  0.733561  1
  P  P13  1  0.196629  0.065347  0.067273  1
  P  P14  1  0.695096  0.934679  0.431821  1
  P  P15  1  0.800332  0.933904  0.931954  1
  P  P16  1  0.302957  0.067020  0.567744  1
  Pb  Pb17  1  0.097083  0.757099  0.393461  1
  Pb  Pb18  1  0.404256  0.757485  0.904554  1
  Pb  Pb19  1  0.908607  0.243094  0.605124  1
  O  O20  1  0.066665  0.486364  0.188054  1
  O  O21  1  0.572752  0.512597  0.306001  1
  O  O22  1  0.926950  0.515307  0.809436  1
  O  O23  1  0.427620  0.478035  0.698666  1
  O  O24  1  0.807126  0.434166  0.081741  1
  O  O25  1  0.314745  0.554562  0.417120  1
  O  O26  1  0.186034  0.556552  0.916333  1
  O  O27  1  0.685699  0.443708  0.585713  1
  O  O28  1  0.899796  0.256955  0.299108  1
  O  O29  1  0.401689  0.741175  0.203436  1
  O  O30  1  0.096637  0.742111  0.701543  1
  O  O31  1  0.609920  0.259347  0.808093  1
  O  O32  1  0.358463  0.447254  0.136509  1
  O  O33  1  0.856674  0.553038  0.359219  1
  O  O34  1  0.640238  0.557716  0.863031  1
  O  O35  1  0.138140  0.447256  0.638079  1
  O  O36  1  0.354245  0.044095  0.130706  1
  O  O37  1  0.855863  0.953163  0.368516  1
  O  O38  1  0.642239  0.951485  0.867187  1
  O  O39  1  0.142769  0.045720  0.631548  1
  O  O40  1  0.810253  0.068859  0.067309  1
  O  O41  1  0.319295  0.939769  0.432310  1
  O  O42  1  0.180352  0.938323  0.930777  1
  O  O43  1  0.681843  0.060858  0.569752  1
  O  O44  1  0.587504  0.984926  0.300077  1
  O  O45  1  0.082375  0.015165  0.196099  1
  O  O46  1  0.413305  0.022050  0.700445  1
  O  O47  1  0.913296  0.983771  0.804896  1
  O  O48  1  0.166201  0.238610  0.006460  1
  O  O49  1  0.668365  0.760773  0.493399  1
  O  O50  1  0.828935  0.763096  0.999417  1
  O  O51  1  0.327495  0.240287  0.505882  1
