# generated using pymatgen
data_Sc9TaTc3
_symmetry_space_group_name_H-M   'P 1'
_cell_length_a   8.78707500
_cell_length_b   8.78707510
_cell_length_c   8.15424300
_cell_angle_alpha   90.00000000
_cell_angle_beta   90.00000000
_cell_angle_gamma   120.00000339
_symmetry_Int_Tables_number   1
_chemical_formula_structural   Sc9TaTc3
_chemical_formula_sum   'Sc18 Ta2 Tc6'
_cell_volume   545.25911917
_cell_formula_units_Z   2
loop_
 _symmetry_equiv_pos_site_id
 _symmetry_equiv_pos_as_xyz
  1  'x, y, z'
loop_
 _atom_site_type_symbol
 _atom_site_label
 _atom_site_symmetry_multiplicity
 _atom_site_fract_x
 _atom_site_fract_y
 _atom_site_fract_z
 _atom_site_occupancy
  Sc  Sc0  1  0.404366  0.202183  0.055758  1
  Sc  Sc1  1  0.797817  0.202183  0.055758  1
  Sc  Sc2  1  0.797816  0.595633  0.055758  1
  Sc  Sc3  1  0.095161  0.547581  0.250000  1
  Sc  Sc4  1  0.452419  0.547581  0.250000  1
  Sc  Sc5  1  0.452419  0.904840  0.250000  1
  Sc  Sc6  1  0.404366  0.202183  0.444242  1
  Sc  Sc7  1  0.797817  0.202183  0.444242  1
  Sc  Sc8  1  0.797816  0.595633  0.444242  1
  Sc  Sc9  1  0.202183  0.404367  0.555759  1
  Sc  Sc10  1  0.202182  0.797817  0.555759  1
  Sc  Sc11  1  0.595634  0.797817  0.555759  1
  Sc  Sc12  1  0.547580  0.095160  0.750001  1
  Sc  Sc13  1  0.547581  0.452419  0.750001  1
  Sc  Sc14  1  0.904840  0.452419  0.750001  1
  Sc  Sc15  1  0.202183  0.404367  0.944241  1
  Sc  Sc16  1  0.202182  0.797817  0.944241  1
  Sc  Sc17  1  0.595634  0.797817  0.944241  1
  Ta  Ta18  1  0.000000  0.000000  0.000000  1
  Ta  Ta19  1  0.000000  0.000000  0.500000  1
  Tc  Tc20  1  0.113837  0.227674  0.250000  1
  Tc  Tc21  1  0.113836  0.886163  0.250000  1
  Tc  Tc22  1  0.772327  0.886163  0.250000  1
  Tc  Tc23  1  0.227674  0.113837  0.750001  1
  Tc  Tc24  1  0.886163  0.113837  0.750001  1
  Tc  Tc25  1  0.886162  0.772326  0.750001  1
