# generated using pymatgen
data_Tb3Nd7SmIn9Pd4
_symmetry_space_group_name_H-M   'P 1'
_cell_length_a   13.43949319
_cell_length_b   13.43678255
_cell_length_c   3.74337900
_cell_angle_alpha   90.00000000
_cell_angle_beta   90.00000000
_cell_angle_gamma   111.12029001
_symmetry_Int_Tables_number   1
_chemical_formula_structural   Tb3Nd7SmIn9Pd4
_chemical_formula_sum   'Tb3 Nd7 Sm1 In9 Pd4'
_cell_volume   630.58352294
_cell_formula_units_Z   1
loop_
 _symmetry_equiv_pos_site_id
 _symmetry_equiv_pos_as_xyz
  1  'x, y, z'
loop_
 _atom_site_type_symbol
 _atom_site_label
 _atom_site_symmetry_multiplicity
 _atom_site_fract_x
 _atom_site_fract_y
 _atom_site_fract_z
 _atom_site_occupancy
  Tb  Tb0  1  0.626810  0.373158  0.000000  1
  Tb  Tb1  1  0.312474  0.311990  0.000000  1
  Tb  Tb2  1  0.688018  0.687521  0.000000  1
  Nd  Nd3  1  0.416821  0.069454  0.000000  1
  Nd  Nd4  1  0.583408  0.930945  0.000000  1
  Nd  Nd5  1  0.069057  0.416642  0.000000  1
  Nd  Nd6  1  0.930550  0.583131  0.000000  1
  Nd  Nd7  1  0.158985  0.840998  0.000000  1
  Nd  Nd8  1  0.841035  0.158985  0.000000  1
  Nd  Nd9  1  0.999954  0.000049  0.000000  1
  Sm  Sm10  1  0.372626  0.627409  0.000000  1
  In  In11  1  0.367608  0.836772  0.500000  1
  In  In12  1  0.632452  0.164571  0.500000  1
  In  In13  1  0.835312  0.367433  0.500000  1
  In  In14  1  0.163337  0.632500  0.500000  1
  In  In15  1  0.220771  0.080471  0.500000  1
  In  In16  1  0.779347  0.919585  0.500000  1
  In  In17  1  0.080409  0.220665  0.500000  1
  In  In18  1  0.919537  0.779212  0.500000  1
  In  In19  1  0.500753  0.499251  0.500000  1
  Pd  Pd20  1  0.451385  0.253084  0.500000  1
  Pd  Pd21  1  0.551010  0.748572  0.500000  1
  Pd  Pd22  1  0.251419  0.449000  0.500000  1
  Pd  Pd23  1  0.746923  0.548604  0.500000  1
