# generated using pymatgen
data_Er2Co9P7W3
_symmetry_space_group_name_H-M   'P 1'
_cell_length_a   9.05123100
_cell_length_b   9.05123163
_cell_length_c   3.71439500
_cell_angle_alpha   90.00000000
_cell_angle_beta   90.00000000
_cell_angle_gamma   119.99999404
_symmetry_Int_Tables_number   1
_chemical_formula_structural   Er2Co9P7W3
_chemical_formula_sum   'Er2 Co9 P7 W3'
_cell_volume   263.53243317
_cell_formula_units_Z   1
loop_
 _symmetry_equiv_pos_site_id
 _symmetry_equiv_pos_as_xyz
  1  'x, y, z'
loop_
 _atom_site_type_symbol
 _atom_site_label
 _atom_site_symmetry_multiplicity
 _atom_site_fract_x
 _atom_site_fract_y
 _atom_site_fract_z
 _atom_site_occupancy
  Er  Er0  1  0.666667  0.333333  0.743081  1
  Er  Er1  1  0.333333  0.666667  0.243099  1
  Co  Co2  1  0.063062  0.630600  0.743048  1
  Co  Co3  1  0.369400  0.432463  0.743048  1
  Co  Co4  1  0.567537  0.936938  0.743048  1
  Co  Co5  1  0.948256  0.385428  0.243040  1
  Co  Co6  1  0.614572  0.562828  0.243040  1
  Co  Co7  1  0.437172  0.051744  0.243040  1
  Co  Co8  1  0.280149  0.120438  0.742976  1
  Co  Co9  1  0.879562  0.159712  0.742976  1
  Co  Co10  1  0.840288  0.719851  0.742976  1
  P  P11  1  0.000000  0.000000  0.742970  1
  P  P12  1  0.302880  0.887669  0.743052  1
  P  P13  1  0.112331  0.415211  0.743052  1
  P  P14  1  0.584789  0.697120  0.743052  1
  P  P15  1  0.708396  0.121105  0.243037  1
  P  P16  1  0.878895  0.587290  0.243037  1
  P  P17  1  0.412710  0.291604  0.243037  1
  W  W18  1  0.779212  0.903117  0.243003  1
  W  W19  1  0.096883  0.876095  0.243003  1
  W  W20  1  0.123905  0.220788  0.243003  1
