# generated using pymatgen
data_Li2HoThSn2
_symmetry_space_group_name_H-M   'P 1'
_cell_length_a   4.74815500
_cell_length_b   4.74815365
_cell_length_c   7.34220600
_cell_angle_alpha   90.00000000
_cell_angle_beta   90.00000000
_cell_angle_gamma   120.00001639
_symmetry_Int_Tables_number   1
_chemical_formula_structural   Li2HoThSn2
_chemical_formula_sum   'Li2 Ho1 Th1 Sn2'
_cell_volume   143.35299702
_cell_formula_units_Z   1
loop_
 _symmetry_equiv_pos_site_id
 _symmetry_equiv_pos_as_xyz
  1  'x, y, z'
loop_
 _atom_site_type_symbol
 _atom_site_label
 _atom_site_symmetry_multiplicity
 _atom_site_fract_x
 _atom_site_fract_y
 _atom_site_fract_z
 _atom_site_occupancy
  Li  Li0  1  0.666667  0.333333  0.450440  1
  Li  Li1  1  0.333333  0.666667  0.028033  1
  Ho  Ho2  1  0.000000  0.000000  0.239281  1
  Th  Th3  1  0.000000  0.000000  0.738945  1
  Sn  Sn4  1  0.333333  0.666667  0.480811  1
  Sn  Sn5  1  0.666667  0.333333  0.996489  1
