# generated using pymatgen
data_CaHo4Si12Ir19
_symmetry_space_group_name_H-M   'P 1'
_cell_length_a   12.82354800
_cell_length_b   12.83181098
_cell_length_c   3.99285800
_cell_angle_alpha   90.00000000
_cell_angle_beta   90.00000000
_cell_angle_gamma   119.97870592
_symmetry_Int_Tables_number   1
_chemical_formula_structural   CaHo4Si12Ir19
_chemical_formula_sum   'Ca1 Ho4 Si12 Ir19'
_cell_volume   569.11993789
_cell_formula_units_Z   1
loop_
 _symmetry_equiv_pos_site_id
 _symmetry_equiv_pos_as_xyz
  1  'x, y, z'
loop_
 _atom_site_type_symbol
 _atom_site_label
 _atom_site_symmetry_multiplicity
 _atom_site_fract_x
 _atom_site_fract_y
 _atom_site_fract_z
 _atom_site_occupancy
  Ca  Ca0  1  0.184041  0.000000  0.500000  1
  Ho  Ho1  1  0.000231  0.183366  0.500000  1
  Ho  Ho2  1  0.816865  0.816634  0.500000  1
  Ho  Ho3  1  0.666967  0.333716  0.000000  1
  Ho  Ho4  1  0.333250  0.666284  0.000000  1
  Si  Si5  1  0.480358  0.311609  0.500000  1
  Si  Si6  1  0.817741  0.000000  0.000000  1
  Si  Si7  1  0.182140  0.181804  0.000000  1
  Si  Si8  1  0.000336  0.818196  0.000000  1
  Si  Si9  1  0.367487  0.000000  0.000000  1
  Si  Si10  1  0.687943  0.168794  0.500000  1
  Si  Si11  1  0.831338  0.518990  0.500000  1
  Si  Si12  1  0.519150  0.831206  0.500000  1
  Si  Si13  1  0.168750  0.688391  0.500000  1
  Si  Si14  1  0.312349  0.481010  0.500000  1
  Si  Si15  1  0.000086  0.367182  0.000000  1
  Si  Si16  1  0.632903  0.632818  0.000000  1
  Ir  Ir17  1  0.805875  0.182511  0.000000  1
  Ir  Ir18  1  0.379339  0.196004  0.000000  1
  Ir  Ir19  1  0.638441  0.511480  0.500000  1
  Ir  Ir20  1  0.872929  0.360778  0.500000  1
  Ir  Ir21  1  0.361736  0.873349  0.500000  1
  Ir  Ir22  1  0.512152  0.639222  0.500000  1
  Ir  Ir23  1  0.126961  0.488520  0.500000  1
  Ir  Ir24  1  0.816997  0.623035  0.000000  1
  Ir  Ir25  1  0.623364  0.817489  0.000000  1
  Ir  Ir26  1  0.183337  0.803996  0.000000  1
  Ir  Ir27  1  0.193963  0.376965  0.000000  1
  Ir  Ir28  1  0.998862  0.716148  0.500000  1
  Ir  Ir29  1  0.282714  0.283852  0.500000  1
  Ir  Ir30  1  0.716746  0.000000  0.500000  1
  Ir  Ir31  1  0.998392  0.550966  0.000000  1
  Ir  Ir32  1  0.447426  0.449034  0.000000  1
  Ir  Ir33  1  0.552536  0.000000  0.000000  1
  Ir  Ir34  1  0.997906  0.000000  0.000000  1
  Ir  Ir35  1  0.488386  0.126651  0.500000  1
