# generated using pymatgen
data_BaSmEu2F10
_symmetry_space_group_name_H-M   'P 1'
_cell_length_a   8.55862901
_cell_length_b   8.55862954
_cell_length_c   8.57864300
_cell_angle_alpha   59.92261244
_cell_angle_beta   59.92261039
_cell_angle_gamma   60.15476988
_symmetry_Int_Tables_number   1
_chemical_formula_structural   BaSmEu2F10
_chemical_formula_sum   'Ba2 Sm2 Eu4 F20'
_cell_volume   444.33164267
_cell_formula_units_Z   2
loop_
 _symmetry_equiv_pos_site_id
 _symmetry_equiv_pos_as_xyz
  1  'x, y, z'
loop_
 _atom_site_type_symbol
 _atom_site_label
 _atom_site_symmetry_multiplicity
 _atom_site_fract_x
 _atom_site_fract_y
 _atom_site_fract_z
 _atom_site_occupancy
  Ba  Ba0  1  0.250000  0.250000  0.250000  1
  Ba  Ba1  1  0.750000  0.750000  0.750000  1
  Sm  Sm2  1  0.238453  0.238453  0.761547  1
  Sm  Sm3  1  0.761547  0.761547  0.238453  1
  Eu  Eu4  1  0.759066  0.240934  0.240934  1
  Eu  Eu5  1  0.240934  0.759066  0.759066  1
  Eu  Eu6  1  0.240934  0.759066  0.240934  1
  Eu  Eu7  1  0.759066  0.240934  0.759066  1
  F  F8  1  0.834829  0.506118  0.493882  1
  F  F9  1  0.165171  0.493882  0.506118  1
  F  F10  1  0.506118  0.834829  0.165171  1
  F  F11  1  0.493882  0.165171  0.834829  1
  F  F12  1  0.506118  0.834829  0.493882  1
  F  F13  1  0.165171  0.493882  0.834829  1
  F  F14  1  0.493882  0.165171  0.506118  1
  F  F15  1  0.834829  0.506118  0.165171  1
  F  F16  1  0.500000  0.500000  0.838268  1
  F  F17  1  0.500000  0.500000  0.161732  1
  F  F18  1  0.161732  0.838268  0.500000  1
  F  F19  1  0.838268  0.161732  0.500000  1
  F  F20  1  0.119559  0.119559  0.109428  1
  F  F21  1  0.880441  0.880441  0.890572  1
  F  F22  1  0.119559  0.119559  0.651454  1
  F  F23  1  0.109428  0.651454  0.119559  1
  F  F24  1  0.880441  0.880441  0.348546  1
  F  F25  1  0.890572  0.348546  0.880441  1
  F  F26  1  0.651454  0.109428  0.119559  1
  F  F27  1  0.348546  0.890572  0.880441  1
