# generated using pymatgen
data_CaVGeO5
_symmetry_space_group_name_H-M   'P 1'
_cell_length_a   8.95777000
_cell_length_b   6.76967284
_cell_length_c   7.18166173
_cell_angle_alpha   65.88883441
_cell_angle_beta   90.00000000
_cell_angle_gamma   90.00000000
_symmetry_Int_Tables_number   1
_chemical_formula_structural   CaVGeO5
_chemical_formula_sum   'Ca4 V4 Ge4 O20'
_cell_volume   397.50862543
_cell_formula_units_Z   4
loop_
 _symmetry_equiv_pos_site_id
 _symmetry_equiv_pos_as_xyz
  1  'x, y, z'
loop_
 _atom_site_type_symbol
 _atom_site_label
 _atom_site_symmetry_multiplicity
 _atom_site_fract_x
 _atom_site_fract_y
 _atom_site_fract_z
 _atom_site_occupancy
  Ca  Ca0  1  0.422026  0.750125  0.243989  1
  Ca  Ca1  1  0.922026  0.249875  0.256011  1
  Ca  Ca2  1  0.577974  0.249875  0.756011  1
  Ca  Ca3  1  0.077974  0.750125  0.743989  1
  V  V4  1  0.245742  0.250906  0.015027  1
  V  V5  1  0.745742  0.749094  0.484973  1
  V  V6  1  0.754258  0.749094  0.984973  1
  V  V7  1  0.254258  0.250906  0.515027  1
  Ge  Ge8  1  0.432570  0.751299  0.747595  1
  Ge  Ge9  1  0.932570  0.248701  0.752405  1
  Ge  Ge10  1  0.567430  0.248701  0.252405  1
  Ge  Ge11  1  0.067430  0.751299  0.247595  1
  O  O12  1  0.457532  0.144972  0.106289  1
  O  O13  1  0.957532  0.855028  0.393711  1
  O  O14  1  0.542468  0.855028  0.893711  1
  O  O15  1  0.042468  0.144972  0.606289  1
  O  O16  1  0.041487  0.357488  0.894906  1
  O  O17  1  0.541487  0.642512  0.605094  1
  O  O18  1  0.958513  0.642512  0.105094  1
  O  O19  1  0.458513  0.357488  0.394906  1
  O  O20  1  0.305401  0.941658  0.580649  1
  O  O21  1  0.805401  0.058342  0.919351  1
  O  O22  1  0.694599  0.058342  0.419351  1
  O  O23  1  0.194599  0.941658  0.080649  1
  O  O24  1  0.311992  0.247532  0.752227  1
  O  O25  1  0.811992  0.752468  0.747773  1
  O  O26  1  0.688008  0.752468  0.247773  1
  O  O27  1  0.188008  0.247532  0.252227  1
  O  O28  1  0.304169  0.561751  0.913818  1
  O  O29  1  0.804169  0.438249  0.586182  1
  O  O30  1  0.695831  0.438249  0.086182  1
  O  O31  1  0.195831  0.561751  0.413818  1
