# generated using pymatgen
data_RbAlAu4
_symmetry_space_group_name_H-M   'P 1'
_cell_length_a   5.76627700
_cell_length_b   7.16985800
_cell_length_c   13.93484400
_cell_angle_alpha   90.00000000
_cell_angle_beta   90.00000000
_cell_angle_gamma   90.00000000
_symmetry_Int_Tables_number   1
_chemical_formula_structural   RbAlAu4
_chemical_formula_sum   'Rb4 Al4 Au16'
_cell_volume   576.11365216
_cell_formula_units_Z   4
loop_
 _symmetry_equiv_pos_site_id
 _symmetry_equiv_pos_as_xyz
  1  'x, y, z'
loop_
 _atom_site_type_symbol
 _atom_site_label
 _atom_site_symmetry_multiplicity
 _atom_site_fract_x
 _atom_site_fract_y
 _atom_site_fract_z
 _atom_site_occupancy
  Rb  Rb0  1  0.240089  0.104946  0.078002  1
  Rb  Rb1  1  0.259911  0.395054  0.578002  1
  Rb  Rb2  1  0.740089  0.895054  0.921998  1
  Rb  Rb3  1  0.759911  0.604946  0.421998  1
  Al  Al4  1  0.998683  0.898300  0.652406  1
  Al  Al5  1  0.501317  0.601700  0.152406  1
  Al  Al6  1  0.498683  0.101700  0.347594  1
  Al  Al7  1  0.001317  0.398300  0.847594  1
  Au  Au8  1  0.994304  0.112454  0.343661  1
  Au  Au9  1  0.505696  0.387546  0.843661  1
  Au  Au10  1  0.494304  0.887546  0.656339  1
  Au  Au11  1  0.005696  0.612454  0.156339  1
  Au  Au12  1  0.215615  0.100619  0.788567  1
  Au  Au13  1  0.284385  0.399381  0.288567  1
  Au  Au14  1  0.715615  0.899381  0.211433  1
  Au  Au15  1  0.784385  0.600619  0.711433  1
  Au  Au16  1  0.227117  0.702356  0.794232  1
  Au  Au17  1  0.272883  0.797644  0.294232  1
  Au  Au18  1  0.727117  0.297644  0.205768  1
  Au  Au19  1  0.772883  0.202356  0.705768  1
  Au  Au20  1  0.273237  0.576108  0.991827  1
  Au  Au21  1  0.226763  0.923892  0.491827  1
  Au  Au22  1  0.773237  0.423892  0.008173  1
  Au  Au23  1  0.726763  0.076108  0.508173  1
