# generated using pymatgen
data_CsY6(CBr6)2
_symmetry_space_group_name_H-M   'P 1'
_cell_length_a   8.93468961
_cell_length_b   8.92188718
_cell_length_c   9.42407851
_cell_angle_alpha   72.33598407
_cell_angle_beta   71.18240468
_cell_angle_gamma   72.90662727
_symmetry_Int_Tables_number   1
_chemical_formula_structural   CsY6(CBr6)2
_chemical_formula_sum   'Cs1 Y6 C2 Br12'
_cell_volume   661.35314149
_cell_formula_units_Z   1
loop_
 _symmetry_equiv_pos_site_id
 _symmetry_equiv_pos_as_xyz
  1  'x, y, z'
loop_
 _atom_site_type_symbol
 _atom_site_label
 _atom_site_symmetry_multiplicity
 _atom_site_fract_x
 _atom_site_fract_y
 _atom_site_fract_z
 _atom_site_occupancy
  Cs  Cs0  1  0.000002  0.500000  0.000001  1
  Y  Y1  1  0.473777  0.117062  0.182902  1
  Y  Y2  1  0.776112  0.033034  0.407279  1
  Y  Y3  1  0.593035  0.726400  0.475454  1
  Y  Y4  1  0.406963  0.273600  0.524545  1
  Y  Y5  1  0.223885  0.966966  0.592722  1
  Y  Y6  1  0.526223  0.882938  0.817096  1
  C  C7  1  0.492720  0.026381  0.422895  1
  C  C8  1  0.507277  0.973618  0.577103  1
  Br  Br9  1  0.796586  0.157543  0.083408  1
  Br  Br10  1  0.583020  0.788515  0.139013  1
  Br  Br11  1  0.351735  0.433006  0.224156  1
  Br  Br12  1  0.135022  0.070560  0.296983  1
  Br  Br13  1  0.921230  0.723308  0.355257  1
  Br  Br14  1  0.711807  0.364570  0.431602  1
  Br  Br15  1  0.288192  0.635428  0.568399  1
  Br  Br16  1  0.078768  0.276690  0.644745  1
  Br  Br17  1  0.864975  0.929440  0.703021  1
  Br  Br18  1  0.648269  0.566994  0.775845  1
  Br  Br19  1  0.416987  0.211483  0.860985  1
  Br  Br20  1  0.203420  0.842460  0.916592  1
