# generated using pymatgen
data_TiMo2Cl13
_symmetry_space_group_name_H-M   'P 1'
_cell_length_a   11.11161500
_cell_length_b   9.89101764
_cell_length_c   10.49129800
_cell_angle_alpha   86.04706037
_cell_angle_beta   90.00000000
_cell_angle_gamma   90.00000000
_symmetry_Int_Tables_number   1
_chemical_formula_structural   TiMo2Cl13
_chemical_formula_sum   'Ti2 Mo4 Cl26'
_cell_volume   1150.30490427
_cell_formula_units_Z   2
loop_
 _symmetry_equiv_pos_site_id
 _symmetry_equiv_pos_as_xyz
  1  'x, y, z'
loop_
 _atom_site_type_symbol
 _atom_site_label
 _atom_site_symmetry_multiplicity
 _atom_site_fract_x
 _atom_site_fract_y
 _atom_site_fract_z
 _atom_site_occupancy
  Ti  Ti0  1  0.250000  0.260987  0.498698  1
  Ti  Ti1  1  0.750000  0.739013  0.501302  1
  Mo  Mo2  1  0.250000  0.830147  0.088419  1
  Mo  Mo3  1  0.750000  0.169853  0.911581  1
  Mo  Mo4  1  0.250000  0.685527  0.873502  1
  Mo  Mo5  1  0.750000  0.314473  0.126498  1
  Cl  Cl6  1  0.589631  0.822665  0.587268  1
  Cl  Cl7  1  0.089631  0.177335  0.412732  1
  Cl  Cl8  1  0.750000  0.421383  0.905025  1
  Cl  Cl9  1  0.250000  0.578617  0.094975  1
  Cl  Cl10  1  0.922734  0.183264  0.056330  1
  Cl  Cl11  1  0.422734  0.816736  0.943670  1
  Cl  Cl12  1  0.077266  0.816736  0.943670  1
  Cl  Cl13  1  0.577266  0.183264  0.056330  1
  Cl  Cl14  1  0.750000  0.187038  0.313767  1
  Cl  Cl15  1  0.250000  0.812962  0.686233  1
  Cl  Cl16  1  0.894875  0.466238  0.180902  1
  Cl  Cl17  1  0.394875  0.533762  0.819098  1
  Cl  Cl18  1  0.105125  0.533762  0.819098  1
  Cl  Cl19  1  0.605125  0.466238  0.180902  1
  Cl  Cl20  1  0.750000  0.941606  0.950248  1
  Cl  Cl21  1  0.250000  0.058394  0.049752  1
  Cl  Cl22  1  0.894469  0.178400  0.754145  1
  Cl  Cl23  1  0.394469  0.821600  0.245855  1
  Cl  Cl24  1  0.105531  0.821600  0.245855  1
  Cl  Cl25  1  0.605531  0.178400  0.754145  1
  Cl  Cl26  1  0.750000  0.794026  0.296517  1
  Cl  Cl27  1  0.250000  0.205974  0.703483  1
  Cl  Cl28  1  0.750000  0.518591  0.534359  1
  Cl  Cl29  1  0.250000  0.481409  0.465641  1
  Cl  Cl30  1  0.910369  0.822665  0.587268  1
  Cl  Cl31  1  0.410369  0.177335  0.412732  1
