# generated using pymatgen
data_Ca2NdHo(Ga2Ag)4
_symmetry_space_group_name_H-M   'P 1'
_cell_length_a   4.38257200
_cell_length_b   7.03322213
_cell_length_c   10.48193754
_cell_angle_alpha   90.30210557
_cell_angle_beta   90.00000000
_cell_angle_gamma   90.00000000
_symmetry_Int_Tables_number   1
_chemical_formula_structural   Ca2NdHo(Ga2Ag)4
_chemical_formula_sum   'Ca2 Nd1 Ho1 Ga8 Ag4'
_cell_volume   323.08658381
_cell_formula_units_Z   1
loop_
 _symmetry_equiv_pos_site_id
 _symmetry_equiv_pos_as_xyz
  1  'x, y, z'
loop_
 _atom_site_type_symbol
 _atom_site_label
 _atom_site_symmetry_multiplicity
 _atom_site_fract_x
 _atom_site_fract_y
 _atom_site_fract_z
 _atom_site_occupancy
  Ca  Ca0  1  0.750000  0.224917  0.174474  1
  Ca  Ca1  1  0.750000  0.724694  0.325318  1
  Nd  Nd2  1  0.250000  0.279660  0.673518  1
  Ho  Ho3  1  0.250000  0.779400  0.828894  1
  Ga  Ga4  1  0.250000  0.925676  0.148392  1
  Ga  Ga5  1  0.750000  0.070668  0.844881  1
  Ga  Ga6  1  0.750000  0.578803  0.656494  1
  Ga  Ga7  1  0.250000  0.425794  0.351427  1
  Ga  Ga8  1  0.250000  0.704430  0.536763  1
  Ga  Ga9  1  0.750000  0.297668  0.465981  1
  Ga  Ga10  1  0.750000  0.797584  0.031442  1
  Ga  Ga11  1  0.250000  0.198276  0.965502  1
  Ag  Ag12  1  0.250000  0.542084  0.096286  1
  Ag  Ag13  1  0.750000  0.456064  0.901788  1
  Ag  Ag14  1  0.750000  0.953532  0.597755  1
  Ag  Ag15  1  0.250000  0.040748  0.401086  1
