# generated using pymatgen
data_Ce3Sm(TaOs3)2
_symmetry_space_group_name_H-M   'P 1'
_cell_length_a   5.73290900
_cell_length_b   5.73290753
_cell_length_c   8.16604500
_cell_angle_alpha   90.00000000
_cell_angle_beta   90.00000000
_cell_angle_gamma   119.99999117
_symmetry_Int_Tables_number   1
_chemical_formula_structural   Ce3Sm(TaOs3)2
_chemical_formula_sum   'Ce3 Sm1 Ta2 Os6'
_cell_volume   232.43012945
_cell_formula_units_Z   1
loop_
 _symmetry_equiv_pos_site_id
 _symmetry_equiv_pos_as_xyz
  1  'x, y, z'
loop_
 _atom_site_type_symbol
 _atom_site_label
 _atom_site_symmetry_multiplicity
 _atom_site_fract_x
 _atom_site_fract_y
 _atom_site_fract_z
 _atom_site_occupancy
  Ce  Ce0  1  0.333333  0.666667  0.439130  1
  Ce  Ce1  1  0.666667  0.333333  0.565893  1
  Ce  Ce2  1  0.666667  0.333333  0.934981  1
  Sm  Sm3  1  0.333333  0.666667  0.067221  1
  Ta  Ta4  1  0.000000  0.000000  0.000131  1
  Ta  Ta5  1  0.000000  0.000000  0.498478  1
  Os  Os6  1  0.171391  0.342783  0.748335  1
  Os  Os7  1  0.171391  0.828609  0.748335  1
  Os  Os8  1  0.343691  0.171845  0.249721  1
  Os  Os9  1  0.828155  0.656309  0.249721  1
  Os  Os10  1  0.657217  0.828609  0.748335  1
  Os  Os11  1  0.828155  0.171845  0.249721  1
