# generated using pymatgen
data_Y8InAgIrRh
_symmetry_space_group_name_H-M   'P 1'
_cell_length_a   9.64797641
_cell_length_b   9.68121643
_cell_length_c   9.64797519
_cell_angle_alpha   59.88596839
_cell_angle_beta   59.81867477
_cell_angle_gamma   59.88597068
_symmetry_Int_Tables_number   1
_chemical_formula_structural   Y8InAgIrRh
_chemical_formula_sum   'Y16 In2 Ag2 Ir2 Rh2'
_cell_volume   635.24320283
_cell_formula_units_Z   2
loop_
 _symmetry_equiv_pos_site_id
 _symmetry_equiv_pos_as_xyz
  1  'x, y, z'
loop_
 _atom_site_type_symbol
 _atom_site_label
 _atom_site_symmetry_multiplicity
 _atom_site_fract_x
 _atom_site_fract_y
 _atom_site_fract_z
 _atom_site_occupancy
  Y  Y0  1  0.810703  0.189297  0.810703  1
  Y  Y1  1  0.934603  0.563889  0.560174  1
  Y  Y2  1  0.560862  0.939138  0.560862  1
  Y  Y3  1  0.809886  0.191911  0.189296  1
  Y  Y4  1  0.192652  0.807348  0.192652  1
  Y  Y5  1  0.350049  0.949003  0.350049  1
  Y  Y6  1  0.934603  0.941333  0.560174  1
  Y  Y7  1  0.560174  0.941333  0.934603  1
  Y  Y8  1  0.189296  0.808907  0.809886  1
  Y  Y9  1  0.349520  0.350305  0.949871  1
  Y  Y10  1  0.560174  0.563889  0.934603  1
  Y  Y11  1  0.350049  0.350900  0.350049  1
  Y  Y12  1  0.189296  0.191911  0.809886  1
  Y  Y13  1  0.809886  0.808907  0.189296  1
  Y  Y14  1  0.936882  0.563118  0.936882  1
  Y  Y15  1  0.949871  0.350305  0.349520  1
  In  In16  1  0.583938  0.579019  0.258026  1
  In  In17  1  0.258026  0.579019  0.583938  1
  Ag  Ag18  1  0.583232  0.581611  0.583232  1
  Ag  Ag19  1  0.583232  0.251927  0.583232  1
  Ir  Ir20  1  0.142845  0.574270  0.142845  1
  Ir  Ir21  1  0.142845  0.140041  0.142845  1
  Rh  Rh22  1  0.142471  0.141311  0.574908  1
  Rh  Rh23  1  0.574908  0.141311  0.142471  1
