# generated using pymatgen
data_Dy4TmP12Ru5Rh14
_symmetry_space_group_name_H-M   'P 1'
_cell_length_a   12.65908502
_cell_length_b   12.62681365
_cell_length_c   3.93971300
_cell_angle_alpha   90.00000000
_cell_angle_beta   90.00000000
_cell_angle_gamma   120.05229775
_symmetry_Int_Tables_number   1
_chemical_formula_structural   Dy4TmP12Ru5Rh14
_chemical_formula_sum   'Dy4 Tm1 P12 Ru5 Rh14'
_cell_volume   545.08244619
_cell_formula_units_Z   1
loop_
 _symmetry_equiv_pos_site_id
 _symmetry_equiv_pos_as_xyz
  1  'x, y, z'
loop_
 _atom_site_type_symbol
 _atom_site_label
 _atom_site_symmetry_multiplicity
 _atom_site_fract_x
 _atom_site_fract_y
 _atom_site_fract_z
 _atom_site_occupancy
  Dy  Dy0  1  0.666330  0.330911  0.000000  1
  Dy  Dy1  1  0.334638  0.668343  0.000000  1
  Dy  Dy2  1  0.184470  0.186129  0.500000  1
  Dy  Dy3  1  0.999882  0.813044  0.500000  1
  Tm  Tm4  1  0.814288  0.001146  0.500000  1
  P  P5  1  0.635915  0.999504  0.000000  1
  P  P6  1  0.364414  0.364736  0.000000  1
  P  P7  1  0.000229  0.634960  0.000000  1
  P  P8  1  0.688408  0.519215  0.500000  1
  P  P9  1  0.829415  0.307662  0.500000  1
  P  P10  1  0.316940  0.834757  0.500000  1
  P  P11  1  0.519350  0.690458  0.500000  1
  P  P12  1  0.180521  0.000132  0.000000  1
  P  P13  1  0.818682  0.818480  0.000000  1
  P  P14  1  0.996532  0.181239  0.000000  1
  P  P15  1  0.478750  0.167395  0.500000  1
  P  P16  1  0.168863  0.481072  0.500000  1
  Ru  Ru17  1  0.513361  0.872766  0.500000  1
  Ru  Ru18  1  0.716064  0.716529  0.500000  1
  Ru  Ru19  1  0.000197  0.284283  0.500000  1
  Ru  Ru20  1  0.817449  0.194794  0.000000  1
  Ru  Ru21  1  0.281186  0.999617  0.500000  1
  Rh  Rh22  1  0.625354  0.805986  0.000000  1
  Rh  Rh23  1  0.182724  0.377222  0.000000  1
  Rh  Rh24  1  0.375669  0.182025  0.000000  1
  Rh  Rh25  1  0.193880  0.818403  0.000000  1
  Rh  Rh26  1  0.804603  0.622328  0.000000  1
  Rh  Rh27  1  0.869358  0.507630  0.500000  1
  Rh  Rh28  1  0.491478  0.360145  0.500000  1
  Rh  Rh29  1  0.635904  0.127277  0.500000  1
  Rh  Rh30  1  0.132677  0.641628  0.500000  1
  Rh  Rh31  1  0.361046  0.490961  0.500000  1
  Rh  Rh32  1  0.998806  0.000184  0.000000  1
  Rh  Rh33  1  0.452575  0.998930  0.000000  1
  Rh  Rh34  1  0.548051  0.547296  0.000000  1
  Rh  Rh35  1  0.001995  0.452807  0.000000  1
