# generated using pymatgen
data_La12Co4NiSn
_symmetry_space_group_name_H-M   'P 1'
_cell_length_a   8.75758776
_cell_length_b   8.75829058
_cell_length_c   8.75758700
_cell_angle_alpha   112.56889512
_cell_angle_beta   109.92337476
_cell_angle_gamma   105.98525510
_symmetry_Int_Tables_number   1
_chemical_formula_structural   La12Co4NiSn
_chemical_formula_sum   'La12 Co4 Ni1 Sn1'
_cell_volume   515.39376187
_cell_formula_units_Z   1
loop_
 _symmetry_equiv_pos_site_id
 _symmetry_equiv_pos_as_xyz
  1  'x, y, z'
loop_
 _atom_site_type_symbol
 _atom_site_label
 _atom_site_symmetry_multiplicity
 _atom_site_fract_x
 _atom_site_fract_y
 _atom_site_fract_z
 _atom_site_occupancy
  La  La0  1  0.386928  0.196751  0.190159  1
  La  La1  1  0.613072  0.803249  0.809841  1
  La  La2  1  0.006592  0.196751  0.809825  1
  La  La3  1  0.993408  0.803249  0.190175  1
  La  La4  1  0.177683  0.311230  0.488903  1
  La  La5  1  0.822317  0.688770  0.511097  1
  La  La6  1  0.177673  0.688770  0.866455  1
  La  La7  1  0.822327  0.311230  0.133545  1
  La  La8  1  0.327990  0.641526  0.313537  1
  La  La9  1  0.672010  0.358474  0.686463  1
  La  La10  1  0.328002  0.014419  0.686416  1
  La  La11  1  0.671998  0.985581  0.313584  1
  Co  Co12  1  0.352243  0.000000  0.352243  1
  Co  Co13  1  0.647757  0.000000  0.647757  1
  Co  Co14  1  0.132677  0.632665  0.499989  1
  Co  Co15  1  0.867323  0.367335  0.500011  1
  Ni  Ni16  1  0.000000  0.000000  0.000000  1
  Sn  Sn17  1  0.500000  0.500000  0.000000  1
