# generated using pymatgen
data_Rb3Na3(TaSe4)2
_symmetry_space_group_name_H-M   'P 1'
_cell_length_a   14.20103076
_cell_length_b   14.20103090
_cell_length_c   14.52987226
_cell_angle_alpha   62.64311632
_cell_angle_beta   62.64311538
_cell_angle_gamma   27.93337714
_symmetry_Int_Tables_number   1
_chemical_formula_structural   Rb3Na3(TaSe4)2
_chemical_formula_sum   'Rb6 Na6 Ta4 Se16'
_cell_volume   1208.99860605
_cell_formula_units_Z   2
loop_
 _symmetry_equiv_pos_site_id
 _symmetry_equiv_pos_as_xyz
  1  'x, y, z'
loop_
 _atom_site_type_symbol
 _atom_site_label
 _atom_site_symmetry_multiplicity
 _atom_site_fract_x
 _atom_site_fract_y
 _atom_site_fract_z
 _atom_site_occupancy
  Rb  Rb0  1  0.186317  0.415642  0.615519  1
  Rb  Rb1  1  0.813683  0.584358  0.384481  1
  Rb  Rb2  1  0.415642  0.186317  0.115519  1
  Rb  Rb3  1  0.000000  0.000000  0.500000  1
  Rb  Rb4  1  0.584358  0.813683  0.884481  1
  Rb  Rb5  1  0.000000  0.000000  0.000000  1
  Na  Na6  1  0.379224  0.620776  0.250000  1
  Na  Na7  1  0.058147  0.675536  0.816636  1
  Na  Na8  1  0.620776  0.379224  0.750000  1
  Na  Na9  1  0.675536  0.058147  0.316636  1
  Na  Na10  1  0.324464  0.941853  0.683364  1
  Na  Na11  1  0.941853  0.324464  0.183364  1
  Ta  Ta12  1  0.179012  0.558446  0.276024  1
  Ta  Ta13  1  0.558446  0.179012  0.776024  1
  Ta  Ta14  1  0.441554  0.820988  0.223976  1
  Ta  Ta15  1  0.820988  0.441554  0.723976  1
  Se  Se16  1  0.709065  0.716004  0.113333  1
  Se  Se17  1  0.589408  0.534149  0.349476  1
  Se  Se18  1  0.245900  0.946684  0.117428  1
  Se  Se19  1  0.410592  0.465851  0.650524  1
  Se  Se20  1  0.946684  0.245900  0.617428  1
  Se  Se21  1  0.079045  0.230300  0.819763  1
  Se  Se22  1  0.716004  0.709065  0.613333  1
  Se  Se23  1  0.465851  0.410592  0.150524  1
  Se  Se24  1  0.534149  0.589408  0.849476  1
  Se  Se25  1  0.283996  0.290935  0.386667  1
  Se  Se26  1  0.769700  0.920955  0.680237  1
  Se  Se27  1  0.754100  0.053316  0.882572  1
  Se  Se28  1  0.290935  0.283996  0.886667  1
  Se  Se29  1  0.053316  0.754100  0.382572  1
  Se  Se30  1  0.920955  0.769700  0.180237  1
  Se  Se31  1  0.230300  0.079045  0.319763  1
