# generated using pymatgen
data_HfTi3(SnRh5)2
_symmetry_space_group_name_H-M   'P 1'
_cell_length_a   4.06059700
_cell_length_b   5.54511298
_cell_length_c   10.97473135
_cell_angle_alpha   90.06383409
_cell_angle_beta   90.00000000
_cell_angle_gamma   90.00000000
_symmetry_Int_Tables_number   1
_chemical_formula_structural   HfTi3(SnRh5)2
_chemical_formula_sum   'Hf1 Ti3 Sn2 Rh10'
_cell_volume   247.11204657
_cell_formula_units_Z   1
loop_
 _symmetry_equiv_pos_site_id
 _symmetry_equiv_pos_as_xyz
  1  'x, y, z'
loop_
 _atom_site_type_symbol
 _atom_site_label
 _atom_site_symmetry_multiplicity
 _atom_site_fract_x
 _atom_site_fract_y
 _atom_site_fract_z
 _atom_site_occupancy
  Hf  Hf0  1  0.500000  0.314500  0.141042  1
  Ti  Ti1  1  0.500000  0.178011  0.641317  1
  Ti  Ti2  1  0.500000  0.820606  0.357333  1
  Ti  Ti3  1  0.500000  0.677896  0.854768  1
  Sn  Sn4  1  0.000000  0.500888  0.501186  1
  Sn  Sn5  1  0.000000  0.996090  0.996605  1
  Rh  Rh6  1  0.500000  0.214720  0.877383  1
  Rh  Rh7  1  0.500000  0.794581  0.120049  1
  Rh  Rh8  1  0.500000  0.716043  0.620151  1
  Rh  Rh9  1  0.500000  0.282828  0.387192  1
  Rh  Rh10  1  0.000000  0.445157  0.747653  1
  Rh  Rh11  1  0.000000  0.559379  0.254997  1
  Rh  Rh12  1  0.000000  0.999041  0.501435  1
  Rh  Rh13  1  0.000000  0.504550  0.996184  1
  Rh  Rh14  1  0.000000  0.050753  0.252281  1
  Rh  Rh15  1  0.000000  0.944958  0.750427  1
