# generated using pymatgen
data_K8ZnCd3H16
_symmetry_space_group_name_H-M   'P 1'
_cell_length_a   6.03112700
_cell_length_b   7.98650604
_cell_length_c   10.62283006
_cell_angle_alpha   90.01197201
_cell_angle_beta   89.99995942
_cell_angle_gamma   90.00007387
_symmetry_Int_Tables_number   1
_chemical_formula_structural   K8ZnCd3H16
_chemical_formula_sum   'K8 Zn1 Cd3 H16'
_cell_volume   511.67656036
_cell_formula_units_Z   1
loop_
 _symmetry_equiv_pos_site_id
 _symmetry_equiv_pos_as_xyz
  1  'x, y, z'
loop_
 _atom_site_type_symbol
 _atom_site_label
 _atom_site_symmetry_multiplicity
 _atom_site_fract_x
 _atom_site_fract_y
 _atom_site_fract_z
 _atom_site_occupancy
  K  K0  1  0.250004  0.166472  0.583925  1
  K  K1  1  0.250002  0.662920  0.911647  1
  K  K2  1  0.749998  0.844465  0.411802  1
  K  K3  1  0.749998  0.336135  0.095142  1
  K  K4  1  0.249996  0.482956  0.312306  1
  K  K5  1  0.250006  0.989328  0.192322  1
  K  K6  1  0.750003  0.508718  0.684894  1
  K  K7  1  0.750002  0.013539  0.809119  1
  Zn  Zn8  1  0.750000  0.265028  0.418840  1
  Cd  Cd9  1  0.250000  0.233224  0.918004  1
  Cd  Cd10  1  0.250000  0.734609  0.581690  1
  Cd  Cd11  1  0.750000  0.766110  0.081760  1
  H  H12  1  0.001057  0.316084  0.841512  1
  H  H13  1  0.499269  0.816842  0.657705  1
  H  H14  1  0.500928  0.683753  0.158832  1
  H  H15  1  0.976687  0.189098  0.347826  1
  H  H16  1  0.999071  0.683753  0.158831  1
  H  H17  1  0.523312  0.189098  0.347826  1
  H  H18  1  0.498942  0.316084  0.841512  1
  H  H19  1  0.000730  0.816842  0.657705  1
  H  H20  1  0.250000  0.004882  0.914142  1
  H  H21  1  0.250000  0.506270  0.586331  1
  H  H22  1  0.749999  0.994733  0.086583  1
  H  H23  1  0.750000  0.473110  0.413859  1
  H  H24  1  0.250000  0.812096  0.417653  1
  H  H25  1  0.249999  0.310475  0.082567  1
  H  H26  1  0.749999  0.194376  0.567865  1
  H  H27  1  0.749999  0.688998  0.917802  1
