# generated using pymatgen
data_Lu2P3Ir4
_symmetry_space_group_name_H-M   'P 1'
_cell_length_a   12.91517600
_cell_length_b   12.91517556
_cell_length_c   3.96355200
_cell_angle_alpha   90.00000000
_cell_angle_beta   90.00000000
_cell_angle_gamma   120.00000113
_symmetry_Int_Tables_number   1
_chemical_formula_structural   Lu2P3Ir4
_chemical_formula_sum   'Lu8 P12 Ir16'
_cell_volume   572.55317838
_cell_formula_units_Z   4
loop_
 _symmetry_equiv_pos_site_id
 _symmetry_equiv_pos_as_xyz
  1  'x, y, z'
loop_
 _atom_site_type_symbol
 _atom_site_label
 _atom_site_symmetry_multiplicity
 _atom_site_fract_x
 _atom_site_fract_y
 _atom_site_fract_z
 _atom_site_occupancy
  Lu  Lu0  1  0.333333  0.666667  0.500000  1
  Lu  Lu1  1  0.666667  0.333333  0.500000  1
  Lu  Lu2  1  0.000000  0.814225  0.000000  1
  Lu  Lu3  1  0.185775  0.185775  0.000000  1
  Lu  Lu4  1  0.814225  0.000000  0.000000  1
  Lu  Lu5  1  0.000000  0.446793  0.500000  1
  Lu  Lu6  1  0.553207  0.553207  0.500000  1
  Lu  Lu7  1  0.446793  0.000000  0.500000  1
  P  P8  1  0.000000  0.652720  0.500000  1
  P  P9  1  0.347280  0.347280  0.500000  1
  P  P10  1  0.652720  0.000000  0.500000  1
  P  P11  1  0.516024  0.687942  0.000000  1
  P  P12  1  0.312058  0.828083  0.000000  1
  P  P13  1  0.171917  0.483976  0.000000  1
  P  P14  1  0.483976  0.171917  0.000000  1
  P  P15  1  0.687942  0.516024  0.000000  1
  P  P16  1  0.828083  0.312058  0.000000  1
  P  P17  1  0.000000  0.175486  0.500000  1
  P  P18  1  0.824514  0.824514  0.500000  1
  P  P19  1  0.175486  0.000000  0.500000  1
  Ir  Ir20  1  0.507749  0.864811  0.000000  1
  Ir  Ir21  1  0.135189  0.642939  0.000000  1
  Ir  Ir22  1  0.357061  0.492251  0.000000  1
  Ir  Ir23  1  0.492251  0.357061  0.000000  1
  Ir  Ir24  1  0.864811  0.507749  0.000000  1
  Ir  Ir25  1  0.642939  0.135189  0.000000  1
  Ir  Ir26  1  0.000000  0.274650  0.000000  1
  Ir  Ir27  1  0.725350  0.725350  0.000000  1
  Ir  Ir28  1  0.274650  0.000000  0.000000  1
  Ir  Ir29  1  0.631052  0.809678  0.500000  1
  Ir  Ir30  1  0.190322  0.821374  0.500000  1
  Ir  Ir31  1  0.178626  0.368948  0.500000  1
  Ir  Ir32  1  0.368948  0.178626  0.500000  1
  Ir  Ir33  1  0.809678  0.631052  0.500000  1
  Ir  Ir34  1  0.821374  0.190322  0.500000  1
  Ir  Ir35  1  0.000000  0.000000  0.500000  1
