# generated using pymatgen
data_ZrPaInCoNi
_symmetry_space_group_name_H-M   'P 1'
_cell_length_a   7.40359981
_cell_length_b   7.24243297
_cell_length_c   3.41858300
_cell_angle_alpha   90.00000000
_cell_angle_beta   90.00000000
_cell_angle_gamma   90.10998489
_symmetry_Int_Tables_number   1
_chemical_formula_structural   ZrPaInCoNi
_chemical_formula_sum   'Zr2 Pa2 In2 Co2 Ni2'
_cell_volume   183.30434026
_cell_formula_units_Z   2
loop_
 _symmetry_equiv_pos_site_id
 _symmetry_equiv_pos_as_xyz
  1  'x, y, z'
loop_
 _atom_site_type_symbol
 _atom_site_label
 _atom_site_symmetry_multiplicity
 _atom_site_fract_x
 _atom_site_fract_y
 _atom_site_fract_z
 _atom_site_occupancy
  Zr  Zr0  1  0.818514  0.674353  0.500000  1
  Zr  Zr1  1  0.333740  0.828730  0.500000  1
  Pa  Pa2  1  0.680154  0.161334  0.500000  1
  Pa  Pa3  1  0.162089  0.335539  0.500000  1
  In  In4  1  0.008545  0.979239  0.000000  1
  In  In5  1  0.504326  0.513760  0.000000  1
  Co  Co6  1  0.626482  0.894975  0.000000  1
  Co  Co7  1  0.874595  0.353232  0.000000  1
  Ni  Ni8  1  0.368507  0.140692  0.000000  1
  Ni  Ni9  1  0.123048  0.618146  0.000000  1
