# generated using pymatgen
data_LaGaSiRh2
_symmetry_space_group_name_H-M   'P 1'
_cell_length_a   5.99259790
_cell_length_b   5.99259802
_cell_length_c   5.99259767
_cell_angle_alpha   138.69227081
_cell_angle_beta   138.69226825
_cell_angle_gamma   59.84439142
_symmetry_Int_Tables_number   1
_chemical_formula_structural   LaGaSiRh2
_chemical_formula_sum   'La1 Ga1 Si1 Rh2'
_cell_volume   92.81963700
_cell_formula_units_Z   1
loop_
 _symmetry_equiv_pos_site_id
 _symmetry_equiv_pos_as_xyz
  1  'x, y, z'
loop_
 _atom_site_type_symbol
 _atom_site_label
 _atom_site_symmetry_multiplicity
 _atom_site_fract_x
 _atom_site_fract_y
 _atom_site_fract_z
 _atom_site_occupancy
  La  La0  1  0.997766  0.997766  0.000000  1
  Ga  Ga1  1  0.624778  0.624778  0.000000  1
  Si  Si2  1  0.363642  0.363642  0.000000  1
  Rh  Rh3  1  0.756907  0.256907  0.500000  1
  Rh  Rh4  1  0.256907  0.756907  0.500000  1
