# generated using pymatgen
data_YbTmU2(B4Ru)4
_symmetry_space_group_name_H-M   'P 1'
_cell_length_a   3.54072900
_cell_length_b   5.94491823
_cell_length_c   11.49257836
_cell_angle_alpha   90.08834763
_cell_angle_beta   90.00000000
_cell_angle_gamma   90.00000000
_symmetry_Int_Tables_number   1
_chemical_formula_structural   YbTmU2(B4Ru)4
_chemical_formula_sum   'Yb1 Tm1 U2 B16 Ru4'
_cell_volume   241.91095235
_cell_formula_units_Z   1
loop_
 _symmetry_equiv_pos_site_id
 _symmetry_equiv_pos_as_xyz
  1  'x, y, z'
loop_
 _atom_site_type_symbol
 _atom_site_label
 _atom_site_symmetry_multiplicity
 _atom_site_fract_x
 _atom_site_fract_y
 _atom_site_fract_z
 _atom_site_occupancy
  Yb  Yb0  1  0.500000  0.628832  0.351887  1
  Tm  Tm1  1  0.500000  0.371569  0.647926  1
  U  U2  1  0.500000  0.128254  0.151792  1
  U  U3  1  0.500000  0.871975  0.849041  1
  B  B4  1  0.000000  0.474772  0.192013  1
  B  B5  1  0.000000  0.524515  0.807194  1
  B  B6  1  0.000000  0.975798  0.308502  1
  B  B7  1  0.000000  0.026639  0.691634  1
  B  B8  1  0.000000  0.288625  0.313530  1
  B  B9  1  0.000000  0.709357  0.686341  1
  B  B10  1  0.000000  0.790920  0.186671  1
  B  B11  1  0.000000  0.208908  0.812587  1
  B  B12  1  0.000000  0.363939  0.469252  1
  B  B13  1  0.000000  0.636220  0.530925  1
  B  B14  1  0.000000  0.868399  0.032955  1
  B  B15  1  0.000000  0.132123  0.967574  1
  B  B16  1  0.000000  0.386071  0.047408  1
  B  B17  1  0.000000  0.614364  0.952751  1
  B  B18  1  0.000000  0.886142  0.453844  1
  B  B19  1  0.000000  0.113676  0.545771  1
  Ru  Ru20  1  0.500000  0.138244  0.406373  1
  Ru  Ru21  1  0.500000  0.861143  0.595390  1
  Ru  Ru22  1  0.500000  0.641721  0.092516  1
  Ru  Ru23  1  0.500000  0.357793  0.906122  1
