# generated using pymatgen
data_TmU3(Ga10Tc3)2
_symmetry_space_group_name_H-M   'P 1'
_cell_length_a   8.97387782
_cell_length_b   8.97387782
_cell_length_c   6.43077200
_cell_angle_alpha   90.00000000
_cell_angle_beta   90.00000000
_cell_angle_gamma   90.09076532
_symmetry_Int_Tables_number   1
_chemical_formula_structural   TmU3(Ga10Tc3)2
_chemical_formula_sum   'Tm1 U3 Ga20 Tc6'
_cell_volume   517.87252566
_cell_formula_units_Z   1
loop_
 _symmetry_equiv_pos_site_id
 _symmetry_equiv_pos_as_xyz
  1  'x, y, z'
loop_
 _atom_site_type_symbol
 _atom_site_label
 _atom_site_symmetry_multiplicity
 _atom_site_fract_x
 _atom_site_fract_y
 _atom_site_fract_z
 _atom_site_occupancy
  Tm  Tm0  1  0.316252  0.816252  0.000000  1
  U  U1  1  0.185759  0.313690  0.000000  1
  U  U2  1  0.686431  0.186431  0.000000  1
  U  U3  1  0.813690  0.685759  0.000000  1
  Ga  Ga4  1  0.499076  0.999076  0.285005  1
  Ga  Ga5  1  0.499076  0.999076  0.714995  1
  Ga  Ga6  1  0.293692  0.560734  0.707143  1
  Ga  Ga7  1  0.001134  0.501134  0.284909  1
  Ga  Ga8  1  0.001134  0.501134  0.715091  1
  Ga  Ga9  1  0.060734  0.793692  0.707143  1
  Ga  Ga10  1  0.206080  0.057625  0.294097  1
  Ga  Ga11  1  0.060734  0.793692  0.292857  1
  Ga  Ga12  1  0.709041  0.440917  0.703688  1
  Ga  Ga13  1  0.206080  0.057625  0.705903  1
  Ga  Ga14  1  0.940917  0.209041  0.703688  1
  Ga  Ga15  1  0.709041  0.440917  0.296312  1
  Ga  Ga16  1  0.557625  0.706080  0.294097  1
  Ga  Ga17  1  0.940917  0.209041  0.296312  1
  Ga  Ga18  1  0.557625  0.706080  0.705903  1
  Ga  Ga19  1  0.790561  0.940640  0.295744  1
  Ga  Ga20  1  0.440640  0.290561  0.704256  1
  Ga  Ga21  1  0.790561  0.940640  0.704256  1
  Ga  Ga22  1  0.440640  0.290561  0.295744  1
  Ga  Ga23  1  0.293692  0.560734  0.292857  1
  Tc  Tc24  1  0.179664  0.320368  0.500000  1
  Tc  Tc25  1  0.320654  0.820654  0.500000  1
  Tc  Tc26  1  0.820368  0.679664  0.500000  1
  Tc  Tc27  1  0.994730  0.003000  0.000000  1
  Tc  Tc28  1  0.680454  0.180454  0.500000  1
  Tc  Tc29  1  0.503000  0.494730  0.000000  1
