# generated using pymatgen
data_Tb4CeAl2Os3
_symmetry_space_group_name_H-M   'P 1'
_cell_length_a   8.48724232
_cell_length_b   8.40863776
_cell_length_c   8.38580226
_cell_angle_alpha   109.85455771
_cell_angle_beta   109.29163790
_cell_angle_gamma   110.13049737
_symmetry_Int_Tables_number   1
_chemical_formula_structural   Tb4CeAl2Os3
_chemical_formula_sum   'Tb8 Ce2 Al4 Os6'
_cell_volume   455.70473928
_cell_formula_units_Z   2
loop_
 _symmetry_equiv_pos_site_id
 _symmetry_equiv_pos_as_xyz
  1  'x, y, z'
loop_
 _atom_site_type_symbol
 _atom_site_label
 _atom_site_symmetry_multiplicity
 _atom_site_fract_x
 _atom_site_fract_y
 _atom_site_fract_z
 _atom_site_occupancy
  Tb  Tb0  1  0.782308  0.785096  0.779351  1
  Tb  Tb1  1  0.320073  0.570104  0.752759  1
  Tb  Tb2  1  0.750514  0.320108  0.571949  1
  Tb  Tb3  1  0.570087  0.748098  0.317045  1
  Tb  Tb4  1  0.717452  0.502665  0.999075  1
  Tb  Tb5  1  0.000193  0.718528  0.506395  1
  Tb  Tb6  1  0.501544  0.993958  0.715380  1
  Tb  Tb7  1  0.251979  0.183136  0.928568  1
  Ce  Ce8  1  0.939127  0.251460  0.190623  1
  Ce  Ce9  1  0.191071  0.937662  0.250341  1
  Al  Al10  1  0.412374  0.409117  0.408219  1
  Al  Al11  1  0.091083  0.494288  0.998090  1
  Al  Al12  1  0.997630  0.090783  0.499743  1
  Al  Al13  1  0.501938  0.007616  0.094544  1
  Os  Os14  1  0.874462  0.122337  0.743897  1
  Os  Os15  1  0.750839  0.894685  0.123234  1
  Os  Os16  1  0.129329  0.757742  0.899432  1
  Os  Os17  1  0.234085  0.601593  0.365662  1
  Os  Os18  1  0.360506  0.231294  0.603218  1
  Os  Os19  1  0.623405  0.379729  0.252473  1
