# generated using pymatgen
data_TbYb7SbPd24
_symmetry_space_group_name_H-M   'P 1'
_cell_length_a   8.37745701
_cell_length_b   8.37745701
_cell_length_c   8.37745701
_cell_angle_alpha   89.99630673
_cell_angle_beta   89.99630673
_cell_angle_gamma   89.99630673
_symmetry_Int_Tables_number   1
_chemical_formula_structural   TbYb7SbPd24
_chemical_formula_sum   'Tb1 Yb7 Sb1 Pd24'
_cell_volume   587.94489078
_cell_formula_units_Z   1
loop_
 _symmetry_equiv_pos_site_id
 _symmetry_equiv_pos_as_xyz
  1  'x, y, z'
loop_
 _atom_site_type_symbol
 _atom_site_label
 _atom_site_symmetry_multiplicity
 _atom_site_fract_x
 _atom_site_fract_y
 _atom_site_fract_z
 _atom_site_occupancy
  Tb  Tb0  1  0.253347  0.253347  0.253347  1
  Yb  Yb1  1  0.747240  0.747240  0.252817  1
  Yb  Yb2  1  0.747240  0.252817  0.747240  1
  Yb  Yb3  1  0.252817  0.747240  0.747240  1
  Yb  Yb4  1  0.747130  0.747130  0.747130  1
  Yb  Yb5  1  0.747191  0.252814  0.252814  1
  Yb  Yb6  1  0.252814  0.252814  0.747191  1
  Yb  Yb7  1  0.252814  0.747191  0.252814  1
  Sb  Sb8  1  0.999696  0.999696  0.999696  1
  Pd  Pd9  1  0.999531  0.999531  0.308584  1
  Pd  Pd10  1  0.734616  0.000123  0.500078  1
  Pd  Pd11  1  0.734616  0.500078  0.000123  1
  Pd  Pd12  1  0.500078  0.000123  0.734616  1
  Pd  Pd13  1  0.000123  0.734616  0.500078  1
  Pd  Pd14  1  0.500236  0.999720  0.265315  1
  Pd  Pd15  1  0.999720  0.265315  0.500236  1
  Pd  Pd16  1  0.500078  0.734616  0.000123  1
  Pd  Pd17  1  0.254609  0.500256  0.500256  1
  Pd  Pd18  1  0.499943  0.499943  0.745458  1
  Pd  Pd19  1  0.500256  0.500256  0.254609  1
  Pd  Pd20  1  0.500256  0.254609  0.500256  1
  Pd  Pd21  1  0.499943  0.745458  0.499943  1
  Pd  Pd22  1  0.745458  0.499943  0.499943  1
  Pd  Pd23  1  0.308584  0.999531  0.999531  1
  Pd  Pd24  1  0.999962  0.999962  0.691502  1
  Pd  Pd25  1  0.999720  0.500236  0.265315  1
  Pd  Pd26  1  0.999531  0.308584  0.999531  1
  Pd  Pd27  1  0.999962  0.691502  0.999962  1
  Pd  Pd28  1  0.691502  0.999962  0.999962  1
  Pd  Pd29  1  0.265315  0.500236  0.999720  1
  Pd  Pd30  1  0.265315  0.999720  0.500236  1
  Pd  Pd31  1  0.000123  0.500078  0.734616  1
  Pd  Pd32  1  0.500236  0.265315  0.999720  1
