# generated using pymatgen
data_Tb6Sc4(SnBi)3
_symmetry_space_group_name_H-M   'P 1'
_cell_length_a   8.92469300
_cell_length_b   8.92377490
_cell_length_c   6.26960000
_cell_angle_alpha   90.00000000
_cell_angle_beta   90.00000000
_cell_angle_gamma   120.00339967
_symmetry_Int_Tables_number   1
_chemical_formula_structural   Tb6Sc4(SnBi)3
_chemical_formula_sum   'Tb6 Sc4 Sn3 Bi3'
_cell_volume   432.41174268
_cell_formula_units_Z   1
loop_
 _symmetry_equiv_pos_site_id
 _symmetry_equiv_pos_as_xyz
  1  'x, y, z'
loop_
 _atom_site_type_symbol
 _atom_site_label
 _atom_site_symmetry_multiplicity
 _atom_site_fract_x
 _atom_site_fract_y
 _atom_site_fract_z
 _atom_site_occupancy
  Tb  Tb0  1  0.761966  0.000000  0.750000  1
  Tb  Tb1  1  0.758767  0.763360  0.250000  1
  Tb  Tb2  1  0.243177  0.000000  0.250000  1
  Tb  Tb3  1  0.239744  0.244292  0.750000  1
  Tb  Tb4  1  0.995452  0.755708  0.750000  1
  Tb  Tb5  1  0.995407  0.236640  0.250000  1
  Sc  Sc6  1  0.334751  0.666507  0.502181  1
  Sc  Sc7  1  0.668246  0.333493  0.997819  1
  Sc  Sc8  1  0.668246  0.333493  0.502181  1
  Sc  Sc9  1  0.334751  0.666507  0.997819  1
  Sn  Sn10  1  0.000372  0.398835  0.750000  1
  Sn  Sn11  1  0.601538  0.601165  0.750000  1
  Sn  Sn12  1  0.600145  0.000000  0.250000  1
  Bi  Bi13  1  0.397999  0.000000  0.750000  1
  Bi  Bi14  1  0.399147  0.398855  0.250000  1
  Bi  Bi15  1  0.000292  0.601145  0.250000  1
