# generated using pymatgen
data_Lu20Bi11Au
_symmetry_space_group_name_H-M   'P 1'
_cell_length_a   8.07435056
_cell_length_b   9.37044800
_cell_length_c   11.78126465
_cell_angle_alpha   90.00000000
_cell_angle_beta   89.70627425
_cell_angle_gamma   90.00000000
_symmetry_Int_Tables_number   1
_chemical_formula_structural   Lu20Bi11Au
_chemical_formula_sum   'Lu20 Bi11 Au1'
_cell_volume   891.36209354
_cell_formula_units_Z   1
loop_
 _symmetry_equiv_pos_site_id
 _symmetry_equiv_pos_as_xyz
  1  'x, y, z'
loop_
 _atom_site_type_symbol
 _atom_site_label
 _atom_site_symmetry_multiplicity
 _atom_site_fract_x
 _atom_site_fract_y
 _atom_site_fract_z
 _atom_site_occupancy
  Lu  Lu0  1  0.040107  0.250000  0.507597  1
  Lu  Lu1  1  0.981080  0.750000  0.490792  1
  Lu  Lu2  1  0.476108  0.750000  0.010319  1
  Lu  Lu3  1  0.525252  0.250000  0.990374  1
  Lu  Lu4  1  0.357588  0.250000  0.295532  1
  Lu  Lu5  1  0.647690  0.750000  0.718195  1
  Lu  Lu6  1  0.149451  0.750000  0.780923  1
  Lu  Lu7  1  0.852752  0.250000  0.216936  1
  Lu  Lu8  1  0.197146  0.250000  0.777603  1
  Lu  Lu9  1  0.808188  0.750000  0.216096  1
  Lu  Lu10  1  0.312376  0.750000  0.282038  1
  Lu  Lu11  1  0.671372  0.250000  0.708406  1
  Lu  Lu12  1  0.193775  0.067294  0.061559  1
  Lu  Lu13  1  0.805771  0.932775  0.940615  1
  Lu  Lu14  1  0.309527  0.953204  0.559174  1
  Lu  Lu15  1  0.805771  0.567225  0.940615  1
  Lu  Lu16  1  0.683855  0.073380  0.445939  1
  Lu  Lu17  1  0.193775  0.432706  0.061559  1
  Lu  Lu18  1  0.683855  0.426620  0.445939  1
  Lu  Lu19  1  0.309527  0.546796  0.559174  1
  Bi  Bi20  1  0.595889  0.750000  0.457331  1
  Bi  Bi21  1  0.096584  0.750000  0.042470  1
  Bi  Bi22  1  0.905676  0.250000  0.953209  1
  Bi  Bi23  1  0.060364  0.001099  0.322834  1
  Bi  Bi24  1  0.935074  0.998523  0.676104  1
  Bi  Bi25  1  0.435713  0.996316  0.826448  1
  Bi  Bi26  1  0.935074  0.501477  0.676104  1
  Bi  Bi27  1  0.564076  0.004125  0.175282  1
  Bi  Bi28  1  0.060364  0.498901  0.322834  1
  Bi  Bi29  1  0.564076  0.495875  0.175282  1
  Bi  Bi30  1  0.435713  0.503684  0.826448  1
  Au  Au31  1  0.406435  0.250000  0.536269  1
