# generated using pymatgen
data_Np3U(Al3Ir)6
_symmetry_space_group_name_H-M   'P 1'
_cell_length_a   7.59550340
_cell_length_b   7.59172277
_cell_length_c   9.43074300
_cell_angle_alpha   90.00000000
_cell_angle_beta   90.00000000
_cell_angle_gamma   119.38598864
_symmetry_Int_Tables_number   1
_chemical_formula_structural   Np3U(Al3Ir)6
_chemical_formula_sum   'Np3 U1 Al18 Ir6'
_cell_volume   473.83527635
_cell_formula_units_Z   1
loop_
 _symmetry_equiv_pos_site_id
 _symmetry_equiv_pos_as_xyz
  1  'x, y, z'
loop_
 _atom_site_type_symbol
 _atom_site_label
 _atom_site_symmetry_multiplicity
 _atom_site_fract_x
 _atom_site_fract_y
 _atom_site_fract_z
 _atom_site_occupancy
  Np  Np0  1  0.005369  0.327537  0.750000  1
  Np  Np1  1  0.671590  0.994789  0.250000  1
  Np  Np2  1  0.327365  0.004995  0.750000  1
  U  U3  1  0.996673  0.671751  0.250000  1
  Al  Al4  1  0.130022  0.129835  0.250000  1
  Al  Al5  1  0.870454  0.870465  0.750000  1
  Al  Al6  1  0.000177  0.334350  0.075444  1
  Al  Al7  1  0.998525  0.662417  0.924531  1
  Al  Al8  1  0.998525  0.662417  0.575469  1
  Al  Al9  1  0.337817  0.002801  0.424413  1
  Al  Al10  1  0.000177  0.334350  0.424556  1
  Al  Al11  1  0.662931  0.999075  0.575376  1
  Al  Al12  1  0.662931  0.999075  0.924624  1
  Al  Al13  1  0.337817  0.002801  0.075587  1
  Al  Al14  1  0.334677  0.334909  0.553681  1
  Al  Al15  1  0.665752  0.666647  0.447314  1
  Al  Al16  1  0.665752  0.666647  0.052686  1
  Al  Al17  1  0.334677  0.334909  0.946319  1
  Al  Al18  1  0.339791  0.547316  0.250000  1
  Al  Al19  1  0.659934  0.450239  0.750000  1
  Al  Al20  1  0.548077  0.341172  0.250000  1
  Al  Al21  1  0.450199  0.659938  0.750000  1
  Ir  Ir22  1  0.672044  0.329617  0.001587  1
  Ir  Ir23  1  0.327724  0.671767  0.001922  1
  Ir  Ir24  1  0.327724  0.671767  0.498078  1
  Ir  Ir25  1  0.672044  0.329617  0.498413  1
  Ir  Ir26  1  0.000616  0.999400  0.000364  1
  Ir  Ir27  1  0.000616  0.999400  0.499636  1
