# generated using pymatgen
data_Sc4SnPt11
_symmetry_space_group_name_H-M   'P 1'
_cell_length_a   4.06948300
_cell_length_b   5.74390551
_cell_length_c   11.36852232
_cell_angle_alpha   87.74164910
_cell_angle_beta   90.00000000
_cell_angle_gamma   90.00000000
_symmetry_Int_Tables_number   1
_chemical_formula_structural   Sc4SnPt11
_chemical_formula_sum   'Sc4 Sn1 Pt11'
_cell_volume   265.52969577
_cell_formula_units_Z   1
loop_
 _symmetry_equiv_pos_site_id
 _symmetry_equiv_pos_as_xyz
  1  'x, y, z'
loop_
 _atom_site_type_symbol
 _atom_site_label
 _atom_site_symmetry_multiplicity
 _atom_site_fract_x
 _atom_site_fract_y
 _atom_site_fract_z
 _atom_site_occupancy
  Sc  Sc0  1  0.500000  0.753218  0.377253  1
  Sc  Sc1  1  0.500000  0.718149  0.859689  1
  Sc  Sc2  1  0.500000  0.281851  0.140311  1
  Sc  Sc3  1  0.500000  0.246782  0.622747  1
  Sn  Sn4  1  0.000000  0.000000  0.000000  1
  Pt  Pt5  1  0.000000  0.014333  0.249236  1
  Pt  Pt6  1  0.000000  0.985667  0.750764  1
  Pt  Pt7  1  0.000000  0.500000  0.000000  1
  Pt  Pt8  1  0.000000  0.500000  0.500000  1
  Pt  Pt9  1  0.000000  0.512237  0.249689  1
  Pt  Pt10  1  0.000000  0.487763  0.750311  1
  Pt  Pt11  1  0.500000  0.252957  0.376973  1
  Pt  Pt12  1  0.500000  0.233707  0.881366  1
  Pt  Pt13  1  0.500000  0.766293  0.118634  1
  Pt  Pt14  1  0.500000  0.747043  0.623027  1
  Pt  Pt15  1  0.000000  0.000000  0.500000  1
