# generated using pymatgen
data_Tb18Y2Zn3Cd3Ru2
_symmetry_space_group_name_H-M   'P 1'
_cell_length_a   9.57640304
_cell_length_b   9.57640299
_cell_length_c   9.75901800
_cell_angle_alpha   90.00000000
_cell_angle_beta   90.00000000
_cell_angle_gamma   120.01017391
_symmetry_Int_Tables_number   1
_chemical_formula_structural   Tb18Y2Zn3Cd3Ru2
_chemical_formula_sum   'Tb18 Y2 Zn3 Cd3 Ru2'
_cell_volume   774.99169298
_cell_formula_units_Z   1
loop_
 _symmetry_equiv_pos_site_id
 _symmetry_equiv_pos_as_xyz
  1  'x, y, z'
loop_
 _atom_site_type_symbol
 _atom_site_label
 _atom_site_symmetry_multiplicity
 _atom_site_fract_x
 _atom_site_fract_y
 _atom_site_fract_z
 _atom_site_occupancy
  Tb  Tb0  1  0.999987  0.000013  0.474407  1
  Tb  Tb1  1  0.999987  0.000013  0.025593  1
  Tb  Tb2  1  0.208230  0.791770  0.438453  1
  Tb  Tb3  1  0.208283  0.416528  0.438484  1
  Tb  Tb4  1  0.583472  0.791717  0.438484  1
  Tb  Tb5  1  0.790743  0.209257  0.557626  1
  Tb  Tb6  1  0.790726  0.581485  0.557656  1
  Tb  Tb7  1  0.418515  0.209274  0.557656  1
  Tb  Tb8  1  0.790743  0.209257  0.942374  1
  Tb  Tb9  1  0.790726  0.581485  0.942344  1
  Tb  Tb10  1  0.418515  0.209274  0.942344  1
  Tb  Tb11  1  0.208230  0.791770  0.061547  1
  Tb  Tb12  1  0.208283  0.416528  0.061516  1
  Tb  Tb13  1  0.583472  0.791717  0.061516  1
  Tb  Tb14  1  0.541524  0.458476  0.250000  1
  Tb  Tb15  1  0.541534  0.083039  0.250000  1
  Tb  Tb16  1  0.916961  0.458466  0.250000  1
  Tb  Tb17  1  0.458861  0.541139  0.750000  1
  Y  Y18  1  0.458759  0.917607  0.750000  1
  Y  Y19  1  0.082393  0.541241  0.750000  1
  Zn  Zn20  1  0.878393  0.121607  0.250000  1
  Zn  Zn21  1  0.878406  0.756779  0.250000  1
  Zn  Zn22  1  0.243221  0.121594  0.250000  1
  Cd  Cd23  1  0.110503  0.889497  0.750000  1
  Cd  Cd24  1  0.110481  0.220948  0.750000  1
  Cd  Cd25  1  0.779052  0.889519  0.750000  1
  Ru  Ru26  1  0.333356  0.666644  0.250000  1
  Ru  Ru27  1  0.666640  0.333360  0.750000  1
