# generated using pymatgen
data_TbEr(Be12Cu)2
_symmetry_space_group_name_H-M   'P 1'
_cell_length_a   7.25177480
_cell_length_b   7.30517631
_cell_length_c   7.23731331
_cell_angle_alpha   59.82075643
_cell_angle_beta   59.77090722
_cell_angle_gamma   59.62486012
_symmetry_Int_Tables_number   1
_chemical_formula_structural   TbEr(Be12Cu)2
_chemical_formula_sum   'Tb1 Er1 Be24 Cu2'
_cell_volume   269.49533697
_cell_formula_units_Z   1
loop_
 _symmetry_equiv_pos_site_id
 _symmetry_equiv_pos_as_xyz
  1  'x, y, z'
loop_
 _atom_site_type_symbol
 _atom_site_label
 _atom_site_symmetry_multiplicity
 _atom_site_fract_x
 _atom_site_fract_y
 _atom_site_fract_z
 _atom_site_occupancy
  Tb  Tb0  1  0.252918  0.247082  0.252918  1
  Er  Er1  1  0.747259  0.752741  0.747259  1
  Be  Be2  1  0.500028  0.499972  0.500028  1
  Be  Be3  1  0.000001  0.999999  0.000001  1
  Be  Be4  1  0.565192  0.793377  0.435398  1
  Be  Be5  1  0.435398  0.206033  0.565192  1
  Be  Be6  1  0.290618  0.935869  0.709881  1
  Be  Be7  1  0.709881  0.063632  0.290618  1
  Be  Be8  1  0.930655  0.278586  0.069094  1
  Be  Be9  1  0.069094  0.721665  0.930655  1
  Be  Be10  1  0.207628  0.799553  0.557821  1
  Be  Be11  1  0.792039  0.199927  0.442636  1
  Be  Be12  1  0.442636  0.565396  0.792039  1
  Be  Be13  1  0.557821  0.434999  0.207628  1
  Be  Be14  1  0.711675  0.286469  0.935989  1
  Be  Be15  1  0.288728  0.713725  0.063693  1
  Be  Be16  1  0.063693  0.933853  0.288728  1
  Be  Be17  1  0.935989  0.065868  0.711675  1
  Be  Be18  1  0.566618  0.206115  0.791427  1
  Be  Be19  1  0.433750  0.793439  0.208158  1
  Be  Be20  1  0.791427  0.435841  0.566618  1
  Be  Be21  1  0.208158  0.564652  0.433750  1
  Be  Be22  1  0.936065  0.712421  0.291632  1
  Be  Be23  1  0.063519  0.287885  0.708872  1
  Be  Be24  1  0.291632  0.059883  0.936065  1
  Be  Be25  1  0.708872  0.939723  0.063519  1
  Cu  Cu26  1  0.802917  0.558301  0.195789  1
  Cu  Cu27  1  0.195789  0.442992  0.802917  1
