# generated using pymatgen
data_Be11V(CoIr)6
_symmetry_space_group_name_H-M   'P 1'
_cell_length_a   3.87969600
_cell_length_b   5.47777400
_cell_length_c   11.59107800
_cell_angle_alpha   90.00000000
_cell_angle_beta   90.00180544
_cell_angle_gamma   90.00000000
_symmetry_Int_Tables_number   1
_chemical_formula_structural   Be11V(CoIr)6
_chemical_formula_sum   'Be11 V1 Co6 Ir6'
_cell_volume   246.33472409
_cell_formula_units_Z   1
loop_
 _symmetry_equiv_pos_site_id
 _symmetry_equiv_pos_as_xyz
  1  'x, y, z'
loop_
 _atom_site_type_symbol
 _atom_site_label
 _atom_site_symmetry_multiplicity
 _atom_site_fract_x
 _atom_site_fract_y
 _atom_site_fract_z
 _atom_site_occupancy
  Be  Be0  1  0.500001  0.742641  0.000000  1
  Be  Be1  1  0.000127  0.248811  0.166128  1
  Be  Be2  1  0.000143  0.750898  0.171028  1
  Be  Be3  1  0.500198  0.247255  0.334422  1
  Be  Be4  1  0.500182  0.756329  0.340816  1
  Be  Be5  1  0.000000  0.251259  0.500000  1
  Be  Be6  1  0.000000  0.748745  0.500000  1
  Be  Be7  1  0.499802  0.247255  0.665578  1
  Be  Be8  1  0.499818  0.756329  0.659184  1
  Be  Be9  1  0.999873  0.248811  0.833872  1
  Be  Be10  1  0.999857  0.750898  0.828972  1
  V  V11  1  0.500001  0.251511  0.000000  1
  Co  Co12  1  0.000000  0.507246  0.000000  1
  Co  Co13  1  0.500109  0.995368  0.169933  1
  Co  Co14  1  0.000142  0.499958  0.334071  1
  Co  Co15  1  0.500001  0.003386  0.500000  1
  Co  Co16  1  0.999857  0.499958  0.665930  1
  Co  Co17  1  0.499891  0.995368  0.830068  1
  Ir  Ir18  1  0.000000  0.982757  0.000000  1
  Ir  Ir19  1  0.500122  0.507222  0.173441  1
  Ir  Ir20  1  0.000159  0.001596  0.334611  1
  Ir  Ir21  1  0.500001  0.497572  0.500000  1
  Ir  Ir22  1  0.999843  0.001596  0.665389  1
  Ir  Ir23  1  0.499878  0.507222  0.826559  1
