# generated using pymatgen
data_ReI3Br8
_symmetry_space_group_name_H-M   'P 1'
_cell_length_a   7.80888633
_cell_length_b   8.10651288
_cell_length_c   8.34428560
_cell_angle_alpha   94.70577454
_cell_angle_beta   91.67998277
_cell_angle_gamma   102.48966929
_symmetry_Int_Tables_number   1
_chemical_formula_structural   ReI3Br8
_chemical_formula_sum   'Re1 I3 Br8'
_cell_volume   513.37685617
_cell_formula_units_Z   1
loop_
 _symmetry_equiv_pos_site_id
 _symmetry_equiv_pos_as_xyz
  1  'x, y, z'
loop_
 _atom_site_type_symbol
 _atom_site_label
 _atom_site_symmetry_multiplicity
 _atom_site_fract_x
 _atom_site_fract_y
 _atom_site_fract_z
 _atom_site_occupancy
  Re  Re0  1  0.000000  0.500000  0.500000  1
  I  I1  1  0.312581  0.234035  0.158057  1
  I  I2  1  0.000000  0.000000  0.000000  1
  I  I3  1  0.687419  0.765965  0.841943  1
  Br  Br4  1  0.500927  0.243763  0.907277  1
  Br  Br5  1  0.499073  0.756237  0.092723  1
  Br  Br6  1  0.864258  0.759343  0.537017  1
  Br  Br7  1  0.910184  0.470353  0.212589  1
  Br  Br8  1  0.135742  0.240657  0.462983  1
  Br  Br9  1  0.282544  0.688964  0.443850  1
  Br  Br10  1  0.717456  0.311036  0.556150  1
  Br  Br11  1  0.089816  0.529647  0.787411  1
