# generated using pymatgen
data_Sm3Pa3(Ni3As4)2
_symmetry_space_group_name_H-M   'P 1'
_cell_length_a   7.83356231
_cell_length_b   7.83393815
_cell_length_c   7.83356072
_cell_angle_alpha   109.40591756
_cell_angle_beta   109.48307301
_cell_angle_gamma   109.52274088
_symmetry_Int_Tables_number   1
_chemical_formula_structural   Sm3Pa3(Ni3As4)2
_chemical_formula_sum   'Sm3 Pa3 Ni6 As8'
_cell_volume   370.07245409
_cell_formula_units_Z   1
loop_
 _symmetry_equiv_pos_site_id
 _symmetry_equiv_pos_as_xyz
  1  'x, y, z'
loop_
 _atom_site_type_symbol
 _atom_site_label
 _atom_site_symmetry_multiplicity
 _atom_site_fract_x
 _atom_site_fract_y
 _atom_site_fract_z
 _atom_site_occupancy
  Sm  Sm0  1  0.628542  0.750000  0.378542  1
  Sm  Sm1  1  0.250077  0.126619  0.875756  1
  Sm  Sm2  1  0.749139  0.373381  0.623459  1
  Pa  Pa3  1  0.127625  0.877800  0.250271  1
  Pa  Pa4  1  0.372471  0.622200  0.749823  1
  Pa  Pa5  1  0.871613  0.250000  0.121613  1
  Ni  Ni6  1  0.639166  0.367863  0.243094  1
  Ni  Ni7  1  0.875231  0.132137  0.771304  1
  Ni  Ni8  1  0.367393  0.250000  0.617393  1
  Ni  Ni9  1  0.130747  0.750000  0.880747  1
  Ni  Ni10  1  0.237494  0.618273  0.371743  1
  Ni  Ni11  1  0.753469  0.881727  0.119221  1
  As  As12  1  0.339231  0.340431  0.339308  1
  As  As13  1  0.160065  0.501319  0.999280  1
  As  As14  1  0.998878  0.159569  0.498801  1
  As  As15  1  0.840246  0.838274  0.840896  1
  As  As16  1  0.497961  0.998681  0.158747  1
  As  As17  1  0.660129  0.502384  0.000287  1
  As  As18  1  0.497903  0.997616  0.657745  1
  As  As19  1  0.002622  0.661726  0.501971  1
