# generated using pymatgen
data_NdH5Ru
_symmetry_space_group_name_H-M   'P 1'
_cell_length_a   4.52097800
_cell_length_b   4.80819600
_cell_length_c   12.02886600
_cell_angle_alpha   90.00000000
_cell_angle_beta   90.00000000
_cell_angle_gamma   90.00000000
_symmetry_Int_Tables_number   1
_chemical_formula_structural   NdH5Ru
_chemical_formula_sum   'Nd4 H20 Ru4'
_cell_volume   261.48046187
_cell_formula_units_Z   4
loop_
 _symmetry_equiv_pos_site_id
 _symmetry_equiv_pos_as_xyz
  1  'x, y, z'
loop_
 _atom_site_type_symbol
 _atom_site_label
 _atom_site_symmetry_multiplicity
 _atom_site_fract_x
 _atom_site_fract_y
 _atom_site_fract_z
 _atom_site_occupancy
  Nd  Nd0  1  0.272372  0.169579  0.647501  1
  Nd  Nd1  1  0.772372  0.330421  0.352499  1
  Nd  Nd2  1  0.227628  0.830421  0.147501  1
  Nd  Nd3  1  0.727628  0.669579  0.852499  1
  H  H4  1  0.563675  0.389767  0.521352  1
  H  H5  1  0.063675  0.110233  0.478648  1
  H  H6  1  0.936325  0.610233  0.021352  1
  H  H7  1  0.436325  0.889767  0.978648  1
  H  H8  1  0.148223  0.950058  0.818816  1
  H  H9  1  0.648223  0.549942  0.181184  1
  H  H10  1  0.351777  0.049942  0.318816  1
  H  H11  1  0.851777  0.450058  0.681184  1
  H  H12  1  0.205023  0.451680  0.831147  1
  H  H13  1  0.705023  0.048320  0.168853  1
  H  H14  1  0.294977  0.548320  0.331147  1
  H  H15  1  0.794977  0.951680  0.668853  1
  H  H16  1  0.604795  0.165136  0.826068  1
  H  H17  1  0.104795  0.334864  0.173932  1
  H  H18  1  0.895205  0.834864  0.326068  1
  H  H19  1  0.395205  0.665136  0.673932  1
  H  H20  1  0.980000  0.093610  0.994196  1
  H  H21  1  0.480000  0.406390  0.005804  1
  H  H22  1  0.520000  0.906390  0.494196  1
  H  H23  1  0.020000  0.593610  0.505804  1
  Ru  Ru24  1  0.310127  0.166639  0.909671  1
  Ru  Ru25  1  0.810127  0.333361  0.090329  1
  Ru  Ru26  1  0.189873  0.833361  0.409671  1
  Ru  Ru27  1  0.689873  0.666639  0.590329  1
