# generated using pymatgen
data_TaNb9SiB4P
_symmetry_space_group_name_H-M   'P 1'
_cell_length_a   7.31258046
_cell_length_b   7.31258205
_cell_length_c   7.31258100
_cell_angle_alpha   129.37651545
_cell_angle_beta   129.37652368
_cell_angle_gamma   74.40548619
_symmetry_Int_Tables_number   1
_chemical_formula_structural   TaNb9SiB4P
_chemical_formula_sum   'Ta1 Nb9 Si1 B4 P1'
_cell_volume   227.72893547
_cell_formula_units_Z   1
loop_
 _symmetry_equiv_pos_site_id
 _symmetry_equiv_pos_as_xyz
  1  'x, y, z'
loop_
 _atom_site_type_symbol
 _atom_site_label
 _atom_site_symmetry_multiplicity
 _atom_site_fract_x
 _atom_site_fract_y
 _atom_site_fract_z
 _atom_site_occupancy
  Ta  Ta0  1  0.998757  0.998757  0.000000  1
  Nb  Nb1  1  0.501020  0.501020  0.000000  1
  Nb  Nb2  1  0.808441  0.306101  0.836414  1
  Nb  Nb3  1  0.194686  0.690856  0.163656  1
  Nb  Nb4  1  0.469689  0.972028  0.163586  1
  Nb  Nb5  1  0.306101  0.469689  0.497660  1
  Nb  Nb6  1  0.031029  0.194686  0.503831  1
  Nb  Nb7  1  0.527198  0.031029  0.836344  1
  Nb  Nb8  1  0.690856  0.527198  0.496169  1
  Nb  Nb9  1  0.972028  0.808441  0.502340  1
  Si  Si10  1  0.750463  0.750463  0.000000  1
  B  B11  1  0.112433  0.614156  0.726517  1
  B  B12  1  0.887639  0.385916  0.273483  1
  B  B13  1  0.614156  0.887639  0.501723  1
  B  B14  1  0.385916  0.112433  0.498277  1
  P  P15  1  0.249587  0.249587  0.000000  1
