# generated using pymatgen
data_Tb4ErIr2Os
_symmetry_space_group_name_H-M   'P 1'
_cell_length_a   10.85871900
_cell_length_b   10.85871900
_cell_length_c   6.41778700
_cell_angle_alpha   90.00000000
_cell_angle_beta   90.00000000
_cell_angle_gamma   90.00000000
_symmetry_Int_Tables_number   1
_chemical_formula_structural   Tb4ErIr2Os
_chemical_formula_sum   'Tb16 Er4 Ir8 Os4'
_cell_volume   756.73267806
_cell_formula_units_Z   4
loop_
 _symmetry_equiv_pos_site_id
 _symmetry_equiv_pos_as_xyz
  1  'x, y, z'
loop_
 _atom_site_type_symbol
 _atom_site_label
 _atom_site_symmetry_multiplicity
 _atom_site_fract_x
 _atom_site_fract_y
 _atom_site_fract_z
 _atom_site_occupancy
  Tb  Tb0  1  0.292969  0.086530  0.378900  1
  Tb  Tb1  1  0.292969  0.913470  0.878900  1
  Tb  Tb2  1  0.707031  0.086530  0.878900  1
  Tb  Tb3  1  0.707031  0.913470  0.378900  1
  Tb  Tb4  1  0.586530  0.792969  0.878900  1
  Tb  Tb5  1  0.586530  0.207031  0.378900  1
  Tb  Tb6  1  0.413470  0.792969  0.378900  1
  Tb  Tb7  1  0.413470  0.207031  0.878900  1
  Tb  Tb8  1  0.207031  0.413470  0.621100  1
  Tb  Tb9  1  0.207031  0.586530  0.121100  1
  Tb  Tb10  1  0.792969  0.413470  0.121100  1
  Tb  Tb11  1  0.792969  0.586530  0.621100  1
  Tb  Tb12  1  0.913470  0.707031  0.121100  1
  Tb  Tb13  1  0.913470  0.292969  0.621100  1
  Tb  Tb14  1  0.086530  0.707031  0.621100  1
  Tb  Tb15  1  0.086530  0.292969  0.121100  1
  Er  Er16  1  0.000000  0.000000  0.500000  1
  Er  Er17  1  0.000000  0.000000  0.000000  1
  Er  Er18  1  0.500000  0.500000  0.000000  1
  Er  Er19  1  0.500000  0.500000  0.500000  1
  Ir  Ir20  1  0.849250  0.150750  0.250000  1
  Ir  Ir21  1  0.849250  0.849250  0.750000  1
  Ir  Ir22  1  0.150750  0.150750  0.750000  1
  Ir  Ir23  1  0.150750  0.849250  0.250000  1
  Ir  Ir24  1  0.650750  0.349250  0.750000  1
  Ir  Ir25  1  0.650750  0.650750  0.250000  1
  Ir  Ir26  1  0.349250  0.349250  0.250000  1
  Ir  Ir27  1  0.349250  0.650750  0.750000  1
  Os  Os28  1  0.500000  0.000000  0.121087  1
  Os  Os29  1  0.500000  0.000000  0.621087  1
  Os  Os30  1  0.000000  0.500000  0.878913  1
  Os  Os31  1  0.000000  0.500000  0.378913  1
