# generated using pymatgen
data_Pa(S4Cl3)2
_symmetry_space_group_name_H-M   'P 1'
_cell_length_a   8.67518063
_cell_length_b   8.69105551
_cell_length_c   13.20175854
_cell_angle_alpha   99.84315781
_cell_angle_beta   103.79498706
_cell_angle_gamma   90.26408635
_symmetry_Int_Tables_number   1
_chemical_formula_structural   Pa(S4Cl3)2
_chemical_formula_sum   'Pa2 S16 Cl12'
_cell_volume   951.35380623
_cell_formula_units_Z   2
loop_
 _symmetry_equiv_pos_site_id
 _symmetry_equiv_pos_as_xyz
  1  'x, y, z'
loop_
 _atom_site_type_symbol
 _atom_site_label
 _atom_site_symmetry_multiplicity
 _atom_site_fract_x
 _atom_site_fract_y
 _atom_site_fract_z
 _atom_site_occupancy
  Pa  Pa0  1  0.712170  0.222266  0.888269  1
  Pa  Pa1  1  0.287830  0.777734  0.111731  1
  S  S2  1  0.427581  0.753593  0.661772  1
  S  S3  1  0.572419  0.246407  0.338228  1
  S  S4  1  0.261590  0.891276  0.586960  1
  S  S5  1  0.738410  0.108724  0.413040  1
  S  S6  1  0.097003  0.957147  0.672747  1
  S  S7  1  0.902997  0.042853  0.327253  1
  S  S8  1  0.897811  0.807884  0.622191  1
  S  S9  1  0.102189  0.192116  0.377809  1
  S  S10  1  0.903003  0.629330  0.705450  1
  S  S11  1  0.096997  0.370670  0.294550  1
  S  S12  1  0.996935  0.430458  0.640287  1
  S  S13  1  0.003065  0.569542  0.359713  1
  S  S14  1  0.238791  0.424531  0.696304  1
  S  S15  1  0.761209  0.575469  0.303696  1
  S  S16  1  0.635307  0.479631  0.392574  1
  S  S17  1  0.364693  0.520369  0.607426  1
  Cl  Cl18  1  0.767277  0.263032  0.091496  1
  Cl  Cl19  1  0.232723  0.736968  0.908504  1
  Cl  Cl20  1  0.651089  0.177450  0.682759  1
  Cl  Cl21  1  0.348911  0.822550  0.317241  1
  Cl  Cl22  1  0.423525  0.139011  0.873997  1
  Cl  Cl23  1  0.576475  0.860989  0.126003  1
  Cl  Cl24  1  0.630253  0.503226  0.885727  1
  Cl  Cl25  1  0.369747  0.496774  0.114273  1
  Cl  Cl26  1  0.996270  0.305588  0.894122  1
  Cl  Cl27  1  0.003730  0.694412  0.105878  1
  Cl  Cl28  1  0.789035  0.938352  0.881553  1
  Cl  Cl29  1  0.210965  0.061648  0.118447  1
