# generated using pymatgen
data_Ca2DyNp5H24
_symmetry_space_group_name_H-M   'P 1'
_cell_length_a   6.62871000
_cell_length_b   6.64550200
_cell_length_c   6.63978500
_cell_angle_alpha   90.00000000
_cell_angle_beta   90.00000000
_cell_angle_gamma   90.00000000
_symmetry_Int_Tables_number   1
_chemical_formula_structural   Ca2DyNp5H24
_chemical_formula_sum   'Ca2 Dy1 Np5 H24'
_cell_volume   292.48986995
_cell_formula_units_Z   1
loop_
 _symmetry_equiv_pos_site_id
 _symmetry_equiv_pos_as_xyz
  1  'x, y, z'
loop_
 _atom_site_type_symbol
 _atom_site_label
 _atom_site_symmetry_multiplicity
 _atom_site_fract_x
 _atom_site_fract_y
 _atom_site_fract_z
 _atom_site_occupancy
  Ca  Ca0  1  0.252219  0.000000  0.500000  1
  Ca  Ca1  1  0.747781  0.000000  0.500000  1
  Dy  Dy2  1  0.500000  0.500000  0.500000  1
  Np  Np3  1  0.000000  0.000000  0.000000  1
  Np  Np4  1  0.000000  0.500000  0.252385  1
  Np  Np5  1  0.000000  0.500000  0.747615  1
  Np  Np6  1  0.500000  0.750952  0.000000  1
  Np  Np7  1  0.500000  0.249048  0.000000  1
  H  H8  1  0.000000  0.161696  0.286176  1
  H  H9  1  0.500000  0.211015  0.666619  1
  H  H10  1  0.500000  0.788985  0.333381  1
  H  H11  1  0.817996  0.647660  0.500000  1
  H  H12  1  0.182004  0.647660  0.500000  1
  H  H13  1  0.344152  0.500000  0.808522  1
  H  H14  1  0.655848  0.500000  0.808522  1
  H  H15  1  0.309690  0.000000  0.147079  1
  H  H16  1  0.154847  0.302455  0.000000  1
  H  H17  1  0.845153  0.697545  0.000000  1
  H  H18  1  0.309690  0.000000  0.852921  1
  H  H19  1  0.845153  0.302455  0.000000  1
  H  H20  1  0.690310  0.000000  0.147079  1
  H  H21  1  0.690310  0.000000  0.852921  1
  H  H22  1  0.154847  0.697545  0.000000  1
  H  H23  1  0.000000  0.838304  0.713824  1
  H  H24  1  0.000000  0.161696  0.713824  1
  H  H25  1  0.000000  0.838304  0.286176  1
  H  H26  1  0.655848  0.500000  0.191478  1
  H  H27  1  0.344152  0.500000  0.191478  1
  H  H28  1  0.817996  0.352340  0.500000  1
  H  H29  1  0.182004  0.352340  0.500000  1
  H  H30  1  0.500000  0.788985  0.666619  1
  H  H31  1  0.500000  0.211015  0.333381  1
