# generated using pymatgen
data_Ti13Al9FeRh7
_symmetry_space_group_name_H-M   'P 1'
_cell_length_a   8.72336195
_cell_length_b   8.72336253
_cell_length_c   8.72336272
_cell_angle_alpha   59.78462473
_cell_angle_beta   59.78461771
_cell_angle_gamma   59.78463200
_symmetry_Int_Tables_number   1
_chemical_formula_structural   Ti13Al9FeRh7
_chemical_formula_sum   'Ti13 Al9 Fe1 Rh7'
_cell_volume   467.09797291
_cell_formula_units_Z   1
loop_
 _symmetry_equiv_pos_site_id
 _symmetry_equiv_pos_as_xyz
  1  'x, y, z'
loop_
 _atom_site_type_symbol
 _atom_site_label
 _atom_site_symmetry_multiplicity
 _atom_site_fract_x
 _atom_site_fract_y
 _atom_site_fract_z
 _atom_site_occupancy
  Ti  Ti0  1  0.203673  0.203673  0.796730  1
  Ti  Ti1  1  0.796730  0.203673  0.203673  1
  Ti  Ti2  1  0.203673  0.796730  0.203673  1
  Ti  Ti3  1  0.806240  0.806240  0.178088  1
  Ti  Ti4  1  0.178088  0.806240  0.806240  1
  Ti  Ti5  1  0.806240  0.178088  0.806240  1
  Ti  Ti6  1  0.378857  0.378857  0.378857  1
  Ti  Ti7  1  0.379706  0.864979  0.379706  1
  Ti  Ti8  1  0.864979  0.379706  0.379706  1
  Ti  Ti9  1  0.379706  0.379706  0.864979  1
  Ti  Ti10  1  0.844387  0.471138  0.844387  1
  Ti  Ti11  1  0.471138  0.844387  0.844387  1
  Ti  Ti12  1  0.844387  0.844387  0.471138  1
  Al  Al13  1  0.155933  0.155933  0.155933  1
  Al  Al14  1  0.159883  0.525097  0.159883  1
  Al  Al15  1  0.525097  0.159883  0.159883  1
  Al  Al16  1  0.159883  0.159883  0.525097  1
  Al  Al17  1  0.619698  0.619698  0.619698  1
  Al  Al18  1  0.619454  0.143616  0.619454  1
  Al  Al19  1  0.143616  0.619454  0.619454  1
  Al  Al20  1  0.619454  0.619454  0.143616  1
  Al  Al21  1  0.828094  0.828094  0.828094  1
  Fe  Fe22  1  0.003544  0.003544  0.003544  1
  Rh  Rh23  1  0.003868  0.003868  0.498104  1
  Rh  Rh24  1  0.498104  0.003868  0.003868  1
  Rh  Rh25  1  0.003868  0.498104  0.003868  1
  Rh  Rh26  1  0.499478  0.499478  0.001808  1
  Rh  Rh27  1  0.001808  0.499478  0.499478  1
  Rh  Rh28  1  0.499478  0.001808  0.499478  1
  Rh  Rh29  1  0.500938  0.500938  0.500938  1
