# generated using pymatgen
data_Ti4Si2B4Ru9Rh
_symmetry_space_group_name_H-M   'P 1'
_cell_length_a   2.96076000
_cell_length_b   9.16867629
_cell_length_c   9.20028428
_cell_angle_alpha   89.90306235
_cell_angle_beta   90.00000000
_cell_angle_gamma   90.00000000
_symmetry_Int_Tables_number   1
_chemical_formula_structural   Ti4Si2B4Ru9Rh
_chemical_formula_sum   'Ti4 Si2 B4 Ru9 Rh1'
_cell_volume   249.75285986
_cell_formula_units_Z   1
loop_
 _symmetry_equiv_pos_site_id
 _symmetry_equiv_pos_as_xyz
  1  'x, y, z'
loop_
 _atom_site_type_symbol
 _atom_site_label
 _atom_site_symmetry_multiplicity
 _atom_site_fract_x
 _atom_site_fract_y
 _atom_site_fract_z
 _atom_site_occupancy
  Ti  Ti0  1  0.000000  0.827552  0.179878  1
  Ti  Ti1  1  0.000000  0.326245  0.323183  1
  Ti  Ti2  1  0.000000  0.673945  0.670915  1
  Ti  Ti3  1  0.000000  0.177369  0.826581  1
  Si  Si4  1  0.000000  0.496135  0.000917  1
  Si  Si5  1  0.000000  0.000041  0.499765  1
  B  B6  1  0.000000  0.125028  0.125948  1
  B  B7  1  0.000000  0.624632  0.373424  1
  B  B8  1  0.000000  0.375146  0.625837  1
  B  B9  1  0.000000  0.878333  0.873681  1
  Ru  Ru10  1  0.500001  0.998075  0.000664  1
  Ru  Ru11  1  0.500001  0.288635  0.070836  1
  Ru  Ru12  1  0.500001  0.572415  0.208429  1
  Ru  Ru13  1  0.500001  0.070544  0.291074  1
  Ru  Ru14  1  0.500001  0.790501  0.430248  1
  Ru  Ru15  1  0.500001  0.499347  0.498832  1
  Ru  Ru16  1  0.500001  0.208843  0.571663  1
  Ru  Ru17  1  0.500001  0.927454  0.709813  1
  Ru  Ru18  1  0.500001  0.430431  0.790098  1
  Rh  Rh19  1  0.500001  0.709335  0.928221  1
