# generated using pymatgen
data_YErGa4CuPd
_symmetry_space_group_name_H-M   'P 1'
_cell_length_a   5.51550379
_cell_length_b   5.51550354
_cell_length_c   6.57415500
_cell_angle_alpha   90.00000000
_cell_angle_beta   90.00000000
_cell_angle_gamma   133.25765197
_symmetry_Int_Tables_number   1
_chemical_formula_structural   YErGa4CuPd
_chemical_formula_sum   'Y1 Er1 Ga4 Cu1 Pd1'
_cell_volume   145.64928385
_cell_formula_units_Z   1
loop_
 _symmetry_equiv_pos_site_id
 _symmetry_equiv_pos_as_xyz
  1  'x, y, z'
loop_
 _atom_site_type_symbol
 _atom_site_label
 _atom_site_symmetry_multiplicity
 _atom_site_fract_x
 _atom_site_fract_y
 _atom_site_fract_z
 _atom_site_occupancy
  Y  Y0  1  0.587307  0.412693  0.250000  1
  Er  Er1  1  0.412468  0.587532  0.750000  1
  Ga  Ga2  1  0.872535  0.127465  0.445731  1
  Ga  Ga3  1  0.128212  0.871788  0.549410  1
  Ga  Ga4  1  0.872535  0.127465  0.054269  1
  Ga  Ga5  1  0.128212  0.871788  0.950590  1
  Cu  Cu6  1  0.297923  0.702077  0.250000  1
  Pd  Pd7  1  0.700807  0.299193  0.750000  1
