# generated using pymatgen
data_HoErTiGaIr2
_symmetry_space_group_name_H-M   'P 1'
_cell_length_a   4.27060100
_cell_length_b   6.84356400
_cell_length_c   7.98952800
_cell_angle_alpha   90.00000000
_cell_angle_beta   90.00000000
_cell_angle_gamma   90.00000000
_symmetry_Int_Tables_number   1
_chemical_formula_structural   HoErTiGaIr2
_chemical_formula_sum   'Ho2 Er2 Ti2 Ga2 Ir4'
_cell_volume   233.50299405
_cell_formula_units_Z   2
loop_
 _symmetry_equiv_pos_site_id
 _symmetry_equiv_pos_as_xyz
  1  'x, y, z'
loop_
 _atom_site_type_symbol
 _atom_site_label
 _atom_site_symmetry_multiplicity
 _atom_site_fract_x
 _atom_site_fract_y
 _atom_site_fract_z
 _atom_site_occupancy
  Ho  Ho0  1  0.250000  0.961491  0.327571  1
  Ho  Ho1  1  0.250000  0.461491  0.172429  1
  Er  Er2  1  0.750000  0.029074  0.677488  1
  Er  Er3  1  0.750000  0.529074  0.822512  1
  Ti  Ti4  1  0.250000  0.374427  0.556406  1
  Ti  Ti5  1  0.250000  0.874427  0.943594  1
  Ga  Ga6  1  0.750000  0.639720  0.439852  1
  Ga  Ga7  1  0.750000  0.139720  0.060148  1
  Ir  Ir8  1  0.250000  0.232743  0.862876  1
  Ir  Ir9  1  0.250000  0.732743  0.637124  1
  Ir  Ir10  1  0.750000  0.762546  0.116964  1
  Ir  Ir11  1  0.750000  0.262546  0.383036  1
