# generated using pymatgen
data_Ce3ErIn2(RhAu)2
_symmetry_space_group_name_H-M   'P 1'
_cell_length_a   7.90986492
_cell_length_b   7.90986404
_cell_length_c   3.72594200
_cell_angle_alpha   90.00000000
_cell_angle_beta   90.00000000
_cell_angle_gamma   88.48074754
_symmetry_Int_Tables_number   1
_chemical_formula_structural   Ce3ErIn2(RhAu)2
_chemical_formula_sum   'Ce3 Er1 In2 Rh2 Au2'
_cell_volume   233.03517650
_cell_formula_units_Z   1
loop_
 _symmetry_equiv_pos_site_id
 _symmetry_equiv_pos_as_xyz
  1  'x, y, z'
loop_
 _atom_site_type_symbol
 _atom_site_label
 _atom_site_symmetry_multiplicity
 _atom_site_fract_x
 _atom_site_fract_y
 _atom_site_fract_z
 _atom_site_occupancy
  Ce  Ce0  1  0.341021  0.841021  0.500000  1
  Ce  Ce1  1  0.188508  0.314156  0.500000  1
  Ce  Ce2  1  0.814156  0.688508  0.500000  1
  Er  Er3  1  0.665488  0.165488  0.500000  1
  In  In4  1  0.998382  0.002975  0.000000  1
  In  In5  1  0.502975  0.498382  0.000000  1
  Rh  Rh6  1  0.629979  0.860990  0.000000  1
  Rh  Rh7  1  0.360990  0.129979  0.000000  1
  Au  Au8  1  0.127845  0.627845  0.000000  1
  Au  Au9  1  0.870655  0.370655  0.000000  1
