# generated using pymatgen
data_Tm2PaCoRu2
_symmetry_space_group_name_H-M   'P 1'
_cell_length_a   5.60144344
_cell_length_b   5.27229862
_cell_length_c   5.60144400
_cell_angle_alpha   123.65567095
_cell_angle_beta   118.98307078
_cell_angle_gamma   89.62340115
_symmetry_Int_Tables_number   1
_chemical_formula_structural   Tm2PaCoRu2
_chemical_formula_sum   'Tm2 Pa1 Co1 Ru2'
_cell_volume   112.38632407
_cell_formula_units_Z   1
loop_
 _symmetry_equiv_pos_site_id
 _symmetry_equiv_pos_as_xyz
  1  'x, y, z'
loop_
 _atom_site_type_symbol
 _atom_site_label
 _atom_site_symmetry_multiplicity
 _atom_site_fract_x
 _atom_site_fract_y
 _atom_site_fract_z
 _atom_site_occupancy
  Tm  Tm0  1  0.373355  0.123761  0.250405  1
  Tm  Tm1  1  0.626645  0.876239  0.749595  1
  Pa  Pa2  1  0.000000  0.000000  0.500000  1
  Co  Co3  1  0.000000  0.500000  0.000000  1
  Ru  Ru4  1  0.000000  0.500000  0.500000  1
  Ru  Ru5  1  0.500000  0.500000  0.000000  1
