# generated using pymatgen
data_O8F
_symmetry_space_group_name_H-M   'P 1'
_cell_length_a   5.03535525
_cell_length_b   5.53865438
_cell_length_c   6.43106481
_cell_angle_alpha   63.40556262
_cell_angle_beta   61.97651042
_cell_angle_gamma   67.39986735
_symmetry_Int_Tables_number   1
_chemical_formula_structural   O8F
_chemical_formula_sum   'O8 F1'
_cell_volume   138.09536766
_cell_formula_units_Z   1
loop_
 _symmetry_equiv_pos_site_id
 _symmetry_equiv_pos_as_xyz
  1  'x, y, z'
loop_
 _atom_site_type_symbol
 _atom_site_label
 _atom_site_symmetry_multiplicity
 _atom_site_fract_x
 _atom_site_fract_y
 _atom_site_fract_z
 _atom_site_occupancy
  O  O0  1  0.707014  0.303531  0.910074  1
  O  O1  1  0.976889  0.325310  0.796507  1
  O  O2  1  0.195973  0.730609  0.183965  1
  O  O3  1  0.924188  0.732193  0.310585  1
  O  O4  1  0.803768  0.147078  0.263608  1
  O  O5  1  0.096373  0.939145  0.713473  1
  O  O6  1  0.065236  0.184703  0.129345  1
  O  O7  1  0.823911  0.924957  0.821019  1
  F  F8  1  0.406649  0.641044  0.359517  1
