# generated using pymatgen
data_LaPr17(BiO)10
_symmetry_space_group_name_H-M   'P 1'
_cell_length_a   10.44688899
_cell_length_b   10.44174550
_cell_length_c   9.39976301
_cell_angle_alpha   89.97185712
_cell_angle_beta   89.95493832
_cell_angle_gamma   89.97847903
_symmetry_Int_Tables_number   1
_chemical_formula_structural   LaPr17(BiO)10
_chemical_formula_sum   'La1 Pr17 Bi10 O10'
_cell_volume   1025.36094267
_cell_formula_units_Z   1
loop_
 _symmetry_equiv_pos_site_id
 _symmetry_equiv_pos_as_xyz
  1  'x, y, z'
loop_
 _atom_site_type_symbol
 _atom_site_label
 _atom_site_symmetry_multiplicity
 _atom_site_fract_x
 _atom_site_fract_y
 _atom_site_fract_z
 _atom_site_occupancy
  La  La0  1  0.581599  0.227190  0.002316  1
  Pr  Pr1  1  0.999976  0.500042  0.329021  1
  Pr  Pr2  1  0.499749  0.999460  0.670937  1
  Pr  Pr3  1  0.795987  0.104037  0.341509  1
  Pr  Pr4  1  0.604133  0.704420  0.341335  1
  Pr  Pr5  1  0.395003  0.295788  0.342488  1
  Pr  Pr6  1  0.204582  0.895715  0.341401  1
  Pr  Pr7  1  0.705059  0.396439  0.657847  1
  Pr  Pr8  1  0.895817  0.795506  0.658639  1
  Pr  Pr9  1  0.104146  0.204558  0.658423  1
  Pr  Pr10  1  0.295498  0.604103  0.658610  1
  Pr  Pr11  1  0.081991  0.726200  0.998352  1
  Pr  Pr12  1  0.225987  0.418146  0.998313  1
  Pr  Pr13  1  0.774065  0.581952  0.998353  1
  Pr  Pr14  1  0.918654  0.273925  0.998452  1
  Pr  Pr15  1  0.418126  0.773782  0.001573  1
  Pr  Pr16  1  0.273322  0.081535  0.001420  1
  Pr  Pr17  1  0.726315  0.917756  0.001708  1
  Bi  Bi18  1  0.000037  0.500031  0.688753  1
  Bi  Bi19  1  0.499986  0.000134  0.311499  1
  Bi  Bi20  1  0.696401  0.403639  0.300390  1
  Bi  Bi21  1  0.903446  0.803770  0.299662  1
  Bi  Bi22  1  0.096662  0.196246  0.299532  1
  Bi  Bi23  1  0.303680  0.596585  0.299694  1
  Bi  Bi24  1  0.803711  0.096694  0.700209  1
  Bi  Bi25  1  0.596678  0.696228  0.700343  1
  Bi  Bi26  1  0.403164  0.303889  0.699580  1
  Bi  Bi27  1  0.196136  0.903417  0.700296  1
  O  O28  1  0.999946  0.499995  0.067311  1
  O  O29  1  0.499350  0.998734  0.931877  1
  O  O30  1  0.879157  0.775176  0.911996  1
  O  O31  1  0.275063  0.620935  0.912011  1
  O  O32  1  0.724762  0.378922  0.911898  1
  O  O33  1  0.121102  0.224830  0.911873  1
  O  O34  1  0.621053  0.724890  0.087960  1
  O  O35  1  0.224765  0.878995  0.088030  1
  O  O36  1  0.775566  0.121025  0.088367  1
  O  O37  1  0.379327  0.275309  0.088023  1
