# generated using pymatgen
data_Y5NiRuO12
_symmetry_space_group_name_H-M   'P 1'
_cell_length_a   6.81242480
_cell_length_b   6.81242637
_cell_length_c   7.31873244
_cell_angle_alpha   74.33819368
_cell_angle_beta   74.33818904
_cell_angle_gamma   51.15557675
_symmetry_Int_Tables_number   1
_chemical_formula_structural   Y5NiRuO12
_chemical_formula_sum   'Y5 Ni1 Ru1 O12'
_cell_volume   252.41586275
_cell_formula_units_Z   1
loop_
 _symmetry_equiv_pos_site_id
 _symmetry_equiv_pos_as_xyz
  1  'x, y, z'
loop_
 _atom_site_type_symbol
 _atom_site_label
 _atom_site_symmetry_multiplicity
 _atom_site_fract_x
 _atom_site_fract_y
 _atom_site_fract_z
 _atom_site_occupancy
  Y  Y0  1  0.687041  0.693050  0.669796  1
  Y  Y1  1  0.682999  0.707955  0.141364  1
  Y  Y2  1  0.991652  0.008348  0.000000  1
  Y  Y3  1  0.292045  0.317001  0.858636  1
  Y  Y4  1  0.306950  0.312959  0.330204  1
  Ni  Ni5  1  0.258764  0.741236  0.500000  1
  Ru  Ru6  1  0.770763  0.229237  0.500000  1
  O  O7  1  0.395651  0.911689  0.923194  1
  O  O8  1  0.573959  0.101160  0.581738  1
  O  O9  1  0.898840  0.426041  0.418262  1
  O  O10  1  0.088311  0.604349  0.076806  1
  O  O11  1  0.997767  0.003181  0.317645  1
  O  O12  1  0.521700  0.478071  0.686161  1
  O  O13  1  0.894846  0.408631  0.926728  1
  O  O14  1  0.100484  0.571889  0.581063  1
  O  O15  1  0.428111  0.899516  0.418937  1
  O  O16  1  0.591369  0.105154  0.073272  1
  O  O17  1  0.521929  0.478300  0.313839  1
  O  O18  1  0.996819  0.002233  0.682355  1
