# generated using pymatgen
data_NaTa8CuS16
_symmetry_space_group_name_H-M   'P 1'
_cell_length_a   6.70282950
_cell_length_b   6.70839564
_cell_length_c   13.54693454
_cell_angle_alpha   90.11710272
_cell_angle_beta   90.03799764
_cell_angle_gamma   120.00247174
_symmetry_Int_Tables_number   1
_chemical_formula_structural   NaTa8CuS16
_chemical_formula_sum   'Na1 Ta8 Cu1 S16'
_cell_volume   527.51638975
_cell_formula_units_Z   1
loop_
 _symmetry_equiv_pos_site_id
 _symmetry_equiv_pos_as_xyz
  1  'x, y, z'
loop_
 _atom_site_type_symbol
 _atom_site_label
 _atom_site_symmetry_multiplicity
 _atom_site_fract_x
 _atom_site_fract_y
 _atom_site_fract_z
 _atom_site_occupancy
  Na  Na0  1  0.000000  0.000000  0.500000  1
  Ta  Ta1  1  0.506788  0.495555  0.770989  1
  Ta  Ta2  1  0.011845  0.505778  0.229074  1
  Ta  Ta3  1  0.492990  0.988045  0.228995  1
  Ta  Ta4  1  0.507010  0.011955  0.771005  1
  Ta  Ta5  1  0.988155  0.494222  0.770926  1
  Ta  Ta6  1  0.493212  0.504445  0.229011  1
  Ta  Ta7  1  0.998688  0.999883  0.771374  1
  Ta  Ta8  1  0.001312  0.000117  0.228626  1
  Cu  Cu9  1  0.000000  0.000000  0.000000  1
  S  S10  1  0.832346  0.167854  0.342567  1
  S  S11  1  0.832340  0.664802  0.342703  1
  S  S12  1  0.336046  0.168190  0.343134  1
  S  S13  1  0.662132  0.831690  0.885242  1
  S  S14  1  0.167660  0.335198  0.657297  1
  S  S15  1  0.169362  0.832425  0.884638  1
  S  S16  1  0.169619  0.338672  0.884787  1
  S  S17  1  0.830638  0.167575  0.115362  1
  S  S18  1  0.337868  0.168310  0.114758  1
  S  S19  1  0.663954  0.831810  0.656866  1
  S  S20  1  0.333075  0.665623  0.111416  1
  S  S21  1  0.666017  0.333017  0.651771  1
  S  S22  1  0.666925  0.334377  0.888584  1
  S  S23  1  0.333983  0.666983  0.348229  1
  S  S24  1  0.830381  0.661328  0.115213  1
  S  S25  1  0.167654  0.832146  0.657433  1
