# generated using pymatgen
data_RbCr2(Sb6Os)2
_symmetry_space_group_name_H-M   'P 1'
_cell_length_a   8.31565932
_cell_length_b   8.31565944
_cell_length_c   8.23027407
_cell_angle_alpha   109.40969666
_cell_angle_beta   109.14514015
_cell_angle_gamma   110.27318579
_symmetry_Int_Tables_number   1
_chemical_formula_structural   RbCr2(Sb6Os)2
_chemical_formula_sum   'Rb1 Cr2 Sb12 Os2'
_cell_volume   435.82317729
_cell_formula_units_Z   1
loop_
 _symmetry_equiv_pos_site_id
 _symmetry_equiv_pos_as_xyz
  1  'x, y, z'
loop_
 _atom_site_type_symbol
 _atom_site_label
 _atom_site_symmetry_multiplicity
 _atom_site_fract_x
 _atom_site_fract_y
 _atom_site_fract_z
 _atom_site_occupancy
  Rb  Rb0  1  0.000000  0.000000  0.000000  1
  Cr  Cr1  1  0.000000  0.000000  0.500000  1
  Cr  Cr2  1  0.500000  0.500000  0.500000  1
  Sb  Sb3  1  0.351448  0.188616  0.850169  1
  Sb  Sb4  1  0.648552  0.811384  0.149831  1
  Sb  Sb5  1  0.661553  0.498720  0.850169  1
  Sb  Sb6  1  0.338447  0.501280  0.149831  1
  Sb  Sb7  1  0.189593  0.839515  0.341368  1
  Sb  Sb8  1  0.810407  0.160485  0.658632  1
  Sb  Sb9  1  0.498146  0.848224  0.658632  1
  Sb  Sb10  1  0.501854  0.151776  0.341368  1
  Sb  Sb11  1  0.843891  0.338835  0.182726  1
  Sb  Sb12  1  0.156109  0.661165  0.817274  1
  Sb  Sb13  1  0.846546  0.648955  0.495499  1
  Sb  Sb14  1  0.153454  0.351045  0.504501  1
  Os  Os15  1  0.500000  0.000000  0.000000  1
  Os  Os16  1  0.000000  0.500000  0.000000  1
