# generated using pymatgen
data_Yb2SbPt2
_symmetry_space_group_name_H-M   'P 1'
_cell_length_a   5.62534888
_cell_length_b   5.62534965
_cell_length_c   5.62534983
_cell_angle_alpha   132.47576413
_cell_angle_beta   118.74125886
_cell_angle_gamma   81.01746694
_symmetry_Int_Tables_number   1
_chemical_formula_structural   Yb2SbPt2
_chemical_formula_sum   'Yb2 Sb1 Pt2'
_cell_volume   111.13925592
_cell_formula_units_Z   1
loop_
 _symmetry_equiv_pos_site_id
 _symmetry_equiv_pos_as_xyz
  1  'x, y, z'
loop_
 _atom_site_type_symbol
 _atom_site_label
 _atom_site_symmetry_multiplicity
 _atom_site_fract_x
 _atom_site_fract_y
 _atom_site_fract_z
 _atom_site_occupancy
  Yb  Yb0  1  0.698897  0.198898  0.499999  1
  Yb  Yb1  1  0.301103  0.801103  0.500000  1
  Sb  Sb2  1  0.000000  0.000000  0.000000  1
  Pt  Pt3  1  0.730155  0.500000  0.230154  1
  Pt  Pt4  1  0.269845  0.500000  0.769845  1
