# generated using pymatgen
data_Pr12Nd4Cd4Ru3Pt
_symmetry_space_group_name_H-M   'P 1'
_cell_length_a   9.98353475
_cell_length_b   9.99748967
_cell_length_c   9.99748900
_cell_angle_alpha   59.99999890
_cell_angle_beta   59.95374949
_cell_angle_gamma   59.95374561
_symmetry_Int_Tables_number   1
_chemical_formula_structural   Pr12Nd4Cd4Ru3Pt
_chemical_formula_sum   'Pr12 Nd4 Cd4 Ru3 Pt1'
_cell_volume   705.09439076
_cell_formula_units_Z   1
loop_
 _symmetry_equiv_pos_site_id
 _symmetry_equiv_pos_as_xyz
  1  'x, y, z'
loop_
 _atom_site_type_symbol
 _atom_site_label
 _atom_site_symmetry_multiplicity
 _atom_site_fract_x
 _atom_site_fract_y
 _atom_site_fract_z
 _atom_site_occupancy
  Pr  Pr0  1  0.814924  0.190927  0.190927  1
  Pr  Pr1  1  0.191180  0.810003  0.810003  1
  Pr  Pr2  1  0.191180  0.810003  0.188815  1
  Pr  Pr3  1  0.814924  0.190927  0.803223  1
  Pr  Pr4  1  0.191180  0.188815  0.810003  1
  Pr  Pr5  1  0.814924  0.803223  0.190927  1
  Pr  Pr6  1  0.937381  0.562224  0.562224  1
  Pr  Pr7  1  0.558584  0.938547  0.938547  1
  Pr  Pr8  1  0.558584  0.938547  0.564321  1
  Pr  Pr9  1  0.937381  0.562224  0.938170  1
  Pr  Pr10  1  0.558584  0.564321  0.938547  1
  Pr  Pr11  1  0.937381  0.938170  0.562224  1
  Nd  Nd12  1  0.342670  0.349636  0.349636  1
  Nd  Nd13  1  0.342670  0.349636  0.958059  1
  Nd  Nd14  1  0.342670  0.958059  0.349636  1
  Nd  Nd15  1  0.962768  0.345744  0.345744  1
  Cd  Cd16  1  0.579765  0.579369  0.579369  1
  Cd  Cd17  1  0.579765  0.579369  0.261497  1
  Cd  Cd18  1  0.579765  0.261497  0.579369  1
  Cd  Cd19  1  0.261630  0.579456  0.579456  1
  Ru  Ru20  1  0.142495  0.138319  0.138319  1
  Ru  Ru21  1  0.142495  0.138319  0.580867  1
  Ru  Ru22  1  0.142495  0.580867  0.138319  1
  Pt  Pt23  1  0.574611  0.141797  0.141797  1
