# generated using pymatgen
data_Dy3YBi3Sb
_symmetry_space_group_name_H-M   'P 1'
_cell_length_a   7.70391207
_cell_length_b   7.70391081
_cell_length_c   7.70391183
_cell_angle_alpha   131.72439297
_cell_angle_beta   131.72428846
_cell_angle_gamma   70.66475561
_symmetry_Int_Tables_number   1
_chemical_formula_structural   Dy3YBi3Sb
_chemical_formula_sum   'Dy3 Y1 Bi3 Sb1'
_cell_volume   249.50993232
_cell_formula_units_Z   1
loop_
 _symmetry_equiv_pos_site_id
 _symmetry_equiv_pos_as_xyz
  1  'x, y, z'
loop_
 _atom_site_type_symbol
 _atom_site_label
 _atom_site_symmetry_multiplicity
 _atom_site_fract_x
 _atom_site_fract_y
 _atom_site_fract_z
 _atom_site_occupancy
  Dy  Dy0  1  0.246701  0.246701  0.000000  1
  Dy  Dy1  1  0.753299  0.753299  0.000000  1
  Dy  Dy2  1  0.000000  0.500000  0.500000  1
  Y  Y3  1  0.500000  0.000000  0.500000  1
  Bi  Bi4  1  0.500000  0.500000  0.000000  1
  Bi  Bi5  1  0.750089  0.250089  0.500000  1
  Bi  Bi6  1  0.249911  0.749911  0.500000  1
  Sb  Sb7  1  0.000000  0.000000  0.000000  1
