# generated using pymatgen
data_Nd4Ga5Br2
_symmetry_space_group_name_H-M   'P 1'
_cell_length_a   11.48249277
_cell_length_b   11.48249202
_cell_length_c   4.24079600
_cell_angle_alpha   90.00000000
_cell_angle_beta   90.00000000
_cell_angle_gamma   93.64856011
_symmetry_Int_Tables_number   1
_chemical_formula_structural   Nd4Ga5Br2
_chemical_formula_sum   'Nd8 Ga10 Br4'
_cell_volume   558.00561945
_cell_formula_units_Z   2
loop_
 _symmetry_equiv_pos_site_id
 _symmetry_equiv_pos_as_xyz
  1  'x, y, z'
loop_
 _atom_site_type_symbol
 _atom_site_label
 _atom_site_symmetry_multiplicity
 _atom_site_fract_x
 _atom_site_fract_y
 _atom_site_fract_z
 _atom_site_occupancy
  Nd  Nd0  1  0.674052  0.040352  0.500000  1
  Nd  Nd1  1  0.325948  0.959648  0.500000  1
  Nd  Nd2  1  0.040352  0.674052  0.500000  1
  Nd  Nd3  1  0.959648  0.325948  0.500000  1
  Nd  Nd4  1  0.729981  0.729981  0.000000  1
  Nd  Nd5  1  0.270019  0.270019  0.000000  1
  Nd  Nd6  1  0.368514  0.631486  0.000000  1
  Nd  Nd7  1  0.631486  0.368514  0.000000  1
  Ga  Ga8  1  0.579511  0.579511  0.500000  1
  Ga  Ga9  1  0.420489  0.420489  0.500000  1
  Ga  Ga10  1  0.536623  0.899423  0.000000  1
  Ga  Ga11  1  0.463377  0.100577  0.000000  1
  Ga  Ga12  1  0.899423  0.536623  0.000000  1
  Ga  Ga13  1  0.100577  0.463377  0.000000  1
  Ga  Ga14  1  0.512802  0.782109  0.500000  1
  Ga  Ga15  1  0.487198  0.217891  0.500000  1
  Ga  Ga16  1  0.217891  0.487198  0.500000  1
  Ga  Ga17  1  0.782109  0.512802  0.500000  1
  Br  Br18  1  0.124604  0.124604  0.500000  1
  Br  Br19  1  0.875396  0.875396  0.500000  1
  Br  Br20  1  0.823765  0.176235  0.000000  1
  Br  Br21  1  0.176235  0.823765  0.000000  1
