# generated using pymatgen
data_Tb2HoV(Co4P3)2
_symmetry_space_group_name_H-M   'P 1'
_cell_length_a   3.69416300
_cell_length_b   10.55890400
_cell_length_c   12.23761000
_cell_angle_alpha   90.00000000
_cell_angle_beta   90.00000000
_cell_angle_gamma   90.00000000
_symmetry_Int_Tables_number   1
_chemical_formula_structural   Tb2HoV(Co4P3)2
_chemical_formula_sum   'Tb4 Ho2 V2 Co16 P12'
_cell_volume   477.34403964
_cell_formula_units_Z   2
loop_
 _symmetry_equiv_pos_site_id
 _symmetry_equiv_pos_as_xyz
  1  'x, y, z'
loop_
 _atom_site_type_symbol
 _atom_site_label
 _atom_site_symmetry_multiplicity
 _atom_site_fract_x
 _atom_site_fract_y
 _atom_site_fract_z
 _atom_site_occupancy
  Tb  Tb0  1  0.000000  0.500000  0.523378  1
  Tb  Tb1  1  0.500000  0.000000  0.477043  1
  Tb  Tb2  1  0.500000  0.818596  0.204406  1
  Tb  Tb3  1  0.500000  0.181404  0.204406  1
  Ho  Ho4  1  0.000000  0.681207  0.795681  1
  Ho  Ho5  1  0.000000  0.318793  0.795681  1
  V  V6  1  0.500000  0.500000  0.153829  1
  V  V7  1  0.000000  0.000000  0.845878  1
  Co  Co8  1  0.000000  0.500000  0.986344  1
  Co  Co9  1  0.500000  0.000000  0.012348  1
  Co  Co10  1  0.500000  0.295978  0.431566  1
  Co  Co11  1  0.500000  0.704022  0.431566  1
  Co  Co12  1  0.000000  0.204367  0.569601  1
  Co  Co13  1  0.000000  0.795633  0.569601  1
  Co  Co14  1  0.500000  0.878602  0.708384  1
  Co  Co15  1  0.500000  0.121398  0.708384  1
  Co  Co16  1  0.000000  0.621052  0.292151  1
  Co  Co17  1  0.000000  0.378948  0.292151  1
  Co  Co18  1  0.500000  0.332795  0.992461  1
  Co  Co19  1  0.500000  0.667205  0.992461  1
  Co  Co20  1  0.000000  0.167673  0.006185  1
  Co  Co21  1  0.000000  0.832327  0.006185  1
  Co  Co22  1  0.500000  0.500000  0.702688  1
  Co  Co23  1  0.000000  0.000000  0.297754  1
  P  P24  1  0.500000  0.310929  0.616649  1
  P  P25  1  0.500000  0.689071  0.616649  1
  P  P26  1  0.000000  0.189471  0.384657  1
  P  P27  1  0.000000  0.810529  0.384657  1
  P  P28  1  0.500000  0.500000  0.881870  1
  P  P29  1  0.000000  0.000000  0.116879  1
  P  P30  1  0.500000  0.845620  0.891691  1
  P  P31  1  0.500000  0.154380  0.891691  1
  P  P32  1  0.000000  0.653610  0.107473  1
  P  P33  1  0.000000  0.346390  0.107473  1
  P  P34  1  0.500000  0.500000  0.346462  1
  P  P35  1  0.000000  0.000000  0.653714  1
