# generated using pymatgen
data_Tb6Ti2MnFeC12
_symmetry_space_group_name_H-M   'P 1'
_cell_length_a   8.25406400
_cell_length_b   8.25406427
_cell_length_c   5.05583500
_cell_angle_alpha   90.00000000
_cell_angle_beta   90.00000000
_cell_angle_gamma   119.99999089
_symmetry_Int_Tables_number   1
_chemical_formula_structural   Tb6Ti2MnFeC12
_chemical_formula_sum   'Tb6 Ti2 Mn1 Fe1 C12'
_cell_volume   298.30411329
_cell_formula_units_Z   1
loop_
 _symmetry_equiv_pos_site_id
 _symmetry_equiv_pos_as_xyz
  1  'x, y, z'
loop_
 _atom_site_type_symbol
 _atom_site_label
 _atom_site_symmetry_multiplicity
 _atom_site_fract_x
 _atom_site_fract_y
 _atom_site_fract_z
 _atom_site_occupancy
  Tb  Tb0  1  0.618783  0.677476  0.750000  1
  Tb  Tb1  1  0.944506  0.621679  0.250000  1
  Tb  Tb2  1  0.677174  0.055494  0.250000  1
  Tb  Tb3  1  0.322524  0.941308  0.750000  1
  Tb  Tb4  1  0.058692  0.381217  0.750000  1
  Tb  Tb5  1  0.378321  0.322826  0.250000  1
  Ti  Ti6  1  0.000000  0.000000  0.499627  1
  Ti  Ti7  1  0.000000  0.000000  0.000373  1
  Mn  Mn8  1  0.333333  0.666667  0.250000  1
  Fe  Fe9  1  0.666667  0.333333  0.750000  1
  C  C10  1  0.960127  0.758607  0.750000  1
  C  C11  1  0.200462  0.962264  0.250000  1
  C  C12  1  0.761803  0.799538  0.250000  1
  C  C13  1  0.241393  0.201522  0.750000  1
  C  C14  1  0.798478  0.039873  0.750000  1
  C  C15  1  0.037736  0.238197  0.250000  1
  C  C16  1  0.864281  0.568442  0.750000  1
  C  C17  1  0.293642  0.863315  0.250000  1
  C  C18  1  0.569673  0.706358  0.250000  1
  C  C19  1  0.431558  0.295839  0.750000  1
  C  C20  1  0.136685  0.430327  0.250000  1
  C  C21  1  0.704161  0.135719  0.750000  1
