# generated using pymatgen
data_Nb8CuSnSe16
_symmetry_space_group_name_H-M   'P 1'
_cell_length_a   7.02882400
_cell_length_b   7.02882611
_cell_length_c   14.12978800
_cell_angle_alpha   90.00000000
_cell_angle_beta   90.00000000
_cell_angle_gamma   119.99999949
_symmetry_Int_Tables_number   1
_chemical_formula_structural   Nb8CuSnSe16
_chemical_formula_sum   'Nb8 Cu1 Sn1 Se16'
_cell_volume   604.54933489
_cell_formula_units_Z   1
loop_
 _symmetry_equiv_pos_site_id
 _symmetry_equiv_pos_as_xyz
  1  'x, y, z'
loop_
 _atom_site_type_symbol
 _atom_site_label
 _atom_site_symmetry_multiplicity
 _atom_site_fract_x
 _atom_site_fract_y
 _atom_site_fract_z
 _atom_site_occupancy
  Nb  Nb0  1  0.000000  0.000000  0.222700  1
  Nb  Nb1  1  0.000000  0.000000  0.777300  1
  Nb  Nb2  1  0.507330  0.014660  0.226325  1
  Nb  Nb3  1  0.985340  0.492670  0.226325  1
  Nb  Nb4  1  0.507330  0.492670  0.226325  1
  Nb  Nb5  1  0.492670  0.985340  0.773675  1
  Nb  Nb6  1  0.014660  0.507330  0.773675  1
  Nb  Nb7  1  0.492670  0.507330  0.773675  1
  Cu  Cu8  1  0.000000  0.000000  0.000000  1
  Sn  Sn9  1  0.000000  0.000000  0.500000  1
  Se  Se10  1  0.333333  0.666667  0.895225  1
  Se  Se11  1  0.666667  0.333333  0.104775  1
  Se  Se12  1  0.666667  0.333333  0.349463  1
  Se  Se13  1  0.333333  0.666667  0.650537  1
  Se  Se14  1  0.166099  0.833901  0.342407  1
  Se  Se15  1  0.166099  0.332197  0.342407  1
  Se  Se16  1  0.667803  0.833901  0.342407  1
  Se  Se17  1  0.833901  0.166099  0.657593  1
  Se  Se18  1  0.833901  0.667803  0.657593  1
  Se  Se19  1  0.332197  0.166099  0.657593  1
  Se  Se20  1  0.829164  0.170836  0.890624  1
  Se  Se21  1  0.829164  0.658330  0.890624  1
  Se  Se22  1  0.341670  0.170836  0.890624  1
  Se  Se23  1  0.170836  0.829164  0.109376  1
  Se  Se24  1  0.170836  0.341670  0.109376  1
  Se  Se25  1  0.658330  0.829164  0.109376  1
