# generated using pymatgen
data_DyScB6Ir
_symmetry_space_group_name_H-M   'P 1'
_cell_length_a   3.55018300
_cell_length_b   9.01411100
_cell_length_c   11.38369300
_cell_angle_alpha   90.00000000
_cell_angle_beta   90.00000000
_cell_angle_gamma   90.00000000
_symmetry_Int_Tables_number   1
_chemical_formula_structural   DyScB6Ir
_chemical_formula_sum   'Dy4 Sc4 B24 Ir4'
_cell_volume   364.29802497
_cell_formula_units_Z   4
loop_
 _symmetry_equiv_pos_site_id
 _symmetry_equiv_pos_as_xyz
  1  'x, y, z'
loop_
 _atom_site_type_symbol
 _atom_site_label
 _atom_site_symmetry_multiplicity
 _atom_site_fract_x
 _atom_site_fract_y
 _atom_site_fract_z
 _atom_site_occupancy
  Dy  Dy0  1  0.500000  0.319903  0.413951  1
  Dy  Dy1  1  0.500000  0.680097  0.586049  1
  Dy  Dy2  1  0.500000  0.180097  0.913951  1
  Dy  Dy3  1  0.500000  0.819903  0.086049  1
  Sc  Sc4  1  0.500000  0.445174  0.124205  1
  Sc  Sc5  1  0.500000  0.554826  0.875795  1
  Sc  Sc6  1  0.500000  0.054826  0.624205  1
  Sc  Sc7  1  0.500000  0.945174  0.375795  1
  B  B8  1  0.000000  0.100203  0.472853  1
  B  B9  1  0.000000  0.899797  0.527147  1
  B  B10  1  0.000000  0.399797  0.972853  1
  B  B11  1  0.000000  0.600203  0.027147  1
  B  B12  1  0.000000  0.129889  0.318394  1
  B  B13  1  0.000000  0.870111  0.681606  1
  B  B14  1  0.000000  0.370111  0.818394  1
  B  B15  1  0.000000  0.629889  0.181606  1
  B  B16  1  0.000000  0.054688  0.065762  1
  B  B17  1  0.000000  0.945312  0.934238  1
  B  B18  1  0.000000  0.445312  0.565762  1
  B  B19  1  0.000000  0.554688  0.434238  1
  B  B20  1  0.000000  0.481746  0.284997  1
  B  B21  1  0.000000  0.518254  0.715003  1
  B  B22  1  0.000000  0.018254  0.784997  1
  B  B23  1  0.000000  0.981746  0.215003  1
  B  B24  1  0.000000  0.254154  0.080193  1
  B  B25  1  0.000000  0.745846  0.919807  1
  B  B26  1  0.000000  0.245846  0.580193  1
  B  B27  1  0.000000  0.754154  0.419807  1
  B  B28  1  0.000000  0.295756  0.235283  1
  B  B29  1  0.000000  0.704244  0.764717  1
  B  B30  1  0.000000  0.204244  0.735283  1
  B  B31  1  0.000000  0.795756  0.264717  1
  Ir  Ir32  1  0.500000  0.141472  0.181276  1
  Ir  Ir33  1  0.500000  0.858528  0.818724  1
  Ir  Ir34  1  0.500000  0.358528  0.681276  1
  Ir  Ir35  1  0.500000  0.641472  0.318724  1
