# generated using pymatgen
data_Ac8Ag3BrO20
_symmetry_space_group_name_H-M   'P 1'
_cell_length_a   8.98685200
_cell_length_b   8.98685200
_cell_length_c   6.17595800
_cell_angle_alpha   90.00000000
_cell_angle_beta   90.00000000
_cell_angle_gamma   90.00000000
_symmetry_Int_Tables_number   1
_chemical_formula_structural   Ac8Ag3BrO20
_chemical_formula_sum   'Ac8 Ag3 Br1 O20'
_cell_volume   498.79203871
_cell_formula_units_Z   1
loop_
 _symmetry_equiv_pos_site_id
 _symmetry_equiv_pos_as_xyz
  1  'x, y, z'
loop_
 _atom_site_type_symbol
 _atom_site_label
 _atom_site_symmetry_multiplicity
 _atom_site_fract_x
 _atom_site_fract_y
 _atom_site_fract_z
 _atom_site_occupancy
  Ac  Ac0  1  0.343274  0.354077  0.244397  1
  Ac  Ac1  1  0.854077  0.156726  0.244397  1
  Ac  Ac2  1  0.145923  0.843274  0.244397  1
  Ac  Ac3  1  0.656726  0.645923  0.244397  1
  Ac  Ac4  1  0.849873  0.847764  0.752372  1
  Ac  Ac5  1  0.347764  0.650127  0.752372  1
  Ac  Ac6  1  0.652236  0.349873  0.752372  1
  Ac  Ac7  1  0.150127  0.152236  0.752372  1
  Ag  Ag8  1  0.000000  0.500000  0.092407  1
  Ag  Ag9  1  0.500000  0.000000  0.922719  1
  Ag  Ag10  1  0.000000  0.500000  0.594032  1
  Br  Br11  1  0.500000  0.000000  0.460388  1
  O  O12  1  0.000000  0.000000  0.998033  1
  O  O13  1  0.500000  0.500000  0.998033  1
  O  O14  1  0.000000  0.000000  0.493970  1
  O  O15  1  0.500000  0.500000  0.493970  1
  O  O16  1  0.292572  0.913963  0.895694  1
  O  O17  1  0.413963  0.207428  0.895694  1
  O  O18  1  0.586037  0.792572  0.895694  1
  O  O19  1  0.707428  0.086037  0.895694  1
  O  O20  1  0.208205  0.587025  0.101568  1
  O  O21  1  0.087025  0.291795  0.101568  1
  O  O22  1  0.912975  0.708205  0.101568  1
  O  O23  1  0.791795  0.412975  0.101568  1
  O  O24  1  0.912463  0.292896  0.604658  1
  O  O25  1  0.792896  0.587537  0.604658  1
  O  O26  1  0.207104  0.412463  0.604658  1
  O  O27  1  0.087537  0.707104  0.604658  1
  O  O28  1  0.573181  0.184412  0.387924  1
  O  O29  1  0.684412  0.926819  0.387924  1
  O  O30  1  0.315588  0.073181  0.387924  1
  O  O31  1  0.426819  0.815588  0.387924  1
