# generated using pymatgen
data_Ta3Mn2VN
_symmetry_space_group_name_H-M   'P 1'
_cell_length_a   8.09918568
_cell_length_b   8.09915756
_cell_length_c   8.09914700
_cell_angle_alpha   60.00004723
_cell_angle_beta   60.00016205
_cell_angle_gamma   60.00010430
_symmetry_Int_Tables_number   1
_chemical_formula_structural   Ta3Mn2VN
_chemical_formula_sum   'Ta12 Mn8 V4 N4'
_cell_volume   375.67000133
_cell_formula_units_Z   4
loop_
 _symmetry_equiv_pos_site_id
 _symmetry_equiv_pos_as_xyz
  1  'x, y, z'
loop_
 _atom_site_type_symbol
 _atom_site_label
 _atom_site_symmetry_multiplicity
 _atom_site_fract_x
 _atom_site_fract_y
 _atom_site_fract_z
 _atom_site_occupancy
  Ta  Ta0  1  0.805845  0.805850  0.194152  1
  Ta  Ta1  1  0.194127  0.194155  0.805859  1
  Ta  Ta2  1  0.805853  0.194153  0.805856  1
  Ta  Ta3  1  0.194141  0.805854  0.194152  1
  Ta  Ta4  1  0.194141  0.805854  0.805853  1
  Ta  Ta5  1  0.805853  0.194153  0.194139  1
  Ta  Ta6  1  0.444155  0.444150  0.055848  1
  Ta  Ta7  1  0.055873  0.055845  0.444141  1
  Ta  Ta8  1  0.444147  0.055847  0.444144  1
  Ta  Ta9  1  0.055859  0.444146  0.055848  1
  Ta  Ta10  1  0.055859  0.444146  0.444147  1
  Ta  Ta11  1  0.444147  0.055847  0.055861  1
  Mn  Mn12  1  0.739226  0.420286  0.420244  1
  Mn  Mn13  1  0.420330  0.739185  0.420243  1
  Mn  Mn14  1  0.420307  0.420273  0.739204  1
  Mn  Mn15  1  0.420307  0.420273  0.420216  1
  Mn  Mn16  1  0.510774  0.829714  0.829756  1
  Mn  Mn17  1  0.829670  0.510815  0.829757  1
  Mn  Mn18  1  0.829693  0.829727  0.510796  1
  Mn  Mn19  1  0.829693  0.829727  0.829784  1
  V  V20  1  0.125000  0.625000  0.625000  1
  V  V21  1  0.625000  0.125000  0.625000  1
  V  V22  1  0.625000  0.625000  0.125000  1
  V  V23  1  0.625000  0.625000  0.625000  1
  N  N24  1  0.625000  0.125000  0.125000  1
  N  N25  1  0.125000  0.625000  0.125000  1
  N  N26  1  0.125000  0.125000  0.625000  1
  N  N27  1  0.125000  0.125000  0.125000  1
