# generated using pymatgen
data_Yb10AgBiPt4
_symmetry_space_group_name_H-M   'P 1'
_cell_length_a   8.93232540
_cell_length_b   8.93232552
_cell_length_c   8.93232452
_cell_angle_alpha   128.08441084
_cell_angle_beta   128.08441178
_cell_angle_gamma   76.48832786
_symmetry_Int_Tables_number   1
_chemical_formula_structural   Yb10AgBiPt4
_chemical_formula_sum   'Yb10 Ag1 Bi1 Pt4'
_cell_volume   428.94760616
_cell_formula_units_Z   1
loop_
 _symmetry_equiv_pos_site_id
 _symmetry_equiv_pos_as_xyz
  1  'x, y, z'
loop_
 _atom_site_type_symbol
 _atom_site_label
 _atom_site_symmetry_multiplicity
 _atom_site_fract_x
 _atom_site_fract_y
 _atom_site_fract_z
 _atom_site_occupancy
  Yb  Yb0  1  0.996414  0.996414  0.000000  1
  Yb  Yb1  1  0.503586  0.503586  0.000000  1
  Yb  Yb2  1  0.801104  0.292787  0.829649  1
  Yb  Yb3  1  0.207213  0.698896  0.170351  1
  Yb  Yb4  1  0.463138  0.971455  0.170351  1
  Yb  Yb5  1  0.292787  0.463138  0.491683  1
  Yb  Yb6  1  0.036862  0.207213  0.508317  1
  Yb  Yb7  1  0.528545  0.036862  0.829649  1
  Yb  Yb8  1  0.698896  0.528545  0.491683  1
  Yb  Yb9  1  0.971455  0.801104  0.508317  1
  Ag  Ag10  1  0.250000  0.250000  0.000000  1
  Bi  Bi11  1  0.750000  0.750000  0.000000  1
  Pt  Pt12  1  0.132165  0.632165  0.764332  1
  Pt  Pt13  1  0.867835  0.367835  0.235668  1
  Pt  Pt14  1  0.632165  0.867835  0.500000  1
  Pt  Pt15  1  0.367835  0.132165  0.500000  1
