# generated using pymatgen
data_Zr3ScFe8
_symmetry_space_group_name_H-M   'P 1'
_cell_length_a   8.62294050
_cell_length_b   8.62294043
_cell_length_c   8.62293961
_cell_angle_alpha   33.51452089
_cell_angle_beta   33.51452277
_cell_angle_gamma   33.51453571
_symmetry_Int_Tables_number   1
_chemical_formula_structural   Zr3ScFe8
_chemical_formula_sum   'Zr3 Sc1 Fe8'
_cell_volume   174.09653530
_cell_formula_units_Z   1
loop_
 _symmetry_equiv_pos_site_id
 _symmetry_equiv_pos_as_xyz
  1  'x, y, z'
loop_
 _atom_site_type_symbol
 _atom_site_label
 _atom_site_symmetry_multiplicity
 _atom_site_fract_x
 _atom_site_fract_y
 _atom_site_fract_z
 _atom_site_occupancy
  Zr  Zr0  1  0.375242  0.375242  0.375242  1
  Zr  Zr1  1  0.998886  0.998886  0.998886  1
  Zr  Zr2  1  0.500945  0.500945  0.500945  1
  Sc  Sc3  1  0.874725  0.874725  0.874725  1
  Fe  Fe4  1  0.437235  0.937811  0.437235  1
  Fe  Fe5  1  0.937561  0.437657  0.937561  1
  Fe  Fe6  1  0.437235  0.437235  0.937811  1
  Fe  Fe7  1  0.937561  0.937561  0.437657  1
  Fe  Fe8  1  0.187633  0.187633  0.187633  1
  Fe  Fe9  1  0.687508  0.687508  0.687508  1
  Fe  Fe10  1  0.937811  0.437235  0.437235  1
  Fe  Fe11  1  0.437657  0.937561  0.937561  1
