# generated using pymatgen
data_Eu3Y(Al3Pd)6
_symmetry_space_group_name_H-M   'P 1'
_cell_length_a   7.67742315
_cell_length_b   7.67899687
_cell_length_c   9.59362200
_cell_angle_alpha   90.00000000
_cell_angle_beta   90.00000000
_cell_angle_gamma   119.61691829
_symmetry_Int_Tables_number   1
_chemical_formula_structural   Eu3Y(Al3Pd)6
_chemical_formula_sum   'Eu3 Y1 Al18 Pd6'
_cell_volume   491.69608510
_cell_formula_units_Z   1
loop_
 _symmetry_equiv_pos_site_id
 _symmetry_equiv_pos_as_xyz
  1  'x, y, z'
loop_
 _atom_site_type_symbol
 _atom_site_label
 _atom_site_symmetry_multiplicity
 _atom_site_fract_x
 _atom_site_fract_y
 _atom_site_fract_z
 _atom_site_occupancy
  Eu  Eu0  1  0.995401  0.668321  0.250000  1
  Eu  Eu1  1  0.003586  0.330983  0.750000  1
  Eu  Eu2  1  0.670092  0.996084  0.250000  1
  Y  Y3  1  0.330683  0.003888  0.750000  1
  Al  Al4  1  0.131745  0.130855  0.250000  1
  Al  Al5  1  0.871109  0.869600  0.750000  1
  Al  Al6  1  0.001674  0.334463  0.074777  1
  Al  Al7  1  0.998873  0.665892  0.923776  1
  Al  Al8  1  0.998873  0.665892  0.576224  1
  Al  Al9  1  0.334494  0.001030  0.425174  1
  Al  Al10  1  0.001674  0.334463  0.425223  1
  Al  Al11  1  0.665163  0.998720  0.576191  1
  Al  Al12  1  0.665163  0.998720  0.923809  1
  Al  Al13  1  0.334494  0.001030  0.074826  1
  Al  Al14  1  0.333550  0.333278  0.557192  1
  Al  Al15  1  0.665934  0.665908  0.445498  1
  Al  Al16  1  0.665934  0.665908  0.054502  1
  Al  Al17  1  0.333550  0.333278  0.942808  1
  Al  Al18  1  0.340645  0.545890  0.250000  1
  Al  Al19  1  0.657716  0.453710  0.750000  1
  Al  Al20  1  0.544155  0.339892  0.250000  1
  Al  Al21  1  0.455692  0.662491  0.750000  1
  Pd  Pd22  1  0.669107  0.327744  0.998362  1
  Pd  Pd23  1  0.329050  0.671738  0.998235  1
  Pd  Pd24  1  0.329050  0.671738  0.501765  1
  Pd  Pd25  1  0.669107  0.327744  0.501638  1
  Pd  Pd26  1  0.001744  0.000369  0.998258  1
  Pd  Pd27  1  0.001744  0.000369  0.501742  1
