# generated using pymatgen
data_Dy3Y5(NiAg)2
_symmetry_space_group_name_H-M   'P 1'
_cell_length_a   9.45355184
_cell_length_b   9.46033956
_cell_length_c   9.46033943
_cell_angle_alpha   59.95254019
_cell_angle_beta   60.02373415
_cell_angle_gamma   60.02373133
_symmetry_Int_Tables_number   1
_chemical_formula_structural   Dy3Y5(NiAg)2
_chemical_formula_sum   'Dy6 Y10 Ni4 Ag4'
_cell_volume   598.26421699
_cell_formula_units_Z   2
loop_
 _symmetry_equiv_pos_site_id
 _symmetry_equiv_pos_as_xyz
  1  'x, y, z'
loop_
 _atom_site_type_symbol
 _atom_site_label
 _atom_site_symmetry_multiplicity
 _atom_site_fract_x
 _atom_site_fract_y
 _atom_site_fract_z
 _atom_site_occupancy
  Dy  Dy0  1  0.600364  0.600321  0.600321  1
  Dy  Dy1  1  0.600321  0.600364  0.198994  1
  Dy  Dy2  1  0.600321  0.198994  0.600364  1
  Dy  Dy3  1  0.198994  0.600321  0.600321  1
  Dy  Dy4  1  0.060849  0.439151  0.439151  1
  Dy  Dy5  1  0.439151  0.060849  0.060849  1
  Y  Y6  1  0.439054  0.060946  0.439054  1
  Y  Y7  1  0.060946  0.439054  0.060946  1
  Y  Y8  1  0.439054  0.439054  0.060946  1
  Y  Y9  1  0.060946  0.060946  0.439054  1
  Y  Y10  1  0.185640  0.814360  0.814360  1
  Y  Y11  1  0.814360  0.185640  0.185640  1
  Y  Y12  1  0.814221  0.185779  0.814221  1
  Y  Y13  1  0.185779  0.814221  0.185779  1
  Y  Y14  1  0.814221  0.814221  0.185779  1
  Y  Y15  1  0.185779  0.185779  0.814221  1
  Ni  Ni16  1  0.392665  0.393793  0.393793  1
  Ni  Ni17  1  0.393793  0.392665  0.819749  1
  Ni  Ni18  1  0.393793  0.819749  0.392665  1
  Ni  Ni19  1  0.819749  0.393793  0.393793  1
  Ag  Ag20  1  0.831296  0.831409  0.831409  1
  Ag  Ag21  1  0.831409  0.831296  0.505887  1
  Ag  Ag22  1  0.831409  0.505887  0.831296  1
  Ag  Ag23  1  0.505887  0.831409  0.831409  1
