# generated using pymatgen
data_PrAs3PRu6
_symmetry_space_group_name_H-M   'P 1'
_cell_length_a   7.13266900
_cell_length_b   7.13266877
_cell_length_c   3.88430200
_cell_angle_alpha   90.00000000
_cell_angle_beta   90.00000000
_cell_angle_gamma   120.00000569
_symmetry_Int_Tables_number   1
_chemical_formula_structural   PrAs3PRu6
_chemical_formula_sum   'Pr1 As3 P1 Ru6'
_cell_volume   171.13850053
_cell_formula_units_Z   1
loop_
 _symmetry_equiv_pos_site_id
 _symmetry_equiv_pos_as_xyz
  1  'x, y, z'
loop_
 _atom_site_type_symbol
 _atom_site_label
 _atom_site_symmetry_multiplicity
 _atom_site_fract_x
 _atom_site_fract_y
 _atom_site_fract_z
 _atom_site_occupancy
  Pr  Pr0  1  0.000000  0.000000  0.000000  1
  As  As1  1  0.384757  0.192379  0.499999  1
  As  As2  1  0.807620  0.192379  0.499999  1
  As  As3  1  0.807621  0.615243  0.499999  1
  P  P4  1  0.333333  0.666667  0.000000  1
  Ru  Ru5  1  0.531327  0.062656  0.000000  1
  Ru  Ru6  1  0.531327  0.468672  0.000000  1
  Ru  Ru7  1  0.937343  0.468672  0.000000  1
  Ru  Ru8  1  0.205655  0.411310  0.499999  1
  Ru  Ru9  1  0.205654  0.794346  0.499999  1
  Ru  Ru10  1  0.588690  0.794346  0.499999  1
