# generated using pymatgen
data_Dy9TmBi5Sb
_symmetry_space_group_name_H-M   'P 1'
_cell_length_a   8.21808100
_cell_length_b   9.49117920
_cell_length_c   12.02025006
_cell_angle_alpha   89.98243027
_cell_angle_beta   90.00000000
_cell_angle_gamma   90.00000000
_symmetry_Int_Tables_number   1
_chemical_formula_structural   Dy9TmBi5Sb
_chemical_formula_sum   'Dy18 Tm2 Bi10 Sb2'
_cell_volume   937.57079967
_cell_formula_units_Z   2
loop_
 _symmetry_equiv_pos_site_id
 _symmetry_equiv_pos_as_xyz
  1  'x, y, z'
loop_
 _atom_site_type_symbol
 _atom_site_label
 _atom_site_symmetry_multiplicity
 _atom_site_fract_x
 _atom_site_fract_y
 _atom_site_fract_z
 _atom_site_occupancy
  Dy  Dy0  1  0.352850  0.750147  0.213185  1
  Dy  Dy1  1  0.852850  0.749853  0.286815  1
  Dy  Dy2  1  0.647524  0.249906  0.784104  1
  Dy  Dy3  1  0.147524  0.250094  0.715896  1
  Dy  Dy4  1  0.309066  0.060292  0.941795  1
  Dy  Dy5  1  0.809066  0.439708  0.558205  1
  Dy  Dy6  1  0.308337  0.439949  0.941337  1
  Dy  Dy7  1  0.808337  0.060051  0.558663  1
  Dy  Dy8  1  0.690087  0.934460  0.057606  1
  Dy  Dy9  1  0.190087  0.565540  0.442394  1
  Dy  Dy10  1  0.475173  0.249848  0.487912  1
  Dy  Dy11  1  0.975173  0.250152  0.012088  1
  Dy  Dy12  1  0.527895  0.750207  0.512128  1
  Dy  Dy13  1  0.027895  0.749793  0.987872  1
  Dy  Dy14  1  0.312972  0.249984  0.218930  1
  Dy  Dy15  1  0.812972  0.250016  0.281070  1
  Dy  Dy16  1  0.684623  0.749718  0.782023  1
  Dy  Dy17  1  0.184623  0.750282  0.717977  1
  Tm  Tm18  1  0.690188  0.567466  0.057727  1
  Tm  Tm19  1  0.190188  0.932534  0.442273  1
  Bi  Bi20  1  0.593353  0.252225  0.043236  1
  Bi  Bi21  1  0.093353  0.247775  0.456764  1
  Bi  Bi22  1  0.565322  0.995479  0.325531  1
  Bi  Bi23  1  0.065322  0.504521  0.174469  1
  Bi  Bi24  1  0.434198  0.495619  0.674417  1
  Bi  Bi25  1  0.934198  0.004381  0.825583  1
  Bi  Bi26  1  0.434151  0.004449  0.674293  1
  Bi  Bi27  1  0.934151  0.495551  0.825707  1
  Bi  Bi28  1  0.565854  0.504578  0.325376  1
  Bi  Bi29  1  0.065854  0.995422  0.174624  1
  Sb  Sb30  1  0.408409  0.749392  0.958549  1
  Sb  Sb31  1  0.908409  0.750608  0.541451  1
