# generated using pymatgen
data_Rb8SnAs4
_symmetry_space_group_name_H-M   'P 1'
_cell_length_a   11.52430398
_cell_length_b   11.52430333
_cell_length_c   11.52430400
_cell_angle_alpha   59.99999809
_cell_angle_beta   59.99999994
_cell_angle_gamma   59.99999811
_symmetry_Int_Tables_number   1
_chemical_formula_structural   Rb8SnAs4
_chemical_formula_sum   'Rb16 Sn2 As8'
_cell_volume   1082.25370590
_cell_formula_units_Z   2
loop_
 _symmetry_equiv_pos_site_id
 _symmetry_equiv_pos_as_xyz
  1  'x, y, z'
loop_
 _atom_site_type_symbol
 _atom_site_label
 _atom_site_symmetry_multiplicity
 _atom_site_fract_x
 _atom_site_fract_y
 _atom_site_fract_z
 _atom_site_occupancy
  Rb  Rb0  1  0.625000  0.125000  0.625000  1
  Rb  Rb1  1  0.625000  0.625000  0.125000  1
  Rb  Rb2  1  0.125000  0.625000  0.625000  1
  Rb  Rb3  1  0.625000  0.625000  0.625000  1
  Rb  Rb4  1  0.024042  0.024042  0.475958  1
  Rb  Rb5  1  0.774042  0.225958  0.225958  1
  Rb  Rb6  1  0.225958  0.774042  0.774042  1
  Rb  Rb7  1  0.774042  0.774042  0.225958  1
  Rb  Rb8  1  0.774042  0.225958  0.774042  1
  Rb  Rb9  1  0.225958  0.774042  0.225958  1
  Rb  Rb10  1  0.475958  0.024042  0.475958  1
  Rb  Rb11  1  0.475958  0.024042  0.024042  1
  Rb  Rb12  1  0.024042  0.475958  0.475958  1
  Rb  Rb13  1  0.024042  0.475958  0.024042  1
  Rb  Rb14  1  0.225958  0.225958  0.774042  1
  Rb  Rb15  1  0.475958  0.475958  0.024042  1
  Sn  Sn16  1  0.750000  0.750000  0.750000  1
  Sn  Sn17  1  0.500000  0.500000  0.500000  1
  As  As18  1  0.401626  0.795122  0.401626  1
  As  As19  1  0.848374  0.848374  0.454878  1
  As  As20  1  0.454878  0.848374  0.848374  1
  As  As21  1  0.848374  0.848374  0.848374  1
  As  As22  1  0.795122  0.401626  0.401626  1
  As  As23  1  0.401626  0.401626  0.401626  1
  As  As24  1  0.401626  0.401626  0.795122  1
  As  As25  1  0.848374  0.454878  0.848374  1
