# generated using pymatgen
data_SmTh2(SnIr)3
_symmetry_space_group_name_H-M   'P 1'
_cell_length_a   7.59050161
_cell_length_b   7.59050107
_cell_length_c   4.10626300
_cell_angle_alpha   90.00000000
_cell_angle_beta   90.00000000
_cell_angle_gamma   120.29768575
_symmetry_Int_Tables_number   1
_chemical_formula_structural   SmTh2(SnIr)3
_chemical_formula_sum   'Sm1 Th2 Sn3 Ir3'
_cell_volume   204.27148239
_cell_formula_units_Z   1
loop_
 _symmetry_equiv_pos_site_id
 _symmetry_equiv_pos_as_xyz
  1  'x, y, z'
loop_
 _atom_site_type_symbol
 _atom_site_label
 _atom_site_symmetry_multiplicity
 _atom_site_fract_x
 _atom_site_fract_y
 _atom_site_fract_z
 _atom_site_occupancy
  Sm  Sm0  1  0.408262  0.408262  0.000000  1
  Th  Th1  1  0.587657  0.999837  0.000000  1
  Th  Th2  1  0.999837  0.587657  0.000000  1
  Sn  Sn3  1  0.252245  0.008000  0.500000  1
  Sn  Sn4  1  0.008000  0.252245  0.500000  1
  Sn  Sn5  1  0.740927  0.740927  0.500000  1
  Ir  Ir6  1  0.331716  0.678218  0.500000  1
  Ir  Ir7  1  0.678218  0.331716  0.500000  1
  Ir  Ir8  1  0.993138  0.993138  0.000000  1
