# generated using pymatgen
data_Y20TcAg6Pt
_symmetry_space_group_name_H-M   'P 1'
_cell_length_a   9.66100500
_cell_length_b   9.66100546
_cell_length_c   9.89971600
_cell_angle_alpha   90.00000000
_cell_angle_beta   90.00000000
_cell_angle_gamma   120.00000184
_symmetry_Int_Tables_number   1
_chemical_formula_structural   Y20TcAg6Pt
_chemical_formula_sum   'Y20 Tc1 Ag6 Pt1'
_cell_volume   800.19898097
_cell_formula_units_Z   1
loop_
 _symmetry_equiv_pos_site_id
 _symmetry_equiv_pos_as_xyz
  1  'x, y, z'
loop_
 _atom_site_type_symbol
 _atom_site_label
 _atom_site_symmetry_multiplicity
 _atom_site_fract_x
 _atom_site_fract_y
 _atom_site_fract_z
 _atom_site_occupancy
  Y  Y0  1  0.000000  0.000000  0.498429  1
  Y  Y1  1  0.000000  0.000000  0.001571  1
  Y  Y2  1  0.207850  0.792150  0.442792  1
  Y  Y3  1  0.207850  0.415702  0.442792  1
  Y  Y4  1  0.584298  0.792150  0.442792  1
  Y  Y5  1  0.790438  0.209562  0.559629  1
  Y  Y6  1  0.790438  0.580876  0.559629  1
  Y  Y7  1  0.419124  0.209562  0.559629  1
  Y  Y8  1  0.790438  0.209562  0.940371  1
  Y  Y9  1  0.790438  0.580876  0.940371  1
  Y  Y10  1  0.419124  0.209562  0.940371  1
  Y  Y11  1  0.207850  0.792150  0.057208  1
  Y  Y12  1  0.207850  0.415702  0.057208  1
  Y  Y13  1  0.584298  0.792150  0.057208  1
  Y  Y14  1  0.542558  0.457442  0.250000  1
  Y  Y15  1  0.542558  0.085116  0.250000  1
  Y  Y16  1  0.914884  0.457442  0.250000  1
  Y  Y17  1  0.459938  0.540062  0.750000  1
  Y  Y18  1  0.459938  0.919879  0.750000  1
  Y  Y19  1  0.080121  0.540062  0.750000  1
  Tc  Tc20  1  0.666667  0.333333  0.750000  1
  Ag  Ag21  1  0.884332  0.115668  0.250000  1
  Ag  Ag22  1  0.884332  0.768665  0.250000  1
  Ag  Ag23  1  0.231335  0.115668  0.250000  1
  Ag  Ag24  1  0.116522  0.883478  0.750000  1
  Ag  Ag25  1  0.116522  0.233042  0.750000  1
  Ag  Ag26  1  0.766958  0.883478  0.750000  1
  Pt  Pt27  1  0.333333  0.666667  0.250000  1
