# generated using pymatgen
data_TaTi3CrB2P
_symmetry_space_group_name_H-M   'P 1'
_cell_length_a   5.92421853
_cell_length_b   5.92421915
_cell_length_c   7.07444140
_cell_angle_alpha   114.84563188
_cell_angle_beta   114.84562517
_cell_angle_gamma   89.79896902
_symmetry_Int_Tables_number   1
_chemical_formula_structural   TaTi3CrB2P
_chemical_formula_sum   'Ta2 Ti6 Cr2 B4 P2'
_cell_volume   199.88781139
_cell_formula_units_Z   2
loop_
 _symmetry_equiv_pos_site_id
 _symmetry_equiv_pos_as_xyz
  1  'x, y, z'
loop_
 _atom_site_type_symbol
 _atom_site_label
 _atom_site_symmetry_multiplicity
 _atom_site_fract_x
 _atom_site_fract_y
 _atom_site_fract_z
 _atom_site_occupancy
  Ta  Ta0  1  0.809972  0.960037  0.270009  1
  Ta  Ta1  1  0.460037  0.309972  0.270009  1
  Ti  Ti2  1  0.037995  0.537995  0.730028  1
  Ti  Ti3  1  0.692034  0.192034  0.730028  1
  Ti  Ti4  1  0.191577  0.041119  0.732696  1
  Ti  Ti5  1  0.541119  0.691577  0.732696  1
  Ti  Ti6  1  0.958267  0.458267  0.267928  1
  Ti  Ti7  1  0.309660  0.809660  0.267928  1
  Cr  Cr8  1  0.497332  0.497332  0.994664  1
  Cr  Cr9  1  0.997332  0.997332  0.994664  1
  B  B10  1  0.381798  0.881798  0.996200  1
  B  B11  1  0.614402  0.114402  0.996200  1
  B  B12  1  0.112330  0.387179  0.999510  1
  B  B13  1  0.887179  0.612330  0.999510  1
  P  P14  1  0.254483  0.254483  0.508965  1
  P  P15  1  0.754483  0.754483  0.508965  1
