# generated using pymatgen
data_HfZr2ScMo8
_symmetry_space_group_name_H-M   'P 1'
_cell_length_a   9.35184556
_cell_length_b   9.35184571
_cell_length_c   9.35184680
_cell_angle_alpha   33.39390442
_cell_angle_beta   33.39390245
_cell_angle_gamma   33.39390705
_symmetry_Int_Tables_number   1
_chemical_formula_structural   HfZr2ScMo8
_chemical_formula_sum   'Hf1 Zr2 Sc1 Mo8'
_cell_volume   220.62901924
_cell_formula_units_Z   1
loop_
 _symmetry_equiv_pos_site_id
 _symmetry_equiv_pos_as_xyz
  1  'x, y, z'
loop_
 _atom_site_type_symbol
 _atom_site_label
 _atom_site_symmetry_multiplicity
 _atom_site_fract_x
 _atom_site_fract_y
 _atom_site_fract_z
 _atom_site_occupancy
  Hf  Hf0  1  0.124845  0.124845  0.124845  1
  Zr  Zr1  1  0.000318  0.000318  0.000318  1
  Zr  Zr2  1  0.499910  0.499910  0.499910  1
  Sc  Sc3  1  0.625056  0.625056  0.625056  1
  Mo  Mo4  1  0.562898  0.062314  0.562898  1
  Mo  Mo5  1  0.062490  0.561899  0.062490  1
  Mo  Mo6  1  0.062314  0.562898  0.562898  1
  Mo  Mo7  1  0.561899  0.062490  0.062490  1
  Mo  Mo8  1  0.812487  0.812487  0.812487  1
  Mo  Mo9  1  0.312394  0.312394  0.312394  1
  Mo  Mo10  1  0.562898  0.562898  0.062314  1
  Mo  Mo11  1  0.062490  0.062490  0.561899  1
