# generated using pymatgen
data_PrTmCo4(B2Ru)4
_symmetry_space_group_name_H-M   'P 1'
_cell_length_a   7.26430154
_cell_length_b   7.20860858
_cell_length_c   3.92003600
_cell_angle_alpha   90.00000000
_cell_angle_beta   90.00000000
_cell_angle_gamma   90.25245711
_symmetry_Int_Tables_number   1
_chemical_formula_structural   PrTmCo4(B2Ru)4
_chemical_formula_sum   'Pr1 Tm1 Co4 B8 Ru4'
_cell_volume   205.27267770
_cell_formula_units_Z   1
loop_
 _symmetry_equiv_pos_site_id
 _symmetry_equiv_pos_as_xyz
  1  'x, y, z'
loop_
 _atom_site_type_symbol
 _atom_site_label
 _atom_site_symmetry_multiplicity
 _atom_site_fract_x
 _atom_site_fract_y
 _atom_site_fract_z
 _atom_site_occupancy
  Pr  Pr0  1  0.500000  0.500000  0.578360  1
  Tm  Tm1  1  0.000000  0.000000  0.098173  1
  Co  Co2  1  0.622554  0.116344  0.375976  1
  Co  Co3  1  0.377446  0.883656  0.375976  1
  Co  Co4  1  0.618927  0.879371  0.876989  1
  Co  Co5  1  0.381073  0.120629  0.876989  1
  B  B6  1  0.339059  0.823201  0.881597  1
  B  B7  1  0.660941  0.176799  0.881597  1
  B  B8  1  0.314913  0.155766  0.377922  1
  B  B9  1  0.685087  0.844234  0.377922  1
  B  B10  1  0.170911  0.736391  0.597867  1
  B  B11  1  0.829089  0.263609  0.597867  1
  B  B12  1  0.221478  0.323766  0.097608  1
  B  B13  1  0.778522  0.676234  0.097608  1
  Ru  Ru14  1  0.844751  0.387452  0.101818  1
  Ru  Ru15  1  0.155249  0.612548  0.101818  1
  Ru  Ru16  1  0.891223  0.664214  0.601956  1
  Ru  Ru17  1  0.108777  0.335786  0.601956  1
