# generated using pymatgen
data_DyEr3(Tm2C7)2
_symmetry_space_group_name_H-M   'P 1'
_cell_length_a   13.66890733
_cell_length_b   3.66216691
_cell_length_c   6.39410983
_cell_angle_alpha   74.71246825
_cell_angle_beta   89.95074017
_cell_angle_gamma   89.99808919
_symmetry_Int_Tables_number   1
_chemical_formula_structural   DyEr3(Tm2C7)2
_chemical_formula_sum   'Dy1 Er3 Tm4 C14'
_cell_volume   308.74916034
_cell_formula_units_Z   1
loop_
 _symmetry_equiv_pos_site_id
 _symmetry_equiv_pos_as_xyz
  1  'x, y, z'
loop_
 _atom_site_type_symbol
 _atom_site_label
 _atom_site_symmetry_multiplicity
 _atom_site_fract_x
 _atom_site_fract_y
 _atom_site_fract_z
 _atom_site_occupancy
  Dy  Dy0  1  0.055897  0.633240  0.738783  1
  Er  Er1  1  0.944587  0.368375  0.260365  1
  Er  Er2  1  0.555391  0.367489  0.759953  1
  Er  Er3  1  0.445235  0.632132  0.239825  1
  Tm  Tm4  1  0.340030  0.942099  0.662072  1
  Tm  Tm5  1  0.661164  0.056309  0.338217  1
  Tm  Tm6  1  0.839122  0.057734  0.839022  1
  Tm  Tm7  1  0.161087  0.942261  0.162087  1
  C  C8  1  0.894814  0.738854  0.549775  1
  C  C9  1  0.103769  0.268379  0.444023  1
  C  C10  1  0.396522  0.262391  0.949311  1
  C  C11  1  0.603675  0.734984  0.051768  1
  C  C12  1  0.216666  0.536452  0.930231  1
  C  C13  1  0.783881  0.464234  0.071219  1
  C  C14  1  0.715150  0.461369  0.572072  1
  C  C15  1  0.284151  0.535295  0.430152  1
  C  C16  1  0.802557  0.622810  0.543903  1
  C  C17  1  0.196523  0.375917  0.455872  1
  C  C18  1  0.304152  0.375897  0.957403  1
  C  C19  1  0.696259  0.623781  0.043594  1
  C  C20  1  0.499921  0.000104  0.499967  1
  C  C21  1  0.999448  0.999893  0.000385  1
