# generated using pymatgen
data_SmPuAsCl2
_symmetry_space_group_name_H-M   'P 1'
_cell_length_a   4.10878500
_cell_length_b   4.10878459
_cell_length_c   10.08047200
_cell_angle_alpha   90.00000000
_cell_angle_beta   90.00000000
_cell_angle_gamma   119.99999528
_symmetry_Int_Tables_number   1
_chemical_formula_structural   SmPuAsCl2
_chemical_formula_sum   'Sm1 Pu1 As1 Cl2'
_cell_volume   147.37991763
_cell_formula_units_Z   1
loop_
 _symmetry_equiv_pos_site_id
 _symmetry_equiv_pos_as_xyz
  1  'x, y, z'
loop_
 _atom_site_type_symbol
 _atom_site_label
 _atom_site_symmetry_multiplicity
 _atom_site_fract_x
 _atom_site_fract_y
 _atom_site_fract_z
 _atom_site_occupancy
  Sm  Sm0  1  0.333333  0.666666  0.834821  1
  Pu  Pu1  1  0.666666  0.333333  0.167572  1
  As  As2  1  0.000000  0.000000  0.999563  1
  Cl  Cl3  1  0.333333  0.666666  0.323281  1
  Cl  Cl4  1  0.666666  0.333333  0.674763  1
