# generated using pymatgen
data_Tb9Ho(In3S)2
_symmetry_space_group_name_H-M   'P 1'
_cell_length_a   9.23263100
_cell_length_b   9.23263126
_cell_length_c   6.58890000
_cell_angle_alpha   90.00000000
_cell_angle_beta   90.00000000
_cell_angle_gamma   120.00000266
_symmetry_Int_Tables_number   1
_chemical_formula_structural   Tb9Ho(In3S)2
_chemical_formula_sum   'Tb9 Ho1 In6 S2'
_cell_volume   486.40105194
_cell_formula_units_Z   1
loop_
 _symmetry_equiv_pos_site_id
 _symmetry_equiv_pos_as_xyz
  1  'x, y, z'
loop_
 _atom_site_type_symbol
 _atom_site_label
 _atom_site_symmetry_multiplicity
 _atom_site_fract_x
 _atom_site_fract_y
 _atom_site_fract_z
 _atom_site_occupancy
  Tb  Tb0  1  0.333333  0.666667  0.500000  1
  Tb  Tb1  1  0.333333  0.666667  0.000000  1
  Tb  Tb2  1  0.666667  0.333333  0.000000  1
  Tb  Tb3  1  0.756653  0.756585  0.250106  1
  Tb  Tb4  1  0.243415  0.000067  0.250106  1
  Tb  Tb5  1  0.999933  0.243347  0.250106  1
  Tb  Tb6  1  0.243415  0.243347  0.749894  1
  Tb  Tb7  1  0.756653  0.000067  0.749894  1
  Tb  Tb8  1  0.999933  0.756585  0.749894  1
  Ho  Ho9  1  0.666667  0.333333  0.500000  1
  In  In10  1  0.400058  0.399199  0.250534  1
  In  In11  1  0.600801  0.000858  0.250534  1
  In  In12  1  0.999142  0.599942  0.250534  1
  In  In13  1  0.600801  0.599942  0.749466  1
  In  In14  1  0.400058  0.000858  0.749466  1
  In  In15  1  0.999142  0.399199  0.749466  1
  S  S16  1  0.000000  0.000000  0.500000  1
  S  S17  1  0.000000  0.000000  0.000000  1
