# generated using pymatgen
data_YbPr3Zn8
_symmetry_space_group_name_H-M   'P 1'
_cell_length_a   4.62996300
_cell_length_b   7.46826362
_cell_length_c   7.53198420
_cell_angle_alpha   89.95411320
_cell_angle_beta   90.00000000
_cell_angle_gamma   90.00000000
_symmetry_Int_Tables_number   1
_chemical_formula_structural   YbPr3Zn8
_chemical_formula_sum   'Yb1 Pr3 Zn8'
_cell_volume   260.43924116
_cell_formula_units_Z   1
loop_
 _symmetry_equiv_pos_site_id
 _symmetry_equiv_pos_as_xyz
  1  'x, y, z'
loop_
 _atom_site_type_symbol
 _atom_site_label
 _atom_site_symmetry_multiplicity
 _atom_site_fract_x
 _atom_site_fract_y
 _atom_site_fract_z
 _atom_site_occupancy
  Yb  Yb0  1  0.250000  0.999014  0.290221  1
  Pr  Pr1  1  0.250000  0.498735  0.210243  1
  Pr  Pr2  1  0.750000  0.001185  0.704165  1
  Pr  Pr3  1  0.750000  0.501019  0.791723  1
  Zn  Zn4  1  0.250000  0.694219  0.582469  1
  Zn  Zn5  1  0.250000  0.184471  0.918614  1
  Zn  Zn6  1  0.750000  0.307993  0.416103  1
  Zn  Zn7  1  0.750000  0.810124  0.085067  1
  Zn  Zn8  1  0.250000  0.302847  0.585488  1
  Zn  Zn9  1  0.250000  0.811620  0.914894  1
  Zn  Zn10  1  0.750000  0.695657  0.412582  1
  Zn  Zn11  1  0.750000  0.193114  0.088431  1
