# generated using pymatgen
data_La3PrZr4F28
_symmetry_space_group_name_H-M   'P 1'
_cell_length_a   5.95760924
_cell_length_b   9.46189280
_cell_length_c   12.69053867
_cell_angle_alpha   62.03683988
_cell_angle_beta   89.99109354
_cell_angle_gamma   89.98704062
_symmetry_Int_Tables_number   1
_chemical_formula_structural   La3PrZr4F28
_chemical_formula_sum   'La3 Pr1 Zr4 F28'
_cell_volume   631.84909754
_cell_formula_units_Z   1
loop_
 _symmetry_equiv_pos_site_id
 _symmetry_equiv_pos_as_xyz
  1  'x, y, z'
loop_
 _atom_site_type_symbol
 _atom_site_label
 _atom_site_symmetry_multiplicity
 _atom_site_fract_x
 _atom_site_fract_y
 _atom_site_fract_z
 _atom_site_occupancy
  La  La0  1  0.743327  0.811365  0.266740  1
  La  La1  1  0.243104  0.187361  0.233318  1
  La  La2  1  0.256922  0.186126  0.733425  1
  Pr  Pr3  1  0.756762  0.810732  0.766929  1
  Zr  Zr4  1  0.744889  0.272152  0.456257  1
  Zr  Zr5  1  0.244931  0.726202  0.043021  1
  Zr  Zr6  1  0.255614  0.725919  0.546442  1
  Zr  Zr7  1  0.755361  0.275527  0.954328  1
  F  F8  1  0.461137  0.712727  0.923358  1
  F  F9  1  0.958462  0.288531  0.575292  1
  F  F10  1  0.542028  0.289606  0.074652  1
  F  F11  1  0.041833  0.712054  0.426182  1
  F  F12  1  0.463145  0.283245  0.544964  1
  F  F13  1  0.963956  0.717773  0.952120  1
  F  F14  1  0.535817  0.716793  0.455628  1
  F  F15  1  0.036581  0.284657  0.044388  1
  F  F16  1  0.765612  0.519485  0.860225  1
  F  F17  1  0.266231  0.482680  0.640319  1
  F  F18  1  0.232735  0.482976  0.138063  1
  F  F19  1  0.733677  0.516047  0.361615  1
  F  F20  1  0.760331  0.032780  0.054293  1
  F  F21  1  0.260347  0.968668  0.446159  1
  F  F22  1  0.239519  0.969027  0.945346  1
  F  F23  1  0.739917  0.029369  0.557073  1
  F  F24  1  0.991585  0.733378  0.646667  1
  F  F25  1  0.491181  0.268199  0.854689  1
  F  F26  1  0.009479  0.267100  0.355802  1
  F  F27  1  0.508604  0.732287  0.143655  1
  F  F28  1  0.040835  0.744145  0.167040  1
  F  F29  1  0.541972  0.254920  0.331760  1
  F  F30  1  0.958789  0.256899  0.830746  1
  F  F31  1  0.461210  0.745284  0.669301  1
  F  F32  1  0.422317  0.969742  0.233903  1
  F  F33  1  0.921494  0.029366  0.266126  1
  F  F34  1  0.576279  0.027130  0.765743  1
  F  F35  1  0.074017  0.969751  0.734434  1
