# generated using pymatgen
data_Zr18VRe7Ni2
_symmetry_space_group_name_H-M   'P 1'
_cell_length_a   8.69170100
_cell_length_b   8.69169871
_cell_length_c   8.51595800
_cell_angle_alpha   90.00007587
_cell_angle_beta   89.99971396
_cell_angle_gamma   120.00168600
_symmetry_Int_Tables_number   1
_chemical_formula_structural   Zr18VRe7Ni2
_chemical_formula_sum   'Zr18 V1 Re7 Ni2'
_cell_volume   557.14239309
_cell_formula_units_Z   1
loop_
 _symmetry_equiv_pos_site_id
 _symmetry_equiv_pos_as_xyz
  1  'x, y, z'
loop_
 _atom_site_type_symbol
 _atom_site_label
 _atom_site_symmetry_multiplicity
 _atom_site_fract_x
 _atom_site_fract_y
 _atom_site_fract_z
 _atom_site_occupancy
  Zr  Zr0  1  0.196930  0.803079  0.443766  1
  Zr  Zr1  1  0.196929  0.393859  0.443762  1
  Zr  Zr2  1  0.606140  0.803077  0.443763  1
  Zr  Zr3  1  0.803070  0.196921  0.556234  1
  Zr  Zr4  1  0.803071  0.606141  0.556238  1
  Zr  Zr5  1  0.393860  0.196923  0.556237  1
  Zr  Zr6  1  0.802571  0.197437  0.941976  1
  Zr  Zr7  1  0.802567  0.605131  0.941972  1
  Zr  Zr8  1  0.394868  0.197435  0.941962  1
  Zr  Zr9  1  0.197429  0.802563  0.058024  1
  Zr  Zr10  1  0.197433  0.394869  0.058028  1
  Zr  Zr11  1  0.605132  0.802565  0.058038  1
  Zr  Zr12  1  0.542626  0.457373  0.249589  1
  Zr  Zr13  1  0.542632  0.085253  0.249574  1
  Zr  Zr14  1  0.914752  0.457374  0.249582  1
  Zr  Zr15  1  0.457374  0.542627  0.750411  1
  Zr  Zr16  1  0.457368  0.914747  0.750426  1
  Zr  Zr17  1  0.085248  0.542626  0.750418  1
  V  V18  1  0.000000  0.000000  0.500000  1
  Re  Re19  1  0.892438  0.107538  0.252984  1
  Re  Re20  1  0.892445  0.784912  0.253001  1
  Re  Re21  1  0.215077  0.107551  0.252997  1
  Re  Re22  1  0.107562  0.892462  0.747016  1
  Re  Re23  1  0.107555  0.215088  0.746999  1
  Re  Re24  1  0.784923  0.892449  0.747003  1
  Re  Re25  1  0.000000  0.000000  0.000000  1
  Ni  Ni26  1  0.333334  0.666675  0.249293  1
  Ni  Ni27  1  0.666666  0.333325  0.750707  1
