# generated using pymatgen
data_Tb2Sc3(SnBi)2
_symmetry_space_group_name_H-M   'P 1'
_cell_length_a   7.94982200
_cell_length_b   7.90667400
_cell_length_c   15.08267100
_cell_angle_alpha   90.00000000
_cell_angle_beta   90.00000000
_cell_angle_gamma   90.00000000
_symmetry_Int_Tables_number   1
_chemical_formula_structural   Tb2Sc3(SnBi)2
_chemical_formula_sum   'Tb8 Sc12 Sn8 Bi8'
_cell_volume   948.04618587
_cell_formula_units_Z   4
loop_
 _symmetry_equiv_pos_site_id
 _symmetry_equiv_pos_as_xyz
  1  'x, y, z'
loop_
 _atom_site_type_symbol
 _atom_site_label
 _atom_site_symmetry_multiplicity
 _atom_site_fract_x
 _atom_site_fract_y
 _atom_site_fract_z
 _atom_site_occupancy
  Tb  Tb0  1  0.539712  0.324431  0.896015  1
  Tb  Tb1  1  0.039712  0.175569  0.603985  1
  Tb  Tb2  1  0.460288  0.675569  0.396015  1
  Tb  Tb3  1  0.960288  0.824431  0.103985  1
  Tb  Tb4  1  0.460288  0.675569  0.103985  1
  Tb  Tb5  1  0.960288  0.824431  0.396015  1
  Tb  Tb6  1  0.539712  0.324431  0.603985  1
  Tb  Tb7  1  0.039712  0.175569  0.896015  1
  Sc  Sc8  1  0.375483  0.841293  0.872016  1
  Sc  Sc9  1  0.875483  0.658707  0.627984  1
  Sc  Sc10  1  0.624517  0.158707  0.372016  1
  Sc  Sc11  1  0.124517  0.341293  0.127984  1
  Sc  Sc12  1  0.624517  0.158707  0.127984  1
  Sc  Sc13  1  0.124517  0.341293  0.372016  1
  Sc  Sc14  1  0.375483  0.841293  0.627984  1
  Sc  Sc15  1  0.875483  0.658707  0.872016  1
  Sc  Sc16  1  0.207637  0.500814  0.750000  1
  Sc  Sc17  1  0.707637  0.999186  0.750000  1
  Sc  Sc18  1  0.792363  0.499186  0.250000  1
  Sc  Sc19  1  0.292363  0.000814  0.250000  1
  Sn  Sn20  1  0.571776  0.631634  0.750000  1
  Sn  Sn21  1  0.071776  0.868366  0.750000  1
  Sn  Sn22  1  0.428224  0.368366  0.250000  1
  Sn  Sn23  1  0.928224  0.131634  0.250000  1
  Sn  Sn24  1  0.348535  0.143850  0.750000  1
  Sn  Sn25  1  0.848535  0.356150  0.750000  1
  Sn  Sn26  1  0.651465  0.856150  0.250000  1
  Sn  Sn27  1  0.151465  0.643850  0.250000  1
  Bi  Bi28  1  0.287488  0.038524  0.043948  1
  Bi  Bi29  1  0.787488  0.461476  0.456052  1
  Bi  Bi30  1  0.712512  0.961476  0.543948  1
  Bi  Bi31  1  0.212512  0.538524  0.956052  1
  Bi  Bi32  1  0.712512  0.961476  0.956052  1
  Bi  Bi33  1  0.212512  0.538524  0.543948  1
  Bi  Bi34  1  0.287488  0.038524  0.456052  1
  Bi  Bi35  1  0.787488  0.461476  0.043948  1
