# generated using pymatgen
data_Y2Er4B14OsW
_symmetry_space_group_name_H-M   'P 1'
_cell_length_a   8.05941259
_cell_length_b   8.05941285
_cell_length_c   9.37902100
_cell_angle_alpha   90.00000000
_cell_angle_beta   90.00000000
_cell_angle_gamma   155.01147501
_symmetry_Int_Tables_number   1
_chemical_formula_structural   Y2Er4B14OsW
_chemical_formula_sum   'Y2 Er4 B14 Os1 W1'
_cell_volume   257.35107363
_cell_formula_units_Z   1
loop_
 _symmetry_equiv_pos_site_id
 _symmetry_equiv_pos_as_xyz
  1  'x, y, z'
loop_
 _atom_site_type_symbol
 _atom_site_label
 _atom_site_symmetry_multiplicity
 _atom_site_fract_x
 _atom_site_fract_y
 _atom_site_fract_z
 _atom_site_occupancy
  Y  Y0  1  0.244762  0.755238  0.250000  1
  Y  Y1  1  0.753795  0.246205  0.750000  1
  Er  Er2  1  0.894124  0.105876  0.438524  1
  Er  Er3  1  0.107004  0.892996  0.557611  1
  Er  Er4  1  0.894124  0.105876  0.061476  1
  Er  Er5  1  0.107004  0.892996  0.942389  1
  B  B6  1  0.726543  0.273457  0.465163  1
  B  B7  1  0.271837  0.728163  0.531748  1
  B  B8  1  0.726543  0.273457  0.034837  1
  B  B9  1  0.271837  0.728163  0.968252  1
  B  B10  1  0.631603  0.368397  0.150787  1
  B  B11  1  0.365504  0.634496  0.853293  1
  B  B12  1  0.631603  0.368397  0.349213  1
  B  B13  1  0.365504  0.634496  0.646707  1
  B  B14  1  0.520620  0.479380  0.096256  1
  B  B15  1  0.480918  0.519082  0.909509  1
  B  B16  1  0.520620  0.479380  0.403744  1
  B  B17  1  0.480918  0.519082  0.590491  1
  B  B18  1  0.456279  0.543721  0.250000  1
  B  B19  1  0.547318  0.452682  0.750000  1
  Os  Os20  1  0.053567  0.946433  0.250000  1
  W  W21  1  0.947976  0.052024  0.750000  1
