# generated using pymatgen
data_Pr8GaSi11Rh4
_symmetry_space_group_name_H-M   'P 1'
_cell_length_a   8.33577007
_cell_length_b   8.33576952
_cell_length_c   8.45726500
_cell_angle_alpha   89.99660774
_cell_angle_beta   90.00339085
_cell_angle_gamma   119.91939981
_symmetry_Int_Tables_number   1
_chemical_formula_structural   Pr8GaSi11Rh4
_chemical_formula_sum   'Pr8 Ga1 Si11 Rh4'
_cell_volume   509.33573514
_cell_formula_units_Z   1
loop_
 _symmetry_equiv_pos_site_id
 _symmetry_equiv_pos_as_xyz
  1  'x, y, z'
loop_
 _atom_site_type_symbol
 _atom_site_label
 _atom_site_symmetry_multiplicity
 _atom_site_fract_x
 _atom_site_fract_y
 _atom_site_fract_z
 _atom_site_occupancy
  Pr  Pr0  1  0.002287  0.997713  0.748179  1
  Pr  Pr1  1  0.002210  0.997790  0.251740  1
  Pr  Pr2  1  0.499137  0.500863  0.751051  1
  Pr  Pr3  1  0.498463  0.998222  0.751617  1
  Pr  Pr4  1  0.001778  0.501537  0.751617  1
  Pr  Pr5  1  0.500703  0.499297  0.248826  1
  Pr  Pr6  1  0.998709  0.500125  0.248439  1
  Pr  Pr7  1  0.499875  0.001291  0.248439  1
  Ga  Ga8  1  0.834377  0.165623  0.999525  1
  Si  Si9  1  0.834305  0.668098  0.999898  1
  Si  Si10  1  0.331902  0.165695  0.999898  1
  Si  Si11  1  0.833568  0.166432  0.500206  1
  Si  Si12  1  0.833027  0.666373  0.500215  1
  Si  Si13  1  0.333627  0.166973  0.500215  1
  Si  Si14  1  0.166767  0.833233  0.499704  1
  Si  Si15  1  0.666804  0.833793  0.499784  1
  Si  Si16  1  0.166207  0.333196  0.499784  1
  Si  Si17  1  0.166030  0.833970  0.000129  1
  Si  Si18  1  0.666175  0.830065  0.000290  1
  Si  Si19  1  0.169935  0.333825  0.000290  1
  Rh  Rh20  1  0.661328  0.338672  0.997427  1
  Rh  Rh21  1  0.666765  0.333235  0.502302  1
  Rh  Rh22  1  0.333409  0.666591  0.498039  1
  Rh  Rh23  1  0.332612  0.667388  0.002388  1
