# generated using pymatgen
data_Yb3Lu(Sc3Sn4)2
_symmetry_space_group_name_H-M   'P 1'
_cell_length_a   7.65867046
_cell_length_b   8.02530103
_cell_length_c   15.02162300
_cell_angle_alpha   89.90322548
_cell_angle_beta   89.87420410
_cell_angle_gamma   90.22964035
_symmetry_Int_Tables_number   1
_chemical_formula_structural   Yb3Lu(Sc3Sn4)2
_chemical_formula_sum   'Yb6 Lu2 Sc12 Sn16'
_cell_volume   923.26508404
_cell_formula_units_Z   2
loop_
 _symmetry_equiv_pos_site_id
 _symmetry_equiv_pos_as_xyz
  1  'x, y, z'
loop_
 _atom_site_type_symbol
 _atom_site_label
 _atom_site_symmetry_multiplicity
 _atom_site_fract_x
 _atom_site_fract_y
 _atom_site_fract_z
 _atom_site_occupancy
  Yb  Yb0  1  0.995696  0.177060  0.093428  1
  Yb  Yb1  1  0.004304  0.822940  0.906572  1
  Yb  Yb2  1  0.505003  0.676927  0.907317  1
  Yb  Yb3  1  0.004651  0.821657  0.591516  1
  Yb  Yb4  1  0.494997  0.323073  0.092683  1
  Yb  Yb5  1  0.995349  0.178343  0.408484  1
  Lu  Lu6  1  0.498034  0.320192  0.405767  1
  Lu  Lu7  1  0.501966  0.679808  0.594233  1
  Sc  Sc8  1  0.163794  0.498643  0.750085  1
  Sc  Sc9  1  0.836206  0.501357  0.249915  1
  Sc  Sc10  1  0.336520  0.998820  0.250198  1
  Sc  Sc11  1  0.663480  0.001180  0.749802  1
  Sc  Sc12  1  0.331746  0.159828  0.626444  1
  Sc  Sc13  1  0.668254  0.840172  0.373556  1
  Sc  Sc14  1  0.168730  0.659426  0.373793  1
  Sc  Sc15  1  0.669789  0.840840  0.127502  1
  Sc  Sc16  1  0.831270  0.340574  0.626207  1
  Sc  Sc17  1  0.330211  0.159160  0.872498  1
  Sc  Sc18  1  0.831459  0.339590  0.873005  1
  Sc  Sc19  1  0.168541  0.660410  0.126995  1
  Sn  Sn20  1  0.024358  0.127278  0.748794  1
  Sn  Sn21  1  0.975642  0.872722  0.251206  1
  Sn  Sn22  1  0.475250  0.623559  0.250980  1
  Sn  Sn23  1  0.524750  0.376441  0.749020  1
  Sn  Sn24  1  0.306529  0.850681  0.748298  1
  Sn  Sn25  1  0.693471  0.149319  0.251702  1
  Sn  Sn26  1  0.197672  0.353341  0.252797  1
  Sn  Sn27  1  0.802328  0.646659  0.747203  1
  Sn  Sn28  1  0.181257  0.457736  0.542521  1
  Sn  Sn29  1  0.818743  0.542264  0.457479  1
  Sn  Sn30  1  0.328989  0.959596  0.457363  1
  Sn  Sn31  1  0.828890  0.542191  0.043517  1
  Sn  Sn32  1  0.671011  0.040404  0.542637  1
  Sn  Sn33  1  0.171110  0.457809  0.956483  1
  Sn  Sn34  1  0.670687  0.041837  0.956329  1
  Sn  Sn35  1  0.329313  0.958163  0.043671  1
