# generated using pymatgen
data_Nd6InSn5Pd6
_symmetry_space_group_name_H-M   'P 1'
_cell_length_a   7.65326700
_cell_length_b   7.66304421
_cell_length_c   8.30879316
_cell_angle_alpha   89.99513613
_cell_angle_beta   90.00000000
_cell_angle_gamma   119.95779851
_symmetry_Int_Tables_number   1
_chemical_formula_structural   Nd6InSn5Pd6
_chemical_formula_sum   'Nd6 In1 Sn5 Pd6'
_cell_volume   422.18354282
_cell_formula_units_Z   1
loop_
 _symmetry_equiv_pos_site_id
 _symmetry_equiv_pos_as_xyz
  1  'x, y, z'
loop_
 _atom_site_type_symbol
 _atom_site_label
 _atom_site_symmetry_multiplicity
 _atom_site_fract_x
 _atom_site_fract_y
 _atom_site_fract_z
 _atom_site_occupancy
  Nd  Nd0  1  0.414065  0.002353  0.248496  1
  Nd  Nd1  1  0.588620  0.586325  0.249269  1
  Nd  Nd2  1  0.998145  0.411825  0.249210  1
  Nd  Nd3  1  0.411713  0.997647  0.751504  1
  Nd  Nd4  1  0.586319  0.588175  0.750790  1
  Nd  Nd5  1  0.002295  0.413675  0.750731  1
  In  In6  1  0.748620  0.000000  0.000000  1
  Sn  Sn7  1  0.254118  0.254114  0.500201  1
  Sn  Sn8  1  0.000005  0.745886  0.499799  1
  Sn  Sn9  1  0.996928  0.750750  0.999856  1
  Sn  Sn10  1  0.246177  0.249250  0.000144  1
  Sn  Sn11  1  0.747623  0.000000  0.500000  1
  Pd  Pd12  1  0.331090  0.665676  0.004136  1
  Pd  Pd13  1  0.334486  0.667064  0.495442  1
  Pd  Pd14  1  0.665415  0.334324  0.995864  1
  Pd  Pd15  1  0.667423  0.332936  0.504558  1
  Pd  Pd16  1  0.003612  0.000267  0.253787  1
  Pd  Pd17  1  0.003345  0.999733  0.746213  1
