# generated using pymatgen
data_TbEr4GaSb2
_symmetry_space_group_name_H-M   'P 1'
_cell_length_a   8.79394579
_cell_length_b   8.76142692
_cell_length_c   6.37289300
_cell_angle_alpha   90.00000000
_cell_angle_beta   90.00000000
_cell_angle_gamma   119.87774288
_symmetry_Int_Tables_number   1
_chemical_formula_structural   TbEr4GaSb2
_chemical_formula_sum   'Tb2 Er8 Ga2 Sb4'
_cell_volume   425.75484092
_cell_formula_units_Z   2
loop_
 _symmetry_equiv_pos_site_id
 _symmetry_equiv_pos_as_xyz
  1  'x, y, z'
loop_
 _atom_site_type_symbol
 _atom_site_label
 _atom_site_symmetry_multiplicity
 _atom_site_fract_x
 _atom_site_fract_y
 _atom_site_fract_z
 _atom_site_occupancy
  Tb  Tb0  1  0.011130  0.767438  0.750000  1
  Tb  Tb1  1  0.011130  0.243692  0.250000  1
  Er  Er2  1  0.752525  0.753248  0.250000  1
  Er  Er3  1  0.752525  0.999279  0.750000  1
  Er  Er4  1  0.244604  0.233247  0.750000  1
  Er  Er5  1  0.244604  0.011357  0.250000  1
  Er  Er6  1  0.336393  0.668197  0.500000  1
  Er  Er7  1  0.652874  0.326437  0.000000  1
  Er  Er8  1  0.652874  0.326437  0.500000  1
  Er  Er9  1  0.336393  0.668197  0.000000  1
  Ga  Ga10  1  0.395497  0.997766  0.750000  1
  Ga  Ga11  1  0.395497  0.397731  0.250000  1
  Sb  Sb12  1  0.998830  0.607874  0.250000  1
  Sb  Sb13  1  0.998830  0.390956  0.750000  1
  Sb  Sb14  1  0.608146  0.607275  0.750000  1
  Sb  Sb15  1  0.608146  0.000870  0.250000  1
