# generated using pymatgen
data_Ba4TbTaO8
_symmetry_space_group_name_H-M   'P 1'
_cell_length_a   7.46924820
_cell_length_b   7.46924708
_cell_length_c   6.05300500
_cell_angle_alpha   90.00000000
_cell_angle_beta   90.00000000
_cell_angle_gamma   132.42117535
_symmetry_Int_Tables_number   1
_chemical_formula_structural   Ba4TbTaO8
_chemical_formula_sum   'Ba4 Tb1 Ta1 O8'
_cell_volume   249.28857147
_cell_formula_units_Z   1
loop_
 _symmetry_equiv_pos_site_id
 _symmetry_equiv_pos_as_xyz
  1  'x, y, z'
loop_
 _atom_site_type_symbol
 _atom_site_label
 _atom_site_symmetry_multiplicity
 _atom_site_fract_x
 _atom_site_fract_y
 _atom_site_fract_z
 _atom_site_occupancy
  Ba  Ba0  1  0.353333  0.646667  0.000000  1
  Ba  Ba1  1  0.853091  0.146909  0.500000  1
  Ba  Ba2  1  0.146909  0.853091  0.500000  1
  Ba  Ba3  1  0.646667  0.353333  0.000000  1
  Tb  Tb4  1  0.000000  0.000000  0.000000  1
  Ta  Ta5  1  0.500000  0.500000  0.500000  1
  O  O6  1  0.263224  0.263224  0.732463  1
  O  O7  1  0.736776  0.736776  0.267537  1
  O  O8  1  0.736776  0.736776  0.732463  1
  O  O9  1  0.263224  0.263224  0.267537  1
  O  O10  1  0.166373  0.833627  0.000000  1
  O  O11  1  0.650022  0.349978  0.500000  1
  O  O12  1  0.349978  0.650022  0.500000  1
  O  O13  1  0.833627  0.166373  0.000000  1
