# generated using pymatgen
data_Cd2Bi2Sb3RhO14
_symmetry_space_group_name_H-M   'P 1'
_cell_length_a   7.36642053
_cell_length_b   7.36642046
_cell_length_c   7.31498456
_cell_angle_alpha   61.42203353
_cell_angle_beta   61.42203903
_cell_angle_gamma   61.61023061
_symmetry_Int_Tables_number   1
_chemical_formula_structural   Cd2Bi2Sb3RhO14
_chemical_formula_sum   'Cd2 Bi2 Sb3 Rh1 O14'
_cell_volume   290.03382020
_cell_formula_units_Z   1
loop_
 _symmetry_equiv_pos_site_id
 _symmetry_equiv_pos_as_xyz
  1  'x, y, z'
loop_
 _atom_site_type_symbol
 _atom_site_label
 _atom_site_symmetry_multiplicity
 _atom_site_fract_x
 _atom_site_fract_y
 _atom_site_fract_z
 _atom_site_occupancy
  Cd  Cd0  1  0.125000  0.125000  0.125000  1
  Cd  Cd1  1  0.125000  0.125000  0.625000  1
  Bi  Bi2  1  0.125000  0.625000  0.125000  1
  Bi  Bi3  1  0.625000  0.125000  0.125000  1
  Sb  Sb4  1  0.625000  0.625000  0.125000  1
  Sb  Sb5  1  0.125000  0.625000  0.625000  1
  Sb  Sb6  1  0.625000  0.125000  0.625000  1
  Rh  Rh7  1  0.625000  0.625000  0.625000  1
  O  O8  1  0.242458  0.242458  0.255110  1
  O  O9  1  0.303201  0.696511  0.299223  1
  O  O10  1  0.946438  0.946438  0.552089  1
  O  O11  1  0.547781  0.957390  0.539482  1
  O  O12  1  0.706444  0.706444  0.292032  1
  O  O13  1  0.957390  0.547781  0.539482  1
  O  O14  1  0.702219  0.292610  0.710518  1
  O  O15  1  0.303562  0.303562  0.697911  1
  O  O16  1  0.696511  0.303201  0.299223  1
  O  O17  1  0.292610  0.702219  0.710518  1
  O  O18  1  0.946799  0.553489  0.950777  1
  O  O19  1  0.543556  0.543556  0.957968  1
  O  O20  1  0.007542  0.007542  0.994890  1
  O  O21  1  0.553489  0.946799  0.950777  1
