# generated using pymatgen
data_Mn6Co12Si5As
_symmetry_space_group_name_H-M   'P 1'
_cell_length_a   4.00717500
_cell_length_b   5.65526200
_cell_length_c   12.02319800
_cell_angle_alpha   90.00000000
_cell_angle_beta   90.00020493
_cell_angle_gamma   90.00000000
_symmetry_Int_Tables_number   1
_chemical_formula_structural   Mn6Co12Si5As
_chemical_formula_sum   'Mn6 Co12 Si5 As1'
_cell_volume   272.46519842
_cell_formula_units_Z   1
loop_
 _symmetry_equiv_pos_site_id
 _symmetry_equiv_pos_as_xyz
  1  'x, y, z'
loop_
 _atom_site_type_symbol
 _atom_site_label
 _atom_site_symmetry_multiplicity
 _atom_site_fract_x
 _atom_site_fract_y
 _atom_site_fract_z
 _atom_site_occupancy
  Mn  Mn0  1  0.000000  0.500000  0.000000  1
  Mn  Mn1  1  0.499902  0.000000  0.170101  1
  Mn  Mn2  1  0.999915  0.500000  0.334131  1
  Mn  Mn3  1  0.499999  0.000000  0.500000  1
  Mn  Mn4  1  0.000085  0.500000  0.665869  1
  Mn  Mn5  1  0.500100  0.000000  0.829899  1
  Co  Co6  1  0.499999  0.253011  0.000000  1
  Co  Co7  1  0.499999  0.746991  0.000000  1
  Co  Co8  1  0.999901  0.252079  0.168264  1
  Co  Co9  1  0.999901  0.747923  0.168264  1
  Co  Co10  1  0.499919  0.251020  0.334225  1
  Co  Co11  1  0.499919  0.748978  0.334225  1
  Co  Co12  1  0.000000  0.250273  0.500000  1
  Co  Co13  1  0.000000  0.749726  0.500000  1
  Co  Co14  1  0.500080  0.251020  0.665775  1
  Co  Co15  1  0.500080  0.748978  0.665775  1
  Co  Co16  1  0.000098  0.252079  0.831736  1
  Co  Co17  1  0.000098  0.747923  0.831736  1
  Si  Si18  1  0.499904  0.500000  0.168331  1
  Si  Si19  1  0.999929  0.000000  0.334967  1
  Si  Si20  1  0.499999  0.500000  0.500000  1
  Si  Si21  1  0.000073  0.000000  0.665033  1
  Si  Si22  1  0.500095  0.500000  0.831669  1
  As  As23  1  0.000000  0.000000  0.000000  1
