# generated using pymatgen
data_Lu20AlCoBi10
_symmetry_space_group_name_H-M   'P 1'
_cell_length_a   7.99252643
_cell_length_b   9.31943800
_cell_length_c   11.78477609
_cell_angle_alpha   90.00000000
_cell_angle_beta   89.86973297
_cell_angle_gamma   90.00000000
_symmetry_Int_Tables_number   1
_chemical_formula_structural   Lu20AlCoBi10
_chemical_formula_sum   'Lu20 Al1 Co1 Bi10'
_cell_volume   877.79684854
_cell_formula_units_Z   1
loop_
 _symmetry_equiv_pos_site_id
 _symmetry_equiv_pos_as_xyz
  1  'x, y, z'
loop_
 _atom_site_type_symbol
 _atom_site_label
 _atom_site_symmetry_multiplicity
 _atom_site_fract_x
 _atom_site_fract_y
 _atom_site_fract_z
 _atom_site_occupancy
  Lu  Lu0  1  0.035890  0.250000  0.508764  1
  Lu  Lu1  1  0.981266  0.750000  0.489170  1
  Lu  Lu2  1  0.489753  0.750000  0.005678  1
  Lu  Lu3  1  0.551061  0.250000  0.992371  1
  Lu  Lu4  1  0.351341  0.250000  0.295376  1
  Lu  Lu5  1  0.647259  0.750000  0.721305  1
  Lu  Lu6  1  0.164458  0.750000  0.780559  1
  Lu  Lu7  1  0.853517  0.250000  0.193000  1
  Lu  Lu8  1  0.139475  0.250000  0.801558  1
  Lu  Lu9  1  0.811466  0.750000  0.218839  1
  Lu  Lu10  1  0.308983  0.750000  0.281769  1
  Lu  Lu11  1  0.688056  0.250000  0.712780  1
  Lu  Lu12  1  0.178966  0.075294  0.056006  1
  Lu  Lu13  1  0.819151  0.977434  0.941701  1
  Lu  Lu14  1  0.308823  0.947912  0.556948  1
  Lu  Lu15  1  0.819151  0.522566  0.941701  1
  Lu  Lu16  1  0.686150  0.072017  0.440361  1
  Lu  Lu17  1  0.178966  0.424706  0.056006  1
  Lu  Lu18  1  0.686150  0.427983  0.440361  1
  Lu  Lu19  1  0.308823  0.552088  0.556948  1
  Al  Al20  1  0.412143  0.250000  0.543197  1
  Co  Co21  1  0.924753  0.250000  0.977631  1
  Bi  Bi22  1  0.596762  0.750000  0.458277  1
  Bi  Bi23  1  0.093397  0.750000  0.037553  1
  Bi  Bi24  1  0.057930  0.003168  0.322581  1
  Bi  Bi25  1  0.936091  0.993377  0.673936  1
  Bi  Bi26  1  0.433391  0.004643  0.822476  1
  Bi  Bi27  1  0.936091  0.506623  0.673936  1
  Bi  Bi28  1  0.554709  0.999798  0.177076  1
  Bi  Bi29  1  0.057930  0.496832  0.322581  1
  Bi  Bi30  1  0.554709  0.500202  0.177076  1
  Bi  Bi31  1  0.433391  0.495357  0.822476  1
