# generated using pymatgen
data_LaU2(GaIr)3
_symmetry_space_group_name_H-M   'P 1'
_cell_length_a   7.22366148
_cell_length_b   7.22366082
_cell_length_c   4.00465300
_cell_angle_alpha   90.00000000
_cell_angle_beta   90.00000000
_cell_angle_gamma   121.32215690
_symmetry_Int_Tables_number   1
_chemical_formula_structural   LaU2(GaIr)3
_chemical_formula_sum   'La1 U2 Ga3 Ir3'
_cell_volume   178.51248960
_cell_formula_units_Z   1
loop_
 _symmetry_equiv_pos_site_id
 _symmetry_equiv_pos_as_xyz
  1  'x, y, z'
loop_
 _atom_site_type_symbol
 _atom_site_label
 _atom_site_symmetry_multiplicity
 _atom_site_fract_x
 _atom_site_fract_y
 _atom_site_fract_z
 _atom_site_occupancy
  La  La0  1  0.416002  0.416002  0.500000  1
  U  U1  1  0.585298  0.003599  0.500000  1
  U  U2  1  0.003599  0.585298  0.500000  1
  Ga  Ga3  1  0.751292  0.751292  0.000000  1
  Ga  Ga4  1  0.237634  0.003784  0.000000  1
  Ga  Ga5  1  0.003784  0.237634  0.000000  1
  Ir  Ir6  1  0.696650  0.329825  0.000000  1
  Ir  Ir7  1  0.329825  0.696650  0.000000  1
  Ir  Ir8  1  0.975915  0.975915  0.500000  1
