# generated using pymatgen
data_U4CoIr3
_symmetry_space_group_name_H-M   'P 1'
_cell_length_a   5.71739073
_cell_length_b   5.68995776
_cell_length_c   5.68995927
_cell_angle_alpha   109.37335870
_cell_angle_beta   109.56889647
_cell_angle_gamma   109.56890867
_symmetry_Int_Tables_number   1
_chemical_formula_structural   U4CoIr3
_chemical_formula_sum   'U4 Co1 Ir3'
_cell_volume   142.32107905
_cell_formula_units_Z   1
loop_
 _symmetry_equiv_pos_site_id
 _symmetry_equiv_pos_as_xyz
  1  'x, y, z'
loop_
 _atom_site_type_symbol
 _atom_site_label
 _atom_site_symmetry_multiplicity
 _atom_site_fract_x
 _atom_site_fract_y
 _atom_site_fract_z
 _atom_site_occupancy
  U  U0  1  0.031784  0.109459  0.029325  1
  U  U1  1  0.059318  0.500001  0.500001  1
  U  U2  1  0.502458  0.970675  0.580133  1
  U  U3  1  0.422326  0.419867  0.890543  1
  Co  Co4  1  0.576631  0.499999  0.499999  1
  Ir  Ir5  1  0.991706  0.579767  0.987868  1
  Ir  Ir6  1  0.503837  0.012132  0.091899  1
  Ir  Ir7  1  0.911939  0.908101  0.420232  1
