# generated using pymatgen
data_Nd6Dy10MgAg3Rh4
_symmetry_space_group_name_H-M   'P 1'
_cell_length_a   9.68819278
_cell_length_b   9.67860671
_cell_length_c   9.67860600
_cell_angle_alpha   60.00000242
_cell_angle_beta   60.03272807
_cell_angle_gamma   60.03273011
_symmetry_Int_Tables_number   1
_chemical_formula_structural   Nd6Dy10MgAg3Rh4
_chemical_formula_sum   'Nd6 Dy10 Mg1 Ag3 Rh4'
_cell_volume   642.04889672
_cell_formula_units_Z   1
loop_
 _symmetry_equiv_pos_site_id
 _symmetry_equiv_pos_as_xyz
  1  'x, y, z'
loop_
 _atom_site_type_symbol
 _atom_site_label
 _atom_site_symmetry_multiplicity
 _atom_site_fract_x
 _atom_site_fract_y
 _atom_site_fract_z
 _atom_site_occupancy
  Nd  Nd0  1  0.187293  0.812707  0.812707  1
  Nd  Nd1  1  0.811280  0.187910  0.187910  1
  Nd  Nd2  1  0.811280  0.187910  0.812900  1
  Nd  Nd3  1  0.187293  0.812707  0.187291  1
  Nd  Nd4  1  0.811280  0.812900  0.187910  1
  Nd  Nd5  1  0.187293  0.187291  0.812707  1
  Dy  Dy6  1  0.599142  0.599042  0.599042  1
  Dy  Dy7  1  0.599142  0.599042  0.202773  1
  Dy  Dy8  1  0.599142  0.202773  0.599042  1
  Dy  Dy9  1  0.191584  0.602805  0.602805  1
  Dy  Dy10  1  0.063205  0.436455  0.436455  1
  Dy  Dy11  1  0.433937  0.065277  0.065277  1
  Dy  Dy12  1  0.433937  0.065277  0.435509  1
  Dy  Dy13  1  0.063205  0.436455  0.063883  1
  Dy  Dy14  1  0.433937  0.435509  0.065277  1
  Dy  Dy15  1  0.063205  0.063883  0.436455  1
  Mg  Mg16  1  0.536475  0.821176  0.821176  1
  Ag  Ag17  1  0.830791  0.832033  0.832033  1
  Ag  Ag18  1  0.830791  0.832033  0.505144  1
  Ag  Ag19  1  0.830791  0.505144  0.832033  1
  Rh  Rh20  1  0.391196  0.393655  0.393655  1
  Rh  Rh21  1  0.391196  0.393655  0.821493  1
  Rh  Rh22  1  0.391196  0.821493  0.393655  1
  Rh  Rh23  1  0.821403  0.392865  0.392865  1
