# generated using pymatgen
data_Y2Er4GaTcNi
_symmetry_space_group_name_H-M   'P 1'
_cell_length_a   8.32120212
_cell_length_b   8.32120261
_cell_length_c   8.32120274
_cell_angle_alpha   113.38685344
_cell_angle_beta   110.97078411
_cell_angle_gamma   104.19193042
_symmetry_Int_Tables_number   1
_chemical_formula_structural   Y2Er4GaTcNi
_chemical_formula_sum   'Y4 Er8 Ga2 Tc2 Ni2'
_cell_volume   440.53754145
_cell_formula_units_Z   2
loop_
 _symmetry_equiv_pos_site_id
 _symmetry_equiv_pos_as_xyz
  1  'x, y, z'
loop_
 _atom_site_type_symbol
 _atom_site_label
 _atom_site_symmetry_multiplicity
 _atom_site_fract_x
 _atom_site_fract_y
 _atom_site_fract_z
 _atom_site_occupancy
  Y  Y0  1  0.055589  0.745522  0.310067  1
  Y  Y1  1  0.944411  0.254478  0.689933  1
  Y  Y2  1  0.564546  0.254478  0.310067  1
  Y  Y3  1  0.435454  0.745522  0.689933  1
  Er  Er4  1  0.666565  0.849909  0.183343  1
  Er  Er5  1  0.333435  0.516778  0.183343  1
  Er  Er6  1  0.333435  0.150091  0.816657  1
  Er  Er7  1  0.666565  0.483222  0.816657  1
  Er  Er8  1  0.178510  0.219930  0.398441  1
  Er  Er9  1  0.821490  0.219930  0.041420  1
  Er  Er10  1  0.178510  0.780070  0.958580  1
  Er  Er11  1  0.821490  0.780070  0.601559  1
  Ga  Ga12  1  0.000000  0.500000  0.500000  1
  Ga  Ga13  1  0.500000  0.000000  0.500000  1
  Tc  Tc14  1  0.678620  0.500000  0.178620  1
  Tc  Tc15  1  0.321380  0.500000  0.821380  1
  Ni  Ni16  1  0.882867  0.882867  0.000000  1
  Ni  Ni17  1  0.117133  0.117133  0.000000  1
