# generated using pymatgen
data_La10(DySe3)9
_symmetry_space_group_name_H-M   'P 1'
_cell_length_a   4.14058143
_cell_length_b   15.75561423
_cell_length_c   19.82089900
_cell_angle_alpha   79.25266416
_cell_angle_beta   83.98890518
_cell_angle_gamma   82.45326026
_symmetry_Int_Tables_number   1
_chemical_formula_structural   La10(DySe3)9
_chemical_formula_sum   'La10 Dy9 Se27'
_cell_volume   1255.09824703
_cell_formula_units_Z   1
loop_
 _symmetry_equiv_pos_site_id
 _symmetry_equiv_pos_as_xyz
  1  'x, y, z'
loop_
 _atom_site_type_symbol
 _atom_site_label
 _atom_site_symmetry_multiplicity
 _atom_site_fract_x
 _atom_site_fract_y
 _atom_site_fract_z
 _atom_site_occupancy
  La  La0  1  0.127457  0.953240  0.791136  1
  La  La1  1  0.040728  0.606777  0.306573  1
  La  La2  1  0.115035  0.159680  0.608088  1
  La  La3  1  0.957300  0.393138  0.693489  1
  La  La4  1  0.869024  0.046420  0.209567  1
  La  La5  1  0.819352  0.464789  0.896891  1
  La  La6  1  0.797746  0.676994  0.720152  1
  La  La7  1  0.878026  0.839436  0.392639  1
  La  La8  1  0.197683  0.321837  0.280322  1
  La  La9  1  0.180970  0.534243  0.103355  1
  Dy  Dy10  1  0.178973  0.715831  0.924280  1
  Dy  Dy11  1  0.820462  0.283737  0.076425  1
  Dy  Dy12  1  0.570457  0.381609  0.471757  1
  Dy  Dy13  1  0.999653  0.000535  0.000252  1
  Dy  Dy14  1  0.747403  0.906848  0.587981  1
  Dy  Dy15  1  0.242656  0.091728  0.412710  1
  Dy  Dy16  1  0.424517  0.616817  0.528194  1
  Dy  Dy17  1  0.530578  0.806350  0.140505  1
  Dy  Dy18  1  0.471821  0.193487  0.859811  1
  Se  Se19  1  0.676982  0.804767  0.839561  1
  Se  Se20  1  0.321292  0.194519  0.160804  1
  Se  Se21  1  0.296386  0.912014  0.484391  1
  Se  Se22  1  0.605348  0.454948  0.331166  1
  Se  Se23  1  0.451736  0.994861  0.102603  1
  Se  Se24  1  0.454787  0.697480  0.384738  1
  Se  Se25  1  0.242016  0.825971  0.681803  1
  Se  Se26  1  0.541076  0.301713  0.615666  1
  Se  Se27  1  0.855130  0.728883  0.553277  1
  Se  Se28  1  0.750671  0.172682  0.318709  1
  Se  Se29  1  0.595141  0.623662  0.186044  1
  Se  Se30  1  0.139554  0.269922  0.446170  1
  Se  Se31  1  0.080223  0.812638  0.036199  1
  Se  Se32  1  0.547774  0.005041  0.898149  1
  Se  Se33  1  0.715482  0.399941  0.169835  1
  Se  Se34  1  0.391924  0.544773  0.669122  1
  Se  Se35  1  0.282616  0.599508  0.830743  1
  Se  Se36  1  0.693647  0.086871  0.516393  1
  Se  Se37  1  0.300039  0.394342  0.006910  1
  Se  Se38  1  0.922432  0.188316  0.963807  1
  Se  Se39  1  0.700248  0.604563  0.993255  1
  Se  Se40  1  0.026464  0.181355  0.764268  1
  Se  Se41  1  0.642521  0.026446  0.685940  1
  Se  Se42  1  0.405811  0.376052  0.813764  1
  Se  Se43  1  0.997427  0.498951  0.500548  1
  Se  Se44  1  0.975042  0.816506  0.236607  1
  Se  Se45  1  0.352967  0.972393  0.314595  1
