# generated using pymatgen
data_ScCd4Ir3O14
_symmetry_space_group_name_H-M   'P 1'
_cell_length_a   7.26747148
_cell_length_b   7.26747251
_cell_length_c   7.36485408
_cell_angle_alpha   60.43644686
_cell_angle_beta   60.43644233
_cell_angle_gamma   59.99999813
_symmetry_Int_Tables_number   1
_chemical_formula_structural   ScCd4Ir3O14
_chemical_formula_sum   'Sc1 Cd4 Ir3 O14'
_cell_volume   276.85321697
_cell_formula_units_Z   1
loop_
 _symmetry_equiv_pos_site_id
 _symmetry_equiv_pos_as_xyz
  1  'x, y, z'
loop_
 _atom_site_type_symbol
 _atom_site_label
 _atom_site_symmetry_multiplicity
 _atom_site_fract_x
 _atom_site_fract_y
 _atom_site_fract_z
 _atom_site_occupancy
  Sc  Sc0  1  0.625000  0.625000  0.125000  1
  Cd  Cd1  1  0.625000  0.125000  0.125000  1
  Cd  Cd2  1  0.125000  0.625000  0.125000  1
  Cd  Cd3  1  0.125000  0.125000  0.625000  1
  Cd  Cd4  1  0.125000  0.125000  0.125000  1
  Ir  Ir5  1  0.125000  0.625000  0.625000  1
  Ir  Ir6  1  0.625000  0.125000  0.625000  1
  Ir  Ir7  1  0.625000  0.625000  0.625000  1
  O  O8  1  0.707050  0.707050  0.307714  1
  O  O9  1  0.309207  0.309207  0.669196  1
  O  O10  1  0.712390  0.309207  0.669196  1
  O  O11  1  0.278186  0.707050  0.307714  1
  O  O12  1  0.309207  0.712390  0.669196  1
  O  O13  1  0.707050  0.278186  0.307714  1
  O  O14  1  0.542950  0.542950  0.942286  1
  O  O15  1  0.940793  0.940793  0.580804  1
  O  O16  1  0.537610  0.940793  0.580804  1
  O  O17  1  0.971814  0.542950  0.942286  1
  O  O18  1  0.940793  0.537610  0.580804  1
  O  O19  1  0.542950  0.971814  0.942286  1
  O  O20  1  0.247906  0.247906  0.256282  1
  O  O21  1  0.002094  0.002094  0.993718  1
