# generated using pymatgen
data_CeEr2Al12CuRu3
_symmetry_space_group_name_H-M   'P 1'
_cell_length_a   8.82471907
_cell_length_b   8.82472004
_cell_length_c   9.48358700
_cell_angle_alpha   90.00000000
_cell_angle_beta   90.00000000
_cell_angle_gamma   119.40032799
_symmetry_Int_Tables_number   1
_chemical_formula_structural   CeEr2Al12CuRu3
_chemical_formula_sum   'Ce2 Er4 Al24 Cu2 Ru6'
_cell_volume   643.42481837
_cell_formula_units_Z   2
loop_
 _symmetry_equiv_pos_site_id
 _symmetry_equiv_pos_as_xyz
  1  'x, y, z'
loop_
 _atom_site_type_symbol
 _atom_site_label
 _atom_site_symmetry_multiplicity
 _atom_site_fract_x
 _atom_site_fract_y
 _atom_site_fract_z
 _atom_site_occupancy
  Ce  Ce0  1  0.811139  0.616658  0.750000  1
  Ce  Ce1  1  0.383342  0.188861  0.750000  1
  Er  Er2  1  0.195212  0.804788  0.250000  1
  Er  Er3  1  0.188550  0.384511  0.250000  1
  Er  Er4  1  0.615489  0.811450  0.250000  1
  Er  Er5  1  0.805475  0.194525  0.750000  1
  Al  Al6  1  0.559751  0.440249  0.250000  1
  Al  Al7  1  0.560631  0.121854  0.250000  1
  Al  Al8  1  0.878146  0.439369  0.250000  1
  Al  Al9  1  0.438175  0.561825  0.750000  1
  Al  Al10  1  0.439189  0.874460  0.750000  1
  Al  Al11  1  0.125540  0.560811  0.750000  1
  Al  Al12  1  0.322667  0.156803  0.420838  1
  Al  Al13  1  0.836531  0.163469  0.422170  1
  Al  Al14  1  0.843197  0.677333  0.420838  1
  Al  Al15  1  0.676751  0.844347  0.576644  1
  Al  Al16  1  0.163870  0.836130  0.577143  1
  Al  Al17  1  0.155653  0.323249  0.576644  1
  Al  Al18  1  0.676751  0.844347  0.923356  1
  Al  Al19  1  0.163870  0.836130  0.922857  1
  Al  Al20  1  0.155653  0.323249  0.923356  1
  Al  Al21  1  0.322667  0.156803  0.079162  1
  Al  Al22  1  0.836531  0.163469  0.077830  1
  Al  Al23  1  0.843197  0.677333  0.079162  1
  Al  Al24  1  0.668762  0.331238  0.519280  1
  Al  Al25  1  0.332197  0.667803  0.476995  1
  Al  Al26  1  0.332197  0.667803  0.023005  1
  Al  Al27  1  0.668762  0.331238  0.980720  1
  Al  Al28  1  0.998325  0.001675  0.250000  1
  Al  Al29  1  0.001267  0.998733  0.750000  1
  Cu  Cu30  1  0.500635  0.499365  0.500646  1
  Cu  Cu31  1  0.500635  0.499365  0.999354  1
  Ru  Ru32  1  0.999863  0.000137  0.499518  1
  Ru  Ru33  1  0.999863  0.000137  0.000482  1
  Ru  Ru34  1  0.499241  0.999485  0.499988  1
  Ru  Ru35  1  0.000515  0.500759  0.499988  1
  Ru  Ru36  1  0.499241  0.999485  0.000012  1
  Ru  Ru37  1  0.000515  0.500759  0.000012  1
