# generated using pymatgen
data_Y4Al10Si8IrOs5
_symmetry_space_group_name_H-M   'P 1'
_cell_length_a   7.47380348
_cell_length_b   7.44481227
_cell_length_c   9.32372365
_cell_angle_alpha   89.98166602
_cell_angle_beta   90.20010685
_cell_angle_gamma   120.02671821
_symmetry_Int_Tables_number   1
_chemical_formula_structural   Y4Al10Si8IrOs5
_chemical_formula_sum   'Y4 Al10 Si8 Ir1 Os5'
_cell_volume   449.15394920
_cell_formula_units_Z   1
loop_
 _symmetry_equiv_pos_site_id
 _symmetry_equiv_pos_as_xyz
  1  'x, y, z'
loop_
 _atom_site_type_symbol
 _atom_site_label
 _atom_site_symmetry_multiplicity
 _atom_site_fract_x
 _atom_site_fract_y
 _atom_site_fract_z
 _atom_site_occupancy
  Y  Y0  1  0.997394  0.667731  0.251821  1
  Y  Y1  1  0.001450  0.330946  0.747993  1
  Y  Y2  1  0.679280  0.005379  0.254237  1
  Y  Y3  1  0.322303  0.995929  0.746020  1
  Al  Al4  1  0.661228  0.994555  0.928536  1
  Al  Al5  1  0.339746  0.005142  0.070810  1
  Al  Al6  1  0.336869  0.338099  0.562268  1
  Al  Al7  1  0.660595  0.664122  0.437722  1
  Al  Al8  1  0.661168  0.664504  0.059367  1
  Al  Al9  1  0.339229  0.334939  0.940584  1
  Al  Al10  1  0.333422  0.547297  0.249024  1
  Al  Al11  1  0.668386  0.455192  0.751881  1
  Al  Al12  1  0.545993  0.336733  0.249116  1
  Al  Al13  1  0.451813  0.661530  0.749804  1
  Si  Si14  1  0.131466  0.126521  0.249161  1
  Si  Si15  1  0.869890  0.872619  0.750829  1
  Si  Si16  1  0.002823  0.330976  0.065000  1
  Si  Si17  1  0.997349  0.668211  0.935657  1
  Si  Si18  1  0.993021  0.665782  0.571137  1
  Si  Si19  1  0.334085  0.006106  0.423935  1
  Si  Si20  1  0.010917  0.337150  0.427978  1
  Si  Si21  1  0.662949  0.990131  0.576881  1
  Ir  Ir22  1  0.679231  0.320619  0.500536  1
  Os  Os23  1  0.688325  0.335462  0.002165  1
  Os  Os24  1  0.311989  0.663861  0.997806  1
  Os  Os25  1  0.319596  0.680296  0.499698  1
  Os  Os26  1  0.000176  0.999675  0.000075  1
  Os  Os27  1  0.999304  0.000494  0.499960  1
