# generated using pymatgen
data_K2US3
_symmetry_space_group_name_H-M   'P 1'
_cell_length_a   7.27125280
_cell_length_b   7.27125248
_cell_length_c   7.77632339
_cell_angle_alpha   80.92937448
_cell_angle_beta   80.92937388
_cell_angle_gamma   119.99672763
_symmetry_Int_Tables_number   1
_chemical_formula_structural   K2US3
_chemical_formula_sum   'K4 U2 S6'
_cell_volume   337.91084040
_cell_formula_units_Z   2
loop_
 _symmetry_equiv_pos_site_id
 _symmetry_equiv_pos_as_xyz
  1  'x, y, z'
loop_
 _atom_site_type_symbol
 _atom_site_label
 _atom_site_symmetry_multiplicity
 _atom_site_fract_x
 _atom_site_fract_y
 _atom_site_fract_z
 _atom_site_occupancy
  K  K0  1  0.344429  0.655571  0.500000  1
  K  K1  1  0.655571  0.344429  0.500000  1
  K  K2  1  0.000000  0.000000  0.500000  1
  K  K3  1  0.500000  0.500000  0.000000  1
  U  U4  1  0.167601  0.832399  0.000000  1
  U  U5  1  0.832399  0.167601  0.000000  1
  S  S6  1  0.805693  0.805693  0.204048  1
  S  S7  1  0.429503  0.052764  0.205985  1
  S  S8  1  0.052764  0.429503  0.205985  1
  S  S9  1  0.570497  0.947236  0.794015  1
  S  S10  1  0.947236  0.570497  0.794015  1
  S  S11  1  0.194307  0.194307  0.795952  1
