# generated using pymatgen
data_Ac3In4Hg
_symmetry_space_group_name_H-M   'P 1'
_cell_length_a   9.04396634
_cell_length_b   9.04395771
_cell_length_c   9.04396542
_cell_angle_alpha   120.07377806
_cell_angle_beta   120.07374095
_cell_angle_gamma   89.87232235
_symmetry_Int_Tables_number   1
_chemical_formula_structural   Ac3In4Hg
_chemical_formula_sum   'Ac6 In8 Hg2'
_cell_volume   522.48715560
_cell_formula_units_Z   2
loop_
 _symmetry_equiv_pos_site_id
 _symmetry_equiv_pos_as_xyz
  1  'x, y, z'
loop_
 _atom_site_type_symbol
 _atom_site_label
 _atom_site_symmetry_multiplicity
 _atom_site_fract_x
 _atom_site_fract_y
 _atom_site_fract_z
 _atom_site_occupancy
  Ac  Ac0  1  0.749997  0.750000  0.999997  1
  Ac  Ac1  1  0.250003  0.250000  0.000003  1
  Ac  Ac2  1  0.338165  0.838170  0.176334  1
  Ac  Ac3  1  0.661835  0.161830  0.823666  1
  Ac  Ac4  1  0.838165  0.661830  0.499995  1
  Ac  Ac5  1  0.161835  0.338170  0.500005  1
  In  In6  1  0.954566  0.454565  0.783478  1
  In  In7  1  0.671087  0.171087  0.216521  1
  In  In8  1  0.454566  0.671087  0.500001  1
  In  In9  1  0.171087  0.954565  0.500000  1
  In  In10  1  0.045434  0.545435  0.216522  1
  In  In11  1  0.328913  0.828913  0.783479  1
  In  In12  1  0.545434  0.328913  0.499999  1
  In  In13  1  0.828913  0.045435  0.500000  1
  Hg  Hg14  1  0.000000  0.000000  0.000000  1
  Hg  Hg15  1  0.500000  0.500000  0.000000  1
