# generated using pymatgen
data_La3GaHg2Pd3
_symmetry_space_group_name_H-M   'P 1'
_cell_length_a   7.93261675
_cell_length_b   7.93261690
_cell_length_c   3.97305100
_cell_angle_alpha   90.00000000
_cell_angle_beta   90.00000000
_cell_angle_gamma   121.39495023
_symmetry_Int_Tables_number   1
_chemical_formula_structural   La3GaHg2Pd3
_chemical_formula_sum   'La3 Ga1 Hg2 Pd3'
_cell_volume   213.40757324
_cell_formula_units_Z   1
loop_
 _symmetry_equiv_pos_site_id
 _symmetry_equiv_pos_as_xyz
  1  'x, y, z'
loop_
 _atom_site_type_symbol
 _atom_site_label
 _atom_site_symmetry_multiplicity
 _atom_site_fract_x
 _atom_site_fract_y
 _atom_site_fract_z
 _atom_site_occupancy
  La  La0  1  0.412564  0.412564  0.500000  1
  La  La1  1  0.597252  0.994291  0.500000  1
  La  La2  1  0.994291  0.597252  0.500000  1
  Ga  Ga3  1  0.747950  0.747950  0.000000  1
  Hg  Hg4  1  0.259087  0.000460  0.000000  1
  Hg  Hg5  1  0.000460  0.259087  0.000000  1
  Pd  Pd6  1  0.670315  0.350844  0.000000  1
  Pd  Pd7  1  0.350844  0.670315  0.000000  1
  Pd  Pd8  1  0.967236  0.967236  0.500000  1
