# generated using pymatgen
data_PrNd3PtAu3
_symmetry_space_group_name_H-M   'P 1'
_cell_length_a   4.78383800
_cell_length_b   5.85356263
_cell_length_c   7.44787201
_cell_angle_alpha   90.53225084
_cell_angle_beta   90.00000000
_cell_angle_gamma   90.00000000
_symmetry_Int_Tables_number   1
_chemical_formula_structural   PrNd3PtAu3
_chemical_formula_sum   'Pr1 Nd3 Pt1 Au3'
_cell_volume   208.55000242
_cell_formula_units_Z   1
loop_
 _symmetry_equiv_pos_site_id
 _symmetry_equiv_pos_as_xyz
  1  'x, y, z'
loop_
 _atom_site_type_symbol
 _atom_site_label
 _atom_site_symmetry_multiplicity
 _atom_site_fract_x
 _atom_site_fract_y
 _atom_site_fract_z
 _atom_site_occupancy
  Pr  Pr0  1  0.750000  0.636791  0.311462  1
  Nd  Nd1  1  0.250000  0.357168  0.694489  1
  Nd  Nd2  1  0.250000  0.147559  0.175754  1
  Nd  Nd3  1  0.750000  0.862748  0.819944  1
  Pt  Pt4  1  0.750000  0.346079  0.957470  1
  Au  Au5  1  0.250000  0.852264  0.541198  1
  Au  Au6  1  0.250000  0.651331  0.040557  1
  Au  Au7  1  0.750000  0.146060  0.459126  1
