# generated using pymatgen
data_Er8Si16PdW11
_symmetry_space_group_name_H-M   'P 1'
_cell_length_a   6.86154003
_cell_length_b   6.84076037
_cell_length_c   12.78996610
_cell_angle_alpha   89.59670828
_cell_angle_beta   89.90733807
_cell_angle_gamma   90.00280562
_symmetry_Int_Tables_number   1
_chemical_formula_structural   Er8Si16PdW11
_chemical_formula_sum   'Er8 Si16 Pd1 W11'
_cell_volume   600.32170399
_cell_formula_units_Z   1
loop_
 _symmetry_equiv_pos_site_id
 _symmetry_equiv_pos_as_xyz
  1  'x, y, z'
loop_
 _atom_site_type_symbol
 _atom_site_label
 _atom_site_symmetry_multiplicity
 _atom_site_fract_x
 _atom_site_fract_y
 _atom_site_fract_z
 _atom_site_occupancy
  Er  Er0  1  0.340394  0.997194  0.467382  1
  Er  Er1  1  0.503765  0.840104  0.720657  1
  Er  Er2  1  0.495749  0.164933  0.219704  1
  Er  Er3  1  0.833977  0.502325  0.279799  1
  Er  Er4  1  0.160863  0.496244  0.781329  1
  Er  Er5  1  0.662159  0.005000  0.969554  1
  Er  Er6  1  0.996804  0.334787  0.531389  1
  Er  Er7  1  0.001740  0.666390  0.029817  1
  Si  Si8  1  0.197852  0.118873  0.686391  1
  Si  Si9  1  0.376190  0.705215  0.932315  1
  Si  Si10  1  0.625963  0.295396  0.433117  1
  Si  Si11  1  0.701079  0.377429  0.066984  1
  Si  Si12  1  0.309576  0.624652  0.564166  1
  Si  Si13  1  0.794403  0.875452  0.181739  1
  Si  Si14  1  0.122355  0.202799  0.317949  1
  Si  Si15  1  0.877121  0.804496  0.816767  1
  Si  Si16  1  0.288820  0.967492  0.064782  1
  Si  Si17  1  0.532574  0.787896  0.313958  1
  Si  Si18  1  0.465107  0.215469  0.813567  1
  Si  Si19  1  0.779721  0.528606  0.683334  1
  Si  Si20  1  0.207134  0.465682  0.186264  1
  Si  Si21  1  0.720556  0.030691  0.566117  1
  Si  Si22  1  0.964666  0.292401  0.937787  1
  Si  Si23  1  0.034073  0.709488  0.435114  1
  Pd  Pd24  1  0.026878  0.817675  0.624868  1
  W  W25  1  0.333001  0.336965  0.000036  1
  W  W26  1  0.163701  0.835784  0.249809  1
  W  W27  1  0.833453  0.169210  0.752216  1
  W  W28  1  0.667592  0.665284  0.497651  1
  W  W29  1  0.168935  0.006024  0.876092  1
  W  W30  1  0.497139  0.667915  0.124996  1
  W  W31  1  0.486083  0.326641  0.620853  1
  W  W32  1  0.670071  0.504039  0.876955  1
  W  W33  1  0.331705  0.497747  0.376492  1
  W  W34  1  0.830906  0.996388  0.372016  1
  W  W35  1  0.997897  0.167311  0.128033  1
