# generated using pymatgen
data_Tb11YTcOs3
_symmetry_space_group_name_H-M   'P 1'
_cell_length_a   6.34037624
_cell_length_b   7.45174457
_cell_length_c   9.15055711
_cell_angle_alpha   90.01587102
_cell_angle_beta   89.99178012
_cell_angle_gamma   90.03182938
_symmetry_Int_Tables_number   1
_chemical_formula_structural   Tb11YTcOs3
_chemical_formula_sum   'Tb11 Y1 Tc1 Os3'
_cell_volume   432.33504166
_cell_formula_units_Z   1
loop_
 _symmetry_equiv_pos_site_id
 _symmetry_equiv_pos_as_xyz
  1  'x, y, z'
loop_
 _atom_site_type_symbol
 _atom_site_label
 _atom_site_symmetry_multiplicity
 _atom_site_fract_x
 _atom_site_fract_y
 _atom_site_fract_z
 _atom_site_occupancy
  Tb  Tb0  1  0.334610  0.673667  0.063178  1
  Tb  Tb1  1  0.166203  0.174887  0.436301  1
  Tb  Tb2  1  0.667920  0.325388  0.563181  1
  Tb  Tb3  1  0.833723  0.825861  0.936467  1
  Tb  Tb4  1  0.668093  0.325474  0.936838  1
  Tb  Tb5  1  0.833657  0.825650  0.563669  1
  Tb  Tb6  1  0.334694  0.673755  0.436736  1
  Tb  Tb7  1  0.870234  0.540702  0.249947  1
  Tb  Tb8  1  0.627490  0.040568  0.249974  1
  Tb  Tb9  1  0.131967  0.458820  0.749957  1
  Tb  Tb10  1  0.367557  0.959709  0.750002  1
  Y  Y11  1  0.166069  0.174925  0.063361  1
  Tc  Tc12  1  0.037887  0.883175  0.250316  1
  Os  Os13  1  0.460849  0.382911  0.250105  1
  Os  Os14  1  0.959652  0.117863  0.749978  1
  Os  Os15  1  0.539394  0.616645  0.749990  1
