# generated using pymatgen
data_Er17Lu3Ir11Ru
_symmetry_space_group_name_H-M   'P 1'
_cell_length_a   10.76084700
_cell_length_b   10.75889000
_cell_length_c   6.34487200
_cell_angle_alpha   90.00000000
_cell_angle_beta   90.00000000
_cell_angle_gamma   89.99669853
_symmetry_Int_Tables_number   1
_chemical_formula_structural   Er17Lu3Ir11Ru
_chemical_formula_sum   'Er17 Lu3 Ir11 Ru1'
_cell_volume   734.57609067
_cell_formula_units_Z   1
loop_
 _symmetry_equiv_pos_site_id
 _symmetry_equiv_pos_as_xyz
  1  'x, y, z'
loop_
 _atom_site_type_symbol
 _atom_site_label
 _atom_site_symmetry_multiplicity
 _atom_site_fract_x
 _atom_site_fract_y
 _atom_site_fract_z
 _atom_site_occupancy
  Er  Er0  1  0.292178  0.086808  0.376156  1
  Er  Er1  1  0.292501  0.913038  0.879127  1
  Er  Er2  1  0.707499  0.086962  0.879127  1
  Er  Er3  1  0.707822  0.913192  0.376156  1
  Er  Er4  1  0.586933  0.792563  0.879198  1
  Er  Er5  1  0.586905  0.207615  0.376113  1
  Er  Er6  1  0.413095  0.792385  0.376113  1
  Er  Er7  1  0.413067  0.207437  0.879198  1
  Er  Er8  1  0.209196  0.412004  0.622518  1
  Er  Er9  1  0.209303  0.587849  0.122054  1
  Er  Er10  1  0.790697  0.412151  0.122054  1
  Er  Er11  1  0.790804  0.587996  0.622518  1
  Er  Er12  1  0.912177  0.709326  0.122086  1
  Er  Er13  1  0.912034  0.290622  0.622471  1
  Er  Er14  1  0.087966  0.709378  0.622471  1
  Er  Er15  1  0.087823  0.290674  0.122086  1
  Er  Er16  1  0.500000  0.500000  0.499489  1
  Lu  Lu17  1  0.000000  0.000000  0.499411  1
  Lu  Lu18  1  0.000000  0.000000  0.999447  1
  Lu  Lu19  1  0.500000  0.500000  0.999423  1
  Ir  Ir20  1  0.847622  0.153153  0.250032  1
  Ir  Ir21  1  0.847635  0.847193  0.749755  1
  Ir  Ir22  1  0.152365  0.152807  0.749755  1
  Ir  Ir23  1  0.152378  0.846847  0.250032  1
  Ir  Ir24  1  0.653118  0.347328  0.750246  1
  Ir  Ir25  1  0.653458  0.652703  0.249554  1
  Ir  Ir26  1  0.346542  0.347297  0.249554  1
  Ir  Ir27  1  0.346882  0.652672  0.750246  1
  Ir  Ir28  1  0.500000  0.000000  0.622957  1
  Ir  Ir29  1  0.000000  0.500000  0.878535  1
  Ir  Ir30  1  0.000000  0.500000  0.378570  1
  Ru  Ru31  1  0.500000  0.000000  0.123545  1
