# generated using pymatgen
data_Ce2Pa(ZnPt)3
_symmetry_space_group_name_H-M   'P 1'
_cell_length_a   7.33136100
_cell_length_b   7.30355573
_cell_length_c   3.97239400
_cell_angle_alpha   90.00000000
_cell_angle_beta   90.00000000
_cell_angle_gamma   120.12601300
_symmetry_Int_Tables_number   1
_chemical_formula_structural   Ce2Pa(ZnPt)3
_chemical_formula_sum   'Ce2 Pa1 Zn3 Pt3'
_cell_volume   183.97085916
_cell_formula_units_Z   1
loop_
 _symmetry_equiv_pos_site_id
 _symmetry_equiv_pos_as_xyz
  1  'x, y, z'
loop_
 _atom_site_type_symbol
 _atom_site_label
 _atom_site_symmetry_multiplicity
 _atom_site_fract_x
 _atom_site_fract_y
 _atom_site_fract_z
 _atom_site_occupancy
  Ce  Ce0  1  0.410154  0.409989  0.000000  1
  Ce  Ce1  1  0.000165  0.590011  0.000000  1
  Pa  Pa2  1  0.589352  0.000000  0.000000  1
  Zn  Zn3  1  0.239983  0.000000  0.500001  1
  Zn  Zn4  1  0.003071  0.247464  0.500001  1
  Zn  Zn5  1  0.755607  0.752536  0.500001  1
  Pt  Pt6  1  0.989752  0.000000  0.000000  1
  Pt  Pt7  1  0.664645  0.317371  0.500001  1
  Pt  Pt8  1  0.347274  0.682629  0.500001  1
