# generated using pymatgen
data_Tb8Zn(CuPd11)2
_symmetry_space_group_name_H-M   'P 1'
_cell_length_a   8.39060400
_cell_length_b   8.29743305
_cell_length_c   8.35195100
_cell_angle_alpha   90.00655998
_cell_angle_beta   90.00000000
_cell_angle_gamma   90.00000000
_symmetry_Int_Tables_number   1
_chemical_formula_structural   Tb8Zn(CuPd11)2
_chemical_formula_sum   'Tb8 Zn1 Cu2 Pd22'
_cell_volume   581.46679178
_cell_formula_units_Z   1
loop_
 _symmetry_equiv_pos_site_id
 _symmetry_equiv_pos_as_xyz
  1  'x, y, z'
loop_
 _atom_site_type_symbol
 _atom_site_label
 _atom_site_symmetry_multiplicity
 _atom_site_fract_x
 _atom_site_fract_y
 _atom_site_fract_z
 _atom_site_occupancy
  Tb  Tb0  1  0.252014  0.249118  0.745324  1
  Tb  Tb1  1  0.249874  0.748889  0.249778  1
  Tb  Tb2  1  0.752997  0.251292  0.254877  1
  Tb  Tb3  1  0.745234  0.751331  0.750258  1
  Tb  Tb4  1  0.750126  0.748889  0.249778  1
  Tb  Tb5  1  0.747986  0.249118  0.745324  1
  Tb  Tb6  1  0.254766  0.751331  0.750258  1
  Tb  Tb7  1  0.247003  0.251292  0.254877  1
  Zn  Zn8  1  0.000000  0.994743  0.004715  1
  Cu  Cu9  1  0.000000  0.500056  0.732487  1
  Cu  Cu10  1  0.500000  0.265177  0.001748  1
  Pd  Pd11  1  0.500000  0.496226  0.749408  1
  Pd  Pd12  1  0.500000  0.253903  0.498933  1
  Pd  Pd13  1  0.251441  0.501016  0.503690  1
  Pd  Pd14  1  0.500000  0.495790  0.250704  1
  Pd  Pd15  1  0.500000  0.745625  0.498903  1
  Pd  Pd16  1  0.748559  0.501016  0.503690  1
  Pd  Pd17  1  0.000000  0.999501  0.710675  1
  Pd  Pd18  1  0.000000  0.294980  0.987937  1
  Pd  Pd19  1  0.296460  0.011852  0.000631  1
  Pd  Pd20  1  0.000000  0.999497  0.297914  1
  Pd  Pd21  1  0.000000  0.695884  0.986757  1
  Pd  Pd22  1  0.703540  0.011852  0.000631  1
  Pd  Pd23  1  0.260130  0.998444  0.500522  1
  Pd  Pd24  1  0.000000  0.264115  0.506380  1
  Pd  Pd25  1  0.500000  0.002682  0.739580  1
  Pd  Pd26  1  0.265302  0.493603  0.998287  1
  Pd  Pd27  1  0.000000  0.499960  0.257627  1
  Pd  Pd28  1  0.500000  0.742548  0.001807  1
  Pd  Pd29  1  0.000000  0.735614  0.506564  1
  Pd  Pd30  1  0.500000  0.002611  0.261128  1
  Pd  Pd31  1  0.739870  0.998444  0.500522  1
  Pd  Pd32  1  0.734698  0.493603  0.998287  1
