# generated using pymatgen
data_Li8La8SiSb7
_symmetry_space_group_name_H-M   'P 1'
_cell_length_a   9.53909400
_cell_length_b   9.53909510
_cell_length_c   7.75497100
_cell_angle_alpha   90.00000000
_cell_angle_beta   90.00000000
_cell_angle_gamma   119.99999620
_symmetry_Int_Tables_number   1
_chemical_formula_structural   Li8La8SiSb7
_chemical_formula_sum   'Li8 La8 Si1 Sb7'
_cell_volume   611.11808096
_cell_formula_units_Z   1
loop_
 _symmetry_equiv_pos_site_id
 _symmetry_equiv_pos_as_xyz
  1  'x, y, z'
loop_
 _atom_site_type_symbol
 _atom_site_label
 _atom_site_symmetry_multiplicity
 _atom_site_fract_x
 _atom_site_fract_y
 _atom_site_fract_z
 _atom_site_occupancy
  Li  Li0  1  0.167595  0.335191  0.268115  1
  Li  Li1  1  0.167595  0.832405  0.268115  1
  Li  Li2  1  0.664809  0.832405  0.268115  1
  Li  Li3  1  0.828811  0.657621  0.768514  1
  Li  Li4  1  0.828811  0.171189  0.768514  1
  Li  Li5  1  0.342379  0.171189  0.768514  1
  Li  Li6  1  0.333333  0.666667  0.692484  1
  Li  Li7  1  0.666667  0.333333  0.193138  1
  La  La8  1  0.512569  0.025140  0.501438  1
  La  La9  1  0.512569  0.487431  0.501438  1
  La  La10  1  0.974860  0.487431  0.501438  1
  La  La11  1  0.497669  0.995338  0.991986  1
  La  La12  1  0.497669  0.502331  0.991986  1
  La  La13  1  0.004662  0.502331  0.991986  1
  La  La14  1  0.000000  0.000000  0.500557  1
  La  La15  1  0.000000  0.000000  0.999942  1
  Si  Si16  1  0.666667  0.333333  0.758698  1
  Sb  Sb17  1  0.166573  0.333146  0.741189  1
  Sb  Sb18  1  0.166573  0.833427  0.741189  1
  Sb  Sb19  1  0.666854  0.833427  0.741189  1
  Sb  Sb20  1  0.833621  0.667243  0.241093  1
  Sb  Sb21  1  0.833621  0.166379  0.241093  1
  Sb  Sb22  1  0.332757  0.166379  0.241093  1
  Sb  Sb23  1  0.333333  0.666667  0.260151  1
