# generated using pymatgen
data_Nb6ZnCo6
_symmetry_space_group_name_H-M   'P 1'
_cell_length_a   4.93485649
_cell_length_b   4.93485700
_cell_length_c   9.08803411
_cell_angle_alpha   74.24627831
_cell_angle_beta   74.24627797
_cell_angle_gamma   59.99999614
_symmetry_Int_Tables_number   1
_chemical_formula_structural   Nb6ZnCo6
_chemical_formula_sum   'Nb6 Zn1 Co6'
_cell_volume   182.00540088
_cell_formula_units_Z   1
loop_
 _symmetry_equiv_pos_site_id
 _symmetry_equiv_pos_as_xyz
  1  'x, y, z'
loop_
 _atom_site_type_symbol
 _atom_site_label
 _atom_site_symmetry_multiplicity
 _atom_site_fract_x
 _atom_site_fract_y
 _atom_site_fract_z
 _atom_site_occupancy
  Nb  Nb0  1  0.168911  0.168911  0.493266  1
  Nb  Nb1  1  0.831089  0.831089  0.506734  1
  Nb  Nb2  1  0.344042  0.344042  0.967875  1
  Nb  Nb3  1  0.655958  0.655958  0.032125  1
  Nb  Nb4  1  0.449284  0.449284  0.652149  1
  Nb  Nb5  1  0.550716  0.550716  0.347851  1
  Zn  Zn6  1  0.000000  0.000000  0.000000  1
  Co  Co7  1  0.589832  0.088894  0.232380  1
  Co  Co8  1  0.088894  0.088894  0.232380  1
  Co  Co9  1  0.088894  0.589832  0.232380  1
  Co  Co10  1  0.410168  0.911106  0.767620  1
  Co  Co11  1  0.911106  0.911106  0.767620  1
  Co  Co12  1  0.911106  0.410168  0.767620  1
