# generated using pymatgen
data_Sr2Er4(Ir5Rh)3
_symmetry_space_group_name_H-M   'P 1'
_cell_length_a   5.34749500
_cell_length_b   5.34749430
_cell_length_c   17.49041500
_cell_angle_alpha   90.00000000
_cell_angle_beta   90.00000000
_cell_angle_gamma   119.99999813
_symmetry_Int_Tables_number   1
_chemical_formula_structural   Sr2Er4(Ir5Rh)3
_chemical_formula_sum   'Sr2 Er4 Ir15 Rh3'
_cell_volume   433.14317118
_cell_formula_units_Z   1
loop_
 _symmetry_equiv_pos_site_id
 _symmetry_equiv_pos_as_xyz
  1  'x, y, z'
loop_
 _atom_site_type_symbol
 _atom_site_label
 _atom_site_symmetry_multiplicity
 _atom_site_fract_x
 _atom_site_fract_y
 _atom_site_fract_z
 _atom_site_occupancy
  Sr  Sr0  1  0.333333  0.666667  0.750000  1
  Sr  Sr1  1  0.666667  0.333333  0.250000  1
  Er  Er2  1  0.333333  0.666667  0.541135  1
  Er  Er3  1  0.666667  0.333333  0.040864  1
  Er  Er4  1  0.666667  0.333333  0.459136  1
  Er  Er5  1  0.333333  0.666667  0.958865  1
  Ir  Ir6  1  0.167701  0.335404  0.124599  1
  Ir  Ir7  1  0.832106  0.664213  0.624008  1
  Ir  Ir8  1  0.664596  0.832299  0.124599  1
  Ir  Ir9  1  0.167701  0.832299  0.124599  1
  Ir  Ir10  1  0.832106  0.167894  0.624008  1
  Ir  Ir11  1  0.335787  0.167894  0.624008  1
  Ir  Ir12  1  0.832106  0.664213  0.875992  1
  Ir  Ir13  1  0.832106  0.167894  0.875992  1
  Ir  Ir14  1  0.335787  0.167894  0.875992  1
  Ir  Ir15  1  0.664596  0.832299  0.375401  1
  Ir  Ir16  1  0.167701  0.832299  0.375401  1
  Ir  Ir17  1  0.167701  0.335404  0.375401  1
  Ir  Ir18  1  0.000000  0.000000  0.250000  1
  Ir  Ir19  1  0.000000  0.000000  0.000131  1
  Ir  Ir20  1  0.000000  0.000000  0.499869  1
  Rh  Rh21  1  0.000000  0.000000  0.750000  1
  Rh  Rh22  1  0.333333  0.666667  0.250000  1
  Rh  Rh23  1  0.666667  0.333333  0.750000  1
