# generated using pymatgen
data_TmUV3Si4
_symmetry_space_group_name_H-M   'P 1'
_cell_length_a   6.79540703
_cell_length_b   6.80358598
_cell_length_c   12.57381617
_cell_angle_alpha   90.03763541
_cell_angle_beta   89.90737909
_cell_angle_gamma   89.94800352
_symmetry_Int_Tables_number   1
_chemical_formula_structural   TmUV3Si4
_chemical_formula_sum   'Tm4 U4 V12 Si16'
_cell_volume   581.32582768
_cell_formula_units_Z   4
loop_
 _symmetry_equiv_pos_site_id
 _symmetry_equiv_pos_as_xyz
  1  'x, y, z'
loop_
 _atom_site_type_symbol
 _atom_site_label
 _atom_site_symmetry_multiplicity
 _atom_site_fract_x
 _atom_site_fract_y
 _atom_site_fract_z
 _atom_site_occupancy
  Tm  Tm0  1  0.998341  0.336222  0.219359  1
  Tm  Tm1  1  0.000247  0.664498  0.720160  1
  Tm  Tm2  1  0.164106  0.498506  0.469712  1
  Tm  Tm3  1  0.501174  0.835366  0.029999  1
  U  U4  1  0.835935  0.499122  0.969848  1
  U  U5  1  0.500387  0.160707  0.529326  1
  U  U6  1  0.337119  0.001799  0.776902  1
  U  U7  1  0.661370  0.000158  0.283714  1
  V  V8  1  0.166017  0.171188  0.996444  1
  V  V9  1  0.824809  0.837253  0.497958  1
  V  V10  1  0.335537  0.673553  0.251399  1
  V  V11  1  0.665978  0.329043  0.750362  1
  V  V12  1  0.164133  0.993549  0.375381  1
  V  V13  1  0.841491  0.004067  0.875265  1
  V  V14  1  0.504505  0.666214  0.626535  1
  V  V15  1  0.339815  0.494954  0.875878  1
  V  V16  1  0.498464  0.338910  0.124362  1
  V  V17  1  0.657571  0.500027  0.376653  1
  V  V18  1  0.999827  0.160394  0.626490  1
  V  V19  1  0.001223  0.836222  0.125798  1
  Si  Si20  1  0.285844  0.038837  0.182965  1
  Si  Si21  1  0.715603  0.963437  0.684781  1
  Si  Si22  1  0.460607  0.784302  0.435864  1
  Si  Si23  1  0.213127  0.538239  0.066288  1
  Si  Si24  1  0.537889  0.209519  0.934433  1
  Si  Si25  1  0.787744  0.462624  0.565398  1
  Si  Si26  1  0.037740  0.290441  0.813761  1
  Si  Si27  1  0.960788  0.710877  0.315789  1
  Si  Si28  1  0.374733  0.300040  0.314114  1
  Si  Si29  1  0.623620  0.701247  0.815490  1
  Si  Si30  1  0.198067  0.875118  0.564680  1
  Si  Si31  1  0.125050  0.798467  0.933967  1
  Si  Si32  1  0.800173  0.121391  0.065644  1
  Si  Si33  1  0.880235  0.200277  0.435608  1
  Si  Si34  1  0.301488  0.380328  0.684082  1
  Si  Si35  1  0.699242  0.623105  0.185594  1
