# generated using pymatgen
data_Dy3Sc2SnBi2
_symmetry_space_group_name_H-M   'P 1'
_cell_length_a   8.93578426
_cell_length_b   8.91516037
_cell_length_c   6.23273300
_cell_angle_alpha   90.00000000
_cell_angle_beta   90.00000000
_cell_angle_gamma   119.92367834
_symmetry_Int_Tables_number   1
_chemical_formula_structural   Dy3Sc2SnBi2
_chemical_formula_sum   'Dy6 Sc4 Sn2 Bi4'
_cell_volume   430.33282776
_cell_formula_units_Z   2
loop_
 _symmetry_equiv_pos_site_id
 _symmetry_equiv_pos_as_xyz
  1  'x, y, z'
loop_
 _atom_site_type_symbol
 _atom_site_label
 _atom_site_symmetry_multiplicity
 _atom_site_fract_x
 _atom_site_fract_y
 _atom_site_fract_z
 _atom_site_occupancy
  Dy  Dy0  1  0.994848  0.758050  0.750000  1
  Dy  Dy1  1  0.994848  0.236797  0.250000  1
  Dy  Dy2  1  0.756573  0.761919  0.250000  1
  Dy  Dy3  1  0.756573  0.994654  0.750000  1
  Dy  Dy4  1  0.245033  0.244554  0.750000  1
  Dy  Dy5  1  0.245033  0.000479  0.250000  1
  Sc  Sc6  1  0.339551  0.669776  0.500000  1
  Sc  Sc7  1  0.664896  0.332447  0.000000  1
  Sc  Sc8  1  0.664896  0.332447  0.500000  1
  Sc  Sc9  1  0.339551  0.669776  0.000000  1
  Sn  Sn10  1  0.603628  0.601923  0.750000  1
  Sn  Sn11  1  0.603628  0.001706  0.250000  1
  Bi  Bi12  1  0.394946  0.998842  0.750000  1
  Bi  Bi13  1  0.394946  0.396103  0.250000  1
  Bi  Bi14  1  0.000526  0.604753  0.250000  1
  Bi  Bi15  1  0.000526  0.395771  0.750000  1
