# generated using pymatgen
data_Zr4IrPdN
_symmetry_space_group_name_H-M   'P 1'
_cell_length_a   8.88636899
_cell_length_b   8.83592170
_cell_length_c   8.88636800
_cell_angle_alpha   59.81095233
_cell_angle_beta   59.99999624
_cell_angle_gamma   59.81095143
_symmetry_Int_Tables_number   1
_chemical_formula_structural   Zr4IrPdN
_chemical_formula_sum   'Zr16 Ir4 Pd4 N4'
_cell_volume   491.96995101
_cell_formula_units_Z   4
loop_
 _symmetry_equiv_pos_site_id
 _symmetry_equiv_pos_as_xyz
  1  'x, y, z'
loop_
 _atom_site_type_symbol
 _atom_site_label
 _atom_site_symmetry_multiplicity
 _atom_site_fract_x
 _atom_site_fract_y
 _atom_site_fract_z
 _atom_site_occupancy
  Zr  Zr0  1  0.317789  0.683742  0.317789  1
  Zr  Zr1  1  0.931738  0.570701  0.931738  1
  Zr  Zr2  1  0.682457  0.315545  0.682457  1
  Zr  Zr3  1  0.682457  0.315545  0.319540  1
  Zr  Zr4  1  0.317789  0.683742  0.680681  1
  Zr  Zr5  1  0.627848  0.119754  0.126199  1
  Zr  Zr6  1  0.934228  0.931271  0.567251  1
  Zr  Zr7  1  0.680681  0.683742  0.317789  1
  Zr  Zr8  1  0.115500  0.653501  0.115500  1
  Zr  Zr9  1  0.126199  0.119754  0.627848  1
  Zr  Zr10  1  0.319540  0.315545  0.682457  1
  Zr  Zr11  1  0.126199  0.119754  0.126199  1
  Zr  Zr12  1  0.565823  0.570701  0.931738  1
  Zr  Zr13  1  0.567251  0.931271  0.934228  1
  Zr  Zr14  1  0.931738  0.570701  0.565823  1
  Zr  Zr15  1  0.567251  0.931271  0.567251  1
  Ir  Ir16  1  0.288329  0.911899  0.899886  1
  Ir  Ir17  1  0.899886  0.911899  0.899886  1
  Ir  Ir18  1  0.899886  0.911899  0.288329  1
  Ir  Ir19  1  0.344203  0.967391  0.344203  1
  Pd  Pd20  1  0.334307  0.343294  0.334307  1
  Pd  Pd21  1  0.988092  0.343294  0.334307  1
  Pd  Pd22  1  0.334307  0.343294  0.988092  1
  Pd  Pd23  1  0.911588  0.265237  0.911588  1
  N  N24  1  0.626413  0.620156  0.626413  1
  N  N25  1  0.127019  0.620156  0.626413  1
  N  N26  1  0.626413  0.620156  0.127019  1
  N  N27  1  0.625068  0.124794  0.625068  1
