# generated using pymatgen
data_CaHo2(H6Ru)2
_symmetry_space_group_name_H-M   'P 1'
_cell_length_a   4.88478900
_cell_length_b   4.88478843
_cell_length_c   8.17999300
_cell_angle_alpha   90.00000000
_cell_angle_beta   90.00000000
_cell_angle_gamma   119.99999707
_symmetry_Int_Tables_number   1
_chemical_formula_structural   CaHo2(H6Ru)2
_chemical_formula_sum   'Ca1 Ho2 H12 Ru2'
_cell_volume   169.03441856
_cell_formula_units_Z   1
loop_
 _symmetry_equiv_pos_site_id
 _symmetry_equiv_pos_as_xyz
  1  'x, y, z'
loop_
 _atom_site_type_symbol
 _atom_site_label
 _atom_site_symmetry_multiplicity
 _atom_site_fract_x
 _atom_site_fract_y
 _atom_site_fract_z
 _atom_site_occupancy
  Ca  Ca0  1  0.000000  0.000000  0.000000  1
  Ho  Ho1  1  0.666667  0.333333  0.360154  1
  Ho  Ho2  1  0.333333  0.666667  0.639846  1
  H  H3  1  0.166031  0.833969  0.385468  1
  H  H4  1  0.667938  0.833969  0.385468  1
  H  H5  1  0.166031  0.332062  0.385468  1
  H  H6  1  0.833969  0.166031  0.614532  1
  H  H7  1  0.332062  0.166031  0.614532  1
  H  H8  1  0.833969  0.667938  0.614532  1
  H  H9  1  0.506648  0.013296  0.858896  1
  H  H10  1  0.506648  0.493352  0.858896  1
  H  H11  1  0.986704  0.493352  0.858896  1
  H  H12  1  0.493352  0.986704  0.141104  1
  H  H13  1  0.493352  0.506648  0.141104  1
  H  H14  1  0.013296  0.506648  0.141104  1
  Ru  Ru15  1  0.666667  0.333333  0.731469  1
  Ru  Ru16  1  0.333333  0.666667  0.268531  1
