# generated using pymatgen
data_La7Tb(GeI6)2
_symmetry_space_group_name_H-M   'P 1'
_cell_length_a   4.40623400
_cell_length_b   14.39925663
_cell_length_c   15.20090300
_cell_angle_alpha   90.23646540
_cell_angle_beta   90.00000000
_cell_angle_gamma   90.00000000
_symmetry_Int_Tables_number   1
_chemical_formula_structural   La7Tb(GeI6)2
_chemical_formula_sum   'La7 Tb1 Ge2 I12'
_cell_volume   964.43578948
_cell_formula_units_Z   1
loop_
 _symmetry_equiv_pos_site_id
 _symmetry_equiv_pos_as_xyz
  1  'x, y, z'
loop_
 _atom_site_type_symbol
 _atom_site_label
 _atom_site_symmetry_multiplicity
 _atom_site_fract_x
 _atom_site_fract_y
 _atom_site_fract_z
 _atom_site_occupancy
  La  La0  1  0.500000  0.119246  0.342685  1
  La  La1  1  0.500000  0.881538  0.657695  1
  La  La2  1  0.500000  0.617419  0.155678  1
  La  La3  1  0.000000  0.117880  0.580143  1
  La  La4  1  0.000000  0.884268  0.421979  1
  La  La5  1  0.000000  0.614665  0.920797  1
  La  La6  1  0.000000  0.383530  0.076493  1
  Tb  Tb7  1  0.500000  0.384536  0.845953  1
  Ge  Ge8  1  0.500000  0.001136  0.500698  1
  Ge  Ge9  1  0.500000  0.498177  0.997143  1
  I  I10  1  0.500000  0.238930  0.158245  1
  I  I11  1  0.500000  0.758974  0.839197  1
  I  I12  1  0.500000  0.739885  0.338907  1
  I  I13  1  0.500000  0.261504  0.667532  1
  I  I14  1  0.000000  0.265249  0.416065  1
  I  I15  1  0.000000  0.734963  0.585118  1
  I  I16  1  0.000000  0.763844  0.084428  1
  I  I17  1  0.000000  0.244839  0.906302  1
  I  I18  1  0.000000  0.998276  0.235723  1
  I  I19  1  0.000000  0.001899  0.765448  1
  I  I20  1  0.000000  0.498027  0.263444  1
  I  I21  1  0.000000  0.491214  0.740329  1
