# generated using pymatgen
data_Zr24As7Se
_symmetry_space_group_name_H-M   'P 1'
_cell_length_a   11.05055932
_cell_length_b   11.05932750
_cell_length_c   5.47496587
_cell_angle_alpha   90.03314616
_cell_angle_beta   89.85114578
_cell_angle_gamma   90.00989989
_symmetry_Int_Tables_number   1
_chemical_formula_structural   Zr24As7Se
_chemical_formula_sum   'Zr24 As7 Se1'
_cell_volume   669.10280558
_cell_formula_units_Z   1
loop_
 _symmetry_equiv_pos_site_id
 _symmetry_equiv_pos_as_xyz
  1  'x, y, z'
loop_
 _atom_site_type_symbol
 _atom_site_label
 _atom_site_symmetry_multiplicity
 _atom_site_fract_x
 _atom_site_fract_y
 _atom_site_fract_z
 _atom_site_occupancy
  Zr  Zr0  1  0.894968  0.583571  0.037122  1
  Zr  Zr1  1  0.104784  0.416435  0.037250  1
  Zr  Zr2  1  0.916153  0.395126  0.538295  1
  Zr  Zr3  1  0.083695  0.604891  0.537614  1
  Zr  Zr4  1  0.603971  0.915574  0.464533  1
  Zr  Zr5  1  0.395465  0.083376  0.462521  1
  Zr  Zr6  1  0.583041  0.105147  0.960717  1
  Zr  Zr7  1  0.416491  0.895469  0.962063  1
  Zr  Zr8  1  0.861821  0.026603  0.715529  1
  Zr  Zr9  1  0.139333  0.973028  0.717416  1
  Zr  Zr10  1  0.473255  0.360660  0.217002  1
  Zr  Zr11  1  0.527374  0.639411  0.217109  1
  Zr  Zr12  1  0.639558  0.473252  0.783135  1
  Zr  Zr13  1  0.360775  0.526779  0.782722  1
  Zr  Zr14  1  0.027074  0.139196  0.283110  1
  Zr  Zr15  1  0.973407  0.860663  0.284441  1
  Zr  Zr16  1  0.285283  0.180789  0.989743  1
  Zr  Zr17  1  0.714576  0.818823  0.987415  1
  Zr  Zr18  1  0.318947  0.785363  0.489549  1
  Zr  Zr19  1  0.681350  0.215042  0.489256  1
  Zr  Zr20  1  0.214829  0.318836  0.510692  1
  Zr  Zr21  1  0.785272  0.681337  0.511105  1
  Zr  Zr22  1  0.180744  0.714887  0.011143  1
  Zr  Zr23  1  0.818734  0.286218  0.010040  1
  As  As24  1  0.206035  0.959858  0.212419  1
  As  As25  1  0.460016  0.294167  0.711905  1
  As  As26  1  0.540117  0.705884  0.712151  1
  As  As27  1  0.705805  0.459925  0.288188  1
  As  As28  1  0.294137  0.540173  0.287743  1
  As  As29  1  0.040085  0.205989  0.788220  1
  As  As30  1  0.960193  0.793920  0.788067  1
  Se  Se31  1  0.792709  0.039607  0.211785  1
