# generated using pymatgen
data_Tb10TcNiBi4
_symmetry_space_group_name_H-M   'P 1'
_cell_length_a   8.01361100
_cell_length_b   9.05204800
_cell_length_c   12.41572300
_cell_angle_alpha   90.00000000
_cell_angle_beta   90.00000000
_cell_angle_gamma   90.00000000
_symmetry_Int_Tables_number   1
_chemical_formula_structural   Tb10TcNiBi4
_chemical_formula_sum   'Tb20 Tc2 Ni2 Bi8'
_cell_volume   900.63147367
_cell_formula_units_Z   2
loop_
 _symmetry_equiv_pos_site_id
 _symmetry_equiv_pos_as_xyz
  1  'x, y, z'
loop_
 _atom_site_type_symbol
 _atom_site_label
 _atom_site_symmetry_multiplicity
 _atom_site_fract_x
 _atom_site_fract_y
 _atom_site_fract_z
 _atom_site_occupancy
  Tb  Tb0  1  0.158833  0.750000  0.208357  1
  Tb  Tb1  1  0.658833  0.250000  0.291643  1
  Tb  Tb2  1  0.846749  0.250000  0.795011  1
  Tb  Tb3  1  0.346749  0.750000  0.704989  1
  Tb  Tb4  1  0.447257  0.750000  0.996187  1
  Tb  Tb5  1  0.947257  0.250000  0.503813  1
  Tb  Tb6  1  0.546965  0.250000  0.002637  1
  Tb  Tb7  1  0.046965  0.750000  0.497363  1
  Tb  Tb8  1  0.623847  0.750000  0.303696  1
  Tb  Tb9  1  0.123847  0.250000  0.196304  1
  Tb  Tb10  1  0.378799  0.250000  0.693427  1
  Tb  Tb11  1  0.878799  0.750000  0.806573  1
  Tb  Tb12  1  0.822611  0.961759  0.064112  1
  Tb  Tb13  1  0.322611  0.038241  0.435888  1
  Tb  Tb14  1  0.178572  0.456972  0.936672  1
  Tb  Tb15  1  0.678572  0.543028  0.563328  1
  Tb  Tb16  1  0.178572  0.043028  0.936672  1
  Tb  Tb17  1  0.678572  0.956972  0.563328  1
  Tb  Tb18  1  0.822611  0.538241  0.064112  1
  Tb  Tb19  1  0.322611  0.461759  0.435888  1
  Tc  Tc20  1  0.420437  0.750000  0.484888  1
  Tc  Tc21  1  0.920437  0.250000  0.015112  1
  Ni  Ni22  1  0.574678  0.250000  0.509859  1
  Ni  Ni23  1  0.074678  0.750000  0.990141  1
  Bi  Bi24  1  0.927450  0.992066  0.327335  1
  Bi  Bi25  1  0.427450  0.007934  0.172665  1
  Bi  Bi26  1  0.072585  0.491780  0.673422  1
  Bi  Bi27  1  0.572585  0.508220  0.826578  1
  Bi  Bi28  1  0.072585  0.008220  0.673422  1
  Bi  Bi29  1  0.572585  0.991780  0.826578  1
  Bi  Bi30  1  0.927450  0.507934  0.327335  1
  Bi  Bi31  1  0.427450  0.492066  0.172665  1
