# generated using pymatgen
data_Ba2As2PdPt
_symmetry_space_group_name_H-M   'P 1'
_cell_length_a   6.84850700
_cell_length_b   6.84421795
_cell_length_c   6.84144295
_cell_angle_alpha   89.83669915
_cell_angle_beta   90.00000000
_cell_angle_gamma   90.00000000
_symmetry_Int_Tables_number   1
_chemical_formula_structural   Ba2As2PdPt
_chemical_formula_sum   'Ba4 As4 Pd2 Pt2'
_cell_volume   320.67542615
_cell_formula_units_Z   2
loop_
 _symmetry_equiv_pos_site_id
 _symmetry_equiv_pos_as_xyz
  1  'x, y, z'
loop_
 _atom_site_type_symbol
 _atom_site_label
 _atom_site_symmetry_multiplicity
 _atom_site_fract_x
 _atom_site_fract_y
 _atom_site_fract_z
 _atom_site_occupancy
  Ba  Ba0  1  0.609836  0.390680  0.889150  1
  Ba  Ba1  1  0.390555  0.890252  0.608502  1
  Ba  Ba2  1  0.109836  0.109320  0.110850  1
  Ba  Ba3  1  0.890555  0.609748  0.391498  1
  As  As4  1  0.171738  0.326470  0.669139  1
  As  As5  1  0.671738  0.173530  0.330861  1
  As  As6  1  0.327929  0.670399  0.174335  1
  As  As7  1  0.827929  0.829601  0.825665  1
  Pd  Pd8  1  0.595880  0.904546  0.095800  1
  Pd  Pd9  1  0.095880  0.595454  0.904200  1
  Pt  Pt10  1  0.404063  0.403333  0.403814  1
  Pt  Pt11  1  0.904063  0.096667  0.596186  1
