# generated using pymatgen
data_Sm2Co5As6Rh5
_symmetry_space_group_name_H-M   'P 1'
_cell_length_a   3.89857500
_cell_length_b   11.07242900
_cell_length_c   12.63796500
_cell_angle_alpha   90.00000000
_cell_angle_beta   90.00000000
_cell_angle_gamma   90.00000000
_symmetry_Int_Tables_number   1
_chemical_formula_structural   Sm2Co5As6Rh5
_chemical_formula_sum   'Sm4 Co10 As12 Rh10'
_cell_volume   545.53917917
_cell_formula_units_Z   2
loop_
 _symmetry_equiv_pos_site_id
 _symmetry_equiv_pos_as_xyz
  1  'x, y, z'
loop_
 _atom_site_type_symbol
 _atom_site_label
 _atom_site_symmetry_multiplicity
 _atom_site_fract_x
 _atom_site_fract_y
 _atom_site_fract_z
 _atom_site_occupancy
  Sm  Sm0  1  0.250000  0.585645  0.707340  1
  Sm  Sm1  1  0.250000  0.914355  0.207340  1
  Sm  Sm2  1  0.750000  0.419401  0.294242  1
  Sm  Sm3  1  0.750000  0.080599  0.794242  1
  Co  Co4  1  0.750000  0.781894  0.821763  1
  Co  Co5  1  0.750000  0.718106  0.321763  1
  Co  Co6  1  0.250000  0.880998  0.694694  1
  Co  Co7  1  0.250000  0.619002  0.194694  1
  Co  Co8  1  0.750000  0.112463  0.305404  1
  Co  Co9  1  0.750000  0.387537  0.805404  1
  Co  Co10  1  0.250000  0.468024  0.930549  1
  Co  Co11  1  0.250000  0.031976  0.430549  1
  Co  Co12  1  0.750000  0.535566  0.067117  1
  Co  Co13  1  0.750000  0.964434  0.567117  1
  As  As14  1  0.250000  0.427039  0.109957  1
  As  As15  1  0.250000  0.072961  0.609957  1
  As  As16  1  0.750000  0.582247  0.888296  1
  As  As17  1  0.750000  0.917753  0.388296  1
  As  As18  1  0.250000  0.275425  0.872103  1
  As  As19  1  0.250000  0.224575  0.372103  1
  As  As20  1  0.750000  0.724071  0.136287  1
  As  As21  1  0.750000  0.775929  0.636287  1
  As  As22  1  0.250000  0.608751  0.379778  1
  As  As23  1  0.250000  0.891249  0.879778  1
  As  As24  1  0.750000  0.401986  0.616353  1
  As  As25  1  0.750000  0.098014  0.116353  1
  Rh  Rh26  1  0.250000  0.708317  0.990116  1
  Rh  Rh27  1  0.250000  0.791683  0.490116  1
  Rh  Rh28  1  0.750000  0.287024  0.008783  1
  Rh  Rh29  1  0.750000  0.212976  0.508783  1
  Rh  Rh30  1  0.250000  0.411653  0.480288  1
  Rh  Rh31  1  0.250000  0.088347  0.980288  1
  Rh  Rh32  1  0.750000  0.597336  0.517647  1
  Rh  Rh33  1  0.750000  0.902664  0.017647  1
  Rh  Rh34  1  0.250000  0.220445  0.179281  1
  Rh  Rh35  1  0.250000  0.279555  0.679281  1
