# generated using pymatgen
data_ErTh3(CoB4)4
_symmetry_space_group_name_H-M   'P 1'
_cell_length_a   6.89205315
_cell_length_b   6.89205309
_cell_length_c   6.89205323
_cell_angle_alpha   112.47190735
_cell_angle_beta   112.47189958
_cell_angle_gamma   103.62341037
_symmetry_Int_Tables_number   1
_chemical_formula_structural   ErTh3(CoB4)4
_chemical_formula_sum   'Er1 Th3 Co4 B16'
_cell_volume   250.07198061
_cell_formula_units_Z   1
loop_
 _symmetry_equiv_pos_site_id
 _symmetry_equiv_pos_as_xyz
  1  'x, y, z'
loop_
 _atom_site_type_symbol
 _atom_site_label
 _atom_site_symmetry_multiplicity
 _atom_site_fract_x
 _atom_site_fract_y
 _atom_site_fract_z
 _atom_site_occupancy
  Er  Er0  1  0.250000  0.750000  0.500000  1
  Th  Th1  1  0.213059  0.213059  0.000000  1
  Th  Th2  1  0.786941  0.786941  0.000000  1
  Th  Th3  1  0.750000  0.250000  0.500000  1
  Co  Co4  1  0.499540  0.268982  0.769442  1
  Co  Co5  1  0.499540  0.730098  0.230558  1
  Co  Co6  1  0.731018  0.500460  0.230558  1
  Co  Co7  1  0.269902  0.500460  0.769442  1
  B  B8  1  0.111559  0.276368  0.388316  1
  B  B9  1  0.888052  0.723244  0.611684  1
  B  B10  1  0.888052  0.276368  0.164809  1
  B  B11  1  0.111559  0.723244  0.835191  1
  B  B12  1  0.723632  0.888441  0.611684  1
  B  B13  1  0.276756  0.111948  0.388316  1
  B  B14  1  0.723632  0.111948  0.835191  1
  B  B15  1  0.276756  0.888441  0.164809  1
  B  B16  1  0.417070  0.420162  0.536587  1
  B  B17  1  0.883575  0.880484  0.463413  1
  B  B18  1  0.579838  0.116425  0.996909  1
  B  B19  1  0.119516  0.582930  0.003091  1
  B  B20  1  0.579838  0.582930  0.463413  1
  B  B21  1  0.119516  0.116425  0.536587  1
  B  B22  1  0.883575  0.420162  0.003091  1
  B  B23  1  0.417070  0.880484  0.996909  1
