# generated using pymatgen
data_YHo(Si2Rh3)2
_symmetry_space_group_name_H-M   'P 1'
_cell_length_a   6.62703893
_cell_length_b   6.62703940
_cell_length_c   6.62704002
_cell_angle_alpha   130.42373086
_cell_angle_beta   114.10241842
_cell_angle_gamma   86.74360745
_symmetry_Int_Tables_number   1
_chemical_formula_structural   YHo(Si2Rh3)2
_chemical_formula_sum   'Y1 Ho1 Si4 Rh6'
_cell_volume   192.97411010
_cell_formula_units_Z   1
loop_
 _symmetry_equiv_pos_site_id
 _symmetry_equiv_pos_as_xyz
  1  'x, y, z'
loop_
 _atom_site_type_symbol
 _atom_site_label
 _atom_site_symmetry_multiplicity
 _atom_site_fract_x
 _atom_site_fract_y
 _atom_site_fract_z
 _atom_site_occupancy
  Y  Y0  1  0.750000  0.461164  0.711164  1
  Ho  Ho1  1  0.250000  0.541430  0.291430  1
  Si  Si2  1  0.078745  0.883931  0.805186  1
  Si  Si3  1  0.921414  0.116713  0.195299  1
  Si  Si4  1  0.578586  0.773884  0.195299  1
  Si  Si5  1  0.421255  0.226440  0.805186  1
  Rh  Rh6  1  0.713894  0.998823  0.713645  1
  Rh  Rh7  1  0.214822  0.499751  0.713645  1
  Rh  Rh8  1  0.285178  0.998823  0.284929  1
  Rh  Rh9  1  0.786106  0.499751  0.284929  1
  Rh  Rh10  1  0.000397  0.999645  0.500042  1
  Rh  Rh11  1  0.499603  0.999645  0.999248  1
