# generated using pymatgen
data_Ta7Nb5Ga8(CoC)4
_symmetry_space_group_name_H-M   'P 1'
_cell_length_a   8.21621991
_cell_length_b   8.21142292
_cell_length_c   8.21981903
_cell_angle_alpha   59.96963128
_cell_angle_beta   59.99621516
_cell_angle_gamma   59.95082911
_symmetry_Int_Tables_number   1
_chemical_formula_structural   Ta7Nb5Ga8(CoC)4
_chemical_formula_sum   'Ta7 Nb5 Ga8 Co4 C4'
_cell_volume   391.88981482
_cell_formula_units_Z   1
loop_
 _symmetry_equiv_pos_site_id
 _symmetry_equiv_pos_as_xyz
  1  'x, y, z'
loop_
 _atom_site_type_symbol
 _atom_site_label
 _atom_site_symmetry_multiplicity
 _atom_site_fract_x
 _atom_site_fract_y
 _atom_site_fract_z
 _atom_site_occupancy
  Ta  Ta0  1  0.310686  0.309647  0.689806  1
  Ta  Ta1  1  0.559749  0.559916  0.940678  1
  Ta  Ta2  1  0.940784  0.559460  0.559423  1
  Ta  Ta3  1  0.559143  0.939861  0.941411  1
  Ta  Ta4  1  0.939391  0.938491  0.560945  1
  Ta  Ta5  1  0.691664  0.308242  0.691301  1
  Ta  Ta6  1  0.939028  0.560535  0.939606  1
  Nb  Nb7  1  0.561663  0.938052  0.561786  1
  Nb  Nb8  1  0.311282  0.689301  0.688594  1
  Nb  Nb9  1  0.689084  0.310372  0.311705  1
  Nb  Nb10  1  0.309721  0.690328  0.310144  1
  Nb  Nb11  1  0.689492  0.689792  0.310805  1
  Ga  Ga12  1  0.918053  0.915152  0.916837  1
  Ga  Ga13  1  0.999982  0.333520  0.331899  1
  Ga  Ga14  1  0.333111  0.000888  0.334305  1
  Ga  Ga15  1  0.332129  0.335120  0.999539  1
  Ga  Ga16  1  0.916425  0.250335  0.917971  1
  Ga  Ga17  1  0.915592  0.918165  0.249166  1
  Ga  Ga18  1  0.249587  0.916681  0.915438  1
  Ga  Ga19  1  0.334578  0.331967  0.333085  1
  Co  Co20  1  0.127657  0.126246  0.121192  1
  Co  Co21  1  0.625308  0.128594  0.116818  1
  Co  Co22  1  0.125213  0.624526  0.125906  1
  Co  Co23  1  0.118649  0.130871  0.625680  1
  C  C24  1  0.627402  0.621165  0.627759  1
  C  C25  1  0.123340  0.623264  0.626978  1
  C  C26  1  0.625268  0.124078  0.628399  1
  C  C27  1  0.626020  0.625428  0.122825  1
