# generated using pymatgen
data_CoAg3BiIr3O14
_symmetry_space_group_name_H-M   'P 1'
_cell_length_a   7.10183293
_cell_length_b   7.14956091
_cell_length_c   7.24640771
_cell_angle_alpha   60.44113665
_cell_angle_beta   60.15079531
_cell_angle_gamma   59.77744782
_symmetry_Int_Tables_number   1
_chemical_formula_structural   CoAg3BiIr3O14
_chemical_formula_sum   'Co1 Ag3 Bi1 Ir3 O14'
_cell_volume   260.87843002
_cell_formula_units_Z   1
loop_
 _symmetry_equiv_pos_site_id
 _symmetry_equiv_pos_as_xyz
  1  'x, y, z'
loop_
 _atom_site_type_symbol
 _atom_site_label
 _atom_site_symmetry_multiplicity
 _atom_site_fract_x
 _atom_site_fract_y
 _atom_site_fract_z
 _atom_site_occupancy
  Co  Co0  1  0.125000  0.625000  0.625000  1
  Ag  Ag1  1  0.625000  0.125000  0.125000  1
  Ag  Ag2  1  0.125000  0.625000  0.125000  1
  Ag  Ag3  1  0.125000  0.125000  0.125000  1
  Bi  Bi4  1  0.125000  0.125000  0.625000  1
  Ir  Ir5  1  0.625000  0.125000  0.625000  1
  Ir  Ir6  1  0.625000  0.625000  0.125000  1
  Ir  Ir7  1  0.625000  0.625000  0.625000  1
  O  O8  1  0.692974  0.701337  0.305947  1
  O  O9  1  0.297274  0.304000  0.690231  1
  O  O10  1  0.713191  0.294917  0.696976  1
  O  O11  1  0.302676  0.695869  0.305586  1
  O  O12  1  0.297274  0.708496  0.690231  1
  O  O13  1  0.692974  0.299743  0.305947  1
  O  O14  1  0.557026  0.548663  0.944053  1
  O  O15  1  0.952726  0.946000  0.559769  1
  O  O16  1  0.536809  0.955083  0.553024  1
  O  O17  1  0.947324  0.554131  0.944414  1
  O  O18  1  0.952726  0.541504  0.559769  1
  O  O19  1  0.557026  0.950257  0.944053  1
  O  O20  1  0.251877  0.254859  0.238403  1
  O  O21  1  0.998123  0.995141  0.011597  1
