# generated using pymatgen
data_Y3Cd3Pt2
_symmetry_space_group_name_H-M   'P 1'
_cell_length_a   7.65888400
_cell_length_b   7.65888391
_cell_length_c   3.72316100
_cell_angle_alpha   90.00000000
_cell_angle_beta   90.00000000
_cell_angle_gamma   120.00000041
_symmetry_Int_Tables_number   1
_chemical_formula_structural   Y3Cd3Pt2
_chemical_formula_sum   'Y3 Cd3 Pt2'
_cell_volume   189.13566249
_cell_formula_units_Z   1
loop_
 _symmetry_equiv_pos_site_id
 _symmetry_equiv_pos_as_xyz
  1  'x, y, z'
loop_
 _atom_site_type_symbol
 _atom_site_label
 _atom_site_symmetry_multiplicity
 _atom_site_fract_x
 _atom_site_fract_y
 _atom_site_fract_z
 _atom_site_occupancy
  Y  Y0  1  0.575617  0.000000  0.500000  1
  Y  Y1  1  0.424383  0.424382  0.500000  1
  Y  Y2  1  0.000000  0.575618  0.500000  1
  Cd  Cd3  1  0.227442  0.000000  0.000000  1
  Cd  Cd4  1  0.000000  0.227442  0.000000  1
  Cd  Cd5  1  0.772558  0.772557  0.000000  1
  Pt  Pt6  1  0.666666  0.333333  0.000000  1
  Pt  Pt7  1  0.333333  0.666667  0.000000  1
