# generated using pymatgen
data_Tb3HoS4
_symmetry_space_group_name_H-M   'P 1'
_cell_length_a   12.72559933
_cell_length_b   12.72559924
_cell_length_c   12.72559862
_cell_angle_alpha   17.88848771
_cell_angle_beta   17.88848630
_cell_angle_gamma   17.88848677
_symmetry_Int_Tables_number   1
_chemical_formula_structural   Tb3HoS4
_chemical_formula_sum   'Tb3 Ho1 S4'
_cell_volume   169.75511191
_cell_formula_units_Z   1
loop_
 _symmetry_equiv_pos_site_id
 _symmetry_equiv_pos_as_xyz
  1  'x, y, z'
loop_
 _atom_site_type_symbol
 _atom_site_label
 _atom_site_symmetry_multiplicity
 _atom_site_fract_x
 _atom_site_fract_y
 _atom_site_fract_z
 _atom_site_occupancy
  Tb  Tb0  1  0.250603  0.250603  0.250603  1
  Tb  Tb1  1  0.500000  0.500000  0.500000  1
  Tb  Tb2  1  0.749397  0.749397  0.749397  1
  Ho  Ho3  1  0.000000  0.000000  0.000000  1
  S  S4  1  0.373993  0.373993  0.373993  1
  S  S5  1  0.124604  0.124604  0.124604  1
  S  S6  1  0.626007  0.626007  0.626007  1
  S  S7  1  0.875396  0.875396  0.875396  1
