# generated using pymatgen
data_GdLuPSe
_symmetry_space_group_name_H-M   'P 1'
_cell_length_a   7.03039385
_cell_length_b   7.03039396
_cell_length_c   7.03039300
_cell_angle_alpha   33.46850417
_cell_angle_beta   33.46850293
_cell_angle_gamma   33.46851133
_symmetry_Int_Tables_number   1
_chemical_formula_structural   GdLuPSe
_chemical_formula_sum   'Gd1 Lu1 P1 Se1'
_cell_volume   94.11866049
_cell_formula_units_Z   1
loop_
 _symmetry_equiv_pos_site_id
 _symmetry_equiv_pos_as_xyz
  1  'x, y, z'
loop_
 _atom_site_type_symbol
 _atom_site_label
 _atom_site_symmetry_multiplicity
 _atom_site_fract_x
 _atom_site_fract_y
 _atom_site_fract_z
 _atom_site_occupancy
  Gd  Gd0  1  0.256843  0.256843  0.256843  1
  Lu  Lu1  1  0.742969  0.742969  0.742969  1
  P  P2  1  0.003296  0.003296  0.003296  1
  Se  Se3  1  0.496892  0.496892  0.496892  1
