# generated using pymatgen
data_Ho4Al17GaIr6
_symmetry_space_group_name_H-M   'P 1'
_cell_length_a   7.54058820
_cell_length_b   7.54058869
_cell_length_c   9.48165900
_cell_angle_alpha   90.00000000
_cell_angle_beta   90.00000000
_cell_angle_gamma   119.41002232
_symmetry_Int_Tables_number   1
_chemical_formula_structural   Ho4Al17GaIr6
_chemical_formula_sum   'Ho4 Al17 Ga1 Ir6'
_cell_volume   469.65261614
_cell_formula_units_Z   1
loop_
 _symmetry_equiv_pos_site_id
 _symmetry_equiv_pos_as_xyz
  1  'x, y, z'
loop_
 _atom_site_type_symbol
 _atom_site_label
 _atom_site_symmetry_multiplicity
 _atom_site_fract_x
 _atom_site_fract_y
 _atom_site_fract_z
 _atom_site_occupancy
  Ho  Ho0  1  0.993755  0.674484  0.250000  1
  Ho  Ho1  1  0.004850  0.327696  0.750000  1
  Ho  Ho2  1  0.674484  0.993755  0.250000  1
  Ho  Ho3  1  0.327696  0.004850  0.750000  1
  Al  Al4  1  0.869765  0.869765  0.750000  1
  Al  Al5  1  0.001282  0.335832  0.073580  1
  Al  Al6  1  0.998782  0.664280  0.925739  1
  Al  Al7  1  0.998782  0.664280  0.574261  1
  Al  Al8  1  0.335832  0.001282  0.426420  1
  Al  Al9  1  0.001282  0.335832  0.426420  1
  Al  Al10  1  0.664280  0.998782  0.574261  1
  Al  Al11  1  0.664280  0.998782  0.925739  1
  Al  Al12  1  0.335832  0.001282  0.073580  1
  Al  Al13  1  0.333090  0.333090  0.553962  1
  Al  Al14  1  0.665900  0.665900  0.449169  1
  Al  Al15  1  0.665900  0.665900  0.050831  1
  Al  Al16  1  0.333090  0.333090  0.946038  1
  Al  Al17  1  0.338839  0.549791  0.250000  1
  Al  Al18  1  0.660695  0.450975  0.750000  1
  Al  Al19  1  0.549791  0.338839  0.250000  1
  Al  Al20  1  0.450975  0.660695  0.750000  1
  Ga  Ga21  1  0.134207  0.134207  0.250000  1
  Ir  Ir22  1  0.671396  0.327609  0.000199  1
  Ir  Ir23  1  0.327609  0.671396  0.000199  1
  Ir  Ir24  1  0.327609  0.671396  0.499801  1
  Ir  Ir25  1  0.671396  0.327609  0.499801  1
  Ir  Ir26  1  0.999301  0.999301  0.997621  1
  Ir  Ir27  1  0.999301  0.999301  0.502379  1
