# generated using pymatgen
data_Fe3Co(Tc5As12)2
_symmetry_space_group_name_H-M   'P 1'
_cell_length_a   3.09061700
_cell_length_b   12.85009816
_cell_length_c   15.80531943
_cell_angle_alpha   90.04874209
_cell_angle_beta   90.00000000
_cell_angle_gamma   90.00000000
_symmetry_Int_Tables_number   1
_chemical_formula_structural   Fe3Co(Tc5As12)2
_chemical_formula_sum   'Fe3 Co1 Tc10 As24'
_cell_volume   627.70379555
_cell_formula_units_Z   1
loop_
 _symmetry_equiv_pos_site_id
 _symmetry_equiv_pos_as_xyz
  1  'x, y, z'
loop_
 _atom_site_type_symbol
 _atom_site_label
 _atom_site_symmetry_multiplicity
 _atom_site_fract_x
 _atom_site_fract_y
 _atom_site_fract_z
 _atom_site_occupancy
  Fe  Fe0  1  0.500000  0.874865  0.656590  1
  Fe  Fe1  1  0.000000  0.374562  0.842594  1
  Fe  Fe2  1  0.000000  0.625560  0.157488  1
  Co  Co3  1  0.500000  0.126660  0.343336  1
  Tc  Tc4  1  0.500000  0.316275  0.102223  1
  Tc  Tc5  1  0.500000  0.683671  0.897630  1
  Tc  Tc6  1  0.000000  0.183690  0.601731  1
  Tc  Tc7  1  0.000000  0.816311  0.397046  1
  Tc  Tc8  1  0.500000  0.915992  0.261576  1
  Tc  Tc9  1  0.500000  0.084352  0.739593  1
  Tc  Tc10  1  0.000000  0.585106  0.760404  1
  Tc  Tc11  1  0.000000  0.414489  0.239274  1
  Tc  Tc12  1  0.500000  0.499917  0.499709  1
  Tc  Tc13  1  0.000000  0.000070  0.000530  1
  As  As14  1  0.500000  0.903259  0.097428  1
  As  As15  1  0.500000  0.096521  0.902972  1
  As  As16  1  0.000000  0.596756  0.596952  1
  As  As17  1  0.000000  0.402770  0.402758  1
  As  As18  1  0.500000  0.567871  0.261204  1
  As  As19  1  0.500000  0.432035  0.738706  1
  As  As20  1  0.000000  0.931949  0.761164  1
  As  As21  1  0.000000  0.068096  0.239755  1
  As  As22  1  0.500000  0.654996  0.406320  1
  As  As23  1  0.500000  0.344956  0.593760  1
  As  As24  1  0.000000  0.844950  0.906175  1
  As  As25  1  0.000000  0.155380  0.093773  1
  As  As26  1  0.500000  0.968755  0.421360  1
  As  As27  1  0.500000  0.031015  0.579480  1
  As  As28  1  0.000000  0.530583  0.920744  1
  As  As29  1  0.000000  0.469509  0.078966  1
  As  As30  1  0.500000  0.706749  0.061200  1
  As  As31  1  0.500000  0.293012  0.938449  1
  As  As32  1  0.000000  0.793083  0.560979  1
  As  As33  1  0.000000  0.206244  0.439396  1
  As  As34  1  0.500000  0.730121  0.742626  1
  As  As35  1  0.500000  0.269839  0.256410  1
  As  As36  1  0.000000  0.770357  0.242692  1
  As  As37  1  0.000000  0.229672  0.757009  1
