# generated using pymatgen
data_TaTi2Mn8Ga
_symmetry_space_group_name_H-M   'P 1'
_cell_length_a   4.73803300
_cell_length_b   4.73803280
_cell_length_c   7.81579000
_cell_angle_alpha   90.00000000
_cell_angle_beta   90.00000000
_cell_angle_gamma   119.99999441
_symmetry_Int_Tables_number   1
_chemical_formula_structural   TaTi2Mn8Ga
_chemical_formula_sum   'Ta1 Ti2 Mn8 Ga1'
_cell_volume   151.94964236
_cell_formula_units_Z   1
loop_
 _symmetry_equiv_pos_site_id
 _symmetry_equiv_pos_as_xyz
  1  'x, y, z'
loop_
 _atom_site_type_symbol
 _atom_site_label
 _atom_site_symmetry_multiplicity
 _atom_site_fract_x
 _atom_site_fract_y
 _atom_site_fract_z
 _atom_site_occupancy
  Ta  Ta0  1  0.666667  0.333333  0.935169  1
  Ti  Ti1  1  0.666667  0.333333  0.558226  1
  Ti  Ti2  1  0.333333  0.666667  0.076664  1
  Mn  Mn3  1  0.651462  0.825731  0.748543  1
  Mn  Mn4  1  0.345149  0.172574  0.251343  1
  Mn  Mn5  1  0.827426  0.172574  0.251343  1
  Mn  Mn6  1  0.174269  0.348538  0.748543  1
  Mn  Mn7  1  0.174269  0.825731  0.748543  1
  Mn  Mn8  1  0.827426  0.654851  0.251343  1
  Mn  Mn9  1  0.000000  0.000000  0.499404  1
  Mn  Mn10  1  0.000000  0.000000  0.994600  1
  Ga  Ga11  1  0.333333  0.666667  0.436280  1
