# generated using pymatgen
data_Lu3ThCdCo
_symmetry_space_group_name_H-M   'P 1'
_cell_length_a   9.43264545
_cell_length_b   9.43264441
_cell_length_c   9.43264500
_cell_angle_alpha   60.00000144
_cell_angle_beta   60.00000508
_cell_angle_gamma   60.00000178
_symmetry_Int_Tables_number   1
_chemical_formula_structural   Lu3ThCdCo
_chemical_formula_sum   'Lu12 Th4 Cd4 Co4'
_cell_volume   593.45185649
_cell_formula_units_Z   4
loop_
 _symmetry_equiv_pos_site_id
 _symmetry_equiv_pos_as_xyz
  1  'x, y, z'
loop_
 _atom_site_type_symbol
 _atom_site_label
 _atom_site_symmetry_multiplicity
 _atom_site_fract_x
 _atom_site_fract_y
 _atom_site_fract_z
 _atom_site_occupancy
  Lu  Lu0  1  0.813683  0.186317  0.186317  1
  Lu  Lu1  1  0.186317  0.813683  0.813683  1
  Lu  Lu2  1  0.186317  0.813683  0.186317  1
  Lu  Lu3  1  0.813683  0.186317  0.813683  1
  Lu  Lu4  1  0.186317  0.186317  0.813683  1
  Lu  Lu5  1  0.813683  0.813683  0.186317  1
  Lu  Lu6  1  0.935068  0.564932  0.564932  1
  Lu  Lu7  1  0.564932  0.935068  0.935068  1
  Lu  Lu8  1  0.564932  0.935068  0.564932  1
  Lu  Lu9  1  0.935068  0.564932  0.935068  1
  Lu  Lu10  1  0.564932  0.564932  0.935068  1
  Lu  Lu11  1  0.935068  0.935068  0.564932  1
  Th  Th12  1  0.347327  0.347327  0.347327  1
  Th  Th13  1  0.347327  0.347327  0.958018  1
  Th  Th14  1  0.347327  0.958018  0.347327  1
  Th  Th15  1  0.958018  0.347327  0.347327  1
  Cd  Cd16  1  0.583260  0.583260  0.583260  1
  Cd  Cd17  1  0.583260  0.583260  0.250220  1
  Cd  Cd18  1  0.583260  0.250220  0.583260  1
  Cd  Cd19  1  0.250220  0.583260  0.583260  1
  Co  Co20  1  0.143603  0.143603  0.143603  1
  Co  Co21  1  0.143603  0.143603  0.569190  1
  Co  Co22  1  0.143603  0.569190  0.143603  1
  Co  Co23  1  0.569190  0.143603  0.143603  1
