# generated using pymatgen
data_HoTm3GaCo4
_symmetry_space_group_name_H-M   'P 1'
_cell_length_a   5.40116303
_cell_length_b   5.40116187
_cell_length_c   8.79989310
_cell_angle_alpha   70.90271677
_cell_angle_beta   70.90272233
_cell_angle_gamma   43.46888595
_symmetry_Int_Tables_number   1
_chemical_formula_structural   HoTm3GaCo4
_chemical_formula_sum   'Ho1 Tm3 Ga1 Co4'
_cell_volume   165.29294194
_cell_formula_units_Z   1
loop_
 _symmetry_equiv_pos_site_id
 _symmetry_equiv_pos_as_xyz
  1  'x, y, z'
loop_
 _atom_site_type_symbol
 _atom_site_label
 _atom_site_symmetry_multiplicity
 _atom_site_fract_x
 _atom_site_fract_y
 _atom_site_fract_z
 _atom_site_occupancy
  Ho  Ho0  1  0.746288  0.746288  0.662161  1
  Tm  Tm1  1  0.253915  0.253915  0.337140  1
  Tm  Tm2  1  0.390915  0.390915  0.886707  1
  Tm  Tm3  1  0.608988  0.608988  0.114392  1
  Ga  Ga4  1  0.500440  0.500440  0.499515  1
  Co  Co5  1  0.038376  0.038376  0.645620  1
  Co  Co6  1  0.961809  0.961809  0.353581  1
  Co  Co7  1  0.095031  0.095031  0.881734  1
  Co  Co8  1  0.904238  0.904238  0.119152  1
