# generated using pymatgen
data_Er3Lu5In3Pt
_symmetry_space_group_name_H-M   'P 1'
_cell_length_a   10.31441200
_cell_length_b   10.31441266
_cell_length_c   6.90328500
_cell_angle_alpha   90.00000000
_cell_angle_beta   90.00000000
_cell_angle_gamma   120.00000430
_symmetry_Int_Tables_number   1
_chemical_formula_structural   Er3Lu5In3Pt
_chemical_formula_sum   'Er6 Lu10 In6 Pt2'
_cell_volume   636.02676805
_cell_formula_units_Z   2
loop_
 _symmetry_equiv_pos_site_id
 _symmetry_equiv_pos_as_xyz
  1  'x, y, z'
loop_
 _atom_site_type_symbol
 _atom_site_label
 _atom_site_symmetry_multiplicity
 _atom_site_fract_x
 _atom_site_fract_y
 _atom_site_fract_z
 _atom_site_occupancy
  Er  Er0  1  0.530710  0.061419  0.525891  1
  Er  Er1  1  0.938581  0.469290  0.525891  1
  Er  Er2  1  0.530710  0.469290  0.525891  1
  Er  Er3  1  0.469290  0.938581  0.025891  1
  Er  Er4  1  0.061419  0.530710  0.025891  1
  Er  Er5  1  0.469290  0.530710  0.025891  1
  Lu  Lu6  1  0.175403  0.350805  0.731192  1
  Lu  Lu7  1  0.649195  0.824597  0.731192  1
  Lu  Lu8  1  0.175403  0.824597  0.731192  1
  Lu  Lu9  1  0.824597  0.649195  0.231192  1
  Lu  Lu10  1  0.350805  0.175403  0.231192  1
  Lu  Lu11  1  0.824597  0.175403  0.231192  1
  Lu  Lu12  1  0.666667  0.333333  0.900548  1
  Lu  Lu13  1  0.333333  0.666667  0.400548  1
  Lu  Lu14  1  0.000000  0.000000  0.504962  1
  Lu  Lu15  1  0.000000  0.000000  0.004962  1
  In  In16  1  0.837717  0.675433  0.768618  1
  In  In17  1  0.324567  0.162283  0.768618  1
  In  In18  1  0.837717  0.162283  0.768618  1
  In  In19  1  0.162283  0.324567  0.268618  1
  In  In20  1  0.675433  0.837717  0.268618  1
  In  In21  1  0.162283  0.837717  0.268618  1
  Pt  Pt22  1  0.666667  0.333333  0.295227  1
  Pt  Pt23  1  0.333333  0.666667  0.795227  1
