# generated using pymatgen
data_CaYTmZn11
_symmetry_space_group_name_H-M   'P 1'
_cell_length_a   8.18727512
_cell_length_b   8.18727498
_cell_length_c   8.18727531
_cell_angle_alpha   148.32018814
_cell_angle_beta   115.78627730
_cell_angle_gamma   73.38066649
_symmetry_Int_Tables_number   1
_chemical_formula_structural   CaYTmZn11
_chemical_formula_sum   'Ca1 Y1 Tm1 Zn11'
_cell_volume   255.37158050
_cell_formula_units_Z   1
loop_
 _symmetry_equiv_pos_site_id
 _symmetry_equiv_pos_as_xyz
  1  'x, y, z'
loop_
 _atom_site_type_symbol
 _atom_site_label
 _atom_site_symmetry_multiplicity
 _atom_site_fract_x
 _atom_site_fract_y
 _atom_site_fract_z
 _atom_site_occupancy
  Ca  Ca0  1  0.000046  0.000046  0.000000  1
  Y  Y1  1  0.702323  0.702323  0.000000  1
  Tm  Tm2  1  0.298004  0.298004  0.000000  1
  Zn  Zn3  1  0.500017  0.000017  0.500000  1
  Zn  Zn4  1  0.678324  0.499611  0.178713  1
  Zn  Zn5  1  0.320898  0.499611  0.821287  1
  Zn  Zn6  1  0.692690  0.337427  0.355263  1
  Zn  Zn7  1  0.306631  0.662941  0.643690  1
  Zn  Zn8  1  0.982165  0.337427  0.644737  1
  Zn  Zn9  1  0.019251  0.662941  0.356310  1
  Zn  Zn10  1  0.422141  0.137362  0.284779  1
  Zn  Zn11  1  0.576617  0.862465  0.714152  1
  Zn  Zn12  1  0.852582  0.137362  0.715221  1
  Zn  Zn13  1  0.148313  0.862465  0.285848  1
