# generated using pymatgen
data_YbDy2(MgIr)3
_symmetry_space_group_name_H-M   'P 1'
_cell_length_a   7.10252300
_cell_length_b   7.21452844
_cell_length_c   4.14836500
_cell_angle_alpha   90.00000000
_cell_angle_beta   90.00000000
_cell_angle_gamma   119.48773920
_symmetry_Int_Tables_number   1
_chemical_formula_structural   YbDy2(MgIr)3
_chemical_formula_sum   'Yb1 Dy2 Mg3 Ir3'
_cell_volume   185.03202537
_cell_formula_units_Z   1
loop_
 _symmetry_equiv_pos_site_id
 _symmetry_equiv_pos_as_xyz
  1  'x, y, z'
loop_
 _atom_site_type_symbol
 _atom_site_label
 _atom_site_symmetry_multiplicity
 _atom_site_fract_x
 _atom_site_fract_y
 _atom_site_fract_z
 _atom_site_occupancy
  Yb  Yb0  1  0.413849  0.000000  0.500000  1
  Dy  Dy1  1  0.001709  0.411421  0.500000  1
  Dy  Dy2  1  0.590287  0.588579  0.500000  1
  Mg  Mg3  1  0.004657  0.761391  0.000000  1
  Mg  Mg4  1  0.243266  0.238609  0.000000  1
  Mg  Mg5  1  0.748929  0.000000  0.000000  1
  Ir  Ir6  1  0.330190  0.653450  0.000000  1
  Ir  Ir7  1  0.676742  0.346550  0.000000  1
  Ir  Ir8  1  0.990372  0.000000  0.500000  1
