# generated using pymatgen
data_LiTh4Zn9Sn2
_symmetry_space_group_name_H-M   'P 1'
_cell_length_a   8.59322236
_cell_length_b   8.59322127
_cell_length_c   9.08662600
_cell_angle_alpha   90.00000000
_cell_angle_beta   90.00000000
_cell_angle_gamma   149.79715807
_symmetry_Int_Tables_number   1
_chemical_formula_structural   LiTh4Zn9Sn2
_chemical_formula_sum   'Li1 Th4 Zn9 Sn2'
_cell_volume   337.54906868
_cell_formula_units_Z   1
loop_
 _symmetry_equiv_pos_site_id
 _symmetry_equiv_pos_as_xyz
  1  'x, y, z'
loop_
 _atom_site_type_symbol
 _atom_site_label
 _atom_site_symmetry_multiplicity
 _atom_site_fract_x
 _atom_site_fract_y
 _atom_site_fract_z
 _atom_site_occupancy
  Li  Li0  1  0.396510  0.603490  0.250000  1
  Th  Th1  1  0.204975  0.795025  0.250000  1
  Th  Th2  1  0.795080  0.204920  0.750000  1
  Th  Th3  1  0.000032  0.999968  0.500890  1
  Th  Th4  1  0.000032  0.999968  0.999110  1
  Zn  Zn5  1  0.816356  0.183644  0.391527  1
  Zn  Zn6  1  0.184620  0.815380  0.607591  1
  Zn  Zn7  1  0.816356  0.183644  0.108473  1
  Zn  Zn8  1  0.184620  0.815380  0.892409  1
  Zn  Zn9  1  0.657170  0.342830  0.481902  1
  Zn  Zn10  1  0.342691  0.657309  0.515386  1
  Zn  Zn11  1  0.657170  0.342830  0.018098  1
  Zn  Zn12  1  0.342691  0.657309  0.984614  1
  Zn  Zn13  1  0.604283  0.395717  0.750000  1
  Sn  Sn14  1  0.553375  0.446625  0.250000  1
  Sn  Sn15  1  0.444039  0.555961  0.750000  1
