# generated using pymatgen
data_Pr8Ho12Si15Au
_symmetry_space_group_name_H-M   'P 1'
_cell_length_a   7.47637490
_cell_length_b   7.82578373
_cell_length_c   14.93055400
_cell_angle_alpha   90.00000000
_cell_angle_beta   90.00000000
_cell_angle_gamma   90.63029371
_symmetry_Int_Tables_number   1
_chemical_formula_structural   Pr8Ho12Si15Au
_chemical_formula_sum   'Pr8 Ho12 Si15 Au1'
_cell_volume   873.51135782
_cell_formula_units_Z   1
loop_
 _symmetry_equiv_pos_site_id
 _symmetry_equiv_pos_as_xyz
  1  'x, y, z'
loop_
 _atom_site_type_symbol
 _atom_site_label
 _atom_site_symmetry_multiplicity
 _atom_site_fract_x
 _atom_site_fract_y
 _atom_site_fract_z
 _atom_site_occupancy
  Pr  Pr0  1  0.019562  0.181827  0.400601  1
  Pr  Pr1  1  0.518822  0.322080  0.400272  1
  Pr  Pr2  1  0.487283  0.668201  0.908370  1
  Pr  Pr3  1  0.487283  0.668201  0.591630  1
  Pr  Pr4  1  0.979902  0.822610  0.593841  1
  Pr  Pr5  1  0.979902  0.822610  0.906159  1
  Pr  Pr6  1  0.518822  0.322080  0.099728  1
  Pr  Pr7  1  0.019562  0.181827  0.099399  1
  Ho  Ho8  1  0.323218  0.183875  0.621511  1
  Ho  Ho9  1  0.676851  0.824326  0.375138  1
  Ho  Ho10  1  0.652489  0.978603  0.750000  1
  Ho  Ho11  1  0.177011  0.676872  0.376680  1
  Ho  Ho12  1  0.825028  0.319491  0.878442  1
  Ho  Ho13  1  0.825028  0.319491  0.621558  1
  Ho  Ho14  1  0.841383  0.491849  0.250000  1
  Ho  Ho15  1  0.341055  0.011119  0.250000  1
  Ho  Ho16  1  0.323218  0.183875  0.878489  1
  Ho  Ho17  1  0.177011  0.676872  0.123320  1
  Ho  Ho18  1  0.676851  0.824326  0.124862  1
  Ho  Ho19  1  0.163128  0.512236  0.750000  1
  Si  Si20  1  0.468092  0.614446  0.250000  1
  Si  Si21  1  0.026832  0.119438  0.750000  1
  Si  Si22  1  0.536432  0.385977  0.750000  1
  Si  Si23  1  0.148602  0.469972  0.539155  1
  Si  Si24  1  0.971806  0.884632  0.250000  1
  Si  Si25  1  0.722502  0.123248  0.250000  1
  Si  Si26  1  0.847406  0.533208  0.040149  1
  Si  Si27  1  0.352058  0.967419  0.038495  1
  Si  Si28  1  0.148602  0.469972  0.960845  1
  Si  Si29  1  0.646484  0.032379  0.537973  1
  Si  Si30  1  0.352058  0.967419  0.461505  1
  Si  Si31  1  0.847406  0.533208  0.459851  1
  Si  Si32  1  0.774739  0.615353  0.750000  1
  Si  Si33  1  0.224420  0.380606  0.250000  1
  Si  Si34  1  0.646484  0.032379  0.962027  1
  Au  Au35  1  0.272666  0.877975  0.750000  1
