# generated using pymatgen
data_Th2Ga5Pd3
_symmetry_space_group_name_H-M   'P 1'
_cell_length_a   8.67409714
_cell_length_b   8.67409760
_cell_length_c   8.67409841
_cell_angle_alpha   139.73865668
_cell_angle_beta   107.53937717
_cell_angle_gamma   86.30382325
_symmetry_Int_Tables_number   1
_chemical_formula_structural   Th2Ga5Pd3
_chemical_formula_sum   'Th4 Ga10 Pd6'
_cell_volume   387.39900167
_cell_formula_units_Z   2
loop_
 _symmetry_equiv_pos_site_id
 _symmetry_equiv_pos_as_xyz
  1  'x, y, z'
loop_
 _atom_site_type_symbol
 _atom_site_label
 _atom_site_symmetry_multiplicity
 _atom_site_fract_x
 _atom_site_fract_y
 _atom_site_fract_z
 _atom_site_occupancy
  Th  Th0  1  0.634284  0.860949  0.773335  1
  Th  Th1  1  0.365716  0.139051  0.226665  1
  Th  Th2  1  0.087614  0.360949  0.726665  1
  Th  Th3  1  0.912386  0.639051  0.273335  1
  Ga  Ga4  1  0.288687  0.038687  0.750000  1
  Ga  Ga5  1  0.711313  0.961313  0.250000  1
  Ga  Ga6  1  0.711313  0.461313  0.750000  1
  Ga  Ga7  1  0.288687  0.538687  0.250000  1
  Ga  Ga8  1  0.436434  0.599406  0.837027  1
  Ga  Ga9  1  0.563566  0.400594  0.162973  1
  Ga  Ga10  1  0.762379  0.099406  0.662973  1
  Ga  Ga11  1  0.237621  0.900594  0.337027  1
  Ga  Ga12  1  0.000000  0.750000  0.750000  1
  Ga  Ga13  1  0.000000  0.250000  0.250000  1
  Pd  Pd14  1  0.241256  0.642707  0.598550  1
  Pd  Pd15  1  0.758744  0.357293  0.401450  1
  Pd  Pd16  1  0.044158  0.142707  0.901450  1
  Pd  Pd17  1  0.955842  0.857293  0.098550  1
  Pd  Pd18  1  0.500000  0.750000  0.250000  1
  Pd  Pd19  1  0.500000  0.250000  0.750000  1
