# generated using pymatgen
data_La8Dy7Y5Ga16
_symmetry_space_group_name_H-M   'P 1'
_cell_length_a   7.75889916
_cell_length_b   8.08755901
_cell_length_c   15.35957900
_cell_angle_alpha   90.00074387
_cell_angle_beta   89.98833984
_cell_angle_gamma   89.99710262
_symmetry_Int_Tables_number   1
_chemical_formula_structural   La8Dy7Y5Ga16
_chemical_formula_sum   'La8 Dy7 Y5 Ga16'
_cell_volume   963.82208282
_cell_formula_units_Z   1
loop_
 _symmetry_equiv_pos_site_id
 _symmetry_equiv_pos_as_xyz
  1  'x, y, z'
loop_
 _atom_site_type_symbol
 _atom_site_label
 _atom_site_symmetry_multiplicity
 _atom_site_fract_x
 _atom_site_fract_y
 _atom_site_fract_z
 _atom_site_occupancy
  La  La0  1  0.019482  0.178314  0.405923  1
  La  La1  1  0.519180  0.321602  0.406006  1
  La  La2  1  0.479693  0.678891  0.905465  1
  La  La3  1  0.480615  0.678601  0.594236  1
  La  La4  1  0.980227  0.821317  0.594386  1
  La  La5  1  0.979585  0.820961  0.905414  1
  La  La6  1  0.520317  0.320963  0.094363  1
  La  La7  1  0.020224  0.179019  0.094286  1
  Dy  Dy8  1  0.321157  0.175916  0.621680  1
  Dy  Dy9  1  0.678833  0.824414  0.378434  1
  Dy  Dy10  1  0.659354  0.991203  0.749773  1
  Dy  Dy11  1  0.179045  0.675801  0.378504  1
  Dy  Dy12  1  0.840528  0.491447  0.250443  1
  Dy  Dy13  1  0.340426  0.008452  0.250375  1
  Dy  Dy14  1  0.159916  0.508806  0.749613  1
  Y  Y15  1  0.821229  0.323897  0.878114  1
  Y  Y16  1  0.821101  0.324461  0.621650  1
  Y  Y17  1  0.321381  0.176137  0.878272  1
  Y  Y18  1  0.178890  0.676032  0.121480  1
  Y  Y19  1  0.678931  0.823912  0.121471  1
  Ga  Ga20  1  0.270049  0.882111  0.749885  1
  Ga  Ga21  1  0.472054  0.613025  0.250448  1
  Ga  Ga22  1  0.028054  0.112668  0.749838  1
  Ga  Ga23  1  0.527835  0.386880  0.749671  1
  Ga  Ga24  1  0.150277  0.469197  0.541132  1
  Ga  Ga25  1  0.971978  0.887093  0.250408  1
  Ga  Ga26  1  0.729898  0.118027  0.250104  1
  Ga  Ga27  1  0.849830  0.530213  0.041077  1
  Ga  Ga28  1  0.349788  0.969808  0.041104  1
  Ga  Ga29  1  0.150106  0.469732  0.958833  1
  Ga  Ga30  1  0.650238  0.030258  0.541186  1
  Ga  Ga31  1  0.349686  0.969390  0.458866  1
  Ga  Ga32  1  0.849903  0.531021  0.458630  1
  Ga  Ga33  1  0.770070  0.618084  0.750016  1
  Ga  Ga34  1  0.229961  0.382044  0.250069  1
  Ga  Ga35  1  0.650158  0.030303  0.958849  1
