# generated using pymatgen
data_Be4AlCo
_symmetry_space_group_name_H-M   'P 1'
_cell_length_a   4.24196126
_cell_length_b   4.24196163
_cell_length_c   4.24196100
_cell_angle_alpha   59.99999712
_cell_angle_beta   59.99999423
_cell_angle_gamma   59.99999454
_symmetry_Int_Tables_number   1
_chemical_formula_structural   Be4AlCo
_chemical_formula_sum   'Be4 Al1 Co1'
_cell_volume   53.97405673
_cell_formula_units_Z   1
loop_
 _symmetry_equiv_pos_site_id
 _symmetry_equiv_pos_as_xyz
  1  'x, y, z'
loop_
 _atom_site_type_symbol
 _atom_site_label
 _atom_site_symmetry_multiplicity
 _atom_site_fract_x
 _atom_site_fract_y
 _atom_site_fract_z
 _atom_site_occupancy
  Be  Be0  1  0.626040  0.626040  0.121881  1
  Be  Be1  1  0.626040  0.121881  0.626040  1
  Be  Be2  1  0.121881  0.626040  0.626040  1
  Be  Be3  1  0.626040  0.626040  0.626040  1
  Al  Al4  1  0.250000  0.250000  0.250000  1
  Co  Co5  1  0.000000  0.000000  0.000000  1
