# generated using pymatgen
data_Lu4Th(FeB3)2
_symmetry_space_group_name_H-M   'P 1'
_cell_length_a   5.38049114
_cell_length_b   5.38049248
_cell_length_c   7.98785469
_cell_angle_alpha   70.31845873
_cell_angle_beta   70.31845568
_cell_angle_gamma   60.00001023
_symmetry_Int_Tables_number   1
_chemical_formula_structural   Lu4Th(FeB3)2
_chemical_formula_sum   'Lu4 Th1 Fe2 B6'
_cell_volume   184.50053581
_cell_formula_units_Z   1
loop_
 _symmetry_equiv_pos_site_id
 _symmetry_equiv_pos_as_xyz
  1  'x, y, z'
loop_
 _atom_site_type_symbol
 _atom_site_label
 _atom_site_symmetry_multiplicity
 _atom_site_fract_x
 _atom_site_fract_y
 _atom_site_fract_z
 _atom_site_occupancy
  Lu  Lu0  1  0.748892  0.748892  0.753324  1
  Lu  Lu1  1  0.251108  0.251108  0.246676  1
  Lu  Lu2  1  0.583973  0.583973  0.248080  1
  Lu  Lu3  1  0.416027  0.416027  0.751920  1
  Th  Th4  1  0.000000  0.000000  0.000000  1
  Fe  Fe5  1  0.888125  0.888125  0.335625  1
  Fe  Fe6  1  0.111875  0.111875  0.664375  1
  B  B7  1  0.500000  0.168618  0.500000  1
  B  B8  1  0.831382  0.500000  0.500000  1
  B  B9  1  0.168618  0.831383  0.500000  1
  B  B10  1  0.168618  0.500000  0.500000  1
  B  B11  1  0.831382  0.168618  0.500000  1
  B  B12  1  0.500000  0.831382  0.500000  1
