# generated using pymatgen
data_Ba3ReI2O5
_symmetry_space_group_name_H-M   'P 1'
_cell_length_a   8.37725363
_cell_length_b   8.37725367
_cell_length_c   11.87458600
_cell_angle_alpha   90.00000000
_cell_angle_beta   90.00000000
_cell_angle_gamma   137.65763600
_symmetry_Int_Tables_number   1
_chemical_formula_structural   Ba3ReI2O5
_chemical_formula_sum   'Ba6 Re2 I4 O10'
_cell_volume   561.30328569
_cell_formula_units_Z   2
loop_
 _symmetry_equiv_pos_site_id
 _symmetry_equiv_pos_as_xyz
  1  'x, y, z'
loop_
 _atom_site_type_symbol
 _atom_site_label
 _atom_site_symmetry_multiplicity
 _atom_site_fract_x
 _atom_site_fract_y
 _atom_site_fract_z
 _atom_site_occupancy
  Ba  Ba0  1  0.337372  0.662628  0.962892  1
  Ba  Ba1  1  0.662628  0.337372  0.462892  1
  Ba  Ba2  1  0.337372  0.662628  0.537108  1
  Ba  Ba3  1  0.123400  0.876600  0.750000  1
  Ba  Ba4  1  0.662628  0.337372  0.037108  1
  Ba  Ba5  1  0.876600  0.123400  0.250000  1
  Re  Re6  1  0.238376  0.761624  0.250000  1
  Re  Re7  1  0.761624  0.238376  0.750000  1
  I  I8  1  0.505023  0.494977  0.750000  1
  I  I9  1  0.000000  0.000000  0.000000  1
  I  I10  1  0.000000  0.000000  0.500000  1
  I  I11  1  0.494977  0.505023  0.250000  1
  O  O12  1  0.491209  0.944625  0.138393  1
  O  O13  1  0.871927  0.128073  0.750000  1
  O  O14  1  0.944625  0.491209  0.638393  1
  O  O15  1  0.508791  0.055375  0.861607  1
  O  O16  1  0.128073  0.871927  0.250000  1
  O  O17  1  0.508791  0.055375  0.638393  1
  O  O18  1  0.944625  0.491209  0.861607  1
  O  O19  1  0.055375  0.508791  0.138393  1
  O  O20  1  0.491209  0.944625  0.361607  1
  O  O21  1  0.055375  0.508791  0.361607  1
