# generated using pymatgen
data_DyTm7Re3B24Rh
_symmetry_space_group_name_H-M   'P 1'
_cell_length_a   3.64518000
_cell_length_b   9.10233303
_cell_length_c   11.47653910
_cell_angle_alpha   90.14212458
_cell_angle_beta   90.00000000
_cell_angle_gamma   90.00000000
_symmetry_Int_Tables_number   1
_chemical_formula_structural   DyTm7Re3B24Rh
_chemical_formula_sum   'Dy1 Tm7 Re3 B24 Rh1'
_cell_volume   380.78629060
_cell_formula_units_Z   1
loop_
 _symmetry_equiv_pos_site_id
 _symmetry_equiv_pos_as_xyz
  1  'x, y, z'
loop_
 _atom_site_type_symbol
 _atom_site_label
 _atom_site_symmetry_multiplicity
 _atom_site_fract_x
 _atom_site_fract_y
 _atom_site_fract_z
 _atom_site_occupancy
  Dy  Dy0  1  0.000000  0.317956  0.415495  1
  Tm  Tm1  1  0.000000  0.678682  0.591687  1
  Tm  Tm2  1  0.000000  0.826967  0.080823  1
  Tm  Tm3  1  0.000000  0.177867  0.912633  1
  Tm  Tm4  1  0.000000  0.942873  0.370228  1
  Tm  Tm5  1  0.000000  0.055754  0.629070  1
  Tm  Tm6  1  0.000000  0.441369  0.128503  1
  Tm  Tm7  1  0.000000  0.556983  0.872009  1
  Re  Re8  1  0.000000  0.362685  0.678423  1
  Re  Re9  1  0.000000  0.137741  0.179511  1
  Re  Re10  1  0.000000  0.861856  0.820889  1
  B  B11  1  0.500000  0.554267  0.434089  1
  B  B12  1  0.500000  0.447174  0.566887  1
  B  B13  1  0.500000  0.053173  0.065846  1
  B  B14  1  0.500000  0.947647  0.932859  1
  B  B15  1  0.500000  0.749368  0.420698  1
  B  B16  1  0.500000  0.249854  0.581405  1
  B  B17  1  0.500000  0.249796  0.080484  1
  B  B18  1  0.500000  0.751501  0.919360  1
  B  B19  1  0.500000  0.791390  0.264479  1
  B  B20  1  0.500000  0.208005  0.734841  1
  B  B21  1  0.500000  0.291851  0.234903  1
  B  B22  1  0.500000  0.707928  0.765693  1
  B  B23  1  0.500000  0.631728  0.183323  1
  B  B24  1  0.500000  0.369915  0.815049  1
  B  B25  1  0.500000  0.129634  0.314955  1
  B  B26  1  0.500000  0.868839  0.684915  1
  B  B27  1  0.500000  0.981341  0.211636  1
  B  B28  1  0.500000  0.018455  0.786990  1
  B  B29  1  0.500000  0.482881  0.287465  1
  B  B30  1  0.500000  0.519300  0.712855  1
  B  B31  1  0.500000  0.603755  0.029254  1
  B  B32  1  0.500000  0.398089  0.972187  1
  B  B33  1  0.500000  0.099631  0.471592  1
  B  B34  1  0.500000  0.895614  0.528062  1
  Rh  Rh35  1  0.000000  0.638131  0.320903  1
