# generated using pymatgen
data_Ba4Ga14PdPt
_symmetry_space_group_name_H-M   'P 1'
_cell_length_a   6.39015954
_cell_length_b   6.39350627
_cell_length_c   12.02640100
_cell_angle_alpha   74.58484534
_cell_angle_beta   74.59309875
_cell_angle_gamma   90.00000096
_symmetry_Int_Tables_number   1
_chemical_formula_structural   Ba4Ga14PdPt
_chemical_formula_sum   'Ba4 Ga14 Pd1 Pt1'
_cell_volume   455.32664620
_cell_formula_units_Z   1
loop_
 _symmetry_equiv_pos_site_id
 _symmetry_equiv_pos_as_xyz
  1  'x, y, z'
loop_
 _atom_site_type_symbol
 _atom_site_label
 _atom_site_symmetry_multiplicity
 _atom_site_fract_x
 _atom_site_fract_y
 _atom_site_fract_z
 _atom_site_occupancy
  Ba  Ba0  1  0.998206  0.998206  0.003589  1
  Ba  Ba1  1  0.499498  0.499498  0.001005  1
  Ba  Ba2  1  0.750428  0.250428  0.499145  1
  Ba  Ba3  1  0.248783  0.748783  0.502434  1
  Ga  Ga4  1  0.198720  0.198720  0.602562  1
  Ga  Ga5  1  0.811874  0.811874  0.376253  1
  Ga  Ga6  1  0.612999  0.125532  0.252958  1
  Ga  Ga7  1  0.134043  0.621510  0.252958  1
  Ga  Ga8  1  0.612999  0.621510  0.252958  1
  Ga  Ga9  1  0.134043  0.125532  0.252958  1
  Ga  Ga10  1  0.872606  0.363963  0.751990  1
  Ga  Ga11  1  0.375403  0.884046  0.751990  1
  Ga  Ga12  1  0.872606  0.884046  0.751990  1
  Ga  Ga13  1  0.375403  0.363963  0.751990  1
  Ga  Ga14  1  0.689500  0.689500  0.620999  1
  Ga  Ga15  1  0.061836  0.561836  0.876328  1
  Ga  Ga16  1  0.447714  0.947714  0.104570  1
  Ga  Ga17  1  0.939411  0.439411  0.121178  1
  Pd  Pd18  1  0.564337  0.064337  0.871325  1
  Pt  Pt19  1  0.314421  0.314421  0.371158  1
