# generated using pymatgen
data_Nd7Er(Tm3Sn4)4
_symmetry_space_group_name_H-M   'P 1'
_cell_length_a   8.07425600
_cell_length_b   8.23133022
_cell_length_c   15.49181300
_cell_angle_alpha   90.05630507
_cell_angle_beta   90.00036900
_cell_angle_gamma   89.96853729
_symmetry_Int_Tables_number   1
_chemical_formula_structural   Nd7Er(Tm3Sn4)4
_chemical_formula_sum   'Nd7 Er1 Tm12 Sn16'
_cell_volume   1029.61416871
_cell_formula_units_Z   1
loop_
 _symmetry_equiv_pos_site_id
 _symmetry_equiv_pos_as_xyz
  1  'x, y, z'
loop_
 _atom_site_type_symbol
 _atom_site_label
 _atom_site_symmetry_multiplicity
 _atom_site_fract_x
 _atom_site_fract_y
 _atom_site_fract_z
 _atom_site_occupancy
  Nd  Nd0  1  0.516581  0.321138  0.903629  1
  Nd  Nd1  1  0.016071  0.177992  0.596365  1
  Nd  Nd2  1  0.483693  0.678190  0.403340  1
  Nd  Nd3  1  0.983474  0.822493  0.096231  1
  Nd  Nd4  1  0.484034  0.678162  0.096276  1
  Nd  Nd5  1  0.983842  0.821843  0.403411  1
  Nd  Nd6  1  0.516336  0.321852  0.597128  1
  Er  Er7  1  0.017201  0.178527  0.902541  1
  Tm  Tm8  1  0.359999  0.837318  0.876657  1
  Tm  Tm9  1  0.860072  0.663040  0.624405  1
  Tm  Tm10  1  0.639751  0.163266  0.376308  1
  Tm  Tm11  1  0.139352  0.336234  0.123226  1
  Tm  Tm12  1  0.639227  0.162833  0.123180  1
  Tm  Tm13  1  0.140108  0.336954  0.376330  1
  Tm  Tm14  1  0.359884  0.837010  0.624096  1
  Tm  Tm15  1  0.860098  0.663037  0.876313  1
  Tm  Tm16  1  0.192370  0.503164  0.750549  1
  Tm  Tm17  1  0.693384  0.996874  0.750536  1
  Tm  Tm18  1  0.807049  0.496113  0.249903  1
  Tm  Tm19  1  0.306832  0.003670  0.249778  1
  Sn  Sn20  1  0.299949  0.042767  0.040618  1
  Sn  Sn21  1  0.803856  0.458854  0.457978  1
  Sn  Sn22  1  0.695750  0.958717  0.542387  1
  Sn  Sn23  1  0.194982  0.538270  0.957151  1
  Sn  Sn24  1  0.700743  0.961941  0.956684  1
  Sn  Sn25  1  0.195997  0.541495  0.542338  1
  Sn  Sn26  1  0.303928  0.041267  0.457868  1
  Sn  Sn27  1  0.804840  0.457609  0.041797  1
  Sn  Sn28  1  0.557956  0.624727  0.750182  1
  Sn  Sn29  1  0.057852  0.876897  0.750654  1
  Sn  Sn30  1  0.441749  0.374921  0.249771  1
  Sn  Sn31  1  0.941768  0.124766  0.249876  1
  Sn  Sn32  1  0.323129  0.144134  0.750997  1
  Sn  Sn33  1  0.826881  0.353741  0.751803  1
  Sn  Sn34  1  0.675495  0.856268  0.249946  1
  Sn  Sn35  1  0.175765  0.643916  0.249752  1
