# generated using pymatgen
data_K2YbB2Pt7
_symmetry_space_group_name_H-M   'P 1'
_cell_length_a   8.49829713
_cell_length_b   8.49829729
_cell_length_c   8.49829682
_cell_angle_alpha   38.17124386
_cell_angle_beta   38.17124214
_cell_angle_gamma   38.17124545
_symmetry_Int_Tables_number   1
_chemical_formula_structural   K2YbB2Pt7
_chemical_formula_sum   'K2 Yb1 B2 Pt7'
_cell_volume   210.49114158
_cell_formula_units_Z   1
loop_
 _symmetry_equiv_pos_site_id
 _symmetry_equiv_pos_as_xyz
  1  'x, y, z'
loop_
 _atom_site_type_symbol
 _atom_site_label
 _atom_site_symmetry_multiplicity
 _atom_site_fract_x
 _atom_site_fract_y
 _atom_site_fract_z
 _atom_site_occupancy
  K  K0  1  0.355179  0.355179  0.355179  1
  K  K1  1  0.644821  0.644821  0.644821  1
  Yb  Yb2  1  0.500000  0.500000  0.500000  1
  B  B3  1  0.168597  0.168597  0.168597  1
  B  B4  1  0.831403  0.831403  0.831403  1
  Pt  Pt5  1  0.000000  0.000000  0.000000  1
  Pt  Pt6  1  0.567870  0.060738  0.060738  1
  Pt  Pt7  1  0.060738  0.567870  0.060738  1
  Pt  Pt8  1  0.939262  0.939262  0.432130  1
  Pt  Pt9  1  0.060738  0.060738  0.567870  1
  Pt  Pt10  1  0.939262  0.432130  0.939262  1
  Pt  Pt11  1  0.432130  0.939262  0.939262  1
