# generated using pymatgen
data_HfTa3(Be2Ir)2
_symmetry_space_group_name_H-M   'P 1'
_cell_length_a   6.20877727
_cell_length_b   6.20877727
_cell_length_c   3.48164100
_cell_angle_alpha   90.00000000
_cell_angle_beta   90.00000000
_cell_angle_gamma   89.64216710
_symmetry_Int_Tables_number   1
_chemical_formula_structural   HfTa3(Be2Ir)2
_chemical_formula_sum   'Hf1 Ta3 Be4 Ir2'
_cell_volume   134.21086622
_cell_formula_units_Z   1
loop_
 _symmetry_equiv_pos_site_id
 _symmetry_equiv_pos_as_xyz
  1  'x, y, z'
loop_
 _atom_site_type_symbol
 _atom_site_label
 _atom_site_symmetry_multiplicity
 _atom_site_fract_x
 _atom_site_fract_y
 _atom_site_fract_z
 _atom_site_occupancy
  Hf  Hf0  1  0.675733  0.175733  0.500000  1
  Ta  Ta1  1  0.324970  0.824970  0.500000  1
  Ta  Ta2  1  0.174981  0.328723  0.500000  1
  Ta  Ta3  1  0.828723  0.674981  0.500000  1
  Be  Be4  1  0.124326  0.624326  0.000000  1
  Be  Be5  1  0.882080  0.382080  0.000000  1
  Be  Be6  1  0.620062  0.869662  0.000000  1
  Be  Be7  1  0.369662  0.120062  0.000000  1
  Ir  Ir8  1  0.499151  0.500313  0.000000  1
  Ir  Ir9  1  0.000313  0.999151  0.000000  1
