# generated using pymatgen
data_EuLu6NiI12
_symmetry_space_group_name_H-M   'P 1'
_cell_length_a   9.64526820
_cell_length_b   9.64526800
_cell_length_c   9.64526829
_cell_angle_alpha   106.47372107
_cell_angle_beta   106.47372318
_cell_angle_gamma   106.47372488
_symmetry_Int_Tables_number   1
_chemical_formula_structural   EuLu6NiI12
_chemical_formula_sum   'Eu1 Lu6 Ni1 I12'
_cell_volume   757.76142704
_cell_formula_units_Z   1
loop_
 _symmetry_equiv_pos_site_id
 _symmetry_equiv_pos_as_xyz
  1  'x, y, z'
loop_
 _atom_site_type_symbol
 _atom_site_label
 _atom_site_symmetry_multiplicity
 _atom_site_fract_x
 _atom_site_fract_y
 _atom_site_fract_z
 _atom_site_occupancy
  Eu  Eu0  1  0.500000  0.500000  0.500000  1
  Lu  Lu1  1  0.908860  0.977745  0.714708  1
  Lu  Lu2  1  0.714708  0.908860  0.977745  1
  Lu  Lu3  1  0.977745  0.714708  0.908860  1
  Lu  Lu4  1  0.091140  0.022255  0.285292  1
  Lu  Lu5  1  0.285292  0.091140  0.022255  1
  Lu  Lu6  1  0.022255  0.285292  0.091140  1
  Ni  Ni7  1  0.000000  0.000000  0.000000  1
  I  I8  1  0.926485  0.322912  0.778532  1
  I  I9  1  0.778532  0.926485  0.322912  1
  I  I10  1  0.322912  0.778532  0.926485  1
  I  I11  1  0.073515  0.677088  0.221468  1
  I  I12  1  0.221468  0.073515  0.677088  1
  I  I13  1  0.677088  0.221468  0.073515  1
  I  I14  1  0.549194  0.863049  0.628017  1
  I  I15  1  0.628017  0.549194  0.863049  1
  I  I16  1  0.863049  0.628017  0.549194  1
  I  I17  1  0.450806  0.136951  0.371983  1
  I  I18  1  0.371983  0.450806  0.136951  1
  I  I19  1  0.136951  0.371983  0.450806  1
