# generated using pymatgen
data_Dy4Zn4SiRh8
_symmetry_space_group_name_H-M   'P 1'
_cell_length_a   7.16725880
_cell_length_b   7.11240695
_cell_length_c   7.16725800
_cell_angle_alpha   108.79203701
_cell_angle_beta   111.14087533
_cell_angle_gamma   108.79203767
_symmetry_Int_Tables_number   1
_chemical_formula_structural   Dy4Zn4SiRh8
_chemical_formula_sum   'Dy4 Zn4 Si1 Rh8'
_cell_volume   280.05134413
_cell_formula_units_Z   1
loop_
 _symmetry_equiv_pos_site_id
 _symmetry_equiv_pos_as_xyz
  1  'x, y, z'
loop_
 _atom_site_type_symbol
 _atom_site_label
 _atom_site_symmetry_multiplicity
 _atom_site_fract_x
 _atom_site_fract_y
 _atom_site_fract_z
 _atom_site_occupancy
  Dy  Dy0  1  0.990975  0.981950  0.490975  1
  Dy  Dy1  1  0.032540  0.521037  0.032540  1
  Dy  Dy2  1  0.490975  0.981950  0.990975  1
  Dy  Dy3  1  0.488496  0.521037  0.488496  1
  Zn  Zn4  1  0.747629  0.251264  0.503635  1
  Zn  Zn5  1  0.744938  0.489877  0.244938  1
  Zn  Zn6  1  0.503635  0.251264  0.747629  1
  Zn  Zn7  1  0.244938  0.489877  0.744938  1
  Si  Si8  1  0.997903  0.995805  0.997903  1
  Rh  Rh9  1  0.248291  0.759536  0.511246  1
  Rh  Rh10  1  0.511246  0.759536  0.248291  1
  Rh  Rh11  1  0.715963  0.698803  0.982840  1
  Rh  Rh12  1  0.298456  0.031509  0.298456  1
  Rh  Rh13  1  0.986254  0.268122  0.281868  1
  Rh  Rh14  1  0.281868  0.268122  0.986254  1
  Rh  Rh15  1  0.733054  0.031509  0.733054  1
  Rh  Rh16  1  0.982840  0.698803  0.715963  1
