# generated using pymatgen
data_NpSc3(B6Ir)2
_symmetry_space_group_name_H-M   'P 1'
_cell_length_a   3.48275600
_cell_length_b   8.96184440
_cell_length_c   11.29069464
_cell_angle_alpha   90.16525325
_cell_angle_beta   90.00000000
_cell_angle_gamma   90.00000000
_symmetry_Int_Tables_number   1
_chemical_formula_structural   NpSc3(B6Ir)2
_chemical_formula_sum   'Np2 Sc6 B24 Ir4'
_cell_volume   352.40276217
_cell_formula_units_Z   2
loop_
 _symmetry_equiv_pos_site_id
 _symmetry_equiv_pos_as_xyz
  1  'x, y, z'
loop_
 _atom_site_type_symbol
 _atom_site_label
 _atom_site_symmetry_multiplicity
 _atom_site_fract_x
 _atom_site_fract_y
 _atom_site_fract_z
 _atom_site_occupancy
  Np  Np0  1  0.500000  0.325493  0.414695  1
  Np  Np1  1  0.500000  0.674507  0.585305  1
  Sc  Sc2  1  0.500000  0.182904  0.915117  1
  Sc  Sc3  1  0.500000  0.817096  0.084883  1
  Sc  Sc4  1  0.500000  0.444488  0.124746  1
  Sc  Sc5  1  0.500000  0.555512  0.875254  1
  Sc  Sc6  1  0.500000  0.053150  0.626363  1
  Sc  Sc7  1  0.500000  0.946850  0.373637  1
  B  B8  1  0.000000  0.101413  0.472687  1
  B  B9  1  0.000000  0.898587  0.527313  1
  B  B10  1  0.000000  0.396240  0.972176  1
  B  B11  1  0.000000  0.603760  0.027824  1
  B  B12  1  0.000000  0.132975  0.318835  1
  B  B13  1  0.000000  0.867025  0.681165  1
  B  B14  1  0.000000  0.368232  0.820974  1
  B  B15  1  0.000000  0.631768  0.179026  1
  B  B16  1  0.000000  0.053801  0.062794  1
  B  B17  1  0.000000  0.946199  0.937206  1
  B  B18  1  0.000000  0.448604  0.564907  1
  B  B19  1  0.000000  0.551396  0.435093  1
  B  B20  1  0.000000  0.480161  0.284700  1
  B  B21  1  0.000000  0.519839  0.715300  1
  B  B22  1  0.000000  0.020565  0.787483  1
  B  B23  1  0.000000  0.979435  0.212517  1
  B  B24  1  0.000000  0.253245  0.077402  1
  B  B25  1  0.000000  0.746755  0.922598  1
  B  B26  1  0.000000  0.247444  0.577887  1
  B  B27  1  0.000000  0.752556  0.422113  1
  B  B28  1  0.000000  0.297049  0.234335  1
  B  B29  1  0.000000  0.702951  0.765665  1
  B  B30  1  0.000000  0.202346  0.739864  1
  B  B31  1  0.000000  0.797654  0.260136  1
  Ir  Ir32  1  0.500000  0.135639  0.177542  1
  Ir  Ir33  1  0.500000  0.864361  0.822458  1
  Ir  Ir34  1  0.500000  0.351989  0.684452  1
  Ir  Ir35  1  0.500000  0.648011  0.315548  1
