# generated using pymatgen
data_La4Al4CuRh3
_symmetry_space_group_name_H-M   'P 1'
_cell_length_a   4.30473900
_cell_length_b   7.24599722
_cell_length_c   16.36425255
_cell_angle_alpha   90.23170513
_cell_angle_beta   90.00000000
_cell_angle_gamma   90.00000000
_symmetry_Int_Tables_number   1
_chemical_formula_structural   La4Al4CuRh3
_chemical_formula_sum   'La8 Al8 Cu2 Rh6'
_cell_volume   510.43166697
_cell_formula_units_Z   2
loop_
 _symmetry_equiv_pos_site_id
 _symmetry_equiv_pos_as_xyz
  1  'x, y, z'
loop_
 _atom_site_type_symbol
 _atom_site_label
 _atom_site_symmetry_multiplicity
 _atom_site_fract_x
 _atom_site_fract_y
 _atom_site_fract_z
 _atom_site_occupancy
  La  La0  1  0.250000  0.521789  0.777529  1
  La  La1  1  0.750000  0.478211  0.222471  1
  La  La2  1  0.750000  0.987582  0.281353  1
  La  La3  1  0.250000  0.012418  0.718647  1
  La  La4  1  0.250000  0.653758  0.560050  1
  La  La5  1  0.750000  0.346242  0.439950  1
  La  La6  1  0.750000  0.846791  0.056770  1
  La  La7  1  0.250000  0.153209  0.943230  1
  Al  Al8  1  0.250000  0.657136  0.353833  1
  Al  Al9  1  0.750000  0.342864  0.646167  1
  Al  Al10  1  0.750000  0.837468  0.853058  1
  Al  Al11  1  0.250000  0.162532  0.146942  1
  Al  Al12  1  0.250000  0.505735  0.060542  1
  Al  Al13  1  0.750000  0.494265  0.939458  1
  Al  Al14  1  0.750000  0.992692  0.560445  1
  Al  Al15  1  0.250000  0.007308  0.439555  1
  Cu  Cu16  1  0.250000  0.772537  0.181931  1
  Cu  Cu17  1  0.750000  0.227463  0.818069  1
  Rh  Rh18  1  0.750000  0.727028  0.681155  1
  Rh  Rh19  1  0.250000  0.272972  0.318845  1
  Rh  Rh20  1  0.250000  0.708676  0.928180  1
  Rh  Rh21  1  0.750000  0.291324  0.071820  1
  Rh  Rh22  1  0.750000  0.787880  0.426624  1
  Rh  Rh23  1  0.250000  0.212120  0.573376  1
