# generated using pymatgen
data_Dy3HoEr4(WO6)4
_symmetry_space_group_name_H-M   'P 1'
_cell_length_a   5.38249200
_cell_length_b   7.68339473
_cell_length_c   11.42154517
_cell_angle_alpha   75.45590827
_cell_angle_beta   90.00000000
_cell_angle_gamma   90.00000000
_symmetry_Int_Tables_number   1
_chemical_formula_structural   Dy3HoEr4(WO6)4
_chemical_formula_sum   'Dy3 Ho1 Er4 W4 O24'
_cell_volume   457.21073810
_cell_formula_units_Z   1
loop_
 _symmetry_equiv_pos_site_id
 _symmetry_equiv_pos_as_xyz
  1  'x, y, z'
loop_
 _atom_site_type_symbol
 _atom_site_label
 _atom_site_symmetry_multiplicity
 _atom_site_fract_x
 _atom_site_fract_y
 _atom_site_fract_z
 _atom_site_occupancy
  Dy  Dy0  1  0.684058  0.500000  0.250000  1
  Dy  Dy1  1  0.315782  0.500000  0.750000  1
  Dy  Dy2  1  0.740829  0.000000  0.250000  1
  Ho  Ho3  1  0.259463  0.000000  0.750000  1
  Er  Er4  1  0.183470  0.206002  0.421950  1
  Er  Er5  1  0.183470  0.793998  0.078050  1
  Er  Er6  1  0.816663  0.794081  0.578279  1
  Er  Er7  1  0.816663  0.205919  0.921721  1
  W  W8  1  0.255984  0.276437  0.114632  1
  W  W9  1  0.255984  0.723563  0.385368  1
  W  W10  1  0.743970  0.723799  0.885234  1
  W  W11  1  0.743970  0.276201  0.614766  1
  O  O12  1  0.456986  0.208897  0.273648  1
  O  O13  1  0.456986  0.791103  0.226352  1
  O  O14  1  0.542266  0.791756  0.726344  1
  O  O15  1  0.542266  0.208244  0.773656  1
  O  O16  1  0.045495  0.059800  0.103677  1
  O  O17  1  0.045495  0.940200  0.396323  1
  O  O18  1  0.955357  0.940363  0.895845  1
  O  O19  1  0.955357  0.059637  0.604155  1
  O  O20  1  0.980905  0.289052  0.228922  1
  O  O21  1  0.980905  0.710948  0.271078  1
  O  O22  1  0.019167  0.711265  0.770994  1
  O  O23  1  0.019167  0.288735  0.729006  1
  O  O24  1  0.849790  0.365178  0.451391  1
  O  O25  1  0.849790  0.634822  0.048609  1
  O  O26  1  0.150015  0.634536  0.548738  1
  O  O27  1  0.150015  0.365464  0.951262  1
  O  O28  1  0.640043  0.510593  0.614357  1
  O  O29  1  0.640043  0.489407  0.885643  1
  O  O30  1  0.360097  0.489148  0.385785  1
  O  O31  1  0.360097  0.510852  0.114215  1
  O  O32  1  0.463839  0.153791  0.569032  1
  O  O33  1  0.463839  0.846209  0.930968  1
  O  O34  1  0.535887  0.845760  0.431346  1
  O  O35  1  0.535887  0.154240  0.068654  1
