# generated using pymatgen
data_Er5Sc3(Co4P3)4
_symmetry_space_group_name_H-M   'P 1'
_cell_length_a   12.20113600
_cell_length_b   12.20113587
_cell_length_c   3.70364000
_cell_angle_alpha   90.00000000
_cell_angle_beta   90.00000000
_cell_angle_gamma   120.00000578
_symmetry_Int_Tables_number   1
_chemical_formula_structural   Er5Sc3(Co4P3)4
_chemical_formula_sum   'Er5 Sc3 Co16 P12'
_cell_volume   477.48518762
_cell_formula_units_Z   1
loop_
 _symmetry_equiv_pos_site_id
 _symmetry_equiv_pos_as_xyz
  1  'x, y, z'
loop_
 _atom_site_type_symbol
 _atom_site_label
 _atom_site_symmetry_multiplicity
 _atom_site_fract_x
 _atom_site_fract_y
 _atom_site_fract_z
 _atom_site_occupancy
  Er  Er0  1  0.666667  0.333333  0.000000  1
  Er  Er1  1  0.333333  0.666667  0.000000  1
  Er  Er2  1  0.816143  0.816143  0.500000  1
  Er  Er3  1  0.183857  0.000000  0.500000  1
  Er  Er4  1  0.000000  0.183857  0.500000  1
  Sc  Sc5  1  0.440007  0.440007  0.000000  1
  Sc  Sc6  1  0.559993  0.000000  0.000000  1
  Sc  Sc7  1  0.000000  0.559993  0.000000  1
  Co  Co8  1  0.875374  0.355205  0.500000  1
  Co  Co9  1  0.644795  0.520170  0.500000  1
  Co  Co10  1  0.479830  0.124626  0.500000  1
  Co  Co11  1  0.355205  0.875374  0.500000  1
  Co  Co12  1  0.520170  0.644795  0.500000  1
  Co  Co13  1  0.124626  0.479830  0.500000  1
  Co  Co14  1  0.805138  0.179046  0.000000  1
  Co  Co15  1  0.820954  0.626092  0.000000  1
  Co  Co16  1  0.373908  0.194862  0.000000  1
  Co  Co17  1  0.179046  0.805138  0.000000  1
  Co  Co18  1  0.626092  0.820954  0.000000  1
  Co  Co19  1  0.194862  0.373908  0.000000  1
  Co  Co20  1  0.278070  0.278070  0.500000  1
  Co  Co21  1  0.721930  0.000000  0.500000  1
  Co  Co22  1  0.000000  0.721930  0.500000  1
  Co  Co23  1  0.000000  0.000000  0.000000  1
  P  P24  1  0.692199  0.171293  0.500000  1
  P  P25  1  0.828707  0.520906  0.500000  1
  P  P26  1  0.479094  0.307801  0.500000  1
  P  P27  1  0.171293  0.692199  0.500000  1
  P  P28  1  0.520906  0.828707  0.500000  1
  P  P29  1  0.307801  0.479094  0.500000  1
  P  P30  1  0.178802  0.178802  0.000000  1
  P  P31  1  0.821198  0.000000  0.000000  1
  P  P32  1  0.000000  0.821198  0.000000  1
  P  P33  1  0.645695  0.645695  0.000000  1
  P  P34  1  0.354305  0.000000  0.000000  1
  P  P35  1  0.000000  0.354305  0.000000  1
