# generated using pymatgen
data_CsNp3Se5
_symmetry_space_group_name_H-M   'P 1'
_cell_length_a   4.20579000
_cell_length_b   12.61233600
_cell_length_c   22.42141100
_cell_angle_alpha   90.00000000
_cell_angle_beta   90.00000000
_cell_angle_gamma   90.00000000
_symmetry_Int_Tables_number   1
_chemical_formula_structural   CsNp3Se5
_chemical_formula_sum   'Cs4 Np12 Se20'
_cell_volume   1189.34008341
_cell_formula_units_Z   4
loop_
 _symmetry_equiv_pos_site_id
 _symmetry_equiv_pos_as_xyz
  1  'x, y, z'
loop_
 _atom_site_type_symbol
 _atom_site_label
 _atom_site_symmetry_multiplicity
 _atom_site_fract_x
 _atom_site_fract_y
 _atom_site_fract_z
 _atom_site_occupancy
  Cs  Cs0  1  0.250000  0.853865  0.095104  1
  Cs  Cs1  1  0.750000  0.146135  0.904896  1
  Cs  Cs2  1  0.750000  0.353865  0.404896  1
  Cs  Cs3  1  0.250000  0.646135  0.595104  1
  Np  Np4  1  0.750000  0.792049  0.825487  1
  Np  Np5  1  0.250000  0.207951  0.174513  1
  Np  Np6  1  0.250000  0.292049  0.674513  1
  Np  Np7  1  0.750000  0.707951  0.325487  1
  Np  Np8  1  0.250000  0.963210  0.696917  1
  Np  Np9  1  0.750000  0.036790  0.303083  1
  Np  Np10  1  0.750000  0.463210  0.803083  1
  Np  Np11  1  0.250000  0.536790  0.196917  1
  Np  Np12  1  0.750000  0.391183  0.054034  1
  Np  Np13  1  0.250000  0.608817  0.945966  1
  Np  Np14  1  0.250000  0.891183  0.445966  1
  Np  Np15  1  0.750000  0.108817  0.554034  1
  Se  Se16  1  0.250000  0.949125  0.568754  1
  Se  Se17  1  0.750000  0.050875  0.431246  1
  Se  Se18  1  0.750000  0.449125  0.931246  1
  Se  Se19  1  0.250000  0.550875  0.068754  1
  Se  Se20  1  0.750000  0.765623  0.954277  1
  Se  Se21  1  0.250000  0.234377  0.045723  1
  Se  Se22  1  0.250000  0.265623  0.545723  1
  Se  Se23  1  0.750000  0.734377  0.454277  1
  Se  Se24  1  0.250000  0.948288  0.825070  1
  Se  Se25  1  0.750000  0.051712  0.174930  1
  Se  Se26  1  0.750000  0.448288  0.674930  1
  Se  Se27  1  0.250000  0.551712  0.325070  1
  Se  Se28  1  0.750000  0.126797  0.685073  1
  Se  Se29  1  0.250000  0.873203  0.314927  1
  Se  Se30  1  0.250000  0.626797  0.814927  1
  Se  Se31  1  0.750000  0.373203  0.185073  1
  Se  Se32  1  0.750000  0.690211  0.197948  1
  Se  Se33  1  0.250000  0.309789  0.802052  1
  Se  Se34  1  0.250000  0.190211  0.302052  1
  Se  Se35  1  0.750000  0.809789  0.697948  1
