# generated using pymatgen
data_La5YZn4Pt13
_symmetry_space_group_name_H-M   'P 1'
_cell_length_a   8.44781494
_cell_length_b   8.44781547
_cell_length_c   8.44781503
_cell_angle_alpha   109.60805986
_cell_angle_beta   109.60806357
_cell_angle_gamma   109.19789439
_symmetry_Int_Tables_number   1
_chemical_formula_structural   La5YZn4Pt13
_chemical_formula_sum   'La5 Y1 Zn4 Pt13'
_cell_volume   464.09175230
_cell_formula_units_Z   1
loop_
 _symmetry_equiv_pos_site_id
 _symmetry_equiv_pos_as_xyz
  1  'x, y, z'
loop_
 _atom_site_type_symbol
 _atom_site_label
 _atom_site_symmetry_multiplicity
 _atom_site_fract_x
 _atom_site_fract_y
 _atom_site_fract_z
 _atom_site_occupancy
  La  La0  1  0.300602  0.999397  0.301205  1
  La  La1  1  0.999397  0.300602  0.301205  1
  La  La2  1  0.302929  0.302929  0.000000  1
  La  La3  1  0.698192  0.999397  0.698795  1
  La  La4  1  0.999397  0.698192  0.698795  1
  Y  Y5  1  0.693608  0.693608  0.000000  1
  Zn  Zn6  1  0.000047  0.000047  0.498244  1
  Zn  Zn7  1  0.000047  0.501803  0.000000  1
  Zn  Zn8  1  0.501803  0.000047  0.000000  1
  Zn  Zn9  1  0.501803  0.501803  0.501756  1
  Pt  Pt10  1  0.331909  0.331909  0.661119  1
  Pt  Pt11  1  0.672639  0.998599  0.325960  1
  Pt  Pt12  1  0.998599  0.672639  0.325960  1
  Pt  Pt13  1  0.670791  0.331909  0.000000  1
  Pt  Pt14  1  0.328170  0.656798  0.328627  1
  Pt  Pt15  1  0.999544  0.328170  0.671373  1
  Pt  Pt16  1  0.331909  0.670791  0.000000  1
  Pt  Pt17  1  0.328170  0.999544  0.671373  1
  Pt  Pt18  1  0.656798  0.328170  0.328627  1
  Pt  Pt19  1  0.670791  0.670791  0.338881  1
  Pt  Pt20  1  0.672639  0.346677  0.674040  1
  Pt  Pt21  1  0.346677  0.672639  0.674040  1
  Pt  Pt22  1  0.993542  0.993542  0.000000  1
