# generated using pymatgen
data_Eu2MoH9
_symmetry_space_group_name_H-M   'P 1'
_cell_length_a   8.85247200
_cell_length_b   8.85247058
_cell_length_c   5.03104500
_cell_angle_alpha   90.00000000
_cell_angle_beta   90.00000000
_cell_angle_gamma   120.00000530
_symmetry_Int_Tables_number   1
_chemical_formula_structural   Eu2MoH9
_chemical_formula_sum   'Eu6 Mo3 H27'
_cell_volume   341.44272541
_cell_formula_units_Z   3
loop_
 _symmetry_equiv_pos_site_id
 _symmetry_equiv_pos_as_xyz
  1  'x, y, z'
loop_
 _atom_site_type_symbol
 _atom_site_label
 _atom_site_symmetry_multiplicity
 _atom_site_fract_x
 _atom_site_fract_y
 _atom_site_fract_z
 _atom_site_occupancy
  Eu  Eu0  1  0.000000  0.266145  0.500000  1
  Eu  Eu1  1  0.733855  0.733855  0.500000  1
  Eu  Eu2  1  0.266145  0.000000  0.500000  1
  Eu  Eu3  1  0.000000  0.608851  0.000000  1
  Eu  Eu4  1  0.391149  0.391149  0.000000  1
  Eu  Eu5  1  0.608851  0.000000  0.000000  1
  Mo  Mo6  1  0.666667  0.333333  0.500000  1
  Mo  Mo7  1  0.333333  0.666667  0.500000  1
  Mo  Mo8  1  0.000000  0.000000  0.000000  1
  H  H9  1  0.806756  0.330226  0.759335  1
  H  H10  1  0.669774  0.476529  0.759335  1
  H  H11  1  0.523471  0.193244  0.759335  1
  H  H12  1  0.193244  0.523471  0.240665  1
  H  H13  1  0.523471  0.193244  0.240665  1
  H  H14  1  0.806756  0.330226  0.240665  1
  H  H15  1  0.669774  0.476529  0.240665  1
  H  H16  1  0.330226  0.806756  0.759335  1
  H  H17  1  0.476529  0.669774  0.759335  1
  H  H18  1  0.205581  0.000000  0.000000  1
  H  H19  1  0.794419  0.794419  0.000000  1
  H  H20  1  0.000000  0.205581  0.000000  1
  H  H21  1  0.851306  0.000000  0.254254  1
  H  H22  1  0.148694  0.148694  0.745746  1
  H  H23  1  0.000000  0.851306  0.745746  1
  H  H24  1  0.000000  0.851306  0.254254  1
  H  H25  1  0.148694  0.148694  0.254254  1
  H  H26  1  0.851306  0.000000  0.745746  1
  H  H27  1  0.133899  0.670985  0.500000  1
  H  H28  1  0.537086  0.866101  0.500000  1
  H  H29  1  0.329015  0.462914  0.500000  1
  H  H30  1  0.462914  0.329015  0.500000  1
  H  H31  1  0.866101  0.537086  0.500000  1
  H  H32  1  0.670985  0.133899  0.500000  1
  H  H33  1  0.193244  0.523471  0.759335  1
  H  H34  1  0.330226  0.806756  0.240665  1
  H  H35  1  0.476529  0.669774  0.240665  1
