# generated using pymatgen
data_Dy2HoHf(Al3Ir)6
_symmetry_space_group_name_H-M   'P 1'
_cell_length_a   7.52859043
_cell_length_b   7.51993557
_cell_length_c   9.39633500
_cell_angle_alpha   90.00000000
_cell_angle_beta   90.00000000
_cell_angle_gamma   119.59387026
_symmetry_Int_Tables_number   1
_chemical_formula_structural   Dy2HoHf(Al3Ir)6
_chemical_formula_sum   'Dy2 Ho1 Hf1 Al18 Ir6'
_cell_volume   462.57241209
_cell_formula_units_Z   1
loop_
 _symmetry_equiv_pos_site_id
 _symmetry_equiv_pos_as_xyz
  1  'x, y, z'
loop_
 _atom_site_type_symbol
 _atom_site_label
 _atom_site_symmetry_multiplicity
 _atom_site_fract_x
 _atom_site_fract_y
 _atom_site_fract_z
 _atom_site_occupancy
  Dy  Dy0  1  0.005594  0.327540  0.750000  1
  Dy  Dy1  1  0.329072  0.006388  0.750000  1
  Ho  Ho2  1  0.671122  0.995937  0.250000  1
  Hf  Hf3  1  0.997659  0.673075  0.250000  1
  Al  Al4  1  0.126002  0.123475  0.250000  1
  Al  Al5  1  0.870778  0.869491  0.750000  1
  Al  Al6  1  0.000107  0.337869  0.079423  1
  Al  Al7  1  0.999153  0.664910  0.928996  1
  Al  Al8  1  0.999153  0.664910  0.571004  1
  Al  Al9  1  0.332588  0.998186  0.420459  1
  Al  Al10  1  0.000107  0.337869  0.420577  1
  Al  Al11  1  0.664554  0.998197  0.574582  1
  Al  Al12  1  0.664554  0.998197  0.925418  1
  Al  Al13  1  0.332588  0.998186  0.079541  1
  Al  Al14  1  0.333735  0.333843  0.550957  1
  Al  Al15  1  0.668950  0.666881  0.442653  1
  Al  Al16  1  0.668950  0.666881  0.057347  1
  Al  Al17  1  0.333735  0.333843  0.949043  1
  Al  Al18  1  0.335990  0.549267  0.250000  1
  Al  Al19  1  0.660872  0.452366  0.750000  1
  Al  Al20  1  0.554988  0.344358  0.250000  1
  Al  Al21  1  0.450984  0.659614  0.750000  1
  Ir  Ir22  1  0.672690  0.328479  0.001264  1
  Ir  Ir23  1  0.327495  0.672280  0.002002  1
  Ir  Ir24  1  0.327495  0.672280  0.497998  1
  Ir  Ir25  1  0.672690  0.328479  0.498736  1
  Ir  Ir26  1  0.999198  0.998601  0.001488  1
  Ir  Ir27  1  0.999198  0.998601  0.498512  1
