# generated using pymatgen
data_NaHo4(Ga2Pt)10
_symmetry_space_group_name_H-M   'P 1'
_cell_length_a   4.25175568
_cell_length_b   10.98226587
_cell_length_c   13.79739000
_cell_angle_alpha   81.20815705
_cell_angle_beta   80.78457013
_cell_angle_gamma   78.60930602
_symmetry_Int_Tables_number   1
_chemical_formula_structural   NaHo4(Ga2Pt)10
_chemical_formula_sum   'Na1 Ho4 Ga20 Pt10'
_cell_volume   618.50218762
_cell_formula_units_Z   1
loop_
 _symmetry_equiv_pos_site_id
 _symmetry_equiv_pos_as_xyz
  1  'x, y, z'
loop_
 _atom_site_type_symbol
 _atom_site_label
 _atom_site_symmetry_multiplicity
 _atom_site_fract_x
 _atom_site_fract_y
 _atom_site_fract_z
 _atom_site_occupancy
  Na  Na0  1  0.500000  0.500000  0.500000  1
  Ho  Ho1  1  0.123025  0.089348  0.663831  1
  Ho  Ho2  1  0.876975  0.910652  0.336169  1
  Ho  Ho3  1  0.771050  0.631712  0.822266  1
  Ho  Ho4  1  0.228950  0.368288  0.177734  1
  Ga  Ga5  1  0.010376  0.070055  0.910512  1
  Ga  Ga6  1  0.989624  0.929945  0.089488  1
  Ga  Ga7  1  0.061961  0.676509  0.194512  1
  Ga  Ga8  1  0.938039  0.323491  0.805488  1
  Ga  Ga9  1  0.110176  0.331512  0.453701  1
  Ga  Ga10  1  0.889824  0.668488  0.546299  1
  Ga  Ga11  1  0.200091  0.604762  0.991893  1
  Ga  Ga12  1  0.799909  0.395238  0.008107  1
  Ga  Ga13  1  0.256479  0.782596  0.700181  1
  Ga  Ga14  1  0.743521  0.217404  0.299819  1
  Ga  Ga15  1  0.304606  0.895879  0.496571  1
  Ga  Ga16  1  0.695394  0.104121  0.503429  1
  Ga  Ga17  1  0.383115  0.521847  0.707480  1
  Ga  Ga18  1  0.616885  0.478153  0.292520  1
  Ga  Ga19  1  0.397646  0.201897  0.001863  1
  Ga  Ga20  1  0.602354  0.798103  0.998137  1
  Ga  Ga21  1  0.540072  0.280872  0.636160  1
  Ga  Ga22  1  0.459928  0.719128  0.363840  1
  Ga  Ga23  1  0.639110  0.935144  0.792552  1
  Ga  Ga24  1  0.360890  0.064856  0.207448  1
  Pt  Pt25  1  0.029957  0.572167  0.372591  1
  Pt  Pt26  1  0.970043  0.427833  0.627409  1
  Pt  Pt27  1  0.142764  0.833752  0.886464  1
  Pt  Pt28  1  0.857236  0.166248  0.113536  1
  Pt  Pt29  1  0.244703  0.121866  0.390765  1
  Pt  Pt30  1  0.755297  0.878134  0.609235  1
  Pt  Pt31  1  0.345893  0.420130  0.892178  1
  Pt  Pt32  1  0.654107  0.579870  0.107822  1
  Pt  Pt33  1  0.508181  0.168251  0.817493  1
  Pt  Pt34  1  0.491819  0.831749  0.182507  1
