# generated using pymatgen
data_YTh3Ge8(IrRh)2
_symmetry_space_group_name_H-M   'P 1'
_cell_length_a   9.54916823
_cell_length_b   9.53818878
_cell_length_c   9.53818936
_cell_angle_alpha   153.34056277
_cell_angle_beta   124.02356067
_cell_angle_gamma   63.04148821
_symmetry_Int_Tables_number   1
_chemical_formula_structural   YTh3Ge8(IrRh)2
_chemical_formula_sum   'Y1 Th3 Ge8 Ir2 Rh2'
_cell_volume   320.51004159
_cell_formula_units_Z   1
loop_
 _symmetry_equiv_pos_site_id
 _symmetry_equiv_pos_as_xyz
  1  'x, y, z'
loop_
 _atom_site_type_symbol
 _atom_site_label
 _atom_site_symmetry_multiplicity
 _atom_site_fract_x
 _atom_site_fract_y
 _atom_site_fract_z
 _atom_site_occupancy
  Y  Y0  1  0.704837  0.205210  0.499627  1
  Th  Th1  1  0.293237  0.792954  0.500283  1
  Th  Th2  1  0.271787  0.001250  0.270537  1
  Th  Th3  1  0.730013  0.000535  0.729478  1
  Ge  Ge4  1  0.580246  0.579352  0.000894  1
  Ge  Ge5  1  0.951966  0.800516  0.151449  1
  Ge  Ge6  1  0.648192  0.799445  0.848747  1
  Ge  Ge7  1  0.037883  0.197704  0.840179  1
  Ge  Ge8  1  0.922386  0.421780  0.500605  1
  Ge  Ge9  1  0.424664  0.425364  0.999300  1
  Ge  Ge10  1  0.075971  0.576764  0.499207  1
  Ge  Ge11  1  0.358835  0.198784  0.160050  1
  Ir  Ir12  1  0.606587  0.353796  0.252793  1
  Ir  Ir13  1  0.393006  0.646322  0.746682  1
  Rh  Rh14  1  0.900364  0.646868  0.253495  1
  Rh  Rh15  1  0.100029  0.353356  0.746673  1
