# generated using pymatgen
data_DyHo5(Tm2Pb3)2
_symmetry_space_group_name_H-M   'P 1'
_cell_length_a   6.55797300
_cell_length_b   9.00906924
_cell_length_c   9.01192301
_cell_angle_alpha   119.98952305
_cell_angle_beta   90.00019782
_cell_angle_gamma   89.99960347
_symmetry_Int_Tables_number   1
_chemical_formula_structural   DyHo5(Tm2Pb3)2
_chemical_formula_sum   'Dy1 Ho5 Tm4 Pb6'
_cell_volume   461.15135944
_cell_formula_units_Z   1
loop_
 _symmetry_equiv_pos_site_id
 _symmetry_equiv_pos_as_xyz
  1  'x, y, z'
loop_
 _atom_site_type_symbol
 _atom_site_label
 _atom_site_symmetry_multiplicity
 _atom_site_fract_x
 _atom_site_fract_y
 _atom_site_fract_z
 _atom_site_occupancy
  Dy  Dy0  1  0.750007  0.238557  0.000000  1
  Ho  Ho1  1  0.749999  0.761341  0.761417  1
  Ho  Ho2  1  0.749999  0.999924  0.238583  1
  Ho  Ho3  1  0.249999  0.761451  0.000000  1
  Ho  Ho4  1  0.250000  0.238634  0.238602  1
  Ho  Ho5  1  0.250000  0.000032  0.761398  1
  Tm  Tm6  1  0.499992  0.333349  0.666722  1
  Tm  Tm7  1  0.499992  0.666627  0.333278  1
  Tm  Tm8  1  0.000006  0.666672  0.333281  1
  Tm  Tm9  1  0.000006  0.333391  0.666719  1
  Pb  Pb10  1  0.749993  0.605409  0.000000  1
  Pb  Pb11  1  0.750004  0.394638  0.394648  1
  Pb  Pb12  1  0.750004  0.999990  0.605352  1
  Pb  Pb13  1  0.249993  0.394639  0.000000  1
  Pb  Pb14  1  0.250004  0.605397  0.605447  1
  Pb  Pb15  1  0.250004  0.999949  0.394553  1
