# generated using pymatgen
data_YbHo7(ScIr3)2
_symmetry_space_group_name_H-M   'P 1'
_cell_length_a   10.72041464
_cell_length_b   10.72403500
_cell_length_c   6.26346177
_cell_angle_alpha   90.00000000
_cell_angle_beta   90.27345442
_cell_angle_gamma   90.00000000
_symmetry_Int_Tables_number   1
_chemical_formula_structural   YbHo7(ScIr3)2
_chemical_formula_sum   'Yb2 Ho14 Sc4 Ir12'
_cell_volume   720.07758195
_cell_formula_units_Z   2
loop_
 _symmetry_equiv_pos_site_id
 _symmetry_equiv_pos_as_xyz
  1  'x, y, z'
loop_
 _atom_site_type_symbol
 _atom_site_label
 _atom_site_symmetry_multiplicity
 _atom_site_fract_x
 _atom_site_fract_y
 _atom_site_fract_z
 _atom_site_occupancy
  Yb  Yb0  1  0.286768  0.086426  0.374459  1
  Yb  Yb1  1  0.286768  0.913574  0.874459  1
  Ho  Ho2  1  0.711350  0.085208  0.877712  1
  Ho  Ho3  1  0.711350  0.914792  0.377712  1
  Ho  Ho4  1  0.585410  0.789388  0.877103  1
  Ho  Ho5  1  0.585410  0.210612  0.377103  1
  Ho  Ho6  1  0.413473  0.789700  0.377371  1
  Ho  Ho7  1  0.413473  0.210300  0.877371  1
  Ho  Ho8  1  0.212162  0.414196  0.623437  1
  Ho  Ho9  1  0.212162  0.585804  0.123437  1
  Ho  Ho10  1  0.787887  0.413755  0.122177  1
  Ho  Ho11  1  0.787887  0.586245  0.622177  1
  Ho  Ho12  1  0.914250  0.712657  0.123726  1
  Ho  Ho13  1  0.914250  0.287343  0.623726  1
  Ho  Ho14  1  0.086599  0.712644  0.622187  1
  Ho  Ho15  1  0.086599  0.287356  0.122187  1
  Sc  Sc16  1  0.000724  0.999572  0.499023  1
  Sc  Sc17  1  0.000724  0.000428  0.999023  1
  Sc  Sc18  1  0.499703  0.499890  0.999915  1
  Sc  Sc19  1  0.499703  0.500110  0.499915  1
  Ir  Ir20  1  0.853522  0.148297  0.250070  1
  Ir  Ir21  1  0.853522  0.851703  0.750070  1
  Ir  Ir22  1  0.143761  0.152099  0.753028  1
  Ir  Ir23  1  0.143761  0.847901  0.253028  1
  Ir  Ir24  1  0.646992  0.351835  0.750112  1
  Ir  Ir25  1  0.646992  0.648165  0.250112  1
  Ir  Ir26  1  0.353117  0.355513  0.247531  1
  Ir  Ir27  1  0.353117  0.644487  0.747531  1
  Ir  Ir28  1  0.504159  0.000457  0.123360  1
  Ir  Ir29  1  0.504159  0.999543  0.623360  1
  Ir  Ir30  1  0.000122  0.499918  0.878789  1
  Ir  Ir31  1  0.000122  0.500082  0.378789  1
