# generated using pymatgen
data_Zr6Mn2Nb4Al12Ir5
_symmetry_space_group_name_H-M   'P 1'
_cell_length_a   8.79592487
_cell_length_b   8.79592582
_cell_length_c   8.79569900
_cell_angle_alpha   60.00084925
_cell_angle_beta   60.00084570
_cell_angle_gamma   59.97408502
_symmetry_Int_Tables_number   1
_chemical_formula_structural   Zr6Mn2Nb4Al12Ir5
_chemical_formula_sum   'Zr6 Mn2 Nb4 Al12 Ir5'
_cell_volume   481.10388225
_cell_formula_units_Z   1
loop_
 _symmetry_equiv_pos_site_id
 _symmetry_equiv_pos_as_xyz
  1  'x, y, z'
loop_
 _atom_site_type_symbol
 _atom_site_label
 _atom_site_symmetry_multiplicity
 _atom_site_fract_x
 _atom_site_fract_y
 _atom_site_fract_z
 _atom_site_occupancy
  Zr  Zr0  1  0.696942  0.696942  0.303058  1
  Zr  Zr1  1  0.307438  0.691433  0.310342  1
  Zr  Zr2  1  0.691433  0.307438  0.310342  1
  Zr  Zr3  1  0.308043  0.308043  0.691957  1
  Zr  Zr4  1  0.691433  0.307438  0.690787  1
  Zr  Zr5  1  0.307438  0.691433  0.690787  1
  Mn  Mn6  1  0.001846  0.001846  0.998154  1
  Mn  Mn7  1  0.995424  0.995424  0.504576  1
  Nb  Nb8  1  0.885974  0.885974  0.354146  1
  Nb  Nb9  1  0.884180  0.351054  0.882383  1
  Nb  Nb10  1  0.351054  0.884180  0.882383  1
  Nb  Nb11  1  0.885974  0.885974  0.873906  1
  Al  Al12  1  0.117711  0.117711  0.640734  1
  Al  Al13  1  0.117284  0.642810  0.119953  1
  Al  Al14  1  0.642810  0.117284  0.119953  1
  Al  Al15  1  0.117711  0.117711  0.123844  1
  Al  Al16  1  0.662221  0.662221  0.014218  1
  Al  Al17  1  0.667741  0.009325  0.661467  1
  Al  Al18  1  0.009325  0.667741  0.661467  1
  Al  Al19  1  0.662221  0.662221  0.661339  1
  Al  Al20  1  0.336436  0.336436  0.990406  1
  Al  Al21  1  0.329610  0.994206  0.338093  1
  Al  Al22  1  0.994206  0.329610  0.338093  1
  Al  Al23  1  0.336436  0.336436  0.336723  1
  Ir  Ir24  1  0.499778  0.999332  0.501655  1
  Ir  Ir25  1  0.999332  0.499778  0.501655  1
  Ir  Ir26  1  0.500891  0.500891  0.999109  1
  Ir  Ir27  1  0.999332  0.499778  0.999235  1
  Ir  Ir28  1  0.499778  0.999332  0.999235  1
