# generated using pymatgen
data_HfSc15(CoAg)4
_symmetry_space_group_name_H-M   'P 1'
_cell_length_a   8.79326540
_cell_length_b   8.86807424
_cell_length_c   8.86807600
_cell_angle_alpha   60.00000090
_cell_angle_beta   59.71817323
_cell_angle_gamma   59.71816592
_symmetry_Int_Tables_number   1
_chemical_formula_structural   HfSc15(CoAg)4
_chemical_formula_sum   'Hf1 Sc15 Co4 Ag4'
_cell_volume   486.88980599
_cell_formula_units_Z   1
loop_
 _symmetry_equiv_pos_site_id
 _symmetry_equiv_pos_as_xyz
  1  'x, y, z'
loop_
 _atom_site_type_symbol
 _atom_site_label
 _atom_site_symmetry_multiplicity
 _atom_site_fract_x
 _atom_site_fract_y
 _atom_site_fract_z
 _atom_site_occupancy
  Hf  Hf0  1  0.960322  0.346560  0.346560  1
  Sc  Sc1  1  0.814619  0.187243  0.187243  1
  Sc  Sc2  1  0.186900  0.811912  0.811912  1
  Sc  Sc3  1  0.186900  0.811912  0.189276  1
  Sc  Sc4  1  0.814619  0.187243  0.810894  1
  Sc  Sc5  1  0.186900  0.189276  0.811912  1
  Sc  Sc6  1  0.814619  0.810894  0.187243  1
  Sc  Sc7  1  0.934805  0.563050  0.563051  1
  Sc  Sc8  1  0.559265  0.939378  0.939379  1
  Sc  Sc9  1  0.559266  0.939378  0.561977  1
  Sc  Sc10  1  0.934805  0.563050  0.939093  1
  Sc  Sc11  1  0.559266  0.561976  0.939379  1
  Sc  Sc12  1  0.934805  0.939092  0.563051  1
  Sc  Sc13  1  0.348236  0.351461  0.351461  1
  Sc  Sc14  1  0.348236  0.351461  0.948841  1
  Sc  Sc15  1  0.348236  0.948841  0.351461  1
  Co  Co16  1  0.144419  0.142279  0.142279  1
  Co  Co17  1  0.144419  0.142279  0.571023  1
  Co  Co18  1  0.144419  0.571023  0.142279  1
  Co  Co19  1  0.571280  0.142907  0.142907  1
  Ag  Ag20  1  0.584677  0.582132  0.582132  1
  Ag  Ag21  1  0.584677  0.582132  0.251057  1
  Ag  Ag22  1  0.584677  0.251057  0.582132  1
  Ag  Ag23  1  0.249626  0.583458  0.583458  1
