# generated using pymatgen
data_Na2Ag6Se3S
_symmetry_space_group_name_H-M   'P 1'
_cell_length_a   9.11074558
_cell_length_b   9.13963210
_cell_length_c   9.13963168
_cell_angle_alpha   60.26201742
_cell_angle_beta   60.10449145
_cell_angle_gamma   60.10449055
_symmetry_Int_Tables_number   1
_chemical_formula_structural   Na2Ag6Se3S
_chemical_formula_sum   'Na4 Ag12 Se6 S2'
_cell_volume   540.05224754
_cell_formula_units_Z   2
loop_
 _symmetry_equiv_pos_site_id
 _symmetry_equiv_pos_as_xyz
  1  'x, y, z'
loop_
 _atom_site_type_symbol
 _atom_site_label
 _atom_site_symmetry_multiplicity
 _atom_site_fract_x
 _atom_site_fract_y
 _atom_site_fract_z
 _atom_site_occupancy
  Na  Na0  1  0.633553  0.625000  0.125000  1
  Na  Na1  1  0.633553  0.125000  0.625000  1
  Na  Na2  1  0.115573  0.631146  0.631146  1
  Na  Na3  1  0.627866  0.618854  0.618854  1
  Ag  Ag4  1  0.077660  0.419093  0.419093  1
  Ag  Ag5  1  0.829392  0.169114  0.169114  1
  Ag  Ag6  1  0.419579  0.080846  0.421394  1
  Ag  Ag7  1  0.419579  0.421394  0.080846  1
  Ag  Ag8  1  0.077919  0.086662  0.416666  1
  Ag  Ag9  1  0.077919  0.416666  0.086662  1
  Ag  Ag10  1  0.165847  0.830907  0.830907  1
  Ag  Ag11  1  0.831247  0.833334  0.163338  1
  Ag  Ag12  1  0.171818  0.169154  0.828606  1
  Ag  Ag13  1  0.171818  0.828606  0.169154  1
  Ag  Ag14  1  0.831247  0.163338  0.833334  1
  Ag  Ag15  1  0.417621  0.080886  0.080886  1
  Se  Se16  1  0.857353  0.859742  0.417848  1
  Se  Se17  1  0.387081  0.392322  0.392322  1
  Se  Se18  1  0.421724  0.857678  0.857678  1
  Se  Se19  1  0.857353  0.417848  0.859742  1
  Se  Se20  1  0.384944  0.390258  0.832152  1
  Se  Se21  1  0.384944  0.832152  0.390258  1
  S  S22  1  0.841989  0.385216  0.385216  1
  S  S23  1  0.862421  0.864784  0.864784  1
