# generated using pymatgen
data_Tb5HoCo16(P6Ru)2
_symmetry_space_group_name_H-M   'P 1'
_cell_length_a   3.71926400
_cell_length_b   10.55544906
_cell_length_c   12.29419907
_cell_angle_alpha   90.01207666
_cell_angle_beta   90.00000000
_cell_angle_gamma   90.00000000
_symmetry_Int_Tables_number   1
_chemical_formula_structural   Tb5HoCo16(P6Ru)2
_chemical_formula_sum   'Tb5 Ho1 Co16 P12 Ru2'
_cell_volume   482.65182415
_cell_formula_units_Z   1
loop_
 _symmetry_equiv_pos_site_id
 _symmetry_equiv_pos_as_xyz
  1  'x, y, z'
loop_
 _atom_site_type_symbol
 _atom_site_label
 _atom_site_symmetry_multiplicity
 _atom_site_fract_x
 _atom_site_fract_y
 _atom_site_fract_z
 _atom_site_occupancy
  Tb  Tb0  1  0.000000  0.500096  0.524112  1
  Tb  Tb1  1  0.500000  0.999880  0.475779  1
  Tb  Tb2  1  0.500000  0.182862  0.206665  1
  Tb  Tb3  1  0.000000  0.683035  0.793349  1
  Tb  Tb4  1  0.000000  0.317032  0.793379  1
  Ho  Ho5  1  0.500000  0.816947  0.206692  1
  Co  Co6  1  0.500000  0.500026  0.704105  1
  Co  Co7  1  0.000000  0.999533  0.295664  1
  Co  Co8  1  0.000000  0.500101  0.986374  1
  Co  Co9  1  0.500000  0.999838  0.013825  1
  Co  Co10  1  0.500000  0.332533  0.990800  1
  Co  Co11  1  0.500000  0.667597  0.990933  1
  Co  Co12  1  0.000000  0.167366  0.009235  1
  Co  Co13  1  0.000000  0.832522  0.009545  1
  Co  Co14  1  0.500000  0.296986  0.430856  1
  Co  Co15  1  0.500000  0.703099  0.430658  1
  Co  Co16  1  0.000000  0.202976  0.569115  1
  Co  Co17  1  0.000000  0.796985  0.569052  1
  Co  Co18  1  0.500000  0.879402  0.708149  1
  Co  Co19  1  0.500000  0.120556  0.708186  1
  Co  Co20  1  0.000000  0.621012  0.291648  1
  Co  Co21  1  0.000000  0.379463  0.291841  1
  P  P22  1  0.500000  0.500029  0.882543  1
  P  P23  1  0.000000  0.999584  0.117754  1
  P  P24  1  0.500000  0.499949  0.349273  1
  P  P25  1  0.000000  0.000007  0.650707  1
  P  P26  1  0.500000  0.310797  0.615883  1
  P  P27  1  0.500000  0.689262  0.615826  1
  P  P28  1  0.000000  0.189193  0.384108  1
  P  P29  1  0.000000  0.810854  0.383603  1
  P  P30  1  0.500000  0.846732  0.893848  1
  P  P31  1  0.500000  0.153245  0.893896  1
  P  P32  1  0.000000  0.653740  0.106461  1
  P  P33  1  0.000000  0.346694  0.106144  1
  Ru  Ru34  1  0.500000  0.500082  0.159072  1
  Ru  Ru35  1  0.000000  0.999986  0.840921  1
