# generated using pymatgen
data_HoLu2Al3Zn2Ag
_symmetry_space_group_name_H-M   'P 1'
_cell_length_a   6.88833124
_cell_length_b   6.88833089
_cell_length_c   4.37528300
_cell_angle_alpha   90.00000000
_cell_angle_beta   90.00000000
_cell_angle_gamma   120.19154577
_symmetry_Int_Tables_number   1
_chemical_formula_structural   HoLu2Al3Zn2Ag
_chemical_formula_sum   'Ho1 Lu2 Al3 Zn2 Ag1'
_cell_volume   179.44167505
_cell_formula_units_Z   1
loop_
 _symmetry_equiv_pos_site_id
 _symmetry_equiv_pos_as_xyz
  1  'x, y, z'
loop_
 _atom_site_type_symbol
 _atom_site_label
 _atom_site_symmetry_multiplicity
 _atom_site_fract_x
 _atom_site_fract_y
 _atom_site_fract_z
 _atom_site_occupancy
  Ho  Ho0  1  0.426991  0.426991  0.500000  1
  Lu  Lu1  1  0.574150  0.001584  0.500000  1
  Lu  Lu2  1  0.001584  0.574150  0.500000  1
  Al  Al3  1  0.757857  0.757857  0.000000  1
  Al  Al4  1  0.241784  0.999969  0.000000  1
  Al  Al5  1  0.999969  0.241784  0.000000  1
  Zn  Zn6  1  0.669590  0.332205  0.000000  1
  Zn  Zn7  1  0.332205  0.669590  0.000000  1
  Ag  Ag8  1  0.995869  0.995869  0.500000  1
