# generated using pymatgen
data_Si12Ni(P4Rh)3
_symmetry_space_group_name_H-M   'P 1'
_cell_length_a   5.88573691
_cell_length_b   6.08699638
_cell_length_c   12.96536194
_cell_angle_alpha   89.71911807
_cell_angle_beta   90.28579618
_cell_angle_gamma   90.16051226
_symmetry_Int_Tables_number   1
_chemical_formula_structural   Si12Ni(P4Rh)3
_chemical_formula_sum   'Si12 Ni1 P12 Rh3'
_cell_volume   464.48985989
_cell_formula_units_Z   1
loop_
 _symmetry_equiv_pos_site_id
 _symmetry_equiv_pos_as_xyz
  1  'x, y, z'
loop_
 _atom_site_type_symbol
 _atom_site_label
 _atom_site_symmetry_multiplicity
 _atom_site_fract_x
 _atom_site_fract_y
 _atom_site_fract_z
 _atom_site_occupancy
  Si  Si0  1  0.967104  0.166695  0.319160  1
  Si  Si1  1  0.466298  0.840672  0.681558  1
  Si  Si2  1  0.936578  0.620779  0.218737  1
  Si  Si3  1  0.432263  0.374679  0.785160  1
  Si  Si4  1  0.341699  0.914515  0.951174  1
  Si  Si5  1  0.843014  0.079664  0.050062  1
  Si  Si6  1  0.914222  0.533814  0.670778  1
  Si  Si7  1  0.407391  0.471535  0.327625  1
  Si  Si8  1  0.992703  0.063702  0.567365  1
  Si  Si9  1  0.493168  0.935396  0.429263  1
  Si  Si10  1  0.913236  0.625651  0.928571  1
  Si  Si11  1  0.414594  0.370864  0.072891  1
  Ni  Ni12  1  0.035816  0.517382  0.383270  1
  P  P13  1  0.578667  0.030330  0.825277  1
  P  P14  1  0.081560  0.967392  0.177670  1
  P  P15  1  0.520914  0.561891  0.930419  1
  P  P16  1  0.023242  0.432950  0.072131  1
  P  P17  1  0.605700  0.114523  0.572685  1
  P  P18  1  0.103440  0.882711  0.424258  1
  P  P19  1  0.547884  0.641020  0.182861  1
  P  P20  1  0.045035  0.357689  0.817934  1
  P  P21  1  0.575397  0.136109  0.289992  1
  P  P22  1  0.077985  0.871858  0.709626  1
  P  P23  1  0.149837  0.406315  0.548471  1
  P  P24  1  0.655980  0.598477  0.444542  1
  Rh  Rh25  1  0.966403  0.987092  0.879041  1
  Rh  Rh26  1  0.468623  0.009607  0.121826  1
  Rh  Rh27  1  0.535049  0.486687  0.617650  1
