# generated using pymatgen
data_Ho5Tm3Sc12Si15Au
_symmetry_space_group_name_H-M   'P 1'
_cell_length_a   7.09106940
_cell_length_b   7.35233382
_cell_length_c   14.00813518
_cell_angle_alpha   89.92058380
_cell_angle_beta   89.68723981
_cell_angle_gamma   90.18217711
_symmetry_Int_Tables_number   1
_chemical_formula_structural   Ho5Tm3Sc12Si15Au
_chemical_formula_sum   'Ho5 Tm3 Sc12 Si15 Au1'
_cell_volume   730.31157462
_cell_formula_units_Z   1
loop_
 _symmetry_equiv_pos_site_id
 _symmetry_equiv_pos_as_xyz
  1  'x, y, z'
loop_
 _atom_site_type_symbol
 _atom_site_label
 _atom_site_symmetry_multiplicity
 _atom_site_fract_x
 _atom_site_fract_y
 _atom_site_fract_z
 _atom_site_occupancy
  Ho  Ho0  1  0.012364  0.175946  0.097156  1
  Ho  Ho1  1  0.987511  0.824693  0.903778  1
  Ho  Ho2  1  0.487338  0.677258  0.903736  1
  Ho  Ho3  1  0.988260  0.827183  0.597368  1
  Ho  Ho4  1  0.512017  0.323267  0.096321  1
  Tm  Tm5  1  0.010802  0.175160  0.400000  1
  Tm  Tm6  1  0.509419  0.323989  0.401201  1
  Tm  Tm7  1  0.490864  0.676350  0.598707  1
  Sc  Sc8  1  0.162840  0.501951  0.751000  1
  Sc  Sc9  1  0.837489  0.497745  0.250949  1
  Sc  Sc10  1  0.338129  0.001392  0.249554  1
  Sc  Sc11  1  0.663540  0.995756  0.750685  1
  Sc  Sc12  1  0.338104  0.176256  0.625632  1
  Sc  Sc13  1  0.666572  0.823482  0.373656  1
  Sc  Sc14  1  0.169035  0.673421  0.373326  1
  Sc  Sc15  1  0.670038  0.824169  0.125442  1
  Sc  Sc16  1  0.828480  0.325641  0.625379  1
  Sc  Sc17  1  0.328929  0.175322  0.875779  1
  Sc  Sc18  1  0.830299  0.322739  0.875706  1
  Sc  Sc19  1  0.169290  0.676669  0.125285  1
  Si  Si20  1  0.034713  0.117390  0.750640  1
  Si  Si21  1  0.966875  0.885913  0.249433  1
  Si  Si22  1  0.466905  0.613735  0.248555  1
  Si  Si23  1  0.534592  0.386498  0.752149  1
  Si  Si24  1  0.285011  0.872356  0.750584  1
  Si  Si25  1  0.713526  0.129632  0.249443  1
  Si  Si26  1  0.214592  0.369336  0.248358  1
  Si  Si27  1  0.786552  0.628631  0.752376  1
  Si  Si28  1  0.833822  0.535850  0.459400  1
  Si  Si29  1  0.339879  0.964052  0.459970  1
  Si  Si30  1  0.842846  0.535235  0.038958  1
  Si  Si31  1  0.658595  0.035645  0.537815  1
  Si  Si32  1  0.156702  0.464659  0.961703  1
  Si  Si33  1  0.657793  0.034635  0.961164  1
  Si  Si34  1  0.342426  0.964643  0.039302  1
  Au  Au35  1  0.163851  0.463403  0.539490  1
