# generated using pymatgen
data_Y2B5
_symmetry_space_group_name_H-M   'P 1'
_cell_length_a   7.11097700
_cell_length_b   7.10765423
_cell_length_c   7.13717166
_cell_angle_alpha   76.96571663
_cell_angle_beta   90.00000000
_cell_angle_gamma   90.00000000
_symmetry_Int_Tables_number   1
_chemical_formula_structural   Y2B5
_chemical_formula_sum   'Y8 B20'
_cell_volume   351.43544830
_cell_formula_units_Z   4
loop_
 _symmetry_equiv_pos_site_id
 _symmetry_equiv_pos_as_xyz
  1  'x, y, z'
loop_
 _atom_site_type_symbol
 _atom_site_label
 _atom_site_symmetry_multiplicity
 _atom_site_fract_x
 _atom_site_fract_y
 _atom_site_fract_z
 _atom_site_occupancy
  Y  Y0  1  0.185583  0.241771  0.246815  1
  Y  Y1  1  0.814417  0.758229  0.753185  1
  Y  Y2  1  0.314417  0.241771  0.746815  1
  Y  Y3  1  0.807165  0.233040  0.871386  1
  Y  Y4  1  0.692835  0.233040  0.371386  1
  Y  Y5  1  0.685583  0.758229  0.253185  1
  Y  Y6  1  0.307165  0.766960  0.628614  1
  Y  Y7  1  0.192835  0.766960  0.128614  1
  B  B8  1  0.673888  0.497192  0.039225  1
  B  B9  1  0.537893  0.503398  0.825601  1
  B  B10  1  0.173888  0.502808  0.460775  1
  B  B11  1  0.826112  0.497192  0.539225  1
  B  B12  1  0.411181  0.498547  0.411257  1
  B  B13  1  0.498221  0.314354  0.040223  1
  B  B14  1  0.508409  0.925292  0.925726  1
  B  B15  1  0.501779  0.685646  0.959777  1
  B  B16  1  0.462107  0.496602  0.174399  1
  B  B17  1  0.008409  0.074708  0.574274  1
  B  B18  1  0.491591  0.074708  0.074274  1
  B  B19  1  0.991591  0.925292  0.425726  1
  B  B20  1  0.088819  0.498547  0.911257  1
  B  B21  1  0.588819  0.501453  0.588743  1
  B  B22  1  0.037893  0.496602  0.674399  1
  B  B23  1  0.962107  0.503398  0.325601  1
  B  B24  1  0.998221  0.685646  0.459777  1
  B  B25  1  0.001779  0.314354  0.540223  1
  B  B26  1  0.911181  0.501453  0.088743  1
  B  B27  1  0.326112  0.502808  0.960775  1
