# generated using pymatgen
data_CaDy5(Si3Ru)8
_symmetry_space_group_name_H-M   'P 1'
_cell_length_a   10.14559912
_cell_length_b   10.14559949
_cell_length_c   8.15053511
_cell_angle_alpha   89.88267030
_cell_angle_beta   90.11733269
_cell_angle_gamma   132.62638175
_symmetry_Int_Tables_number   1
_chemical_formula_structural   CaDy5(Si3Ru)8
_chemical_formula_sum   'Ca1 Dy5 Si24 Ru8'
_cell_volume   617.29332497
_cell_formula_units_Z   1
loop_
 _symmetry_equiv_pos_site_id
 _symmetry_equiv_pos_as_xyz
  1  'x, y, z'
loop_
 _atom_site_type_symbol
 _atom_site_label
 _atom_site_symmetry_multiplicity
 _atom_site_fract_x
 _atom_site_fract_y
 _atom_site_fract_z
 _atom_site_occupancy
  Ca  Ca0  1  0.501626  0.001626  0.750000  1
  Dy  Dy1  1  0.500225  0.500458  0.500755  1
  Dy  Dy2  1  0.000458  0.000225  0.999245  1
  Dy  Dy3  1  0.998847  0.498847  0.250000  1
  Dy  Dy4  1  0.496782  0.996782  0.250000  1
  Dy  Dy5  1  0.002915  0.502915  0.750000  1
  Si  Si6  1  0.793654  0.204180  0.500152  1
  Si  Si7  1  0.295185  0.706105  0.998597  1
  Si  Si8  1  0.206105  0.795185  0.501403  1
  Si  Si9  1  0.704180  0.293654  0.999848  1
  Si  Si10  1  0.332292  0.333977  0.833102  1
  Si  Si11  1  0.667210  0.668972  0.166934  1
  Si  Si12  1  0.168972  0.167210  0.333066  1
  Si  Si13  1  0.833977  0.832292  0.666898  1
  Si  Si14  1  0.119530  0.884868  0.728184  1
  Si  Si15  1  0.111828  0.878146  0.272803  1
  Si  Si16  1  0.611687  0.378351  0.228366  1
  Si  Si17  1  0.624751  0.390930  0.771755  1
  Si  Si18  1  0.878351  0.111687  0.271634  1
  Si  Si19  1  0.890930  0.124751  0.728245  1
  Si  Si20  1  0.384868  0.619530  0.771816  1
  Si  Si21  1  0.378146  0.611828  0.227197  1
  Si  Si22  1  0.344488  0.111237  0.501307  1
  Si  Si23  1  0.888550  0.655366  0.495372  1
  Si  Si24  1  0.388100  0.154549  0.006903  1
  Si  Si25  1  0.844100  0.611472  0.994996  1
  Si  Si26  1  0.654549  0.888100  0.493097  1
  Si  Si27  1  0.111472  0.344100  0.505004  1
  Si  Si28  1  0.611237  0.844488  0.998693  1
  Si  Si29  1  0.155366  0.388550  0.004628  1
  Ru  Ru30  1  0.670565  0.331538  0.499179  1
  Ru  Ru31  1  0.167116  0.828834  0.002367  1
  Ru  Ru32  1  0.328834  0.667116  0.497633  1
  Ru  Ru33  1  0.831538  0.170565  0.000821  1
  Ru  Ru34  1  0.127039  0.126302  0.627139  1
  Ru  Ru35  1  0.873975  0.874252  0.373135  1
  Ru  Ru36  1  0.374252  0.373975  0.126865  1
  Ru  Ru37  1  0.626302  0.627039  0.872861  1
