# generated using pymatgen
data_CeHf3(ScRu2)4
_symmetry_space_group_name_H-M   'P 1'
_cell_length_a   6.48946600
_cell_length_b   4.59254100
_cell_length_c   9.22672900
_cell_angle_alpha   89.99996890
_cell_angle_beta   89.99878583
_cell_angle_gamma   90.00026967
_symmetry_Int_Tables_number   1
_chemical_formula_structural   CeHf3(ScRu2)4
_chemical_formula_sum   'Ce1 Hf3 Sc4 Ru8'
_cell_volume   274.98548385
_cell_formula_units_Z   1
loop_
 _symmetry_equiv_pos_site_id
 _symmetry_equiv_pos_as_xyz
  1  'x, y, z'
loop_
 _atom_site_type_symbol
 _atom_site_label
 _atom_site_symmetry_multiplicity
 _atom_site_fract_x
 _atom_site_fract_y
 _atom_site_fract_z
 _atom_site_occupancy
  Ce  Ce0  1  0.750031  0.250006  0.125029  1
  Hf  Hf1  1  0.250019  0.749996  0.377738  1
  Hf  Hf2  1  0.749971  0.249998  0.625033  1
  Hf  Hf3  1  0.249980  0.749995  0.872231  1
  Sc  Sc4  1  0.250034  0.249994  0.125001  1
  Sc  Sc5  1  0.750022  0.750011  0.383699  1
  Sc  Sc6  1  0.249979  0.250004  0.624996  1
  Sc  Sc7  1  0.749974  0.750001  0.866312  1
  Ru  Ru8  1  0.497632  0.749995  0.124938  1
  Ru  Ru9  1  0.002399  0.750000  0.124936  1
  Ru  Ru10  1  0.498270  0.250001  0.377375  1
  Ru  Ru11  1  0.001758  0.250000  0.377367  1
  Ru  Ru12  1  0.000278  0.749994  0.624996  1
  Ru  Ru13  1  0.499687  0.750000  0.625000  1
  Ru  Ru14  1  0.001694  0.249998  0.872680  1
  Ru  Ru15  1  0.498275  0.250007  0.872670  1
