# generated using pymatgen
data_Y6Ho8Er2MgHg3Pd4
_symmetry_space_group_name_H-M   'P 1'
_cell_length_a   9.66897921
_cell_length_b   9.67422430
_cell_length_c   9.67300100
_cell_angle_alpha   60.00419309
_cell_angle_beta   59.98624988
_cell_angle_gamma   60.00913649
_symmetry_Int_Tables_number   1
_chemical_formula_structural   Y6Ho8Er2MgHg3Pd4
_chemical_formula_sum   'Y6 Ho8 Er2 Mg1 Hg3 Pd4'
_cell_volume   639.79611003
_cell_formula_units_Z   1
loop_
 _symmetry_equiv_pos_site_id
 _symmetry_equiv_pos_as_xyz
  1  'x, y, z'
loop_
 _atom_site_type_symbol
 _atom_site_label
 _atom_site_symmetry_multiplicity
 _atom_site_fract_x
 _atom_site_fract_y
 _atom_site_fract_z
 _atom_site_occupancy
  Y  Y0  1  0.935164  0.564763  0.564700  1
  Y  Y1  1  0.563975  0.935786  0.935423  1
  Y  Y2  1  0.563975  0.935786  0.564817  1
  Y  Y3  1  0.935164  0.564763  0.935373  1
  Y  Y4  1  0.565402  0.565309  0.934645  1
  Y  Y5  1  0.936137  0.936628  0.563617  1
  Ho  Ho6  1  0.354997  0.352865  0.350012  1
  Ho  Ho7  1  0.354997  0.352865  0.942126  1
  Ho  Ho8  1  0.358930  0.934993  0.353039  1
  Ho  Ho9  1  0.922046  0.361723  0.358115  1
  Ho  Ho10  1  0.810695  0.189710  0.189862  1
  Ho  Ho11  1  0.186014  0.813426  0.812278  1
  Ho  Ho12  1  0.186014  0.813426  0.188283  1
  Ho  Ho13  1  0.810695  0.189710  0.809732  1
  Er  Er14  1  0.187873  0.189170  0.811479  1
  Er  Er15  1  0.810413  0.811309  0.189138  1
  Mg  Mg16  1  0.280166  0.570913  0.574460  1
  Hg  Hg17  1  0.581847  0.588021  0.589818  1
  Hg  Hg18  1  0.581847  0.588021  0.240311  1
  Hg  Hg19  1  0.581205  0.239763  0.589515  1
  Pd  Pd20  1  0.142459  0.146407  0.148544  1
  Pd  Pd21  1  0.142459  0.146407  0.562590  1
  Pd  Pd22  1  0.139611  0.565918  0.147235  1
  Pd  Pd23  1  0.567907  0.142316  0.144887  1
