# generated using pymatgen
data_Dy2HoTm7Bi6
_symmetry_space_group_name_H-M   'P 1'
_cell_length_a   8.19564900
_cell_length_b   9.44107700
_cell_length_c   11.94468500
_cell_angle_alpha   90.00000000
_cell_angle_beta   90.00000000
_cell_angle_gamma   90.00000000
_symmetry_Int_Tables_number   1
_chemical_formula_structural   Dy2HoTm7Bi6
_chemical_formula_sum   'Dy4 Ho2 Tm14 Bi12'
_cell_volume   924.22899950
_cell_formula_units_Z   2
loop_
 _symmetry_equiv_pos_site_id
 _symmetry_equiv_pos_as_xyz
  1  'x, y, z'
loop_
 _atom_site_type_symbol
 _atom_site_label
 _atom_site_symmetry_multiplicity
 _atom_site_fract_x
 _atom_site_fract_y
 _atom_site_fract_z
 _atom_site_occupancy
  Dy  Dy0  1  0.312607  0.250000  0.218160  1
  Dy  Dy1  1  0.812607  0.250000  0.281840  1
  Dy  Dy2  1  0.687455  0.750000  0.781724  1
  Dy  Dy3  1  0.187455  0.750000  0.718276  1
  Ho  Ho4  1  0.352419  0.750000  0.216747  1
  Ho  Ho5  1  0.852419  0.750000  0.283253  1
  Tm  Tm6  1  0.647317  0.250000  0.782837  1
  Tm  Tm7  1  0.147317  0.250000  0.717163  1
  Tm  Tm8  1  0.692361  0.565565  0.058969  1
  Tm  Tm9  1  0.192361  0.934435  0.441031  1
  Tm  Tm10  1  0.307589  0.065700  0.940658  1
  Tm  Tm11  1  0.807589  0.434300  0.559342  1
  Tm  Tm12  1  0.307589  0.434300  0.940658  1
  Tm  Tm13  1  0.807589  0.065700  0.559342  1
  Tm  Tm14  1  0.692361  0.934435  0.058969  1
  Tm  Tm15  1  0.192361  0.565565  0.441031  1
  Tm  Tm16  1  0.476334  0.250000  0.489016  1
  Tm  Tm17  1  0.976334  0.250000  0.010984  1
  Tm  Tm18  1  0.523904  0.750000  0.511446  1
  Tm  Tm19  1  0.023904  0.750000  0.988554  1
  Bi  Bi20  1  0.405196  0.750000  0.957741  1
  Bi  Bi21  1  0.905196  0.750000  0.542259  1
  Bi  Bi22  1  0.594989  0.250000  0.041498  1
  Bi  Bi23  1  0.094989  0.250000  0.458502  1
  Bi  Bi24  1  0.565317  0.995446  0.326252  1
  Bi  Bi25  1  0.065317  0.504554  0.173748  1
  Bi  Bi26  1  0.434622  0.494762  0.674011  1
  Bi  Bi27  1  0.934622  0.005238  0.825989  1
  Bi  Bi28  1  0.434622  0.005238  0.674011  1
  Bi  Bi29  1  0.934622  0.494762  0.825989  1
  Bi  Bi30  1  0.565317  0.504554  0.326252  1
  Bi  Bi31  1  0.065317  0.995446  0.173748  1
