# generated using pymatgen
data_Ac3LaSn12
_symmetry_space_group_name_H-M   'P 1'
_cell_length_a   12.24480555
_cell_length_b   12.24480471
_cell_length_c   12.24480603
_cell_angle_alpha   32.58331471
_cell_angle_beta   32.58330034
_cell_angle_gamma   32.58331423
_symmetry_Int_Tables_number   1
_chemical_formula_structural   Ac3LaSn12
_chemical_formula_sum   'Ac3 La1 Sn12'
_cell_volume   473.50497174
_cell_formula_units_Z   1
loop_
 _symmetry_equiv_pos_site_id
 _symmetry_equiv_pos_as_xyz
  1  'x, y, z'
loop_
 _atom_site_type_symbol
 _atom_site_label
 _atom_site_symmetry_multiplicity
 _atom_site_fract_x
 _atom_site_fract_y
 _atom_site_fract_z
 _atom_site_occupancy
  Ac  Ac0  1  0.875686  0.875686  0.875686  1
  Ac  Ac1  1  0.123658  0.123658  0.123658  1
  Ac  Ac2  1  0.707329  0.707329  0.707329  1
  La  La3  1  0.293641  0.293641  0.293641  1
  Sn  Sn4  1  0.291865  0.791425  0.791425  1
  Sn  Sn5  1  0.791425  0.791425  0.291865  1
  Sn  Sn6  1  0.847954  0.391530  0.391530  1
  Sn  Sn7  1  0.391530  0.391530  0.847954  1
  Sn  Sn8  1  0.391530  0.847954  0.391530  1
  Sn  Sn9  1  0.607772  0.156116  0.607772  1
  Sn  Sn10  1  0.156116  0.607772  0.607772  1
  Sn  Sn11  1  0.607772  0.607772  0.156116  1
  Sn  Sn12  1  0.791425  0.291865  0.791425  1
  Sn  Sn13  1  0.209178  0.703939  0.209178  1
  Sn  Sn14  1  0.209178  0.209178  0.703939  1
  Sn  Sn15  1  0.703939  0.209178  0.209178  1
