# generated using pymatgen
data_Yb5Rh2Pb
_symmetry_space_group_name_H-M   'P 1'
_cell_length_a   8.96324310
_cell_length_b   8.96324272
_cell_length_c   8.96324259
_cell_angle_alpha   129.63457829
_cell_angle_beta   129.63457203
_cell_angle_gamma   73.99163432
_symmetry_Int_Tables_number   1
_chemical_formula_structural   Yb5Rh2Pb
_chemical_formula_sum   'Yb10 Rh4 Pb2'
_cell_volume   416.52387006
_cell_formula_units_Z   2
loop_
 _symmetry_equiv_pos_site_id
 _symmetry_equiv_pos_as_xyz
  1  'x, y, z'
loop_
 _atom_site_type_symbol
 _atom_site_label
 _atom_site_symmetry_multiplicity
 _atom_site_fract_x
 _atom_site_fract_y
 _atom_site_fract_z
 _atom_site_occupancy
  Yb  Yb0  1  0.000000  0.000000  0.000000  1
  Yb  Yb1  1  0.500000  0.500000  0.000000  1
  Yb  Yb2  1  0.794765  0.294765  0.833077  1
  Yb  Yb3  1  0.205235  0.705235  0.166923  1
  Yb  Yb4  1  0.461688  0.961688  0.166923  1
  Yb  Yb5  1  0.294765  0.461688  0.500000  1
  Yb  Yb6  1  0.038312  0.205235  0.500000  1
  Yb  Yb7  1  0.538312  0.038312  0.833077  1
  Yb  Yb8  1  0.705235  0.538312  0.500000  1
  Yb  Yb9  1  0.961688  0.794765  0.500000  1
  Rh  Rh10  1  0.131316  0.631316  0.762633  1
  Rh  Rh11  1  0.868684  0.368684  0.237367  1
  Rh  Rh12  1  0.631316  0.868684  0.500000  1
  Rh  Rh13  1  0.368684  0.131316  0.500000  1
  Pb  Pb14  1  0.250000  0.250000  0.000000  1
  Pb  Pb15  1  0.750000  0.750000  0.000000  1
