# generated using pymatgen
data_TbHo14Th(CdNi)4
_symmetry_space_group_name_H-M   'P 1'
_cell_length_a   9.48919304
_cell_length_b   9.48919324
_cell_length_c   9.49333163
_cell_angle_alpha   60.35412848
_cell_angle_beta   60.35412525
_cell_angle_gamma   60.36861238
_symmetry_Int_Tables_number   1
_chemical_formula_structural   TbHo14Th(CdNi)4
_chemical_formula_sum   'Tb1 Ho14 Th1 Cd4 Ni4'
_cell_volume   609.36057096
_cell_formula_units_Z   1
loop_
 _symmetry_equiv_pos_site_id
 _symmetry_equiv_pos_as_xyz
  1  'x, y, z'
loop_
 _atom_site_type_symbol
 _atom_site_label
 _atom_site_symmetry_multiplicity
 _atom_site_fract_x
 _atom_site_fract_y
 _atom_site_fract_z
 _atom_site_occupancy
  Tb  Tb0  1  0.936479  0.936479  0.563851  1
  Ho  Ho1  1  0.349612  0.349612  0.948904  1
  Ho  Ho2  1  0.349217  0.949565  0.348831  1
  Ho  Ho3  1  0.949565  0.349217  0.348831  1
  Ho  Ho4  1  0.812752  0.189174  0.188524  1
  Ho  Ho5  1  0.190137  0.812543  0.813009  1
  Ho  Ho6  1  0.189174  0.812752  0.188524  1
  Ho  Ho7  1  0.812543  0.190137  0.813009  1
  Ho  Ho8  1  0.189042  0.189042  0.812756  1
  Ho  Ho9  1  0.812834  0.812834  0.189796  1
  Ho  Ho10  1  0.937104  0.564733  0.565665  1
  Ho  Ho11  1  0.562766  0.936918  0.937546  1
  Ho  Ho12  1  0.564733  0.937104  0.565665  1
  Ho  Ho13  1  0.936918  0.562766  0.937546  1
  Ho  Ho14  1  0.565392  0.565392  0.937626  1
  Th  Th15  1  0.343866  0.343866  0.343918  1
  Cd  Cd16  1  0.580965  0.580965  0.580908  1
  Cd  Cd17  1  0.581781  0.581781  0.255305  1
  Cd  Cd18  1  0.581310  0.255603  0.582102  1
  Cd  Cd19  1  0.255603  0.581310  0.582102  1
  Ni  Ni20  1  0.144000  0.144000  0.140778  1
  Ni  Ni21  1  0.142059  0.142059  0.571300  1
  Ni  Ni22  1  0.141155  0.570989  0.141750  1
  Ni  Ni23  1  0.570989  0.141155  0.141750  1
