# generated using pymatgen
data_Zr18TiRe7Pt2
_symmetry_space_group_name_H-M   'P 1'
_cell_length_a   8.81999700
_cell_length_b   8.82014006
_cell_length_c   8.56506600
_cell_angle_alpha   90.00229367
_cell_angle_beta   90.00045294
_cell_angle_gamma   120.00084911
_symmetry_Int_Tables_number   1
_chemical_formula_structural   Zr18TiRe7Pt2
_chemical_formula_sum   'Zr18 Ti1 Re7 Pt2'
_cell_volume   577.03419248
_cell_formula_units_Z   1
loop_
 _symmetry_equiv_pos_site_id
 _symmetry_equiv_pos_as_xyz
  1  'x, y, z'
loop_
 _atom_site_type_symbol
 _atom_site_label
 _atom_site_symmetry_multiplicity
 _atom_site_fract_x
 _atom_site_fract_y
 _atom_site_fract_z
 _atom_site_occupancy
  Zr  Zr0  1  0.194067  0.805910  0.447108  1
  Zr  Zr1  1  0.194083  0.388154  0.447173  1
  Zr  Zr2  1  0.611932  0.805969  0.447189  1
  Zr  Zr3  1  0.805929  0.194062  0.552871  1
  Zr  Zr4  1  0.805921  0.611862  0.552905  1
  Zr  Zr5  1  0.388051  0.194025  0.552900  1
  Zr  Zr6  1  0.806633  0.193269  0.944880  1
  Zr  Zr7  1  0.806624  0.613273  0.944833  1
  Zr  Zr8  1  0.386539  0.193234  0.944892  1
  Zr  Zr9  1  0.193338  0.806653  0.055215  1
  Zr  Zr10  1  0.193337  0.386599  0.055203  1
  Zr  Zr11  1  0.613329  0.806646  0.055192  1
  Zr  Zr12  1  0.543007  0.457045  0.248936  1
  Zr  Zr13  1  0.542975  0.085894  0.248949  1
  Zr  Zr14  1  0.914029  0.457015  0.248921  1
  Zr  Zr15  1  0.457012  0.542919  0.751080  1
  Zr  Zr16  1  0.457025  0.914059  0.751065  1
  Zr  Zr17  1  0.085943  0.542961  0.751106  1
  Ti  Ti18  1  0.000128  0.999913  0.499989  1
  Re  Re19  1  0.892622  0.107873  0.251295  1
  Re  Re20  1  0.892486  0.785141  0.251342  1
  Re  Re21  1  0.215345  0.107898  0.251396  1
  Re  Re22  1  0.107863  0.892450  0.748443  1
  Re  Re23  1  0.107660  0.215588  0.748560  1
  Re  Re24  1  0.784757  0.892454  0.748610  1
  Re  Re25  1  0.000070  0.999852  0.999680  1
  Pt  Pt26  1  0.332875  0.666242  0.247973  1
  Pt  Pt27  1  0.666419  0.333042  0.752299  1
