# generated using pymatgen
data_YEr5(SiIr2)6
_symmetry_space_group_name_H-M   'P 1'
_cell_length_a   5.56154002
_cell_length_b   5.56204711
_cell_length_c   15.13247000
_cell_angle_alpha   90.00000000
_cell_angle_beta   90.00000000
_cell_angle_gamma   120.00633748
_symmetry_Int_Tables_number   1
_chemical_formula_structural   YEr5(SiIr2)6
_chemical_formula_sum   'Y1 Er5 Si6 Ir12'
_cell_volume   405.36144982
_cell_formula_units_Z   1
loop_
 _symmetry_equiv_pos_site_id
 _symmetry_equiv_pos_as_xyz
  1  'x, y, z'
loop_
 _atom_site_type_symbol
 _atom_site_label
 _atom_site_symmetry_multiplicity
 _atom_site_fract_x
 _atom_site_fract_y
 _atom_site_fract_z
 _atom_site_occupancy
  Y  Y0  1  0.666668  0.333337  0.250000  1
  Er  Er1  1  0.333335  0.666661  0.539060  1
  Er  Er2  1  0.666657  0.333327  0.460461  1
  Er  Er3  1  0.666657  0.333327  0.039539  1
  Er  Er4  1  0.333335  0.666661  0.960940  1
  Er  Er5  1  0.333342  0.666674  0.750000  1
  Si  Si6  1  0.000000  0.000006  0.250000  1
  Si  Si7  1  0.000006  0.000005  0.750000  1
  Si  Si8  1  0.333335  0.666660  0.250000  1
  Si  Si9  1  0.666655  0.333326  0.750000  1
  Si  Si10  1  0.000003  0.000004  0.000157  1
  Si  Si11  1  0.000003  0.000004  0.499843  1
  Ir  Ir12  1  0.167655  0.335314  0.129682  1
  Ir  Ir13  1  0.832310  0.664616  0.870313  1
  Ir  Ir14  1  0.664687  0.832346  0.129683  1
  Ir  Ir15  1  0.832310  0.664616  0.629687  1
  Ir  Ir16  1  0.335387  0.167693  0.870316  1
  Ir  Ir17  1  0.167655  0.335314  0.370318  1
  Ir  Ir18  1  0.167655  0.832341  0.129685  1
  Ir  Ir19  1  0.335387  0.167693  0.629684  1
  Ir  Ir20  1  0.832308  0.167695  0.870314  1
  Ir  Ir21  1  0.664687  0.832346  0.370317  1
  Ir  Ir22  1  0.832308  0.167695  0.629686  1
  Ir  Ir23  1  0.167655  0.832341  0.370315  1
