# generated using pymatgen
data_Sc2AlGa2Ru
_symmetry_space_group_name_H-M   'P 1'
_cell_length_a   5.27734209
_cell_length_b   5.24397476
_cell_length_c   8.53135900
_cell_angle_alpha   90.00000000
_cell_angle_beta   90.00000000
_cell_angle_gamma   119.79106558
_symmetry_Int_Tables_number   1
_chemical_formula_structural   Sc2AlGa2Ru
_chemical_formula_sum   'Sc4 Al2 Ga4 Ru2'
_cell_volume   204.89680730
_cell_formula_units_Z   2
loop_
 _symmetry_equiv_pos_site_id
 _symmetry_equiv_pos_as_xyz
  1  'x, y, z'
loop_
 _atom_site_type_symbol
 _atom_site_label
 _atom_site_symmetry_multiplicity
 _atom_site_fract_x
 _atom_site_fract_y
 _atom_site_fract_z
 _atom_site_occupancy
  Sc  Sc0  1  0.332891  0.667885  0.053945  1
  Sc  Sc1  1  0.667109  0.334993  0.553945  1
  Sc  Sc2  1  0.332891  0.667885  0.446055  1
  Sc  Sc3  1  0.667109  0.334993  0.946055  1
  Al  Al4  1  0.836869  0.162975  0.250000  1
  Al  Al5  1  0.163131  0.326107  0.750000  1
  Ga  Ga6  1  0.835412  0.663489  0.250000  1
  Ga  Ga7  1  0.164588  0.828077  0.750000  1
  Ga  Ga8  1  0.662529  0.827129  0.750000  1
  Ga  Ga9  1  0.337471  0.164599  0.250000  1
  Ru  Ru10  1  0.000000  0.010934  0.500000  1
  Ru  Ru11  1  0.000000  0.010934  0.000000  1
