# generated using pymatgen
data_Ca7Er(AgPb)4
_symmetry_space_group_name_H-M   'P 1'
_cell_length_a   7.63128103
_cell_length_b   5.38016300
_cell_length_c   10.76232905
_cell_angle_alpha   90.00000000
_cell_angle_beta   90.01065593
_cell_angle_gamma   90.00000000
_symmetry_Int_Tables_number   1
_chemical_formula_structural   Ca7Er(AgPb)4
_chemical_formula_sum   'Ca7 Er1 Ag4 Pb4'
_cell_volume   441.87470308
_cell_formula_units_Z   1
loop_
 _symmetry_equiv_pos_site_id
 _symmetry_equiv_pos_as_xyz
  1  'x, y, z'
loop_
 _atom_site_type_symbol
 _atom_site_label
 _atom_site_symmetry_multiplicity
 _atom_site_fract_x
 _atom_site_fract_y
 _atom_site_fract_z
 _atom_site_occupancy
  Ca  Ca0  1  0.496296  0.750000  0.125122  1
  Ca  Ca1  1  0.000454  0.249999  0.378093  1
  Ca  Ca2  1  0.499893  0.249999  0.374556  1
  Ca  Ca3  1  0.503130  0.750000  0.625009  1
  Ca  Ca4  1  0.001869  0.750000  0.625116  1
  Ca  Ca5  1  0.499745  0.249999  0.875325  1
  Ca  Ca6  1  0.000376  0.249999  0.871747  1
  Er  Er7  1  0.999385  0.750000  0.124861  1
  Ag  Ag8  1  0.761643  0.249999  0.124849  1
  Ag  Ag9  1  0.243691  0.750000  0.368946  1
  Ag  Ag10  1  0.750082  0.249999  0.624910  1
  Ag  Ag11  1  0.243630  0.750000  0.881374  1
  Pb  Pb12  1  0.242314  0.249999  0.124927  1
  Pb  Pb13  1  0.753415  0.750000  0.372184  1
  Pb  Pb14  1  0.251057  0.249999  0.624848  1
  Pb  Pb15  1  0.753022  0.750000  0.878133  1
