# generated using pymatgen
data_Y5ErCo17P12Os
_symmetry_space_group_name_H-M   'P 1'
_cell_length_a   3.70662300
_cell_length_b   10.51677406
_cell_length_c   12.22123507
_cell_angle_alpha   90.01217925
_cell_angle_beta   90.00000000
_cell_angle_gamma   90.00000000
_symmetry_Int_Tables_number   1
_chemical_formula_structural   Y5ErCo17P12Os
_chemical_formula_sum   'Y5 Er1 Co17 P12 Os1'
_cell_volume   476.40471138
_cell_formula_units_Z   1
loop_
 _symmetry_equiv_pos_site_id
 _symmetry_equiv_pos_as_xyz
  1  'x, y, z'
loop_
 _atom_site_type_symbol
 _atom_site_label
 _atom_site_symmetry_multiplicity
 _atom_site_fract_x
 _atom_site_fract_y
 _atom_site_fract_z
 _atom_site_occupancy
  Y  Y0  1  0.000000  0.500124  0.524606  1
  Y  Y1  1  0.500000  0.999951  0.478788  1
  Y  Y2  1  0.500000  0.817372  0.207158  1
  Y  Y3  1  0.500000  0.182543  0.206906  1
  Y  Y4  1  0.000000  0.316994  0.793930  1
  Er  Er5  1  0.000000  0.683088  0.794003  1
  Co  Co6  1  0.000000  0.999700  0.840128  1
  Co  Co7  1  0.500000  0.500930  0.704092  1
  Co  Co8  1  0.000000  0.999870  0.295427  1
  Co  Co9  1  0.000000  0.500433  0.987802  1
  Co  Co10  1  0.500000  0.999515  0.013882  1
  Co  Co11  1  0.500000  0.333050  0.991044  1
  Co  Co12  1  0.500000  0.667342  0.990648  1
  Co  Co13  1  0.000000  0.166813  0.005617  1
  Co  Co14  1  0.000000  0.832769  0.005245  1
  Co  Co15  1  0.500000  0.297575  0.430161  1
  Co  Co16  1  0.500000  0.702518  0.430607  1
  Co  Co17  1  0.000000  0.203139  0.568836  1
  Co  Co18  1  0.000000  0.796823  0.569517  1
  Co  Co19  1  0.500000  0.878634  0.709975  1
  Co  Co20  1  0.500000  0.120464  0.709390  1
  Co  Co21  1  0.000000  0.620140  0.291001  1
  Co  Co22  1  0.000000  0.379938  0.290719  1
  P  P23  1  0.500000  0.500818  0.880959  1
  P  P24  1  0.000000  0.999748  0.116539  1
  P  P25  1  0.500000  0.500032  0.350252  1
  P  P26  1  0.000000  0.999941  0.656306  1
  P  P27  1  0.500000  0.311019  0.616322  1
  P  P28  1  0.500000  0.689246  0.617294  1
  P  P29  1  0.000000  0.188402  0.384249  1
  P  P30  1  0.000000  0.811498  0.384602  1
  P  P31  1  0.500000  0.848585  0.891813  1
  P  P32  1  0.500000  0.150545  0.892252  1
  P  P33  1  0.000000  0.655328  0.105910  1
  P  P34  1  0.000000  0.344823  0.105603  1
  Os  Os35  1  0.500000  0.500289  0.158418  1
