# generated using pymatgen
data_Lu12Mn2TcAg2
_symmetry_space_group_name_H-M   'P 1'
_cell_length_a   8.10845911
_cell_length_b   8.10845920
_cell_length_c   8.10845900
_cell_angle_alpha   108.52974146
_cell_angle_beta   108.52974169
_cell_angle_gamma   111.37104305
_symmetry_Int_Tables_number   1
_chemical_formula_structural   Lu12Mn2TcAg2
_chemical_formula_sum   'Lu12 Mn2 Tc1 Ag2'
_cell_volume   410.04689041
_cell_formula_units_Z   1
loop_
 _symmetry_equiv_pos_site_id
 _symmetry_equiv_pos_as_xyz
  1  'x, y, z'
loop_
 _atom_site_type_symbol
 _atom_site_label
 _atom_site_symmetry_multiplicity
 _atom_site_fract_x
 _atom_site_fract_y
 _atom_site_fract_z
 _atom_site_occupancy
  Lu  Lu0  1  0.309300  0.309300  0.618599  1
  Lu  Lu1  1  0.690700  0.690700  0.381401  1
  Lu  Lu2  1  0.690700  0.309300  0.000000  1
  Lu  Lu3  1  0.309300  0.690700  0.000000  1
  Lu  Lu4  1  0.191376  0.434285  0.242909  1
  Lu  Lu5  1  0.808624  0.565715  0.757091  1
  Lu  Lu6  1  0.191376  0.948467  0.757091  1
  Lu  Lu7  1  0.948467  0.191376  0.757091  1
  Lu  Lu8  1  0.808624  0.051533  0.242909  1
  Lu  Lu9  1  0.051533  0.808624  0.242909  1
  Lu  Lu10  1  0.434285  0.191376  0.242909  1
  Lu  Lu11  1  0.565715  0.808624  0.757091  1
  Mn  Mn12  1  0.381504  0.381504  0.000000  1
  Mn  Mn13  1  0.618496  0.618496  0.000000  1
  Tc  Tc14  1  0.000000  0.000000  0.000000  1
  Ag  Ag15  1  0.000000  0.500000  0.500000  1
  Ag  Ag16  1  0.500000  0.000000  0.500000  1
