# generated using pymatgen
data_YPa3Pd2(PtPb)2
_symmetry_space_group_name_H-M   'P 1'
_cell_length_a   7.90321037
_cell_length_b   7.93261418
_cell_length_c   3.66243500
_cell_angle_alpha   90.00000000
_cell_angle_beta   90.00000000
_cell_angle_gamma   89.40404306
_symmetry_Int_Tables_number   1
_chemical_formula_structural   YPa3Pd2(PtPb)2
_chemical_formula_sum   'Y1 Pa3 Pd2 Pt2 Pb2'
_cell_volume   229.59705137
_cell_formula_units_Z   1
loop_
 _symmetry_equiv_pos_site_id
 _symmetry_equiv_pos_as_xyz
  1  'x, y, z'
loop_
 _atom_site_type_symbol
 _atom_site_label
 _atom_site_symmetry_multiplicity
 _atom_site_fract_x
 _atom_site_fract_y
 _atom_site_fract_z
 _atom_site_occupancy
  Y  Y0  1  0.325812  0.831097  0.500000  1
  Pa  Pa1  1  0.669804  0.176207  0.500000  1
  Pa  Pa2  1  0.172883  0.320265  0.500000  1
  Pa  Pa3  1  0.826116  0.667571  0.500000  1
  Pd  Pd4  1  0.637361  0.875824  0.000000  1
  Pd  Pd5  1  0.119514  0.618406  0.000000  1
  Pt  Pt6  1  0.871215  0.370754  0.000000  1
  Pt  Pt7  1  0.382254  0.135281  0.000000  1
  Pb  Pb8  1  0.003281  0.990715  0.000000  1
  Pb  Pb9  1  0.491759  0.513879  0.000000  1
