# generated using pymatgen
data_Ti5Si3O
_symmetry_space_group_name_H-M   'P 1'
_cell_length_a   7.44034500
_cell_length_b   7.44034507
_cell_length_c   5.13922100
_cell_angle_alpha   90.00000000
_cell_angle_beta   90.00000000
_cell_angle_gamma   120.00001302
_symmetry_Int_Tables_number   1
_chemical_formula_structural   Ti5Si3O
_chemical_formula_sum   'Ti10 Si6 O2'
_cell_volume   246.38486156
_cell_formula_units_Z   2
loop_
 _symmetry_equiv_pos_site_id
 _symmetry_equiv_pos_as_xyz
  1  'x, y, z'
loop_
 _atom_site_type_symbol
 _atom_site_label
 _atom_site_symmetry_multiplicity
 _atom_site_fract_x
 _atom_site_fract_y
 _atom_site_fract_z
 _atom_site_occupancy
  Ti  Ti0  1  0.237265  0.000000  0.750000  1
  Ti  Ti1  1  0.762735  0.000000  0.250000  1
  Ti  Ti2  1  0.000000  0.237265  0.750000  1
  Ti  Ti3  1  0.000000  0.762735  0.250000  1
  Ti  Ti4  1  0.762735  0.762735  0.750000  1
  Ti  Ti5  1  0.237265  0.237265  0.250000  1
  Ti  Ti6  1  0.333333  0.666667  0.500000  1
  Ti  Ti7  1  0.666667  0.333333  0.500000  1
  Ti  Ti8  1  0.666667  0.333333  0.000000  1
  Ti  Ti9  1  0.333333  0.666667  0.000000  1
  Si  Si10  1  0.592931  0.000000  0.750000  1
  Si  Si11  1  0.407069  0.000000  0.250000  1
  Si  Si12  1  0.000000  0.592931  0.750000  1
  Si  Si13  1  0.000000  0.407069  0.250000  1
  Si  Si14  1  0.407069  0.407069  0.750000  1
  Si  Si15  1  0.592931  0.592931  0.250000  1
  O  O16  1  0.000000  0.000000  0.500000  1
  O  O17  1  0.000000  0.000000  0.000000  1
