# generated using pymatgen
data_Sm3HoV4F28
_symmetry_space_group_name_H-M   'P 1'
_cell_length_a   5.55647733
_cell_length_b   8.94007228
_cell_length_c   11.93639292
_cell_angle_alpha   63.05237076
_cell_angle_beta   90.03773404
_cell_angle_gamma   90.00711209
_symmetry_Int_Tables_number   1
_chemical_formula_structural   Sm3HoV4F28
_chemical_formula_sum   'Sm3 Ho1 V4 F28'
_cell_volume   528.56268366
_cell_formula_units_Z   1
loop_
 _symmetry_equiv_pos_site_id
 _symmetry_equiv_pos_as_xyz
  1  'x, y, z'
loop_
 _atom_site_type_symbol
 _atom_site_label
 _atom_site_symmetry_multiplicity
 _atom_site_fract_x
 _atom_site_fract_y
 _atom_site_fract_z
 _atom_site_occupancy
  Sm  Sm0  1  0.258375  0.188422  0.731889  1
  Sm  Sm1  1  0.241475  0.192576  0.231150  1
  Sm  Sm2  1  0.741658  0.805969  0.269344  1
  Ho  Ho3  1  0.759295  0.805580  0.769552  1
  V  V4  1  0.754362  0.276315  0.954589  1
  V  V5  1  0.255074  0.726501  0.547113  1
  V  V6  1  0.246042  0.726454  0.041617  1
  V  V7  1  0.746366  0.272063  0.456846  1
  F  F8  1  0.448862  0.708442  0.920857  1
  F  F9  1  0.945653  0.292643  0.577724  1
  F  F10  1  0.555573  0.294458  0.076316  1
  F  F11  1  0.055091  0.707356  0.425668  1
  F  F12  1  0.463698  0.284210  0.543959  1
  F  F13  1  0.962928  0.717337  0.952214  1
  F  F14  1  0.535061  0.715173  0.458124  1
  F  F15  1  0.036626  0.286362  0.042257  1
  F  F16  1  0.765239  0.507613  0.862700  1
  F  F17  1  0.265814  0.496320  0.638127  1
  F  F18  1  0.232624  0.496821  0.134146  1
  F  F19  1  0.734001  0.503294  0.364466  1
  F  F20  1  0.758729  0.047648  0.045182  1
  F  F21  1  0.258900  0.954773  0.455365  1
  F  F22  1  0.241378  0.955667  0.952452  1
  F  F23  1  0.741244  0.044443  0.547068  1
  F  F24  1  0.979867  0.733016  0.640275  1
  F  F25  1  0.479569  0.269226  0.862709  1
  F  F26  1  0.021674  0.269222  0.364298  1
  F  F27  1  0.519682  0.730833  0.134911  1
  F  F28  1  0.047619  0.745295  0.165590  1
  F  F29  1  0.549017  0.254580  0.332444  1
  F  F30  1  0.951996  0.255879  0.831387  1
  F  F31  1  0.458783  0.748055  0.669211  1
  F  F32  1  0.411883  0.969117  0.229017  1
  F  F33  1  0.911301  0.029945  0.271132  1
  F  F34  1  0.588052  0.021691  0.769877  1
  F  F35  1  0.076489  0.966701  0.730428  1
