# generated using pymatgen
data_Sm5Mn2O12
_symmetry_space_group_name_H-M   'P 1'
_cell_length_a   6.95096113
_cell_length_b   6.95096072
_cell_length_c   7.43295518
_cell_angle_alpha   74.51325373
_cell_angle_beta   74.51325206
_cell_angle_gamma   49.89953302
_symmetry_Int_Tables_number   1
_chemical_formula_structural   Sm5Mn2O12
_chemical_formula_sum   'Sm5 Mn2 O12'
_cell_volume   262.52142871
_cell_formula_units_Z   1
loop_
 _symmetry_equiv_pos_site_id
 _symmetry_equiv_pos_as_xyz
  1  'x, y, z'
loop_
 _atom_site_type_symbol
 _atom_site_label
 _atom_site_symmetry_multiplicity
 _atom_site_fract_x
 _atom_site_fract_y
 _atom_site_fract_z
 _atom_site_occupancy
  Sm  Sm0  1  0.306686  0.306686  0.355322  1
  Sm  Sm1  1  0.693314  0.693314  0.644678  1
  Sm  Sm2  1  0.693075  0.693075  0.163280  1
  Sm  Sm3  1  0.306925  0.306925  0.836720  1
  Sm  Sm4  1  0.000000  0.000000  0.500000  1
  Mn  Mn5  1  0.754720  0.245280  0.000000  1
  Mn  Mn6  1  0.245280  0.754720  0.000000  1
  O  O7  1  0.096000  0.597358  0.576375  1
  O  O8  1  0.999385  0.999385  0.174359  1
  O  O9  1  0.402642  0.904000  0.423625  1
  O  O10  1  0.500248  0.500248  0.174161  1
  O  O11  1  0.100032  0.582576  0.078675  1
  O  O12  1  0.904000  0.402642  0.423625  1
  O  O13  1  0.000615  0.000615  0.825641  1
  O  O14  1  0.597358  0.095999  0.576375  1
  O  O15  1  0.499752  0.499752  0.825839  1
  O  O16  1  0.582576  0.100032  0.078675  1
  O  O17  1  0.417424  0.899968  0.921325  1
  O  O18  1  0.899968  0.417424  0.921325  1
