# generated using pymatgen
data_Er8Ge(Pd7Pt)3
_symmetry_space_group_name_H-M   'P 1'
_cell_length_a   8.32461900
_cell_length_b   8.31751200
_cell_length_c   8.31737600
_cell_angle_alpha   90.00000000
_cell_angle_beta   90.00000000
_cell_angle_gamma   90.00000000
_symmetry_Int_Tables_number   1
_chemical_formula_structural   Er8Ge(Pd7Pt)3
_chemical_formula_sum   'Er8 Ge1 Pd21 Pt3'
_cell_volume   575.89609925
_cell_formula_units_Z   1
loop_
 _symmetry_equiv_pos_site_id
 _symmetry_equiv_pos_as_xyz
  1  'x, y, z'
loop_
 _atom_site_type_symbol
 _atom_site_label
 _atom_site_symmetry_multiplicity
 _atom_site_fract_x
 _atom_site_fract_y
 _atom_site_fract_z
 _atom_site_occupancy
  Er  Er0  1  0.253494  0.253553  0.253676  1
  Er  Er1  1  0.746673  0.746418  0.746472  1
  Er  Er2  1  0.746673  0.746418  0.253528  1
  Er  Er3  1  0.746506  0.253553  0.746324  1
  Er  Er4  1  0.253494  0.253553  0.746324  1
  Er  Er5  1  0.253327  0.746418  0.253528  1
  Er  Er6  1  0.253327  0.746418  0.746472  1
  Er  Er7  1  0.746506  0.253553  0.253676  1
  Ge  Ge8  1  0.000000  0.000027  0.000000  1
  Pd  Pd9  1  0.259871  0.500062  0.000000  1
  Pd  Pd10  1  0.740129  0.500062  0.000000  1
  Pd  Pd11  1  0.000000  0.259825  0.500000  1
  Pd  Pd12  1  0.500000  0.259819  0.000000  1
  Pd  Pd13  1  0.000000  0.740104  0.500000  1
  Pd  Pd14  1  0.500000  0.740183  0.000000  1
  Pd  Pd15  1  0.500000  0.999990  0.259777  1
  Pd  Pd16  1  0.259899  0.000027  0.500000  1
  Pd  Pd17  1  0.500000  0.999990  0.740223  1
  Pd  Pd18  1  0.740101  0.000027  0.500000  1
  Pd  Pd19  1  0.000000  0.500076  0.259788  1
  Pd  Pd20  1  0.000000  0.500076  0.740212  1
  Pd  Pd21  1  0.500000  0.746768  0.500000  1
  Pd  Pd22  1  0.500000  0.500088  0.253083  1
  Pd  Pd23  1  0.500000  0.500088  0.746917  1
  Pd  Pd24  1  0.289336  0.999930  0.000000  1
  Pd  Pd25  1  0.710664  0.999930  0.000000  1
  Pd  Pd26  1  0.000000  0.289306  0.000000  1
  Pd  Pd27  1  0.000000  0.710763  0.000000  1
  Pd  Pd28  1  0.000000  0.999939  0.289178  1
  Pd  Pd29  1  0.000000  0.999939  0.710822  1
  Pt  Pt30  1  0.253121  0.499997  0.500000  1
  Pt  Pt31  1  0.746879  0.499997  0.500000  1
  Pt  Pt32  1  0.500000  0.253101  0.500000  1
