# generated using pymatgen
data_Sc4V6Zn3O24
_symmetry_space_group_name_H-M   'P 1'
_cell_length_a   6.88438593
_cell_length_b   8.23893934
_cell_length_c   10.09334882
_cell_angle_alpha   104.54335482
_cell_angle_beta   106.64053144
_cell_angle_gamma   101.09959296
_symmetry_Int_Tables_number   1
_chemical_formula_structural   Sc4V6Zn3O24
_chemical_formula_sum   'Sc4 V6 Zn3 O24'
_cell_volume   508.90512083
_cell_formula_units_Z   1
loop_
 _symmetry_equiv_pos_site_id
 _symmetry_equiv_pos_as_xyz
  1  'x, y, z'
loop_
 _atom_site_type_symbol
 _atom_site_label
 _atom_site_symmetry_multiplicity
 _atom_site_fract_x
 _atom_site_fract_y
 _atom_site_fract_z
 _atom_site_occupancy
  Sc  Sc0  1  0.384525  0.950000  0.614668  1
  Sc  Sc1  1  0.615475  0.050000  0.385332  1
  Sc  Sc2  1  0.051716  0.217709  0.015478  1
  Sc  Sc3  1  0.948284  0.782291  0.984522  1
  V  V4  1  0.769122  0.346944  0.721813  1
  V  V5  1  0.230878  0.653056  0.278187  1
  V  V6  1  0.908721  0.909831  0.668793  1
  V  V7  1  0.396395  0.714540  0.874679  1
  V  V8  1  0.091279  0.090169  0.331207  1
  V  V9  1  0.603605  0.285460  0.125321  1
  Zn  Zn10  1  0.000000  0.500000  0.500000  1
  Zn  Zn11  1  0.285519  0.298416  0.789057  1
  Zn  Zn12  1  0.714481  0.701584  0.210943  1
  O  O13  1  0.903755  0.702559  0.588988  1
  O  O14  1  0.096245  0.297441  0.411012  1
  O  O15  1  0.268026  0.511000  0.737783  1
  O  O16  1  0.731974  0.489000  0.262217  1
  O  O17  1  0.776547  0.307725  0.541242  1
  O  O18  1  0.223453  0.692275  0.458758  1
  O  O19  1  0.675504  0.960775  0.579221  1
  O  O20  1  0.324496  0.039225  0.420779  1
  O  O21  1  0.638117  0.720066  0.006248  1
  O  O22  1  0.361883  0.279934  0.993752  1
  O  O23  1  0.472709  0.770038  0.276967  1
  O  O24  1  0.527291  0.229962  0.723033  1
  O  O25  1  0.132836  0.041662  0.657010  1
  O  O26  1  0.060078  0.049559  0.144680  1
  O  O27  1  0.939922  0.950441  0.855320  1
  O  O28  1  0.554417  0.135278  0.213010  1
  O  O29  1  0.445583  0.864722  0.786990  1
  O  O30  1  0.199181  0.438420  0.198363  1
  O  O31  1  0.800819  0.561580  0.801637  1
  O  O32  1  0.979328  0.289452  0.827404  1
  O  O33  1  0.020672  0.710548  0.172596  1
  O  O34  1  0.230703  0.763323  0.966735  1
  O  O35  1  0.769297  0.236677  0.033265  1
  O  O36  1  0.867164  0.958338  0.342990  1
