# generated using pymatgen
data_Sr4In12AsAu9
_symmetry_space_group_name_H-M   'P 1'
_cell_length_a   12.80676100
_cell_length_b   12.80676081
_cell_length_c   4.52454800
_cell_angle_alpha   90.00000000
_cell_angle_beta   90.00000000
_cell_angle_gamma   119.99948286
_symmetry_Int_Tables_number   1
_chemical_formula_structural   Sr4In12AsAu9
_chemical_formula_sum   'Sr4 In12 As1 Au9'
_cell_volume   642.66803274
_cell_formula_units_Z   1
loop_
 _symmetry_equiv_pos_site_id
 _symmetry_equiv_pos_as_xyz
  1  'x, y, z'
loop_
 _atom_site_type_symbol
 _atom_site_label
 _atom_site_symmetry_multiplicity
 _atom_site_fract_x
 _atom_site_fract_y
 _atom_site_fract_z
 _atom_site_occupancy
  Sr  Sr0  1  0.666701  0.333363  0.000000  1
  Sr  Sr1  1  0.215181  0.430431  0.500000  1
  Sr  Sr2  1  0.569514  0.784725  0.500000  1
  Sr  Sr3  1  0.215270  0.784809  0.500000  1
  In  In4  1  0.166665  0.083347  0.500000  1
  In  In5  1  0.916665  0.083314  0.500000  1
  In  In6  1  0.916686  0.833351  0.500000  1
  In  In7  1  0.531316  0.468709  0.500000  1
  In  In8  1  0.531293  0.062604  0.500000  1
  In  In9  1  0.937383  0.468666  0.500000  1
  In  In10  1  0.339899  0.294700  0.000000  1
  In  In11  1  0.705302  0.045174  0.000000  1
  In  In12  1  0.954803  0.660120  0.000000  1
  In  In13  1  0.705366  0.660017  0.000000  1
  In  In14  1  0.340012  0.045363  0.000000  1
  In  In15  1  0.954629  0.294619  0.000000  1
  As  As16  1  0.333321  0.666656  0.000000  1
  Au  Au17  1  0.428931  0.214500  0.500000  1
  Au  Au18  1  0.785494  0.214388  0.500000  1
  Au  Au19  1  0.785622  0.571128  0.500000  1
  Au  Au20  1  0.087381  0.174844  0.000000  1
  Au  Au21  1  0.825187  0.912533  0.000000  1
  Au  Au22  1  0.087483  0.912690  0.000000  1
  Au  Au23  1  0.450554  0.549487  0.000000  1
  Au  Au24  1  0.450480  0.901096  0.000000  1
  Au  Au25  1  0.098868  0.549366  0.000000  1
