# generated using pymatgen
data_Ac3Er(ZnPb)4
_symmetry_space_group_name_H-M   'P 1'
_cell_length_a   4.74001900
_cell_length_b   4.74001886
_cell_length_c   17.61137000
_cell_angle_alpha   90.00000000
_cell_angle_beta   90.00000000
_cell_angle_gamma   119.99999397
_symmetry_Int_Tables_number   1
_chemical_formula_structural   Ac3Er(ZnPb)4
_chemical_formula_sum   'Ac3 Er1 Zn4 Pb4'
_cell_volume   342.67620765
_cell_formula_units_Z   1
loop_
 _symmetry_equiv_pos_site_id
 _symmetry_equiv_pos_as_xyz
  1  'x, y, z'
loop_
 _atom_site_type_symbol
 _atom_site_label
 _atom_site_symmetry_multiplicity
 _atom_site_fract_x
 _atom_site_fract_y
 _atom_site_fract_z
 _atom_site_occupancy
  Ac  Ac0  1  0.000000  0.000000  0.250000  1
  Ac  Ac1  1  0.000000  0.000000  0.989673  1
  Ac  Ac2  1  0.000000  0.000000  0.510327  1
  Er  Er3  1  0.000000  0.000000  0.750000  1
  Zn  Zn4  1  0.333333  0.666667  0.151936  1
  Zn  Zn5  1  0.666667  0.333333  0.825053  1
  Zn  Zn6  1  0.666667  0.333333  0.674947  1
  Zn  Zn7  1  0.333333  0.666667  0.348064  1
  Pb  Pb8  1  0.333333  0.666667  0.627417  1
  Pb  Pb9  1  0.666667  0.333333  0.389831  1
  Pb  Pb10  1  0.666667  0.333333  0.110169  1
  Pb  Pb11  1  0.333333  0.666667  0.872583  1
