# generated using pymatgen
data_Ho2MnS4
_symmetry_space_group_name_H-M   'P 1'
_cell_length_a   7.82081571
_cell_length_b   7.82081636
_cell_length_c   7.82081600
_cell_angle_alpha   60.00000151
_cell_angle_beta   59.99999878
_cell_angle_gamma   60.00000192
_symmetry_Int_Tables_number   1
_chemical_formula_structural   Ho2MnS4
_chemical_formula_sum   'Ho4 Mn2 S8'
_cell_volume   338.25265820
_cell_formula_units_Z   2
loop_
 _symmetry_equiv_pos_site_id
 _symmetry_equiv_pos_as_xyz
  1  'x, y, z'
loop_
 _atom_site_type_symbol
 _atom_site_label
 _atom_site_symmetry_multiplicity
 _atom_site_fract_x
 _atom_site_fract_y
 _atom_site_fract_z
 _atom_site_occupancy
  Ho  Ho0  1  0.625000  0.125000  0.625000  1
  Ho  Ho1  1  0.625000  0.625000  0.125000  1
  Ho  Ho2  1  0.125000  0.625000  0.625000  1
  Ho  Ho3  1  0.625000  0.625000  0.625000  1
  Mn  Mn4  1  0.000000  0.000000  0.000000  1
  Mn  Mn5  1  0.250000  0.250000  0.250000  1
  S  S6  1  0.378345  0.378345  0.378345  1
  S  S7  1  0.864965  0.378345  0.378345  1
  S  S8  1  0.378345  0.864965  0.378345  1
  S  S9  1  0.378345  0.378345  0.864965  1
  S  S10  1  0.871655  0.871655  0.385035  1
  S  S11  1  0.871655  0.385035  0.871655  1
  S  S12  1  0.385035  0.871655  0.871655  1
  S  S13  1  0.871655  0.871655  0.871655  1
