# generated using pymatgen
data_TbHo5Al24Ru7Au
_symmetry_space_group_name_H-M   'P 1'
_cell_length_a   8.84293175
_cell_length_b   8.83992628
_cell_length_c   9.55814607
_cell_angle_alpha   89.84975096
_cell_angle_beta   90.13885585
_cell_angle_gamma   119.90853446
_symmetry_Int_Tables_number   1
_chemical_formula_structural   TbHo5Al24Ru7Au
_chemical_formula_sum   'Tb1 Ho5 Al24 Ru7 Au1'
_cell_volume   647.65973198
_cell_formula_units_Z   1
loop_
 _symmetry_equiv_pos_site_id
 _symmetry_equiv_pos_as_xyz
  1  'x, y, z'
loop_
 _atom_site_type_symbol
 _atom_site_label
 _atom_site_symmetry_multiplicity
 _atom_site_fract_x
 _atom_site_fract_y
 _atom_site_fract_z
 _atom_site_occupancy
  Tb  Tb0  1  0.192366  0.386041  0.249700  1
  Ho  Ho1  1  0.807505  0.613514  0.750237  1
  Ho  Ho2  1  0.613587  0.807625  0.249737  1
  Ho  Ho3  1  0.386510  0.192495  0.750211  1
  Ho  Ho4  1  0.194487  0.805574  0.253255  1
  Ho  Ho5  1  0.805518  0.194530  0.746757  1
  Al  Al6  1  0.328257  0.672116  0.022653  1
  Al  Al7  1  0.671864  0.328156  0.977190  1
  Al  Al8  1  0.666667  0.333330  0.517142  1
  Al  Al9  1  0.333469  0.666924  0.483005  1
  Al  Al10  1  0.162247  0.324031  0.578332  1
  Al  Al11  1  0.837749  0.675920  0.421878  1
  Al  Al12  1  0.675965  0.837775  0.578163  1
  Al  Al13  1  0.849146  0.678301  0.080121  1
  Al  Al14  1  0.324106  0.162078  0.421952  1
  Al  Al15  1  0.150865  0.321651  0.919684  1
  Al  Al16  1  0.162579  0.837426  0.578915  1
  Al  Al17  1  0.321705  0.150762  0.080059  1
  Al  Al18  1  0.837214  0.162439  0.421190  1
  Al  Al19  1  0.678343  0.849140  0.919834  1
  Al  Al20  1  0.837252  0.162417  0.078019  1
  Al  Al21  1  0.162549  0.837449  0.921871  1
  Al  Al22  1  0.560619  0.120889  0.248480  1
  Al  Al23  1  0.439350  0.879057  0.751523  1
  Al  Al24  1  0.878741  0.439442  0.248468  1
  Al  Al25  1  0.120896  0.560630  0.751507  1
  Al  Al26  1  0.563977  0.436429  0.255636  1
  Al  Al27  1  0.436409  0.563612  0.744385  1
  Al  Al28  1  0.999251  0.000282  0.250135  1
  Al  Al29  1  0.000583  0.999417  0.749862  1
  Ru  Ru30  1  0.500063  0.000094  0.999967  1
  Ru  Ru31  1  0.999831  0.500105  0.999804  1
  Ru  Ru32  1  0.500086  0.000159  0.500056  1
  Ru  Ru33  1  0.999862  0.500089  0.500158  1
  Ru  Ru34  1  0.500296  0.500109  0.500201  1
  Ru  Ru35  1  0.000002  0.999983  0.999964  1
  Ru  Ru36  1  0.999987  0.999967  0.500047  1
  Au  Au37  1  0.500095  0.500044  0.999902  1
