# generated using pymatgen
data_HfZr3Co4SiAs3
_symmetry_space_group_name_H-M   'P 1'
_cell_length_a   3.83824300
_cell_length_b   6.51322642
_cell_length_c   7.27567510
_cell_angle_alpha   90.27359588
_cell_angle_beta   90.00000000
_cell_angle_gamma   90.00000000
_symmetry_Int_Tables_number   1
_chemical_formula_structural   HfZr3Co4SiAs3
_chemical_formula_sum   'Hf1 Zr3 Co4 Si1 As3'
_cell_volume   181.88504343
_cell_formula_units_Z   1
loop_
 _symmetry_equiv_pos_site_id
 _symmetry_equiv_pos_as_xyz
  1  'x, y, z'
loop_
 _atom_site_type_symbol
 _atom_site_label
 _atom_site_symmetry_multiplicity
 _atom_site_fract_x
 _atom_site_fract_y
 _atom_site_fract_z
 _atom_site_occupancy
  Hf  Hf0  1  0.250000  0.020360  0.309557  1
  Zr  Zr1  1  0.250000  0.511883  0.185975  1
  Zr  Zr2  1  0.750000  0.983341  0.688635  1
  Zr  Zr3  1  0.750000  0.480733  0.814469  1
  Co  Co4  1  0.250000  0.141583  0.945934  1
  Co  Co5  1  0.250000  0.640774  0.562550  1
  Co  Co6  1  0.750000  0.867474  0.064994  1
  Co  Co7  1  0.750000  0.355178  0.430193  1
  Si  Si8  1  0.750000  0.223615  0.110964  1
  As  As9  1  0.250000  0.271631  0.613651  1
  As  As10  1  0.250000  0.773350  0.888056  1
  As  As11  1  0.750000  0.730080  0.385021  1
