# generated using pymatgen
data_La10Sn20IrPd7
_symmetry_space_group_name_H-M   'P 1'
_cell_length_a   14.39751800
_cell_length_b   14.41902609
_cell_length_c   4.72665800
_cell_angle_alpha   90.00000000
_cell_angle_beta   90.00000000
_cell_angle_gamma   90.00681123
_symmetry_Int_Tables_number   1
_chemical_formula_structural   La10Sn20IrPd7
_chemical_formula_sum   'La10 Sn20 Ir1 Pd7'
_cell_volume   981.24562785
_cell_formula_units_Z   1
loop_
 _symmetry_equiv_pos_site_id
 _symmetry_equiv_pos_as_xyz
  1  'x, y, z'
loop_
 _atom_site_type_symbol
 _atom_site_label
 _atom_site_symmetry_multiplicity
 _atom_site_fract_x
 _atom_site_fract_y
 _atom_site_fract_z
 _atom_site_occupancy
  La  La0  1  0.500212  0.498970  0.000000  1
  La  La1  1  0.999424  0.996508  0.000000  1
  La  La2  1  0.680412  0.179905  0.500000  1
  La  La3  1  0.319815  0.818928  0.500000  1
  La  La4  1  0.179799  0.320675  0.500000  1
  La  La5  1  0.822854  0.681908  0.500000  1
  La  La6  1  0.892331  0.393478  0.500000  1
  La  La7  1  0.105249  0.610793  0.500000  1
  La  La8  1  0.391623  0.108098  0.500000  1
  La  La9  1  0.609121  0.892097  0.500000  1
  Sn  Sn10  1  0.568802  0.068585  0.000000  1
  Sn  Sn11  1  0.430144  0.931265  0.000000  1
  Sn  Sn12  1  0.069147  0.432969  0.000000  1
  Sn  Sn13  1  0.930881  0.571822  0.000000  1
  Sn  Sn14  1  0.652401  0.700723  0.000000  1
  Sn  Sn15  1  0.348377  0.298331  0.000000  1
  Sn  Sn16  1  0.150713  0.796904  0.000000  1
  Sn  Sn17  1  0.849009  0.200540  0.000000  1
  Sn  Sn18  1  0.299358  0.651798  0.000000  1
  Sn  Sn19  1  0.701556  0.347817  0.000000  1
  Sn  Sn20  1  0.200015  0.151129  0.000000  1
  Sn  Sn21  1  0.800843  0.848075  0.000000  1
  Sn  Sn22  1  0.663084  0.500760  0.500000  1
  Sn  Sn23  1  0.336768  0.500825  0.500000  1
  Sn  Sn24  1  0.161422  0.997528  0.500000  1
  Sn  Sn25  1  0.837168  0.999096  0.500000  1
  Sn  Sn26  1  0.500789  0.662060  0.500000  1
  Sn  Sn27  1  0.500417  0.337553  0.500000  1
  Sn  Sn28  1  0.000621  0.162017  0.500000  1
  Sn  Sn29  1  0.997075  0.837123  0.500000  1
  Ir  Ir30  1  0.967553  0.756792  0.000000  1
  Pd  Pd31  1  0.744896  0.531135  0.000000  1
  Pd  Pd32  1  0.256036  0.467613  0.000000  1
  Pd  Pd33  1  0.243397  0.967750  0.000000  1
  Pd  Pd34  1  0.755572  0.031690  0.000000  1
  Pd  Pd35  1  0.468911  0.745270  0.000000  1
  Pd  Pd36  1  0.532323  0.255060  0.000000  1
  Pd  Pd37  1  0.031882  0.246409  0.000000  1
