# generated using pymatgen
data_Tb4Y12MgAg3Rh4
_symmetry_space_group_name_H-M   'P 1'
_cell_length_a   9.60298356
_cell_length_b   9.62762014
_cell_length_c   9.62790279
_cell_angle_alpha   60.09820875
_cell_angle_beta   60.11183584
_cell_angle_gamma   60.11553508
_symmetry_Int_Tables_number   1
_chemical_formula_structural   Tb4Y12MgAg3Rh4
_chemical_formula_sum   'Tb4 Y12 Mg1 Ag3 Rh4'
_cell_volume   630.96951385
_cell_formula_units_Z   1
loop_
 _symmetry_equiv_pos_site_id
 _symmetry_equiv_pos_as_xyz
  1  'x, y, z'
loop_
 _atom_site_type_symbol
 _atom_site_label
 _atom_site_symmetry_multiplicity
 _atom_site_fract_x
 _atom_site_fract_y
 _atom_site_fract_z
 _atom_site_occupancy
  Tb  Tb0  1  0.601746  0.598509  0.598522  1
  Tb  Tb1  1  0.599834  0.598247  0.203359  1
  Tb  Tb2  1  0.599803  0.203378  0.598264  1
  Tb  Tb3  1  0.184979  0.604822  0.604840  1
  Y  Y4  1  0.059656  0.438582  0.438567  1
  Y  Y5  1  0.435981  0.062884  0.062896  1
  Y  Y6  1  0.436427  0.062940  0.436472  1
  Y  Y7  1  0.059403  0.438720  0.060759  1
  Y  Y8  1  0.436465  0.436452  0.062940  1
  Y  Y9  1  0.059392  0.060758  0.438730  1
  Y  Y10  1  0.185230  0.813492  0.813503  1
  Y  Y11  1  0.815843  0.185122  0.185163  1
  Y  Y12  1  0.813878  0.186308  0.815043  1
  Y  Y13  1  0.184729  0.813778  0.186691  1
  Y  Y14  1  0.813872  0.815006  0.186343  1
  Y  Y15  1  0.184707  0.186652  0.813820  1
  Mg  Mg16  1  0.540548  0.820531  0.820537  1
  Ag  Ag17  1  0.831925  0.835164  0.835173  1
  Ag  Ag18  1  0.832747  0.835280  0.498949  1
  Ag  Ag19  1  0.832746  0.498939  0.835297  1
  Rh  Rh20  1  0.388245  0.395146  0.395127  1
  Rh  Rh21  1  0.390687  0.396508  0.819219  1
  Rh  Rh22  1  0.390575  0.819470  0.396491  1
  Rh  Rh23  1  0.820584  0.393314  0.393294  1
