# generated using pymatgen
data_DyEr2Tm(Ga2Ag)4
_symmetry_space_group_name_H-M   'P 1'
_cell_length_a   4.37007300
_cell_length_b   6.93573096
_cell_length_c   10.23662911
_cell_angle_alpha   89.97845509
_cell_angle_beta   90.00000000
_cell_angle_gamma   90.00000000
_symmetry_Int_Tables_number   1
_chemical_formula_structural   DyEr2Tm(Ga2Ag)4
_chemical_formula_sum   'Dy1 Er2 Tm1 Ga8 Ag4'
_cell_volume   310.26862975
_cell_formula_units_Z   1
loop_
 _symmetry_equiv_pos_site_id
 _symmetry_equiv_pos_as_xyz
  1  'x, y, z'
loop_
 _atom_site_type_symbol
 _atom_site_label
 _atom_site_symmetry_multiplicity
 _atom_site_fract_x
 _atom_site_fract_y
 _atom_site_fract_z
 _atom_site_occupancy
  Dy  Dy0  1  0.750000  0.721136  0.324389  1
  Er  Er1  1  0.250000  0.779497  0.823490  1
  Er  Er2  1  0.750000  0.220910  0.175564  1
  Tm  Tm3  1  0.250000  0.278718  0.675749  1
  Ga  Ga4  1  0.250000  0.699626  0.535896  1
  Ga  Ga5  1  0.750000  0.298634  0.464592  1
  Ga  Ga6  1  0.750000  0.799436  0.034892  1
  Ga  Ga7  1  0.250000  0.200966  0.964105  1
  Ga  Ga8  1  0.250000  0.930654  0.155025  1
  Ga  Ga9  1  0.750000  0.070649  0.845274  1
  Ga  Ga10  1  0.750000  0.569515  0.654847  1
  Ga  Ga11  1  0.250000  0.428397  0.344609  1
  Ag  Ag12  1  0.250000  0.545191  0.094981  1
  Ag  Ag13  1  0.750000  0.455049  0.903803  1
  Ag  Ag14  1  0.750000  0.955870  0.596894  1
  Ag  Ag15  1  0.250000  0.045755  0.405892  1
