# generated using pymatgen
data_Mn2Co4Mo6C
_symmetry_space_group_name_H-M   'P 1'
_cell_length_a   7.73123309
_cell_length_b   7.73123308
_cell_length_c   7.73123300
_cell_angle_alpha   59.99999604
_cell_angle_beta   59.99999612
_cell_angle_gamma   59.99999486
_symmetry_Int_Tables_number   1
_chemical_formula_structural   Mn2Co4Mo6C
_chemical_formula_sum   'Mn4 Co8 Mo12 C2'
_cell_volume   326.76178147
_cell_formula_units_Z   2
loop_
 _symmetry_equiv_pos_site_id
 _symmetry_equiv_pos_as_xyz
  1  'x, y, z'
loop_
 _atom_site_type_symbol
 _atom_site_label
 _atom_site_symmetry_multiplicity
 _atom_site_fract_x
 _atom_site_fract_y
 _atom_site_fract_z
 _atom_site_occupancy
  Mn  Mn0  1  0.625000  0.625000  0.125000  1
  Mn  Mn1  1  0.625000  0.125000  0.625000  1
  Mn  Mn2  1  0.125000  0.625000  0.625000  1
  Mn  Mn3  1  0.625000  0.625000  0.625000  1
  Co  Co4  1  0.420570  0.420570  0.738291  1
  Co  Co5  1  0.420570  0.738291  0.420570  1
  Co  Co6  1  0.738291  0.420570  0.420570  1
  Co  Co7  1  0.420570  0.420570  0.420570  1
  Co  Co8  1  0.829430  0.829430  0.511709  1
  Co  Co9  1  0.829430  0.511709  0.829430  1
  Co  Co10  1  0.511709  0.829430  0.829430  1
  Co  Co11  1  0.829430  0.829430  0.829430  1
  Mo  Mo12  1  0.054457  0.054457  0.445543  1
  Mo  Mo13  1  0.445543  0.054457  0.445543  1
  Mo  Mo14  1  0.054457  0.445543  0.445543  1
  Mo  Mo15  1  0.445543  0.445543  0.054457  1
  Mo  Mo16  1  0.054457  0.445543  0.054457  1
  Mo  Mo17  1  0.445543  0.054457  0.054457  1
  Mo  Mo18  1  0.195543  0.195543  0.804457  1
  Mo  Mo19  1  0.804457  0.195543  0.804457  1
  Mo  Mo20  1  0.195543  0.804457  0.804457  1
  Mo  Mo21  1  0.804457  0.804457  0.195543  1
  Mo  Mo22  1  0.195543  0.804457  0.195543  1
  Mo  Mo23  1  0.804457  0.195543  0.195543  1
  C  C24  1  0.250000  0.250000  0.250000  1
  C  C25  1  0.000000  0.000000  0.000000  1
