# generated using pymatgen
data_Ho6Al24GaFeRu6
_symmetry_space_group_name_H-M   'P 1'
_cell_length_a   8.81508616
_cell_length_b   8.81508707
_cell_length_c   9.48390504
_cell_angle_alpha   90.12877430
_cell_angle_beta   89.87122634
_cell_angle_gamma   119.81400586
_symmetry_Int_Tables_number   1
_chemical_formula_structural   Ho6Al24GaFeRu6
_chemical_formula_sum   'Ho6 Al24 Ga1 Fe1 Ru6'
_cell_volume   639.41149384
_cell_formula_units_Z   1
loop_
 _symmetry_equiv_pos_site_id
 _symmetry_equiv_pos_as_xyz
  1  'x, y, z'
loop_
 _atom_site_type_symbol
 _atom_site_label
 _atom_site_symmetry_multiplicity
 _atom_site_fract_x
 _atom_site_fract_y
 _atom_site_fract_z
 _atom_site_occupancy
  Ho  Ho0  1  0.193512  0.385632  0.245560  1
  Ho  Ho1  1  0.806488  0.614368  0.754440  1
  Ho  Ho2  1  0.614368  0.806488  0.245560  1
  Ho  Ho3  1  0.385632  0.193512  0.754440  1
  Ho  Ho4  1  0.194213  0.805787  0.255275  1
  Ho  Ho5  1  0.805787  0.194213  0.744725  1
  Al  Al6  1  0.327008  0.672992  0.021149  1
  Al  Al7  1  0.672992  0.327008  0.978851  1
  Al  Al8  1  0.666400  0.333600  0.516564  1
  Al  Al9  1  0.333600  0.666400  0.483436  1
  Al  Al10  1  0.159339  0.318993  0.573487  1
  Al  Al11  1  0.840661  0.681007  0.426513  1
  Al  Al12  1  0.681007  0.840661  0.573487  1
  Al  Al13  1  0.853288  0.679930  0.082717  1
  Al  Al14  1  0.318993  0.159339  0.426513  1
  Al  Al15  1  0.146712  0.320070  0.917283  1
  Al  Al16  1  0.159740  0.840260  0.577587  1
  Al  Al17  1  0.320070  0.146712  0.082717  1
  Al  Al18  1  0.840260  0.159740  0.422413  1
  Al  Al19  1  0.679930  0.853288  0.917283  1
  Al  Al20  1  0.837873  0.162127  0.078802  1
  Al  Al21  1  0.162127  0.837873  0.921198  1
  Al  Al22  1  0.561495  0.120452  0.249386  1
  Al  Al23  1  0.438505  0.879548  0.750614  1
  Al  Al24  1  0.879548  0.438505  0.249386  1
  Al  Al25  1  0.120452  0.561495  0.750614  1
  Al  Al26  1  0.565437  0.434563  0.258494  1
  Al  Al27  1  0.434563  0.565437  0.741506  1
  Al  Al28  1  0.998854  0.001146  0.256494  1
  Al  Al29  1  0.001146  0.998854  0.743506  1
  Ga  Ga30  1  0.500000  0.500000  0.000000  1
  Fe  Fe31  1  0.000000  0.000000  0.500000  1
  Ru  Ru32  1  0.500000  0.000000  0.000000  1
  Ru  Ru33  1  0.000000  0.500000  0.000000  1
  Ru  Ru34  1  0.500000  0.000000  0.500000  1
  Ru  Ru35  1  0.000000  0.500000  0.500000  1
  Ru  Ru36  1  0.500000  0.500000  0.500000  1
  Ru  Ru37  1  0.000000  0.000000  0.000000  1
