# generated using pymatgen
data_Dy2Y3Mg2P12Ir17
_symmetry_space_group_name_H-M   'P 1'
_cell_length_a   12.67615401
_cell_length_b   12.84209704
_cell_length_c   3.98591700
_cell_angle_alpha   90.00000000
_cell_angle_beta   90.00000000
_cell_angle_gamma   119.57794660
_symmetry_Int_Tables_number   1
_chemical_formula_structural   Dy2Y3Mg2P12Ir17
_chemical_formula_sum   'Dy2 Y3 Mg2 P12 Ir17'
_cell_volume   564.30471312
_cell_formula_units_Z   1
loop_
 _symmetry_equiv_pos_site_id
 _symmetry_equiv_pos_as_xyz
  1  'x, y, z'
loop_
 _atom_site_type_symbol
 _atom_site_label
 _atom_site_symmetry_multiplicity
 _atom_site_fract_x
 _atom_site_fract_y
 _atom_site_fract_z
 _atom_site_occupancy
  Dy  Dy0  1  0.668828  0.336000  0.500000  1
  Dy  Dy1  1  0.810105  0.000019  0.000000  1
  Y  Y2  1  0.332759  0.663988  0.500000  1
  Y  Y3  1  0.002368  0.813163  0.000000  1
  Y  Y4  1  0.189218  0.186818  0.000000  1
  Mg  Mg5  1  0.997320  0.443665  0.500000  1
  Mg  Mg6  1  0.553756  0.556280  0.500000  1
  P  P7  1  0.003220  0.643184  0.500000  1
  P  P8  1  0.360052  0.356859  0.500000  1
  P  P9  1  0.642538  0.999978  0.500000  1
  P  P10  1  0.514084  0.686088  0.000000  1
  P  P11  1  0.308122  0.824045  0.000000  1
  P  P12  1  0.168501  0.481165  0.000000  1
  P  P13  1  0.484209  0.176141  0.000000  1
  P  P14  1  0.687314  0.518691  0.000000  1
  P  P15  1  0.827853  0.313849  0.000000  1
  P  P16  1  0.998553  0.175601  0.500000  1
  P  P17  1  0.822978  0.824365  0.500000  1
  P  P18  1  0.179029  0.000010  0.500000  1
  Ir  Ir19  1  0.505067  0.866243  0.000000  1
  Ir  Ir20  1  0.127738  0.639619  0.000000  1
  Ir  Ir21  1  0.357647  0.492579  0.000000  1
  Ir  Ir22  1  0.488348  0.360374  0.000000  1
  Ir  Ir23  1  0.864753  0.507103  0.000000  1
  Ir  Ir24  1  0.638836  0.133975  0.000000  1
  Ir  Ir25  1  0.462142  0.000141  0.500000  1
  Ir  Ir26  1  0.996244  0.279265  0.000000  1
  Ir  Ir27  1  0.717024  0.720689  0.000000  1
  Ir  Ir28  1  0.287875  0.000066  0.000000  1
  Ir  Ir29  1  0.623101  0.807438  0.500000  1
  Ir  Ir30  1  0.201441  0.824769  0.500000  1
  Ir  Ir31  1  0.176729  0.367347  0.500000  1
  Ir  Ir32  1  0.376810  0.175304  0.500000  1
  Ir  Ir33  1  0.809344  0.632534  0.500000  1
  Ir  Ir34  1  0.815572  0.192634  0.500000  1
  Ir  Ir35  1  0.000523  0.000010  0.500000  1
