# generated using pymatgen
data_Tb2Nd3P12PdRu18
_symmetry_space_group_name_H-M   'P 1'
_cell_length_a   4.00836100
_cell_length_b   12.65199111
_cell_length_c   12.53973538
_cell_angle_alpha   119.70485277
_cell_angle_beta   90.00000000
_cell_angle_gamma   90.00000000
_symmetry_Int_Tables_number   1
_chemical_formula_structural   Tb2Nd3P12PdRu18
_chemical_formula_sum   'Tb2 Nd3 P12 Pd1 Ru18'
_cell_volume   552.36821123
_cell_formula_units_Z   1
loop_
 _symmetry_equiv_pos_site_id
 _symmetry_equiv_pos_as_xyz
  1  'x, y, z'
loop_
 _atom_site_type_symbol
 _atom_site_label
 _atom_site_symmetry_multiplicity
 _atom_site_fract_x
 _atom_site_fract_y
 _atom_site_fract_z
 _atom_site_occupancy
  Tb  Tb0  1  0.000000  0.338634  0.668787  1
  Tb  Tb1  1  0.000000  0.661278  0.330134  1
  Nd  Nd2  1  0.500000  0.000000  0.182878  1
  Nd  Nd3  1  0.500000  0.183798  0.998845  1
  Nd  Nd4  1  0.500000  0.816188  0.815018  1
  P  P5  1  0.000000  0.999999  0.808276  1
  P  P6  1  0.000000  0.813886  0.001112  1
  P  P7  1  0.000000  0.186076  0.187190  1
  P  P8  1  0.500000  0.306322  0.480570  1
  P  P9  1  0.500000  0.182171  0.701164  1
  P  P10  1  0.500000  0.525177  0.830159  1
  P  P11  1  0.500000  0.817890  0.518992  1
  P  P12  1  0.500000  0.474809  0.304975  1
  P  P13  1  0.500000  0.693682  0.174274  1
  P  P14  1  0.000000  0.000005  0.366864  1
  P  P15  1  0.000000  0.375387  0.000475  1
  P  P16  1  0.000000  0.624608  0.625057  1
  Pd  Pd17  1  0.000000  0.000012  0.551977  1
  Ru  Ru18  1  0.000000  0.555842  0.002096  1
  Ru  Ru19  1  0.000000  0.444153  0.446219  1
  Ru  Ru20  1  0.500000  0.000010  0.708860  1
  Ru  Ru21  1  0.500000  0.716012  0.002256  1
  Ru  Ru22  1  0.500000  0.283997  0.286254  1
  Ru  Ru23  1  0.000000  0.195193  0.381963  1
  Ru  Ru24  1  0.000000  0.186654  0.804268  1
  Ru  Ru25  1  0.000000  0.622770  0.816302  1
  Ru  Ru26  1  0.000000  0.813362  0.617596  1
  Ru  Ru27  1  0.000000  0.377176  0.193505  1
  Ru  Ru28  1  0.000000  0.804774  0.186794  1
  Ru  Ru29  1  0.500000  0.126245  0.494511  1
  Ru  Ru30  1  0.500000  0.371009  0.878027  1
  Ru  Ru31  1  0.500000  0.507113  0.634573  1
  Ru  Ru32  1  0.500000  0.629019  0.506984  1
  Ru  Ru33  1  0.500000  0.492867  0.127470  1
  Ru  Ru34  1  0.500000  0.873804  0.368272  1
  Ru  Ru35  1  0.000000  0.999979  0.997303  1
