# generated using pymatgen
data_Tm(LuNi6)2
_symmetry_space_group_name_H-M   'P 1'
_cell_length_a   4.81547873
_cell_length_b   4.82451930
_cell_length_c   10.14372151
_cell_angle_alpha   85.36324057
_cell_angle_beta   80.65132981
_cell_angle_gamma   60.05182552
_symmetry_Int_Tables_number   1
_chemical_formula_structural   Tm(LuNi6)2
_chemical_formula_sum   'Tm1 Lu2 Ni12'
_cell_volume   201.48424845
_cell_formula_units_Z   1
loop_
 _symmetry_equiv_pos_site_id
 _symmetry_equiv_pos_as_xyz
  1  'x, y, z'
loop_
 _atom_site_type_symbol
 _atom_site_label
 _atom_site_symmetry_multiplicity
 _atom_site_fract_x
 _atom_site_fract_y
 _atom_site_fract_z
 _atom_site_occupancy
  Tm  Tm0  1  0.000000  0.000000  0.000000  1
  Lu  Lu1  1  0.126254  0.000066  0.644638  1
  Lu  Lu2  1  0.873746  0.999934  0.355362  1
  Ni  Ni3  1  0.567685  0.499707  0.801327  1
  Ni  Ni4  1  0.067387  0.500294  0.801321  1
  Ni  Ni5  1  0.432315  0.500293  0.198673  1
  Ni  Ni6  1  0.430387  0.000015  0.200926  1
  Ni  Ni7  1  0.932613  0.499706  0.198679  1
  Ni  Ni8  1  0.665281  0.669474  0.000002  1
  Ni  Ni9  1  0.569613  0.999985  0.799074  1
  Ni  Ni10  1  0.193509  0.340838  0.405461  1
  Ni  Ni11  1  0.806491  0.659162  0.594539  1
  Ni  Ni12  1  0.465578  0.340918  0.594563  1
  Ni  Ni13  1  0.534422  0.659082  0.405437  1
  Ni  Ni14  1  0.334719  0.330526  0.999998  1
