# generated using pymatgen
data_Th2IrPbAu
_symmetry_space_group_name_H-M   'P 1'
_cell_length_a   8.02687400
_cell_length_b   8.02687447
_cell_length_c   3.85574300
_cell_angle_alpha   90.00000000
_cell_angle_beta   90.00000000
_cell_angle_gamma   90.11953293
_symmetry_Int_Tables_number   1
_chemical_formula_structural   Th2IrPbAu
_chemical_formula_sum   'Th4 Ir2 Pb2 Au2'
_cell_volume   248.42771832
_cell_formula_units_Z   2
loop_
 _symmetry_equiv_pos_site_id
 _symmetry_equiv_pos_as_xyz
  1  'x, y, z'
loop_
 _atom_site_type_symbol
 _atom_site_label
 _atom_site_symmetry_multiplicity
 _atom_site_fract_x
 _atom_site_fract_y
 _atom_site_fract_z
 _atom_site_occupancy
  Th  Th0  1  0.160688  0.339312  0.000000  1
  Th  Th1  1  0.839312  0.660688  0.000000  1
  Th  Th2  1  0.686155  0.186155  0.000000  1
  Th  Th3  1  0.313845  0.813845  0.000000  1
  Ir  Ir4  1  0.870937  0.370937  0.500000  1
  Ir  Ir5  1  0.129063  0.629063  0.500000  1
  Pb  Pb6  1  0.000000  0.000000  0.500000  1
  Pb  Pb7  1  0.500000  0.500000  0.500000  1
  Au  Au8  1  0.374654  0.125346  0.500000  1
  Au  Au9  1  0.625346  0.874654  0.500000  1
