# generated using pymatgen
data_UV2(NiO5)2
_symmetry_space_group_name_H-M   'P 1'
_cell_length_a   5.48862011
_cell_length_b   5.77054748
_cell_length_c   8.02678255
_cell_angle_alpha   111.06676799
_cell_angle_beta   113.93947397
_cell_angle_gamma   90.00000431
_symmetry_Int_Tables_number   1
_chemical_formula_structural   UV2(NiO5)2
_chemical_formula_sum   'U1 V2 Ni2 O10'
_cell_volume   213.63257447
_cell_formula_units_Z   1
loop_
 _symmetry_equiv_pos_site_id
 _symmetry_equiv_pos_as_xyz
  1  'x, y, z'
loop_
 _atom_site_type_symbol
 _atom_site_label
 _atom_site_symmetry_multiplicity
 _atom_site_fract_x
 _atom_site_fract_y
 _atom_site_fract_z
 _atom_site_occupancy
  U  U0  1  0.000000  0.000000  0.000000  1
  V  V1  1  0.862401  0.630075  0.260151  1
  V  V2  1  0.137597  0.369925  0.739849  1
  Ni  Ni3  1  0.499999  0.000000  0.500000  1
  Ni  Ni4  1  0.499999  0.500000  0.500000  1
  O  O5  1  0.812583  0.313229  0.109851  1
  O  O6  1  0.812583  0.796621  0.109851  1
  O  O7  1  0.304556  0.129253  0.258505  1
  O  O8  1  0.640786  0.685149  0.370299  1
  O  O9  1  0.200068  0.716897  0.433794  1
  O  O10  1  0.799933  0.283102  0.566205  1
  O  O11  1  0.359213  0.314850  0.629701  1
  O  O12  1  0.695443  0.870746  0.741495  1
  O  O13  1  0.187416  0.203380  0.890150  1
  O  O14  1  0.187416  0.686770  0.890150  1
