# generated using pymatgen
data_LiTaNbN3
_symmetry_space_group_name_H-M   'P 1'
_cell_length_a   5.24542566
_cell_length_b   5.24542432
_cell_length_c   10.33926800
_cell_angle_alpha   90.00000000
_cell_angle_beta   90.00000000
_cell_angle_gamma   119.88449823
_symmetry_Int_Tables_number   1
_chemical_formula_structural   LiTaNbN3
_chemical_formula_sum   'Li4 Ta4 Nb4 N12'
_cell_volume   246.65281407
_cell_formula_units_Z   4
loop_
 _symmetry_equiv_pos_site_id
 _symmetry_equiv_pos_as_xyz
  1  'x, y, z'
loop_
 _atom_site_type_symbol
 _atom_site_label
 _atom_site_symmetry_multiplicity
 _atom_site_fract_x
 _atom_site_fract_y
 _atom_site_fract_z
 _atom_site_occupancy
  Li  Li0  1  0.333495  0.666505  0.000000  1
  Li  Li1  1  0.333495  0.666505  0.500000  1
  Li  Li2  1  0.666635  0.333365  0.500000  1
  Li  Li3  1  0.666635  0.333365  0.000000  1
  Ta  Ta4  1  0.998801  0.001199  0.500000  1
  Ta  Ta5  1  0.998801  0.001199  0.000000  1
  Ta  Ta6  1  0.351622  0.999820  0.250000  1
  Ta  Ta7  1  0.000180  0.648378  0.750000  1
  Nb  Nb8  1  0.000795  0.351657  0.250000  1
  Nb  Nb9  1  0.648343  0.999205  0.750000  1
  Nb  Nb10  1  0.351435  0.350426  0.750000  1
  Nb  Nb11  1  0.649574  0.648565  0.250000  1
  N  N12  1  0.682441  0.678588  0.623893  1
  N  N13  1  0.682441  0.678588  0.876107  1
  N  N14  1  0.321412  0.317559  0.123893  1
  N  N15  1  0.321412  0.317559  0.376107  1
  N  N16  1  0.317056  0.996150  0.875969  1
  N  N17  1  0.317056  0.996150  0.624031  1
  N  N18  1  0.003850  0.682944  0.375969  1
  N  N19  1  0.003850  0.682944  0.124031  1
  N  N20  1  0.675341  0.000004  0.123229  1
  N  N21  1  0.675341  0.000004  0.376771  1
  N  N22  1  0.999996  0.324659  0.876771  1
  N  N23  1  0.999996  0.324659  0.623229  1
