# generated using pymatgen
data_ErScTaFe9
_symmetry_space_group_name_H-M   'P 1'
_cell_length_a   8.36766018
_cell_length_b   8.36766030
_cell_length_c   8.36765956
_cell_angle_alpha   34.28126025
_cell_angle_beta   34.28127362
_cell_angle_gamma   34.28125798
_symmetry_Int_Tables_number   1
_chemical_formula_structural   ErScTaFe9
_chemical_formula_sum   'Er1 Sc1 Ta1 Fe9'
_cell_volume   165.76338423
_cell_formula_units_Z   1
loop_
 _symmetry_equiv_pos_site_id
 _symmetry_equiv_pos_as_xyz
  1  'x, y, z'
loop_
 _atom_site_type_symbol
 _atom_site_label
 _atom_site_symmetry_multiplicity
 _atom_site_fract_x
 _atom_site_fract_y
 _atom_site_fract_z
 _atom_site_occupancy
  Er  Er0  1  0.999976  0.999976  0.999976  1
  Sc  Sc1  1  0.143008  0.143008  0.143008  1
  Ta  Ta2  1  0.856430  0.856430  0.856430  1
  Fe  Fe3  1  0.412956  0.412956  0.917993  1
  Fe  Fe4  1  0.917993  0.412956  0.412956  1
  Fe  Fe5  1  0.587263  0.082027  0.587263  1
  Fe  Fe6  1  0.587263  0.587263  0.082027  1
  Fe  Fe7  1  0.412956  0.917993  0.412956  1
  Fe  Fe8  1  0.082027  0.587263  0.587263  1
  Fe  Fe9  1  0.333124  0.333124  0.333124  1
  Fe  Fe10  1  0.666902  0.666902  0.666902  1
  Fe  Fe11  1  0.500102  0.500102  0.500102  1
