# generated using pymatgen
data_Dy4Sc2AlGaPt4
_symmetry_space_group_name_H-M   'P 1'
_cell_length_a   4.40348400
_cell_length_b   7.16813373
_cell_length_c   8.06917985
_cell_angle_alpha   90.73584848
_cell_angle_beta   90.00000000
_cell_angle_gamma   90.00000000
_symmetry_Int_Tables_number   1
_chemical_formula_structural   Dy4Sc2AlGaPt4
_chemical_formula_sum   'Dy4 Sc2 Al1 Ga1 Pt4'
_cell_volume   254.68073770
_cell_formula_units_Z   1
loop_
 _symmetry_equiv_pos_site_id
 _symmetry_equiv_pos_as_xyz
  1  'x, y, z'
loop_
 _atom_site_type_symbol
 _atom_site_label
 _atom_site_symmetry_multiplicity
 _atom_site_fract_x
 _atom_site_fract_y
 _atom_site_fract_z
 _atom_site_occupancy
  Dy  Dy0  1  0.250000  0.985168  0.324080  1
  Dy  Dy1  1  0.250000  0.446555  0.176587  1
  Dy  Dy2  1  0.750000  0.050930  0.678821  1
  Dy  Dy3  1  0.750000  0.510980  0.828776  1
  Sc  Sc4  1  0.250000  0.868130  0.936115  1
  Sc  Sc5  1  0.750000  0.631768  0.437082  1
  Al  Al6  1  0.250000  0.363961  0.564780  1
  Ga  Ga7  1  0.750000  0.137800  0.066437  1
  Pt  Pt8  1  0.250000  0.240659  0.873413  1
  Pt  Pt9  1  0.250000  0.741398  0.611722  1
  Pt  Pt10  1  0.750000  0.759685  0.116463  1
  Pt  Pt11  1  0.750000  0.262967  0.385723  1
