# generated using pymatgen
data_Tl2ZnCl4
_symmetry_space_group_name_H-M   'P 1'
_cell_length_a   7.00741251
_cell_length_b   7.18411900
_cell_length_c   9.34457400
_cell_angle_alpha   90.00000000
_cell_angle_beta   109.29061191
_cell_angle_gamma   90.00000000
_symmetry_Int_Tables_number   1
_chemical_formula_structural   Tl2ZnCl4
_chemical_formula_sum   'Tl4 Zn2 Cl8'
_cell_volume   444.01335575
_cell_formula_units_Z   2
loop_
 _symmetry_equiv_pos_site_id
 _symmetry_equiv_pos_as_xyz
  1  'x, y, z'
loop_
 _atom_site_type_symbol
 _atom_site_label
 _atom_site_symmetry_multiplicity
 _atom_site_fract_x
 _atom_site_fract_y
 _atom_site_fract_z
 _atom_site_occupancy
  Tl  Tl0  1  0.782164  0.250000  0.074534  1
  Tl  Tl1  1  0.291292  0.750000  0.462684  1
  Tl  Tl2  1  0.708708  0.250000  0.537316  1
  Tl  Tl3  1  0.217836  0.750000  0.925466  1
  Zn  Zn4  1  0.711007  0.750000  0.286432  1
  Zn  Zn5  1  0.288994  0.250000  0.713567  1
  Cl  Cl6  1  0.932168  0.750000  0.154383  1
  Cl  Cl7  1  0.497200  0.498891  0.219669  1
  Cl  Cl8  1  0.497200  0.001109  0.219669  1
  Cl  Cl9  1  0.122011  0.250000  0.457525  1
  Cl  Cl10  1  0.877989  0.750000  0.542476  1
  Cl  Cl11  1  0.502800  0.998891  0.780330  1
  Cl  Cl12  1  0.502800  0.501109  0.780330  1
  Cl  Cl13  1  0.067832  0.250000  0.845616  1
