# generated using pymatgen
data_LiLu16In2AgRh4
_symmetry_space_group_name_H-M   'P 1'
_cell_length_a   9.48041689
_cell_length_b   9.48041713
_cell_length_c   9.49311281
_cell_angle_alpha   59.16785931
_cell_angle_beta   59.16785811
_cell_angle_gamma   59.11514742
_symmetry_Int_Tables_number   1
_chemical_formula_structural   LiLu16In2AgRh4
_chemical_formula_sum   'Li1 Lu16 In2 Ag1 Rh4'
_cell_volume   591.63732461
_cell_formula_units_Z   1
loop_
 _symmetry_equiv_pos_site_id
 _symmetry_equiv_pos_as_xyz
  1  'x, y, z'
loop_
 _atom_site_type_symbol
 _atom_site_label
 _atom_site_symmetry_multiplicity
 _atom_site_fract_x
 _atom_site_fract_y
 _atom_site_fract_z
 _atom_site_occupancy
  Li  Li0  1  0.823851  0.823851  0.811212  1
  Lu  Lu1  1  0.602521  0.602521  0.602256  1
  Lu  Lu2  1  0.599865  0.599865  0.199401  1
  Lu  Lu3  1  0.598772  0.203685  0.600215  1
  Lu  Lu4  1  0.203685  0.598772  0.600215  1
  Lu  Lu5  1  0.058375  0.440536  0.441264  1
  Lu  Lu6  1  0.437036  0.061753  0.061639  1
  Lu  Lu7  1  0.440536  0.058375  0.441264  1
  Lu  Lu8  1  0.061753  0.437036  0.061639  1
  Lu  Lu9  1  0.440030  0.440030  0.059799  1
  Lu  Lu10  1  0.063738  0.063738  0.435075  1
  Lu  Lu11  1  0.187344  0.812259  0.815993  1
  Lu  Lu12  1  0.813170  0.179249  0.194553  1
  Lu  Lu13  1  0.812259  0.187344  0.815993  1
  Lu  Lu14  1  0.179249  0.813170  0.194553  1
  Lu  Lu15  1  0.811480  0.811480  0.190779  1
  Lu  Lu16  1  0.184639  0.184639  0.818522  1
  In  In17  1  0.834363  0.504817  0.829760  1
  In  In18  1  0.504817  0.834363  0.829760  1
  Ag  Ag19  1  0.835983  0.835983  0.494028  1
  Rh  Rh20  1  0.392455  0.392455  0.393114  1
  Rh  Rh21  1  0.395197  0.395197  0.821832  1
  Rh  Rh22  1  0.397127  0.821755  0.393567  1
  Rh  Rh23  1  0.821755  0.397127  0.393567  1
