# generated using pymatgen
data_Ho4ErCoBi2
_symmetry_space_group_name_H-M   'P 1'
_cell_length_a   7.94611120
_cell_length_b   8.85696007
_cell_length_c   12.33476041
_cell_angle_alpha   89.98536762
_cell_angle_beta   90.02582013
_cell_angle_gamma   89.99956539
_symmetry_Int_Tables_number   1
_chemical_formula_structural   Ho4ErCoBi2
_chemical_formula_sum   'Ho16 Er4 Co4 Bi8'
_cell_volume   868.10045808
_cell_formula_units_Z   4
loop_
 _symmetry_equiv_pos_site_id
 _symmetry_equiv_pos_as_xyz
  1  'x, y, z'
loop_
 _atom_site_type_symbol
 _atom_site_label
 _atom_site_symmetry_multiplicity
 _atom_site_fract_x
 _atom_site_fract_y
 _atom_site_fract_z
 _atom_site_occupancy
  Ho  Ho0  1  0.346595  0.749862  0.699451  1
  Ho  Ho1  1  0.653233  0.250059  0.300522  1
  Ho  Ho2  1  0.846474  0.250130  0.800254  1
  Ho  Ho3  1  0.153711  0.749894  0.199762  1
  Ho  Ho4  1  0.885487  0.749898  0.811011  1
  Ho  Ho5  1  0.114884  0.250184  0.188976  1
  Ho  Ho6  1  0.385287  0.250109  0.688617  1
  Ho  Ho7  1  0.614325  0.749758  0.311421  1
  Ho  Ho8  1  0.824934  0.538133  0.062877  1
  Ho  Ho9  1  0.675087  0.961813  0.562825  1
  Ho  Ho10  1  0.824779  0.961876  0.062884  1
  Ho  Ho11  1  0.175188  0.038243  0.937034  1
  Ho  Ho12  1  0.053311  0.749833  0.498024  1
  Ho  Ho13  1  0.947375  0.250228  0.501921  1
  Ho  Ho14  1  0.552464  0.250194  0.001868  1
  Ho  Ho15  1  0.447009  0.749764  0.998108  1
  Er  Er16  1  0.674502  0.537839  0.562702  1
  Er  Er17  1  0.325732  0.461124  0.437277  1
  Er  Er18  1  0.174145  0.462221  0.937148  1
  Er  Er19  1  0.325430  0.038846  0.437271  1
  Co  Co20  1  0.066647  0.749750  0.991706  1
  Co  Co21  1  0.934178  0.250305  0.008160  1
  Co  Co22  1  0.565555  0.250232  0.508011  1
  Co  Co23  1  0.433626  0.749693  0.491824  1
  Bi  Bi24  1  0.571535  0.509617  0.826637  1
  Bi  Bi25  1  0.428173  0.490276  0.173427  1
  Bi  Bi26  1  0.071404  0.490310  0.673247  1
  Bi  Bi27  1  0.428084  0.009718  0.173463  1
  Bi  Bi28  1  0.928655  0.509643  0.326861  1
  Bi  Bi29  1  0.571860  0.990325  0.826669  1
  Bi  Bi30  1  0.928581  0.990390  0.326826  1
  Bi  Bi31  1  0.071750  0.009732  0.673217  1
