# generated using pymatgen
data_Lu6Ti4Al12Ru2Rh5
_symmetry_space_group_name_H-M   'P 1'
_cell_length_a   8.91850817
_cell_length_b   8.92726625
_cell_length_c   8.92726791
_cell_angle_alpha   59.87594605
_cell_angle_beta   60.03245150
_cell_angle_gamma   60.03244572
_symmetry_Int_Tables_number   1
_chemical_formula_structural   Lu6Ti4Al12Ru2Rh5
_chemical_formula_sum   'Lu6 Ti4 Al12 Ru2 Rh5'
_cell_volume   502.36327439
_cell_formula_units_Z   1
loop_
 _symmetry_equiv_pos_site_id
 _symmetry_equiv_pos_as_xyz
  1  'x, y, z'
loop_
 _atom_site_type_symbol
 _atom_site_label
 _atom_site_symmetry_multiplicity
 _atom_site_fract_x
 _atom_site_fract_y
 _atom_site_fract_z
 _atom_site_occupancy
  Lu  Lu0  1  0.706601  0.293399  0.293399  1
  Lu  Lu1  1  0.703420  0.293434  0.706515  1
  Lu  Lu2  1  0.703420  0.706515  0.293434  1
  Lu  Lu3  1  0.293912  0.706088  0.706088  1
  Lu  Lu4  1  0.296632  0.706515  0.293434  1
  Lu  Lu5  1  0.296632  0.293434  0.706515  1
  Ti  Ti6  1  0.643952  0.117549  0.117549  1
  Ti  Ti7  1  0.118325  0.644524  0.118825  1
  Ti  Ti8  1  0.118325  0.118825  0.644524  1
  Ti  Ti9  1  0.120951  0.117549  0.117549  1
  Al  Al10  1  0.356283  0.881837  0.881837  1
  Al  Al11  1  0.881386  0.356148  0.881081  1
  Al  Al12  1  0.881386  0.881081  0.356148  1
  Al  Al13  1  0.880044  0.881837  0.881837  1
  Al  Al14  1  0.009840  0.330152  0.330152  1
  Al  Al15  1  0.329356  0.011487  0.329802  1
  Al  Al16  1  0.329356  0.329802  0.011487  1
  Al  Al17  1  0.329857  0.330152  0.330152  1
  Al  Al18  1  0.989639  0.669910  0.669910  1
  Al  Al19  1  0.670771  0.987462  0.670998  1
  Al  Al20  1  0.670771  0.670998  0.987462  1
  Al  Al21  1  0.670544  0.669910  0.669910  1
  Ru  Ru22  1  0.000366  0.999634  0.999634  1
  Ru  Ru23  1  0.498264  0.001736  0.001736  1
  Rh  Rh24  1  0.498268  0.000788  0.499778  1
  Rh  Rh25  1  0.498268  0.499778  0.000788  1
  Rh  Rh26  1  0.001103  0.498897  0.498897  1
  Rh  Rh27  1  0.001165  0.499778  0.000788  1
  Rh  Rh28  1  0.001165  0.000788  0.499778  1
