# generated using pymatgen
data_Eu4Mg4Mn3H22
_symmetry_space_group_name_H-M   'P 1'
_cell_length_a   6.77100100
_cell_length_b   6.77100100
_cell_length_c   6.77100100
_cell_angle_alpha   90.00000000
_cell_angle_beta   90.00000000
_cell_angle_gamma   90.00000000
_symmetry_Int_Tables_number   1
_chemical_formula_structural   Eu4Mg4Mn3H22
_chemical_formula_sum   'Eu4 Mg4 Mn3 H22'
_cell_volume   310.42638955
_cell_formula_units_Z   1
loop_
 _symmetry_equiv_pos_site_id
 _symmetry_equiv_pos_as_xyz
  1  'x, y, z'
loop_
 _atom_site_type_symbol
 _atom_site_label
 _atom_site_symmetry_multiplicity
 _atom_site_fract_x
 _atom_site_fract_y
 _atom_site_fract_z
 _atom_site_occupancy
  Eu  Eu0  1  0.289135  0.289135  0.710865  1
  Eu  Eu1  1  0.289135  0.710865  0.289135  1
  Eu  Eu2  1  0.710865  0.289135  0.289135  1
  Eu  Eu3  1  0.710865  0.710865  0.710865  1
  Mg  Mg4  1  0.789740  0.789740  0.210260  1
  Mg  Mg5  1  0.789740  0.210260  0.789740  1
  Mg  Mg6  1  0.210260  0.789740  0.789740  1
  Mg  Mg7  1  0.210260  0.210260  0.210260  1
  Mn  Mn8  1  0.000000  0.000000  0.500000  1
  Mn  Mn9  1  0.000000  0.500000  0.000000  1
  Mn  Mn10  1  0.500000  0.000000  0.000000  1
  H  H11  1  0.000000  0.500000  0.241677  1
  H  H12  1  0.500000  0.758323  0.000000  1
  H  H13  1  0.758323  0.000000  0.500000  1
  H  H14  1  0.000000  0.758323  0.500000  1
  H  H15  1  0.500000  0.000000  0.241677  1
  H  H16  1  0.758323  0.500000  0.000000  1
  H  H17  1  0.000000  0.500000  0.758323  1
  H  H18  1  0.500000  0.241677  0.000000  1
  H  H19  1  0.000000  0.241677  0.500000  1
  H  H20  1  0.500000  0.000000  0.758323  1
  H  H21  1  0.241677  0.000000  0.500000  1
  H  H22  1  0.241677  0.500000  0.000000  1
  H  H23  1  0.000000  0.000000  0.258157  1
  H  H24  1  0.000000  0.741843  0.000000  1
  H  H25  1  0.741843  0.000000  0.000000  1
  H  H26  1  0.000000  0.000000  0.741843  1
  H  H27  1  0.000000  0.258157  0.000000  1
  H  H28  1  0.258157  0.000000  0.000000  1
  H  H29  1  0.628858  0.628858  0.371142  1
  H  H30  1  0.628858  0.371142  0.628858  1
  H  H31  1  0.371142  0.628858  0.628858  1
  H  H32  1  0.371142  0.371142  0.371142  1
