# generated using pymatgen
data_Y6Tm4InSb5
_symmetry_space_group_name_H-M   'P 1'
_cell_length_a   6.36917500
_cell_length_b   8.93910177
_cell_length_c   8.95029302
_cell_angle_alpha   119.95865150
_cell_angle_beta   90.00000000
_cell_angle_gamma   89.99999359
_symmetry_Int_Tables_number   1
_chemical_formula_structural   Y6Tm4InSb5
_chemical_formula_sum   'Y6 Tm4 In1 Sb5'
_cell_volume   441.49495895
_cell_formula_units_Z   1
loop_
 _symmetry_equiv_pos_site_id
 _symmetry_equiv_pos_as_xyz
  1  'x, y, z'
loop_
 _atom_site_type_symbol
 _atom_site_label
 _atom_site_symmetry_multiplicity
 _atom_site_fract_x
 _atom_site_fract_y
 _atom_site_fract_z
 _atom_site_occupancy
  Y  Y0  1  0.749999  0.245041  0.000000  1
  Y  Y1  1  0.750001  0.753101  0.756517  1
  Y  Y2  1  0.750001  0.996584  0.243483  1
  Y  Y3  1  0.249999  0.755495  0.000000  1
  Y  Y4  1  0.249998  0.246892  0.245035  1
  Y  Y5  1  0.249998  0.001857  0.754965  1
  Tm  Tm6  1  0.499431  0.335120  0.669009  1
  Tm  Tm7  1  0.499431  0.666112  0.330991  1
  Tm  Tm8  1  0.000573  0.666112  0.330991  1
  Tm  Tm9  1  0.000573  0.335121  0.669009  1
  In  In10  1  0.750000  0.605691  0.000000  1
  Sb  Sb11  1  0.750000  0.390030  0.390566  1
  Sb  Sb12  1  0.750000  0.999465  0.609434  1
  Sb  Sb13  1  0.249999  0.392395  0.000000  1
  Sb  Sb14  1  0.250000  0.610012  0.609041  1
  Sb  Sb15  1  0.250000  0.000972  0.390959  1
