# generated using pymatgen
data_Gd7Er(Si3Pd)4
_symmetry_space_group_name_H-M   'P 1'
_cell_length_a   8.22902600
_cell_length_b   8.22514775
_cell_length_c   7.91886200
_cell_angle_alpha   90.00000000
_cell_angle_beta   90.00000000
_cell_angle_gamma   120.01559868
_symmetry_Int_Tables_number   1
_chemical_formula_structural   Gd7Er(Si3Pd)4
_chemical_formula_sum   'Gd7 Er1 Si12 Pd4'
_cell_volume   464.10608664
_cell_formula_units_Z   1
loop_
 _symmetry_equiv_pos_site_id
 _symmetry_equiv_pos_as_xyz
  1  'x, y, z'
loop_
 _atom_site_type_symbol
 _atom_site_label
 _atom_site_symmetry_multiplicity
 _atom_site_fract_x
 _atom_site_fract_y
 _atom_site_fract_z
 _atom_site_occupancy
  Gd  Gd0  1  0.489706  0.979412  0.750000  1
  Gd  Gd1  1  0.978930  0.489253  0.250000  1
  Gd  Gd2  1  0.020197  0.510165  0.750000  1
  Gd  Gd3  1  0.510324  0.489253  0.250000  1
  Gd  Gd4  1  0.489966  0.510165  0.750000  1
  Gd  Gd5  1  0.999981  0.999961  0.250000  1
  Gd  Gd6  1  0.000108  0.000217  0.750000  1
  Er  Er7  1  0.510257  0.020512  0.250000  1
  Si  Si8  1  0.165545  0.331089  0.002408  1
  Si  Si9  1  0.834754  0.669506  0.997903  1
  Si  Si10  1  0.669598  0.834906  0.002211  1
  Si  Si11  1  0.834754  0.669506  0.502097  1
  Si  Si12  1  0.330235  0.164754  0.999506  1
  Si  Si13  1  0.165545  0.331089  0.497592  1
  Si  Si14  1  0.165308  0.834906  0.002211  1
  Si  Si15  1  0.330235  0.164754  0.500494  1
  Si  Si16  1  0.834519  0.164754  0.999506  1
  Si  Si17  1  0.669598  0.834906  0.497789  1
  Si  Si18  1  0.834519  0.164754  0.500494  1
  Si  Si19  1  0.165308  0.834906  0.497789  1
  Pd  Pd20  1  0.334358  0.668718  0.039868  1
  Pd  Pd21  1  0.665950  0.331899  0.965668  1
  Pd  Pd22  1  0.665950  0.331899  0.534332  1
  Pd  Pd23  1  0.334358  0.668718  0.460132  1
