# generated using pymatgen
data_Dy12InNi4Ag
_symmetry_space_group_name_H-M   'P 1'
_cell_length_a   8.37902640
_cell_length_b   8.37902646
_cell_length_c   8.37902700
_cell_angle_alpha   112.50571836
_cell_angle_beta   109.37283088
_cell_angle_gamma   106.58937125
_symmetry_Int_Tables_number   1
_chemical_formula_structural   Dy12InNi4Ag
_chemical_formula_sum   'Dy12 In1 Ni4 Ag1'
_cell_volume   451.64413486
_cell_formula_units_Z   1
loop_
 _symmetry_equiv_pos_site_id
 _symmetry_equiv_pos_as_xyz
  1  'x, y, z'
loop_
 _atom_site_type_symbol
 _atom_site_label
 _atom_site_symmetry_multiplicity
 _atom_site_fract_x
 _atom_site_fract_y
 _atom_site_fract_z
 _atom_site_occupancy
  Dy  Dy0  1  0.422460  0.222910  0.199551  1
  Dy  Dy1  1  0.577540  0.777090  0.800449  1
  Dy  Dy2  1  0.023359  0.222910  0.800449  1
  Dy  Dy3  1  0.976641  0.777090  0.199551  1
  Dy  Dy4  1  0.183445  0.294925  0.478371  1
  Dy  Dy5  1  0.816555  0.705075  0.521629  1
  Dy  Dy6  1  0.183445  0.705075  0.888520  1
  Dy  Dy7  1  0.816555  0.294925  0.111480  1
  Dy  Dy8  1  0.321745  0.627673  0.305927  1
  Dy  Dy9  1  0.678255  0.372327  0.694073  1
  Dy  Dy10  1  0.321745  0.015819  0.694073  1
  Dy  Dy11  1  0.678255  0.984181  0.305927  1
  In  In12  1  0.500000  0.500000  0.000000  1
  Ni  Ni13  1  0.362002  0.000000  0.362002  1
  Ni  Ni14  1  0.637998  0.000000  0.637998  1
  Ni  Ni15  1  0.124046  0.624046  0.500000  1
  Ni  Ni16  1  0.875954  0.375954  0.500000  1
  Ag  Ag17  1  0.000000  0.000000  0.000000  1
