# generated using pymatgen
data_La2Pr3Rh2
_symmetry_space_group_name_H-M   'P 1'
_cell_length_a   9.25780873
_cell_length_b   9.25780928
_cell_length_c   7.34534227
_cell_angle_alpha   84.17622660
_cell_angle_beta   84.17622612
_cell_angle_gamma   42.45269639
_symmetry_Int_Tables_number   1
_chemical_formula_structural   La2Pr3Rh2
_chemical_formula_sum   'La4 Pr6 Rh4'
_cell_volume   422.40768532
_cell_formula_units_Z   2
loop_
 _symmetry_equiv_pos_site_id
 _symmetry_equiv_pos_as_xyz
  1  'x, y, z'
loop_
 _atom_site_type_symbol
 _atom_site_label
 _atom_site_symmetry_multiplicity
 _atom_site_fract_x
 _atom_site_fract_y
 _atom_site_fract_z
 _atom_site_occupancy
  La  La0  1  0.011100  0.799640  0.911963  1
  La  La1  1  0.200360  0.988900  0.588037  1
  La  La2  1  0.988900  0.200360  0.088037  1
  La  La3  1  0.799640  0.011100  0.411963  1
  Pr  Pr4  1  0.358140  0.211095  0.818109  1
  Pr  Pr5  1  0.788905  0.641860  0.681891  1
  Pr  Pr6  1  0.641860  0.788905  0.181891  1
  Pr  Pr7  1  0.211095  0.358140  0.318109  1
  Pr  Pr8  1  0.573239  0.426761  0.750000  1
  Pr  Pr9  1  0.426761  0.573239  0.250000  1
  Rh  Rh10  1  0.178137  0.601270  0.581770  1
  Rh  Rh11  1  0.398730  0.821863  0.918230  1
  Rh  Rh12  1  0.821863  0.398730  0.418230  1
  Rh  Rh13  1  0.601270  0.178137  0.081770  1
