# generated using pymatgen
data_Tb2MnAl20RuRh2
_symmetry_space_group_name_H-M   'P 1'
_cell_length_a   6.83128623
_cell_length_b   6.84683840
_cell_length_c   9.12962357
_cell_angle_alpha   89.80202567
_cell_angle_beta   89.87458642
_cell_angle_gamma   96.87846343
_symmetry_Int_Tables_number   1
_chemical_formula_structural   Tb2MnAl20RuRh2
_chemical_formula_sum   'Tb2 Mn1 Al20 Ru1 Rh2'
_cell_volume   423.93978712
_cell_formula_units_Z   1
loop_
 _symmetry_equiv_pos_site_id
 _symmetry_equiv_pos_as_xyz
  1  'x, y, z'
loop_
 _atom_site_type_symbol
 _atom_site_label
 _atom_site_symmetry_multiplicity
 _atom_site_fract_x
 _atom_site_fract_y
 _atom_site_fract_z
 _atom_site_occupancy
  Tb  Tb0  1  0.868417  0.123671  0.751742  1
  Tb  Tb1  1  0.131583  0.876329  0.248258  1
  Mn  Mn2  1  0.500000  0.000000  0.000000  1
  Al  Al3  1  0.620342  0.375683  0.549830  1
  Al  Al4  1  0.379658  0.624317  0.450170  1
  Al  Al5  1  0.381570  0.628827  0.048268  1
  Al  Al6  1  0.618430  0.371173  0.951732  1
  Al  Al7  1  0.225775  0.222963  0.499658  1
  Al  Al8  1  0.774225  0.777037  0.500342  1
  Al  Al9  1  0.770161  0.779819  0.997729  1
  Al  Al10  1  0.229839  0.220181  0.002271  1
  Al  Al11  1  0.838941  0.153058  0.099469  1
  Al  Al12  1  0.161059  0.846942  0.900531  1
  Al  Al13  1  0.156574  0.844443  0.601884  1
  Al  Al14  1  0.843426  0.155557  0.398116  1
  Al  Al15  1  0.857463  0.589681  0.750864  1
  Al  Al16  1  0.142537  0.410319  0.249136  1
  Al  Al17  1  0.412683  0.138424  0.753559  1
  Al  Al18  1  0.587317  0.861576  0.246441  1
  Al  Al19  1  0.223514  0.480012  0.749879  1
  Al  Al20  1  0.776486  0.519988  0.250121  1
  Al  Al21  1  0.518511  0.780834  0.753096  1
  Al  Al22  1  0.481489  0.219166  0.246904  1
  Ru  Ru23  1  0.500000  0.000000  0.500000  1
  Rh  Rh24  1  0.000000  0.500000  0.500000  1
  Rh  Rh25  1  0.000000  0.500000  0.000000  1
