# generated using pymatgen
data_ScTl(SeO3)2
_symmetry_space_group_name_H-M   'P 1'
_cell_length_a   5.71313200
_cell_length_b   7.25171400
_cell_length_c   17.77480600
_cell_angle_alpha   90.00000000
_cell_angle_beta   90.00000000
_cell_angle_gamma   90.00000000
_symmetry_Int_Tables_number   1
_chemical_formula_structural   ScTl(SeO3)2
_chemical_formula_sum   'Sc4 Tl4 Se8 O24'
_cell_volume   736.41020028
_cell_formula_units_Z   4
loop_
 _symmetry_equiv_pos_site_id
 _symmetry_equiv_pos_as_xyz
  1  'x, y, z'
loop_
 _atom_site_type_symbol
 _atom_site_label
 _atom_site_symmetry_multiplicity
 _atom_site_fract_x
 _atom_site_fract_y
 _atom_site_fract_z
 _atom_site_occupancy
  Sc  Sc0  1  0.750000  0.352857  0.868384  1
  Sc  Sc1  1  0.750000  0.147143  0.368384  1
  Sc  Sc2  1  0.250000  0.647143  0.131616  1
  Sc  Sc3  1  0.250000  0.852857  0.631616  1
  Tl  Tl4  1  0.750000  0.123550  0.086347  1
  Tl  Tl5  1  0.750000  0.376450  0.586347  1
  Tl  Tl6  1  0.250000  0.876450  0.913653  1
  Tl  Tl7  1  0.250000  0.623550  0.413653  1
  Se  Se8  1  0.250000  0.420346  0.748475  1
  Se  Se9  1  0.250000  0.079654  0.248475  1
  Se  Se10  1  0.750000  0.579654  0.251525  1
  Se  Se11  1  0.750000  0.920346  0.751525  1
  Se  Se12  1  0.250000  0.383933  0.967353  1
  Se  Se13  1  0.250000  0.116067  0.467353  1
  Se  Se14  1  0.750000  0.616067  0.032647  1
  Se  Se15  1  0.750000  0.883933  0.532647  1
  O  O16  1  0.250000  0.600389  0.685148  1
  O  O17  1  0.250000  0.899611  0.185148  1
  O  O18  1  0.750000  0.399611  0.314852  1
  O  O19  1  0.750000  0.100389  0.814852  1
  O  O20  1  0.483722  0.476808  0.805716  1
  O  O21  1  0.016278  0.023192  0.305716  1
  O  O22  1  0.983722  0.523192  0.194284  1
  O  O23  1  0.516278  0.976808  0.694284  1
  O  O24  1  0.516278  0.523192  0.194284  1
  O  O25  1  0.983722  0.976808  0.694284  1
  O  O26  1  0.016278  0.476808  0.805716  1
  O  O27  1  0.483722  0.023192  0.305716  1
  O  O28  1  0.250000  0.392057  0.064323  1
  O  O29  1  0.250000  0.107943  0.564323  1
  O  O30  1  0.750000  0.607943  0.935677  1
  O  O31  1  0.750000  0.892057  0.435677  1
  O  O32  1  0.487402  0.239439  0.949110  1
  O  O33  1  0.012598  0.260561  0.449110  1
  O  O34  1  0.987402  0.760561  0.050890  1
  O  O35  1  0.512598  0.739439  0.550890  1
  O  O36  1  0.512598  0.760561  0.050890  1
  O  O37  1  0.987402  0.739439  0.550890  1
  O  O38  1  0.012598  0.239439  0.949110  1
  O  O39  1  0.487402  0.260561  0.449110  1
