# generated using pymatgen
data_Th6RuPt7
_symmetry_space_group_name_H-M   'P 1'
_cell_length_a   8.16427445
_cell_length_b   8.16427447
_cell_length_c   8.16427426
_cell_angle_alpha   114.47457631
_cell_angle_beta   114.47456690
_cell_angle_gamma   114.47456847
_symmetry_Int_Tables_number   1
_chemical_formula_structural   Th6RuPt7
_chemical_formula_sum   'Th6 Ru1 Pt7'
_cell_volume   318.65700597
_cell_formula_units_Z   1
loop_
 _symmetry_equiv_pos_site_id
 _symmetry_equiv_pos_as_xyz
  1  'x, y, z'
loop_
 _atom_site_type_symbol
 _atom_site_label
 _atom_site_symmetry_multiplicity
 _atom_site_fract_x
 _atom_site_fract_y
 _atom_site_fract_z
 _atom_site_occupancy
  Th  Th0  1  0.395242  0.026355  0.273012  1
  Th  Th1  1  0.026355  0.273012  0.395242  1
  Th  Th2  1  0.273012  0.395242  0.026355  1
  Th  Th3  1  0.604758  0.973645  0.726988  1
  Th  Th4  1  0.973645  0.726988  0.604758  1
  Th  Th5  1  0.726988  0.604758  0.973645  1
  Ru  Ru6  1  0.000000  0.000000  0.000000  1
  Pt  Pt7  1  0.500000  0.500000  0.500000  1
  Pt  Pt8  1  0.232966  0.069657  0.571101  1
  Pt  Pt9  1  0.069657  0.571101  0.232966  1
  Pt  Pt10  1  0.571101  0.232966  0.069657  1
  Pt  Pt11  1  0.767034  0.930343  0.428899  1
  Pt  Pt12  1  0.930343  0.428899  0.767034  1
  Pt  Pt13  1  0.428899  0.767034  0.930343  1
