# generated using pymatgen
data_Lu4ScGaNiBi
_symmetry_space_group_name_H-M   'P 1'
_cell_length_a   8.34100132
_cell_length_b   8.34100147
_cell_length_c   8.51875638
_cell_angle_alpha   125.43116275
_cell_angle_beta   125.43115839
_cell_angle_gamma   79.38797377
_symmetry_Int_Tables_number   1
_chemical_formula_structural   Lu4ScGaNiBi
_chemical_formula_sum   'Lu8 Sc2 Ga2 Ni2 Bi2'
_cell_volume   383.04462682
_cell_formula_units_Z   2
loop_
 _symmetry_equiv_pos_site_id
 _symmetry_equiv_pos_as_xyz
  1  'x, y, z'
loop_
 _atom_site_type_symbol
 _atom_site_label
 _atom_site_symmetry_multiplicity
 _atom_site_fract_x
 _atom_site_fract_y
 _atom_site_fract_z
 _atom_site_occupancy
  Lu  Lu0  1  0.779107  0.279107  0.790444  1
  Lu  Lu1  1  0.220893  0.720893  0.209556  1
  Lu  Lu2  1  0.488664  0.988664  0.209556  1
  Lu  Lu3  1  0.306136  0.460057  0.500000  1
  Lu  Lu4  1  0.039943  0.193864  0.500000  1
  Lu  Lu5  1  0.511336  0.011336  0.790444  1
  Lu  Lu6  1  0.693864  0.539943  0.500000  1
  Lu  Lu7  1  0.960057  0.806136  0.500000  1
  Sc  Sc8  1  0.000000  0.000000  0.000000  1
  Sc  Sc9  1  0.500000  0.500000  0.000000  1
  Ga  Ga10  1  0.139653  0.639653  0.779306  1
  Ga  Ga11  1  0.860347  0.360347  0.220694  1
  Ni  Ni12  1  0.630903  0.869097  0.500000  1
  Ni  Ni13  1  0.369097  0.130903  0.500000  1
  Bi  Bi14  1  0.250000  0.250000  0.000000  1
  Bi  Bi15  1  0.750000  0.750000  0.000000  1
