# generated using pymatgen
data_Tb12Co5Sn
_symmetry_space_group_name_H-M   'P 1'
_cell_length_a   8.26227660
_cell_length_b   8.26227739
_cell_length_c   8.26227748
_cell_angle_alpha   110.81324391
_cell_angle_beta   110.66620735
_cell_angle_gamma   106.96299387
_symmetry_Int_Tables_number   1
_chemical_formula_structural   Tb12Co5Sn
_chemical_formula_sum   'Tb12 Co5 Sn1'
_cell_volume   433.56616224
_cell_formula_units_Z   1
loop_
 _symmetry_equiv_pos_site_id
 _symmetry_equiv_pos_as_xyz
  1  'x, y, z'
loop_
 _atom_site_type_symbol
 _atom_site_label
 _atom_site_symmetry_multiplicity
 _atom_site_fract_x
 _atom_site_fract_y
 _atom_site_fract_z
 _atom_site_occupancy
  Tb  Tb0  1  0.813525  0.707242  0.520766  1
  Tb  Tb1  1  0.186475  0.292758  0.479234  1
  Tb  Tb2  1  0.186475  0.707242  0.893718  1
  Tb  Tb3  1  0.813525  0.292758  0.106282  1
  Tb  Tb4  1  0.685765  0.380468  0.694703  1
  Tb  Tb5  1  0.314235  0.619532  0.305297  1
  Tb  Tb6  1  0.685765  0.991062  0.305297  1
  Tb  Tb7  1  0.314235  0.008938  0.694703  1
  Tb  Tb8  1  0.599798  0.792086  0.807713  1
  Tb  Tb9  1  0.400202  0.207914  0.192287  1
  Tb  Tb10  1  0.984373  0.792086  0.192287  1
  Tb  Tb11  1  0.015627  0.207914  0.807713  1
  Co  Co12  1  0.624228  0.000000  0.624228  1
  Co  Co13  1  0.375772  0.000000  0.375772  1
  Co  Co14  1  0.112764  0.612764  0.500000  1
  Co  Co15  1  0.887236  0.387236  0.500000  1
  Co  Co16  1  0.000000  0.000000  0.000000  1
  Sn  Sn17  1  0.500000  0.500000  0.000000  1
