# generated using pymatgen
data_Ho5Tm6LuCo4
_symmetry_space_group_name_H-M   'P 1'
_cell_length_a   6.15403795
_cell_length_b   6.89560420
_cell_length_c   9.27259500
_cell_angle_alpha   90.01335261
_cell_angle_beta   89.73879005
_cell_angle_gamma   90.00362541
_symmetry_Int_Tables_number   1
_chemical_formula_structural   Ho5Tm6LuCo4
_chemical_formula_sum   'Ho5 Tm6 Lu1 Co4'
_cell_volume   393.48597864
_cell_formula_units_Z   1
loop_
 _symmetry_equiv_pos_site_id
 _symmetry_equiv_pos_as_xyz
  1  'x, y, z'
loop_
 _atom_site_type_symbol
 _atom_site_label
 _atom_site_symmetry_multiplicity
 _atom_site_fract_x
 _atom_site_fract_y
 _atom_site_fract_z
 _atom_site_occupancy
  Ho  Ho0  1  0.138564  0.458994  0.751316  1
  Ho  Ho1  1  0.361653  0.959096  0.751058  1
  Ho  Ho2  1  0.861103  0.540400  0.248510  1
  Ho  Ho3  1  0.638897  0.041307  0.249937  1
  Ho  Ho4  1  0.322555  0.674688  0.431588  1
  Tm  Tm5  1  0.675834  0.325053  0.933406  1
  Tm  Tm6  1  0.174824  0.174302  0.432573  1
  Tm  Tm7  1  0.823704  0.824779  0.568944  1
  Tm  Tm8  1  0.176833  0.175379  0.067612  1
  Tm  Tm9  1  0.824985  0.825688  0.933774  1
  Tm  Tm10  1  0.676033  0.324809  0.568710  1
  Lu  Lu11  1  0.325498  0.675193  0.065856  1
  Co  Co12  1  0.550422  0.613781  0.754194  1
  Co  Co13  1  0.950197  0.113815  0.748780  1
  Co  Co14  1  0.049251  0.886515  0.246986  1
  Co  Co15  1  0.449646  0.386201  0.246757  1
