# generated using pymatgen
data_Zn3(SbO4)2
_symmetry_space_group_name_H-M   'P 1'
_cell_length_a   6.16187647
_cell_length_b   6.16187695
_cell_length_c   9.71964456
_cell_angle_alpha   71.54564847
_cell_angle_beta   71.54565218
_cell_angle_gamma   87.12984222
_symmetry_Int_Tables_number   1
_chemical_formula_structural   Zn3(SbO4)2
_chemical_formula_sum   'Zn6 Sb4 O16'
_cell_volume   331.54749116
_cell_formula_units_Z   2
loop_
 _symmetry_equiv_pos_site_id
 _symmetry_equiv_pos_as_xyz
  1  'x, y, z'
loop_
 _atom_site_type_symbol
 _atom_site_label
 _atom_site_symmetry_multiplicity
 _atom_site_fract_x
 _atom_site_fract_y
 _atom_site_fract_z
 _atom_site_occupancy
  Zn  Zn0  1  0.758113  0.241887  0.750000  1
  Zn  Zn1  1  0.241886  0.758114  0.250000  1
  Zn  Zn2  1  0.677853  0.641341  0.005000  1
  Zn  Zn3  1  0.358659  0.322147  0.495000  1
  Zn  Zn4  1  0.322147  0.358659  0.995000  1
  Zn  Zn5  1  0.641341  0.677853  0.505000  1
  Sb  Sb6  1  0.068056  0.786411  0.624566  1
  Sb  Sb7  1  0.213589  0.931944  0.875434  1
  Sb  Sb8  1  0.931944  0.213590  0.375434  1
  Sb  Sb9  1  0.786410  0.068056  0.124567  1
  O  O10  1  0.179236  0.424170  0.354265  1
  O  O11  1  0.575830  0.820764  0.145735  1
  O  O12  1  0.820764  0.575830  0.645735  1
  O  O13  1  0.424170  0.179236  0.854265  1
  O  O14  1  0.313247  0.579219  0.589968  1
  O  O15  1  0.420781  0.686753  0.910032  1
  O  O16  1  0.686754  0.420781  0.410032  1
  O  O17  1  0.579219  0.313246  0.089968  1
  O  O18  1  0.989419  0.710771  0.855660  1
  O  O19  1  0.289229  0.010581  0.644340  1
  O  O20  1  0.056625  0.854294  0.106797  1
  O  O21  1  0.145706  0.943375  0.393203  1
  O  O22  1  0.943374  0.145706  0.893203  1
  O  O23  1  0.854294  0.056626  0.606797  1
  O  O24  1  0.710771  0.989419  0.355660  1
  O  O25  1  0.010581  0.289229  0.144340  1
