# generated using pymatgen
data_Dy2Er4TiAl23Ru8
_symmetry_space_group_name_H-M   'P 1'
_cell_length_a   8.81943800
_cell_length_b   8.81231769
_cell_length_c   9.54588801
_cell_angle_alpha   89.99658035
_cell_angle_beta   90.00000000
_cell_angle_gamma   120.02672434
_symmetry_Int_Tables_number   1
_chemical_formula_structural   Dy2Er4TiAl23Ru8
_chemical_formula_sum   'Dy2 Er4 Ti1 Al23 Ru8'
_cell_volume   642.33414316
_cell_formula_units_Z   1
loop_
 _symmetry_equiv_pos_site_id
 _symmetry_equiv_pos_as_xyz
  1  'x, y, z'
loop_
 _atom_site_type_symbol
 _atom_site_label
 _atom_site_symmetry_multiplicity
 _atom_site_fract_x
 _atom_site_fract_y
 _atom_site_fract_z
 _atom_site_occupancy
  Dy  Dy0  1  0.194171  0.388342  0.250090  1
  Dy  Dy1  1  0.806465  0.612932  0.748998  1
  Er  Er2  1  0.611385  0.805684  0.250032  1
  Er  Er3  1  0.387390  0.193692  0.749017  1
  Er  Er4  1  0.194300  0.805684  0.250032  1
  Er  Er5  1  0.806301  0.193692  0.749017  1
  Ti  Ti6  1  0.333450  0.666901  0.996377  1
  Al  Al7  1  0.666572  0.333142  0.982625  1
  Al  Al8  1  0.666577  0.333153  0.515347  1
  Al  Al9  1  0.333432  0.666865  0.482939  1
  Al  Al10  1  0.161499  0.322998  0.577672  1
  Al  Al11  1  0.838116  0.676232  0.422068  1
  Al  Al12  1  0.676960  0.838673  0.577456  1
  Al  Al13  1  0.837679  0.675360  0.078443  1
  Al  Al14  1  0.323790  0.161723  0.422311  1
  Al  Al15  1  0.158779  0.317558  0.923022  1
  Al  Al16  1  0.161712  0.838673  0.577456  1
  Al  Al17  1  0.324719  0.162227  0.078223  1
  Al  Al18  1  0.837933  0.161723  0.422311  1
  Al  Al19  1  0.682399  0.841329  0.923300  1
  Al  Al20  1  0.837507  0.162227  0.078223  1
  Al  Al21  1  0.158930  0.841329  0.923300  1
  Al  Al22  1  0.561596  0.123193  0.252222  1
  Al  Al23  1  0.440098  0.880195  0.750404  1
  Al  Al24  1  0.876513  0.438435  0.252189  1
  Al  Al25  1  0.120087  0.559845  0.750448  1
  Al  Al26  1  0.561921  0.438435  0.252189  1
  Al  Al27  1  0.439757  0.559845  0.750448  1
  Al  Al28  1  0.999805  0.999611  0.249227  1
  Al  Al29  1  0.000189  0.000378  0.748876  1
  Ru  Ru30  1  0.498340  0.996680  0.002667  1
  Ru  Ru31  1  0.003231  0.501646  0.002665  1
  Ru  Ru32  1  0.499749  0.999497  0.503159  1
  Ru  Ru33  1  0.498416  0.501646  0.002665  1
  Ru  Ru34  1  0.000555  0.500232  0.503109  1
  Ru  Ru35  1  0.499677  0.500232  0.503109  1
  Ru  Ru36  1  0.000018  0.000036  0.999749  1
  Ru  Ru37  1  0.999980  0.999961  0.498616  1
