# generated using pymatgen
data_Ce2IrN2
_symmetry_space_group_name_H-M   'P 1'
_cell_length_a   3.56777700
_cell_length_b   3.56785100
_cell_length_c   12.48940700
_cell_angle_alpha   90.00000000
_cell_angle_beta   90.00000000
_cell_angle_gamma   90.00000000
_symmetry_Int_Tables_number   1
_chemical_formula_structural   Ce2IrN2
_chemical_formula_sum   'Ce4 Ir2 N4'
_cell_volume   158.98136778
_cell_formula_units_Z   2
loop_
 _symmetry_equiv_pos_site_id
 _symmetry_equiv_pos_as_xyz
  1  'x, y, z'
loop_
 _atom_site_type_symbol
 _atom_site_label
 _atom_site_symmetry_multiplicity
 _atom_site_fract_x
 _atom_site_fract_y
 _atom_site_fract_z
 _atom_site_occupancy
  Ce  Ce0  1  0.750000  0.749580  0.101906  1
  Ce  Ce1  1  0.750000  0.749580  0.398094  1
  Ce  Ce2  1  0.250000  0.250420  0.898094  1
  Ce  Ce3  1  0.250000  0.250420  0.601906  1
  Ir  Ir4  1  0.750000  0.750503  0.750000  1
  Ir  Ir5  1  0.250000  0.249497  0.250000  1
  N  N6  1  0.750000  0.750793  0.583980  1
  N  N7  1  0.750000  0.750793  0.916020  1
  N  N8  1  0.250000  0.249207  0.416020  1
  N  N9  1  0.250000  0.249207  0.083980  1
