# generated using pymatgen
data_Dy3Mg3Ge2Pt
_symmetry_space_group_name_H-M   'P 1'
_cell_length_a   7.21924100
_cell_length_b   7.21924116
_cell_length_c   4.33053500
_cell_angle_alpha   90.00000000
_cell_angle_beta   90.00000000
_cell_angle_gamma   120.00000384
_symmetry_Int_Tables_number   1
_chemical_formula_structural   Dy3Mg3Ge2Pt
_chemical_formula_sum   'Dy3 Mg3 Ge2 Pt1'
_cell_volume   195.45881336
_cell_formula_units_Z   1
loop_
 _symmetry_equiv_pos_site_id
 _symmetry_equiv_pos_as_xyz
  1  'x, y, z'
loop_
 _atom_site_type_symbol
 _atom_site_label
 _atom_site_symmetry_multiplicity
 _atom_site_fract_x
 _atom_site_fract_y
 _atom_site_fract_z
 _atom_site_occupancy
  Dy  Dy0  1  0.412300  0.000000  0.000000  1
  Dy  Dy1  1  0.000000  0.412301  0.000000  1
  Dy  Dy2  1  0.587700  0.587700  0.000000  1
  Mg  Mg3  1  0.760891  0.000000  0.499999  1
  Mg  Mg4  1  0.239109  0.239109  0.499999  1
  Mg  Mg5  1  0.000000  0.760891  0.499999  1
  Ge  Ge6  1  0.666667  0.333334  0.499999  1
  Ge  Ge7  1  0.333334  0.666667  0.499999  1
  Pt  Pt8  1  0.000000  0.000000  0.000000  1
