# generated using pymatgen
data_BaVAsF12
_symmetry_space_group_name_H-M   'P 1'
_cell_length_a   5.62906200
_cell_length_b   5.78368500
_cell_length_c   8.35486300
_cell_angle_alpha   90.00000000
_cell_angle_beta   90.00000000
_cell_angle_gamma   90.00000000
_symmetry_Int_Tables_number   1
_chemical_formula_structural   BaVAsF12
_chemical_formula_sum   'Ba1 V1 As1 F12'
_cell_volume   272.00694747
_cell_formula_units_Z   1
loop_
 _symmetry_equiv_pos_site_id
 _symmetry_equiv_pos_as_xyz
  1  'x, y, z'
loop_
 _atom_site_type_symbol
 _atom_site_label
 _atom_site_symmetry_multiplicity
 _atom_site_fract_x
 _atom_site_fract_y
 _atom_site_fract_z
 _atom_site_occupancy
  Ba  Ba0  1  0.000000  0.000000  0.003313  1
  V  V1  1  0.500000  0.000000  0.729275  1
  As  As2  1  0.000000  0.500000  0.264770  1
  F  F3  1  0.270058  0.217314  0.750623  1
  F  F4  1  0.729942  0.782686  0.750623  1
  F  F5  1  0.219324  0.720202  0.250835  1
  F  F6  1  0.780676  0.279798  0.250835  1
  F  F7  1  0.000000  0.500000  0.471431  1
  F  F8  1  0.500000  0.000000  0.520231  1
  F  F9  1  0.000000  0.500000  0.043884  1
  F  F10  1  0.500000  0.000000  0.961263  1
  F  F11  1  0.219324  0.279798  0.250835  1
  F  F12  1  0.780676  0.720202  0.250835  1
  F  F13  1  0.270058  0.782686  0.750623  1
  F  F14  1  0.729942  0.217314  0.750623  1
