# generated using pymatgen
data_Tb2Dy2Al4IrPt3
_symmetry_space_group_name_H-M   'P 1'
_cell_length_a   4.42700500
_cell_length_b   6.84781840
_cell_length_c   7.80748233
_cell_angle_alpha   90.01998162
_cell_angle_beta   90.00000000
_cell_angle_gamma   90.00000000
_symmetry_Int_Tables_number   1
_chemical_formula_structural   Tb2Dy2Al4IrPt3
_chemical_formula_sum   'Tb2 Dy2 Al4 Ir1 Pt3'
_cell_volume   236.68636003
_cell_formula_units_Z   1
loop_
 _symmetry_equiv_pos_site_id
 _symmetry_equiv_pos_as_xyz
  1  'x, y, z'
loop_
 _atom_site_type_symbol
 _atom_site_label
 _atom_site_symmetry_multiplicity
 _atom_site_fract_x
 _atom_site_fract_y
 _atom_site_fract_z
 _atom_site_occupancy
  Tb  Tb0  1  0.250000  0.469681  0.180497  1
  Tb  Tb1  1  0.250000  0.967053  0.321413  1
  Dy  Dy2  1  0.750000  0.532387  0.816766  1
  Dy  Dy3  1  0.750000  0.024974  0.680566  1
  Al  Al4  1  0.250000  0.853534  0.935438  1
  Al  Al5  1  0.750000  0.145502  0.061317  1
  Al  Al6  1  0.750000  0.645239  0.439329  1
  Al  Al7  1  0.250000  0.359943  0.563767  1
  Ir  Ir8  1  0.250000  0.730851  0.618158  1
  Pt  Pt9  1  0.750000  0.271655  0.382398  1
  Pt  Pt10  1  0.750000  0.772806  0.118043  1
  Pt  Pt11  1  0.250000  0.226375  0.882308  1
