# generated using pymatgen
data_LiTh2BRh5
_symmetry_space_group_name_H-M   'P 1'
_cell_length_a   5.91880242
_cell_length_b   5.91880210
_cell_length_c   6.03566200
_cell_angle_alpha   59.34468988
_cell_angle_beta   59.34469170
_cell_angle_gamma   61.31059184
_symmetry_Int_Tables_number   1
_chemical_formula_structural   LiTh2BRh5
_chemical_formula_sum   'Li1 Th2 B1 Rh5'
_cell_volume   149.39356828
_cell_formula_units_Z   1
loop_
 _symmetry_equiv_pos_site_id
 _symmetry_equiv_pos_as_xyz
  1  'x, y, z'
loop_
 _atom_site_type_symbol
 _atom_site_label
 _atom_site_symmetry_multiplicity
 _atom_site_fract_x
 _atom_site_fract_y
 _atom_site_fract_z
 _atom_site_occupancy
  Li  Li0  1  0.779866  0.779866  0.220134  1
  Th  Th1  1  0.748360  0.748360  0.751640  1
  Th  Th2  1  0.248360  0.248360  0.251640  1
  B  B3  1  0.488265  0.488265  0.511735  1
  Rh  Rh4  1  0.749014  0.250340  0.250986  1
  Rh  Rh5  1  0.250340  0.749014  0.250986  1
  Rh  Rh6  1  0.236441  0.236441  0.763559  1
  Rh  Rh7  1  0.749014  0.250340  0.749660  1
  Rh  Rh8  1  0.250340  0.749014  0.749660  1
