# generated using pymatgen
data_Zr3AlTc3P2
_symmetry_space_group_name_H-M   'P 1'
_cell_length_a   6.88891400
_cell_length_b   6.88891268
_cell_length_c   3.53009500
_cell_angle_alpha   90.00000000
_cell_angle_beta   90.00000000
_cell_angle_gamma   120.00000636
_symmetry_Int_Tables_number   1
_chemical_formula_structural   Zr3AlTc3P2
_chemical_formula_sum   'Zr3 Al1 Tc3 P2'
_cell_volume   145.08363889
_cell_formula_units_Z   1
loop_
 _symmetry_equiv_pos_site_id
 _symmetry_equiv_pos_as_xyz
  1  'x, y, z'
loop_
 _atom_site_type_symbol
 _atom_site_label
 _atom_site_symmetry_multiplicity
 _atom_site_fract_x
 _atom_site_fract_y
 _atom_site_fract_z
 _atom_site_occupancy
  Zr  Zr0  1  0.412026  0.412026  0.500000  1
  Zr  Zr1  1  0.587974  0.000000  0.500000  1
  Zr  Zr2  1  0.000000  0.587974  0.500000  1
  Al  Al3  1  0.000000  0.000000  0.500000  1
  Tc  Tc4  1  0.740573  0.740573  0.000000  1
  Tc  Tc5  1  0.259427  0.000000  0.000000  1
  Tc  Tc6  1  0.000000  0.259427  0.000000  1
  P  P7  1  0.666667  0.333333  0.000000  1
  P  P8  1  0.333333  0.666667  0.000000  1
