# generated using pymatgen
data_DyHo7Tc3B24Ru
_symmetry_space_group_name_H-M   'P 1'
_cell_length_a   3.66592200
_cell_length_b   9.13554029
_cell_length_c   11.51799000
_cell_angle_alpha   89.91949939
_cell_angle_beta   90.00000000
_cell_angle_gamma   90.00000000
_symmetry_Int_Tables_number   1
_chemical_formula_structural   DyHo7Tc3B24Ru
_chemical_formula_sum   'Dy1 Ho7 Tc3 B24 Ru1'
_cell_volume   385.73915596
_cell_formula_units_Z   1
loop_
 _symmetry_equiv_pos_site_id
 _symmetry_equiv_pos_as_xyz
  1  'x, y, z'
loop_
 _atom_site_type_symbol
 _atom_site_label
 _atom_site_symmetry_multiplicity
 _atom_site_fract_x
 _atom_site_fract_y
 _atom_site_fract_z
 _atom_site_occupancy
  Dy  Dy0  1  0.000000  0.323668  0.413876  1
  Ho  Ho1  1  0.000000  0.675105  0.583972  1
  Ho  Ho2  1  0.000000  0.823089  0.087302  1
  Ho  Ho3  1  0.000000  0.177848  0.914591  1
  Ho  Ho4  1  0.000000  0.942540  0.370260  1
  Ho  Ho5  1  0.000000  0.057529  0.630653  1
  Ho  Ho6  1  0.000000  0.443205  0.129980  1
  Ho  Ho7  1  0.000000  0.557823  0.869298  1
  Tc  Tc8  1  0.000000  0.638453  0.320542  1
  Tc  Tc9  1  0.000000  0.361706  0.680027  1
  Tc  Tc10  1  0.000000  0.137892  0.178259  1
  B  B11  1  0.500000  0.553220  0.432841  1
  B  B12  1  0.500000  0.446746  0.566858  1
  B  B13  1  0.500000  0.053071  0.066791  1
  B  B14  1  0.500000  0.946101  0.932866  1
  B  B15  1  0.500000  0.748574  0.418849  1
  B  B16  1  0.500000  0.250797  0.581444  1
  B  B17  1  0.500000  0.249160  0.081073  1
  B  B18  1  0.500000  0.751555  0.918573  1
  B  B19  1  0.500000  0.791821  0.265536  1
  B  B20  1  0.500000  0.208328  0.735249  1
  B  B21  1  0.500000  0.291708  0.234439  1
  B  B22  1  0.500000  0.709188  0.765253  1
  B  B23  1  0.500000  0.631258  0.185468  1
  B  B24  1  0.500000  0.368975  0.815008  1
  B  B25  1  0.500000  0.130482  0.314057  1
  B  B26  1  0.500000  0.868732  0.685713  1
  B  B27  1  0.500000  0.981823  0.211834  1
  B  B28  1  0.500000  0.016728  0.788380  1
  B  B29  1  0.500000  0.482397  0.287806  1
  B  B30  1  0.500000  0.517765  0.711683  1
  B  B31  1  0.500000  0.602476  0.028127  1
  B  B32  1  0.500000  0.399159  0.971507  1
  B  B33  1  0.500000  0.101500  0.472084  1
  B  B34  1  0.500000  0.897912  0.528817  1
  Ru  Ru35  1  0.000000  0.861666  0.820986  1
