# generated using pymatgen
data_MgCuSnPt5
_symmetry_space_group_name_H-M   'P 1'
_cell_length_a   5.61382300
_cell_length_b   5.69785250
_cell_length_c   5.61382509
_cell_angle_alpha   59.50361241
_cell_angle_beta   60.83935416
_cell_angle_gamma   59.50360558
_symmetry_Int_Tables_number   1
_chemical_formula_structural   MgCuSnPt5
_chemical_formula_sum   'Mg1 Cu1 Sn1 Pt5'
_cell_volume   126.77998512
_cell_formula_units_Z   1
loop_
 _symmetry_equiv_pos_site_id
 _symmetry_equiv_pos_as_xyz
  1  'x, y, z'
loop_
 _atom_site_type_symbol
 _atom_site_label
 _atom_site_symmetry_multiplicity
 _atom_site_fract_x
 _atom_site_fract_y
 _atom_site_fract_z
 _atom_site_occupancy
  Mg  Mg0  1  0.000000  0.000000  0.000000  1
  Cu  Cu1  1  0.500000  0.000000  0.500000  1
  Sn  Sn2  1  0.500000  0.500000  0.500000  1
  Pt  Pt3  1  0.500000  0.000000  0.000000  1
  Pt  Pt4  1  0.000000  0.500000  0.500000  1
  Pt  Pt5  1  0.000000  0.500000  0.000000  1
  Pt  Pt6  1  0.000000  0.000000  0.500000  1
  Pt  Pt7  1  0.500000  0.500000  0.000000  1
