# generated using pymatgen
data_TaMn4Al
_symmetry_space_group_name_H-M   'P 1'
_cell_length_a   4.72148700
_cell_length_b   4.72148616
_cell_length_c   7.82458300
_cell_angle_alpha   90.00000000
_cell_angle_beta   90.00000000
_cell_angle_gamma   119.99999891
_symmetry_Int_Tables_number   1
_chemical_formula_structural   TaMn4Al
_chemical_formula_sum   'Ta2 Mn8 Al2'
_cell_volume   151.05995713
_cell_formula_units_Z   2
loop_
 _symmetry_equiv_pos_site_id
 _symmetry_equiv_pos_as_xyz
  1  'x, y, z'
loop_
 _atom_site_type_symbol
 _atom_site_label
 _atom_site_symmetry_multiplicity
 _atom_site_fract_x
 _atom_site_fract_y
 _atom_site_fract_z
 _atom_site_occupancy
  Ta  Ta0  1  0.666667  0.333333  0.932946  1
  Ta  Ta1  1  0.333333  0.666667  0.432946  1
  Mn  Mn2  1  0.000000  0.000000  0.007068  1
  Mn  Mn3  1  0.000000  0.000000  0.507068  1
  Mn  Mn4  1  0.826179  0.652357  0.248819  1
  Mn  Mn5  1  0.173821  0.826179  0.748819  1
  Mn  Mn6  1  0.652357  0.826179  0.748819  1
  Mn  Mn7  1  0.347643  0.173821  0.248819  1
  Mn  Mn8  1  0.826179  0.173821  0.248819  1
  Mn  Mn9  1  0.173821  0.347643  0.748819  1
  Al  Al10  1  0.333333  0.666667  0.063528  1
  Al  Al11  1  0.666667  0.333333  0.563528  1
