# generated using pymatgen
data_Gd4Hf3O12
_symmetry_space_group_name_H-M   'P 1'
_cell_length_a   6.38737949
_cell_length_b   6.43023709
_cell_length_c   6.66400693
_cell_angle_alpha   99.90558145
_cell_angle_beta   97.89423379
_cell_angle_gamma   99.96006298
_symmetry_Int_Tables_number   1
_chemical_formula_structural   Gd4Hf3O12
_chemical_formula_sum   'Gd4 Hf3 O12'
_cell_volume   261.59456509
_cell_formula_units_Z   1
loop_
 _symmetry_equiv_pos_site_id
 _symmetry_equiv_pos_as_xyz
  1  'x, y, z'
loop_
 _atom_site_type_symbol
 _atom_site_label
 _atom_site_symmetry_multiplicity
 _atom_site_fract_x
 _atom_site_fract_y
 _atom_site_fract_z
 _atom_site_occupancy
  Gd  Gd0  1  0.699004  0.865256  0.390557  1
  Gd  Gd1  1  0.383952  0.699643  0.867419  1
  Gd  Gd2  1  0.300996  0.134744  0.609443  1
  Gd  Gd3  1  0.616048  0.300357  0.132581  1
  Hf  Hf4  1  0.000000  0.000000  0.000000  1
  Hf  Hf5  1  0.848634  0.399370  0.666656  1
  Hf  Hf6  1  0.151366  0.600630  0.333344  1
  O  O7  1  0.589424  0.416178  0.817812  1
  O  O8  1  0.833626  0.570412  0.427398  1
  O  O9  1  0.404131  0.807610  0.561605  1
  O  O10  1  0.410576  0.583822  0.182188  1
  O  O11  1  0.166374  0.429588  0.572602  1
  O  O12  1  0.595869  0.192390  0.438395  1
  O  O13  1  0.012292  0.681026  0.873230  1
  O  O14  1  0.920500  0.095363  0.705458  1
  O  O15  1  0.688684  0.935477  0.058115  1
  O  O16  1  0.987708  0.318974  0.126770  1
  O  O17  1  0.079500  0.904637  0.294542  1
  O  O18  1  0.311316  0.064523  0.941885  1
