# generated using pymatgen
data_Ni3Ag4SeO8
_symmetry_space_group_name_H-M   'P 1'
_cell_length_a   5.23031815
_cell_length_b   6.11799540
_cell_length_c   7.22392884
_cell_angle_alpha   64.44168939
_cell_angle_beta   104.35797618
_cell_angle_gamma   90.02566946
_symmetry_Int_Tables_number   1
_chemical_formula_structural   Ni3Ag4SeO8
_chemical_formula_sum   'Ni3 Ag4 Se1 O8'
_cell_volume   200.51896486
_cell_formula_units_Z   1
loop_
 _symmetry_equiv_pos_site_id
 _symmetry_equiv_pos_as_xyz
  1  'x, y, z'
loop_
 _atom_site_type_symbol
 _atom_site_label
 _atom_site_symmetry_multiplicity
 _atom_site_fract_x
 _atom_site_fract_y
 _atom_site_fract_z
 _atom_site_occupancy
  Ni  Ni0  1  0.000111  0.004925  0.500223  1
  Ni  Ni1  1  0.500002  0.249827  0.500031  1
  Ni  Ni2  1  0.999860  0.495198  0.499752  1
  Ag  Ag3  1  0.009503  0.001340  0.996708  1
  Ag  Ag4  1  0.499929  0.250065  0.999994  1
  Ag  Ag5  1  0.990507  0.498615  0.003260  1
  Ag  Ag6  1  0.500082  0.750029  0.000031  1
  Se  Se7  1  0.500005  0.749941  0.500111  1
  O  O8  1  0.855677  0.668680  0.659430  1
  O  O9  1  0.404284  0.890496  0.660064  1
  O  O10  1  0.890340  0.164934  0.667135  1
  O  O11  1  0.404110  0.446040  0.659816  1
  O  O12  1  0.144332  0.831390  0.340526  1
  O  O13  1  0.595907  0.053942  0.340128  1
  O  O14  1  0.109684  0.335129  0.332820  1
  O  O15  1  0.595670  0.609450  0.339972  1
