# generated using pymatgen
data_EuGa8Pd2Rh
_symmetry_space_group_name_H-M   'P 1'
_cell_length_a   8.54380890
_cell_length_b   8.54377766
_cell_length_c   8.54377897
_cell_angle_alpha   90.37333545
_cell_angle_beta   90.38049892
_cell_angle_gamma   90.38050740
_symmetry_Int_Tables_number   1
_chemical_formula_structural   EuGa8Pd2Rh
_chemical_formula_sum   'Eu3 Ga24 Pd6 Rh3'
_cell_volume   623.62421328
_cell_formula_units_Z   3
loop_
 _symmetry_equiv_pos_site_id
 _symmetry_equiv_pos_as_xyz
  1  'x, y, z'
loop_
 _atom_site_type_symbol
 _atom_site_label
 _atom_site_symmetry_multiplicity
 _atom_site_fract_x
 _atom_site_fract_y
 _atom_site_fract_z
 _atom_site_occupancy
  Eu  Eu0  1  0.000807  0.497254  0.999948  1
  Eu  Eu1  1  0.500000  0.000223  0.999777  1
  Eu  Eu2  1  0.999193  0.000052  0.502746  1
  Ga  Ga3  1  0.988702  0.638527  0.641928  1
  Ga  Ga4  1  0.641495  0.639376  0.988346  1
  Ga  Ga5  1  0.638783  0.988921  0.641242  1
  Ga  Ga6  1  0.011298  0.358072  0.361473  1
  Ga  Ga7  1  0.361217  0.358758  0.011079  1
  Ga  Ga8  1  0.358505  0.011654  0.360624  1
  Ga  Ga9  1  0.740237  0.497887  0.255616  1
  Ga  Ga10  1  0.256407  0.497920  0.739462  1
  Ga  Ga11  1  0.500000  0.256313  0.743687  1
  Ga  Ga12  1  0.500000  0.740220  0.259780  1
  Ga  Ga13  1  0.259763  0.744384  0.502113  1
  Ga  Ga14  1  0.743593  0.260538  0.502080  1
  Ga  Ga15  1  0.838395  0.148168  0.837944  1
  Ga  Ga16  1  0.145289  0.842002  0.836300  1
  Ga  Ga17  1  0.839793  0.840444  0.142028  1
  Ga  Ga18  1  0.160207  0.857972  0.159556  1
  Ga  Ga19  1  0.854711  0.163700  0.157998  1
  Ga  Ga20  1  0.161605  0.162056  0.851832  1
  Ga  Ga21  1  0.732851  0.479572  0.734068  1
  Ga  Ga22  1  0.482707  0.733238  0.730648  1
  Ga  Ga23  1  0.730801  0.729335  0.486271  1
  Ga  Ga24  1  0.269199  0.513729  0.270665  1
  Ga  Ga25  1  0.517293  0.269352  0.266762  1
  Ga  Ga26  1  0.267149  0.265932  0.520428  1
  Pd  Pd27  1  0.834752  0.835037  0.834304  1
  Pd  Pd28  1  0.165248  0.165696  0.164963  1
  Pd  Pd29  1  0.336577  0.663007  0.999375  1
  Pd  Pd30  1  0.000000  0.663219  0.336781  1
  Pd  Pd31  1  0.663423  0.000625  0.336993  1
  Pd  Pd32  1  0.500000  0.500014  0.499986  1
  Rh  Rh33  1  0.661998  0.338038  0.999066  1
  Rh  Rh34  1  0.000000  0.337830  0.662170  1
  Rh  Rh35  1  0.338002  0.000934  0.661962  1
