# generated using pymatgen
data_La16Cd4FeRuPt2
_symmetry_space_group_name_H-M   'P 1'
_cell_length_a   10.10888841
_cell_length_b   10.09349921
_cell_length_c   10.07799100
_cell_angle_alpha   60.05080927
_cell_angle_beta   60.10105220
_cell_angle_gamma   60.19223342
_symmetry_Int_Tables_number   1
_chemical_formula_structural   La16Cd4FeRuPt2
_chemical_formula_sum   'La16 Cd4 Fe1 Ru1 Pt2'
_cell_volume   729.00392568
_cell_formula_units_Z   1
loop_
 _symmetry_equiv_pos_site_id
 _symmetry_equiv_pos_as_xyz
  1  'x, y, z'
loop_
 _atom_site_type_symbol
 _atom_site_label
 _atom_site_symmetry_multiplicity
 _atom_site_fract_x
 _atom_site_fract_y
 _atom_site_fract_z
 _atom_site_occupancy
  La  La0  1  0.903594  0.897447  0.910458  1
  La  La1  1  0.433622  0.443903  0.061237  1
  La  La2  1  0.056298  0.057465  0.443118  1
  La  La3  1  0.448543  0.059649  0.057721  1
  La  La4  1  0.308311  0.688602  0.312638  1
  La  La5  1  0.687807  0.688457  0.311868  1
  La  La6  1  0.688990  0.307990  0.312005  1
  La  La7  1  0.296543  0.890383  0.906538  1
  La  La8  1  0.894692  0.298857  0.903227  1
  La  La9  1  0.308311  0.688602  0.690448  1
  La  La10  1  0.903594  0.897447  0.288504  1
  La  La11  1  0.060580  0.452471  0.059798  1
  La  La12  1  0.308140  0.308974  0.691443  1
  La  La13  1  0.060580  0.452471  0.427151  1
  La  La14  1  0.448543  0.059649  0.434086  1
  La  La15  1  0.688990  0.307990  0.691015  1
  Cd  Cd16  1  0.670868  0.670722  0.987972  1
  Cd  Cd17  1  0.987366  0.670864  0.670885  1
  Cd  Cd18  1  0.671106  0.987129  0.670882  1
  Cd  Cd19  1  0.670868  0.670722  0.670437  1
  Fe  Fe20  1  0.113290  0.667642  0.109533  1
  Ru  Ru21  1  0.669048  0.111831  0.109560  1
  Pt  Pt22  1  0.110156  0.110365  0.673925  1
  Pt  Pt23  1  0.110156  0.110365  0.105552  1
