# generated using pymatgen
data_CsLi4ScTe8
_symmetry_space_group_name_H-M   'P 1'
_cell_length_a   11.71517879
_cell_length_b   11.71517829
_cell_length_c   10.85904300
_cell_angle_alpha   81.59540585
_cell_angle_beta   81.59540621
_cell_angle_gamma   15.17071143
_symmetry_Int_Tables_number   1
_chemical_formula_structural   CsLi4ScTe8
_chemical_formula_sum   'Cs1 Li4 Sc1 Te8'
_cell_volume   385.75613734
_cell_formula_units_Z   1
loop_
 _symmetry_equiv_pos_site_id
 _symmetry_equiv_pos_as_xyz
  1  'x, y, z'
loop_
 _atom_site_type_symbol
 _atom_site_label
 _atom_site_symmetry_multiplicity
 _atom_site_fract_x
 _atom_site_fract_y
 _atom_site_fract_z
 _atom_site_occupancy
  Cs  Cs0  1  0.000000  0.000000  0.000000  1
  Li  Li1  1  0.226847  0.226847  0.121687  1
  Li  Li2  1  0.836513  0.836513  0.483396  1
  Li  Li3  1  0.163487  0.163487  0.516604  1
  Li  Li4  1  0.773153  0.773153  0.878313  1
  Sc  Sc5  1  0.500000  0.500000  0.500000  1
  Te  Te6  1  0.917140  0.917140  0.678008  1
  Te  Te7  1  0.082860  0.082860  0.321992  1
  Te  Te8  1  0.581941  0.581941  0.687395  1
  Te  Te9  1  0.418059  0.418059  0.312605  1
  Te  Te10  1  0.654987  0.654987  0.983965  1
  Te  Te11  1  0.345013  0.345013  0.016035  1
  Te  Te12  1  0.742058  0.742058  0.332066  1
  Te  Te13  1  0.257942  0.257942  0.667934  1
