# generated using pymatgen
data_HoNb6PbS12
_symmetry_space_group_name_H-M   'P 1'
_cell_length_a   5.84690000
_cell_length_b   5.84690006
_cell_length_c   14.39505700
_cell_angle_alpha   90.00000000
_cell_angle_beta   90.00000000
_cell_angle_gamma   119.99999967
_symmetry_Int_Tables_number   1
_chemical_formula_structural   HoNb6PbS12
_chemical_formula_sum   'Ho1 Nb6 Pb1 S12'
_cell_volume   426.18225065
_cell_formula_units_Z   1
loop_
 _symmetry_equiv_pos_site_id
 _symmetry_equiv_pos_as_xyz
  1  'x, y, z'
loop_
 _atom_site_type_symbol
 _atom_site_label
 _atom_site_symmetry_multiplicity
 _atom_site_fract_x
 _atom_site_fract_y
 _atom_site_fract_z
 _atom_site_occupancy
  Ho  Ho0  1  0.000000  0.000000  0.000000  1
  Nb  Nb1  1  0.000000  0.000000  0.762553  1
  Nb  Nb2  1  0.000000  0.000000  0.237447  1
  Nb  Nb3  1  0.333333  0.666667  0.237673  1
  Nb  Nb4  1  0.666667  0.333333  0.762327  1
  Nb  Nb5  1  0.666667  0.333333  0.237673  1
  Nb  Nb6  1  0.333333  0.666667  0.762327  1
  Pb  Pb7  1  0.000000  0.000000  0.500000  1
  S  S8  1  0.337654  0.000000  0.127999  1
  S  S9  1  0.000000  0.337654  0.127999  1
  S  S10  1  0.662346  0.662346  0.127999  1
  S  S11  1  0.336297  0.336297  0.653619  1
  S  S12  1  0.663703  0.663703  0.346381  1
  S  S13  1  0.663703  0.000000  0.653619  1
  S  S14  1  0.000000  0.663703  0.653619  1
  S  S15  1  0.000000  0.662346  0.872001  1
  S  S16  1  0.337654  0.337654  0.872001  1
  S  S17  1  0.000000  0.336297  0.346381  1
  S  S18  1  0.336297  0.000000  0.346381  1
  S  S19  1  0.662346  0.000000  0.872001  1
