# generated using pymatgen
data_Np5Co18ReP12
_symmetry_space_group_name_H-M   'P 1'
_cell_length_a   11.92716400
_cell_length_b   11.92716597
_cell_length_c   3.67225400
_cell_angle_alpha   90.00000000
_cell_angle_beta   90.00000000
_cell_angle_gamma   119.70020590
_symmetry_Int_Tables_number   1
_chemical_formula_structural   Np5Co18ReP12
_chemical_formula_sum   'Np5 Co18 Re1 P12'
_cell_volume   453.77635001
_cell_formula_units_Z   1
loop_
 _symmetry_equiv_pos_site_id
 _symmetry_equiv_pos_as_xyz
  1  'x, y, z'
loop_
 _atom_site_type_symbol
 _atom_site_label
 _atom_site_symmetry_multiplicity
 _atom_site_fract_x
 _atom_site_fract_y
 _atom_site_fract_z
 _atom_site_occupancy
  Np  Np0  1  0.668031  0.334068  0.000000  1
  Np  Np1  1  0.334068  0.668031  0.000000  1
  Np  Np2  1  0.819828  0.819828  0.500000  1
  Np  Np3  1  0.183453  0.999045  0.500000  1
  Np  Np4  1  0.999045  0.183453  0.500000  1
  Co  Co5  1  0.876176  0.357040  0.500000  1
  Co  Co6  1  0.643101  0.519938  0.500000  1
  Co  Co7  1  0.481610  0.125682  0.500000  1
  Co  Co8  1  0.357040  0.876176  0.500000  1
  Co  Co9  1  0.519938  0.643101  0.500000  1
  Co  Co10  1  0.125682  0.481610  0.500000  1
  Co  Co11  1  0.550937  0.001370  0.000000  1
  Co  Co12  1  0.001370  0.550937  0.000000  1
  Co  Co13  1  0.801126  0.180287  0.000000  1
  Co  Co14  1  0.821240  0.621570  0.000000  1
  Co  Co15  1  0.375611  0.197171  0.000000  1
  Co  Co16  1  0.180287  0.801126  0.000000  1
  Co  Co17  1  0.621570  0.821240  0.000000  1
  Co  Co18  1  0.197171  0.375611  0.000000  1
  Co  Co19  1  0.283967  0.283967  0.500000  1
  Co  Co20  1  0.713283  0.000053  0.500000  1
  Co  Co21  1  0.000053  0.713283  0.500000  1
  Co  Co22  1  0.997015  0.997015  0.000000  1
  Re  Re23  1  0.447524  0.447524  0.000000  1
  P  P24  1  0.684104  0.165105  0.500000  1
  P  P25  1  0.835257  0.519283  0.500000  1
  P  P26  1  0.481481  0.315214  0.500000  1
  P  P27  1  0.165105  0.684104  0.500000  1
  P  P28  1  0.519283  0.835257  0.500000  1
  P  P29  1  0.315214  0.481481  0.500000  1
  P  P30  1  0.179912  0.179912  0.000000  1
  P  P31  1  0.814462  0.000321  0.000000  1
  P  P32  1  0.000321  0.814462  0.000000  1
  P  P33  1  0.640883  0.640883  0.000000  1
  P  P34  1  0.366319  0.998532  0.000000  1
  P  P35  1  0.998532  0.366319  0.000000  1
