# generated using pymatgen
data_YTm7(OsI4)2
_symmetry_space_group_name_H-M   'P 1'
_cell_length_a   11.30381473
_cell_length_b   11.30331235
_cell_length_c   6.12923983
_cell_angle_alpha   89.28608406
_cell_angle_beta   89.44232649
_cell_angle_gamma   88.77592310
_symmetry_Int_Tables_number   1
_chemical_formula_structural   YTm7(OsI4)2
_chemical_formula_sum   'Y1 Tm7 Os2 I8'
_cell_volume   782.86173676
_cell_formula_units_Z   1
loop_
 _symmetry_equiv_pos_site_id
 _symmetry_equiv_pos_as_xyz
  1  'x, y, z'
loop_
 _atom_site_type_symbol
 _atom_site_label
 _atom_site_symmetry_multiplicity
 _atom_site_fract_x
 _atom_site_fract_y
 _atom_site_fract_z
 _atom_site_occupancy
  Y  Y0  1  0.201974  0.915056  0.997967  1
  Tm  Tm1  1  0.804785  0.082224  0.003109  1
  Tm  Tm2  1  0.080994  0.805122  0.504521  1
  Tm  Tm3  1  0.917009  0.194933  0.496182  1
  Tm  Tm4  1  0.806087  0.922758  0.505858  1
  Tm  Tm5  1  0.192496  0.078626  0.494743  1
  Tm  Tm6  1  0.078172  0.193041  0.994183  1
  Tm  Tm7  1  0.922466  0.806724  0.006351  1
  Os  Os8  1  0.000276  0.999773  0.250035  1
  Os  Os9  1  0.999997  0.000051  0.750589  1
  I  I10  1  0.354582  0.848906  0.505684  1
  I  I11  1  0.644276  0.151470  0.491247  1
  I  I12  1  0.148971  0.641923  0.991035  1
  I  I13  1  0.848890  0.354690  0.008290  1
  I  I14  1  0.351981  0.148087  0.997166  1
  I  I15  1  0.648500  0.856083  0.003084  1
  I  I16  1  0.855558  0.649604  0.503074  1
  I  I17  1  0.142985  0.350929  0.496883  1
