# generated using pymatgen
data_Mn26Ru2W
_symmetry_space_group_name_H-M   'P 1'
_cell_length_a   7.51773732
_cell_length_b   7.51747553
_cell_length_c   7.54740126
_cell_angle_alpha   109.63023556
_cell_angle_beta   109.51482665
_cell_angle_gamma   109.10887783
_symmetry_Int_Tables_number   1
_chemical_formula_structural   Mn26Ru2W
_chemical_formula_sum   'Mn26 Ru2 W1'
_cell_volume   328.98826828
_cell_formula_units_Z   1
loop_
 _symmetry_equiv_pos_site_id
 _symmetry_equiv_pos_as_xyz
  1  'x, y, z'
loop_
 _atom_site_type_symbol
 _atom_site_label
 _atom_site_symmetry_multiplicity
 _atom_site_fract_x
 _atom_site_fract_y
 _atom_site_fract_z
 _atom_site_occupancy
  Mn  Mn0  1  0.000010  0.999964  0.632933  1
  Mn  Mn1  1  0.367015  0.367014  0.367296  1
  Mn  Mn2  1  0.389022  0.677396  0.999616  1
  Mn  Mn3  1  0.711955  0.325168  0.323022  1
  Mn  Mn4  1  0.388925  0.002319  0.677161  1
  Mn  Mn5  1  0.677419  0.389088  0.999728  1
  Mn  Mn6  1  0.002462  0.389114  0.677148  1
  Mn  Mn7  1  0.325052  0.711855  0.322916  1
  Mn  Mn8  1  0.323100  0.323068  0.713498  1
  Mn  Mn9  1  0.001916  0.678999  0.392166  1
  Mn  Mn10  1  0.679075  0.001816  0.392043  1
  Mn  Mn11  1  0.609562  0.609565  0.286527  1
  Mn  Mn12  1  0.286933  0.609803  0.608058  1
  Mn  Mn13  1  0.609745  0.287137  0.608223  1
  Mn  Mn14  1  0.370821  0.191310  0.999681  1
  Mn  Mn15  1  0.177220  0.806112  0.802147  1
  Mn  Mn16  1  0.374826  0.003868  0.197710  1
  Mn  Mn17  1  0.191415  0.370873  0.999918  1
  Mn  Mn18  1  0.003952  0.374884  0.197757  1
  Mn  Mn19  1  0.805975  0.177160  0.802180  1
  Mn  Mn20  1  0.803749  0.803762  0.180657  1
  Mn  Mn21  1  0.002854  0.195663  0.377040  1
  Mn  Mn22  1  0.195758  0.002786  0.377103  1
  Mn  Mn23  1  0.622745  0.622754  0.819105  1
  Mn  Mn24  1  0.818799  0.625804  0.623224  1
  Mn  Mn25  1  0.625741  0.818762  0.623188  1
  Ru  Ru26  1  0.634921  0.001608  0.000020  1
  Ru  Ru27  1  0.001579  0.634909  0.999958  1
  W  W28  1  0.997453  0.997440  0.999977  1
