# generated using pymatgen
data_CsCdSnSb2
_symmetry_space_group_name_H-M   'P 1'
_cell_length_a   9.36370529
_cell_length_b   9.56096537
_cell_length_c   9.86571146
_cell_angle_alpha   71.48584856
_cell_angle_beta   74.84687595
_cell_angle_gamma   72.71843194
_symmetry_Int_Tables_number   1
_chemical_formula_structural   CsCdSnSb2
_chemical_formula_sum   'Cs4 Cd4 Sn4 Sb8'
_cell_volume   785.98582984
_cell_formula_units_Z   4
loop_
 _symmetry_equiv_pos_site_id
 _symmetry_equiv_pos_as_xyz
  1  'x, y, z'
loop_
 _atom_site_type_symbol
 _atom_site_label
 _atom_site_symmetry_multiplicity
 _atom_site_fract_x
 _atom_site_fract_y
 _atom_site_fract_z
 _atom_site_occupancy
  Cs  Cs0  1  0.457489  0.771793  0.313838  1
  Cs  Cs1  1  0.542511  0.228207  0.686162  1
  Cs  Cs2  1  0.444385  0.803655  0.813392  1
  Cs  Cs3  1  0.555615  0.196345  0.186608  1
  Cd  Cd4  1  0.996498  0.893672  0.691623  1
  Cd  Cd5  1  0.003502  0.106328  0.308377  1
  Cd  Cd6  1  0.960488  0.811490  0.173319  1
  Cd  Cd7  1  0.039512  0.188510  0.826681  1
  Sn  Sn8  1  0.956291  0.595835  0.595257  1
  Sn  Sn9  1  0.043709  0.404165  0.404743  1
  Sn  Sn10  1  0.159981  0.445550  0.973988  1
  Sn  Sn11  1  0.840019  0.554450  0.026012  1
  Sb  Sb12  1  0.806990  0.892791  0.449644  1
  Sb  Sb13  1  0.193010  0.107209  0.550356  1
  Sb  Sb14  1  0.773888  0.394106  0.324185  1
  Sb  Sb15  1  0.226112  0.605894  0.675815  1
  Sb  Sb16  1  0.775330  0.880714  0.956984  1
  Sb  Sb17  1  0.224670  0.119286  0.043016  1
  Sb  Sb18  1  0.764361  0.432611  0.829200  1
  Sb  Sb19  1  0.235639  0.567389  0.170800  1
