# generated using pymatgen
data_Tb12Pr8Si15Rh
_symmetry_space_group_name_H-M   'P 1'
_cell_length_a   7.57306648
_cell_length_b   7.81724066
_cell_length_c   14.89115100
_cell_angle_alpha   89.87261471
_cell_angle_beta   89.83743493
_cell_angle_gamma   90.29138591
_symmetry_Int_Tables_number   1
_chemical_formula_structural   Tb12Pr8Si15Rh
_chemical_formula_sum   'Tb12 Pr8 Si15 Rh1'
_cell_volume   881.54617965
_cell_formula_units_Z   1
loop_
 _symmetry_equiv_pos_site_id
 _symmetry_equiv_pos_as_xyz
  1  'x, y, z'
loop_
 _atom_site_type_symbol
 _atom_site_label
 _atom_site_symmetry_multiplicity
 _atom_site_fract_x
 _atom_site_fract_y
 _atom_site_fract_z
 _atom_site_occupancy
  Tb  Tb0  1  0.319284  0.186901  0.618045  1
  Tb  Tb1  1  0.677013  0.821632  0.376555  1
  Tb  Tb2  1  0.652668  0.989476  0.747777  1
  Tb  Tb3  1  0.177657  0.666991  0.381436  1
  Tb  Tb4  1  0.822871  0.317871  0.877712  1
  Tb  Tb5  1  0.825925  0.325361  0.620991  1
  Tb  Tb6  1  0.849544  0.489766  0.252467  1
  Tb  Tb7  1  0.347323  0.007672  0.250883  1
  Tb  Tb8  1  0.319244  0.180855  0.877470  1
  Tb  Tb9  1  0.179040  0.681169  0.122734  1
  Tb  Tb10  1  0.682390  0.822186  0.123573  1
  Tb  Tb11  1  0.154666  0.509479  0.742935  1
  Pr  Pr12  1  0.022703  0.182541  0.403411  1
  Pr  Pr13  1  0.523741  0.319988  0.399824  1
  Pr  Pr14  1  0.474507  0.678792  0.900981  1
  Pr  Pr15  1  0.474316  0.675728  0.599816  1
  Pr  Pr16  1  0.976406  0.817580  0.597468  1
  Pr  Pr17  1  0.974580  0.819404  0.900894  1
  Pr  Pr18  1  0.524565  0.321680  0.098107  1
  Pr  Pr19  1  0.025221  0.179059  0.098827  1
  Si  Si20  1  0.269558  0.882938  0.750633  1
  Si  Si21  1  0.471705  0.610740  0.248691  1
  Si  Si22  1  0.028957  0.110140  0.750594  1
  Si  Si23  1  0.532351  0.386952  0.752896  1
  Si  Si24  1  0.975009  0.886502  0.251705  1
  Si  Si25  1  0.732020  0.120843  0.249345  1
  Si  Si26  1  0.855312  0.531384  0.039264  1
  Si  Si27  1  0.357436  0.969279  0.039445  1
  Si  Si28  1  0.142949  0.469155  0.962079  1
  Si  Si29  1  0.645087  0.032453  0.538472  1
  Si  Si30  1  0.356758  0.968819  0.459652  1
  Si  Si31  1  0.845710  0.532198  0.458590  1
  Si  Si32  1  0.767258  0.619518  0.752695  1
  Si  Si33  1  0.233459  0.378638  0.248862  1
  Si  Si34  1  0.643704  0.029889  0.960788  1
  Rh  Rh35  1  0.139067  0.476426  0.544381  1
