# generated using pymatgen
data_PuZn3P6N13
_symmetry_space_group_name_H-M   'P 1'
_cell_length_a   7.09716908
_cell_length_b   7.22759036
_cell_length_c   7.09716914
_cell_angle_alpha   109.84389942
_cell_angle_beta   109.09596734
_cell_angle_gamma   109.84391461
_symmetry_Int_Tables_number   1
_chemical_formula_structural   PuZn3P6N13
_chemical_formula_sum   'Pu1 Zn3 P6 N13'
_cell_volume   278.94833779
_cell_formula_units_Z   1
loop_
 _symmetry_equiv_pos_site_id
 _symmetry_equiv_pos_as_xyz
  1  'x, y, z'
loop_
 _atom_site_type_symbol
 _atom_site_label
 _atom_site_symmetry_multiplicity
 _atom_site_fract_x
 _atom_site_fract_y
 _atom_site_fract_z
 _atom_site_occupancy
  Pu  Pu0  1  0.000000  0.727991  0.000000  1
  Zn  Zn1  1  0.710066  0.016228  0.000000  1
  Zn  Zn2  1  0.000000  0.016228  0.710066  1
  Zn  Zn3  1  0.289934  0.306163  0.289934  1
  P  P4  1  0.493746  0.238851  0.746504  1
  P  P5  1  0.506254  0.745105  0.252758  1
  P  P6  1  0.747242  0.492346  0.253496  1
  P  P7  1  0.252758  0.745105  0.506254  1
  P  P8  1  0.746504  0.238851  0.493746  1
  P  P9  1  0.253496  0.492346  0.747242  1
  N  N10  1  0.000000  0.727128  0.449786  1
  N  N11  1  0.285004  0.546720  0.550214  1
  N  N12  1  0.720566  0.439725  0.000000  1
  N  N13  1  0.279434  0.719161  0.279434  1
  N  N14  1  0.449786  0.996507  0.734791  1
  N  N15  1  0.714996  0.261716  0.265209  1
  N  N16  1  0.550214  0.277341  0.550214  1
  N  N17  1  0.734791  0.996507  0.449786  1
  N  N18  1  0.265209  0.261716  0.714996  1
  N  N19  1  0.449786  0.727128  0.000000  1
  N  N20  1  0.550214  0.546720  0.285004  1
  N  N21  1  0.000000  0.439725  0.720566  1
  N  N22  1  0.000000  0.040691  0.000000  1
