# generated using pymatgen
data_Tb4Cr3Fe10P12Ir7
_symmetry_space_group_name_H-M   'P 1'
_cell_length_a   3.76682700
_cell_length_b   10.41679535
_cell_length_c   12.27607128
_cell_angle_alpha   90.16887121
_cell_angle_beta   90.00000000
_cell_angle_gamma   90.00000000
_symmetry_Int_Tables_number   1
_chemical_formula_structural   Tb4Cr3Fe10P12Ir7
_chemical_formula_sum   'Tb4 Cr3 Fe10 P12 Ir7'
_cell_volume   481.68965802
_cell_formula_units_Z   1
loop_
 _symmetry_equiv_pos_site_id
 _symmetry_equiv_pos_as_xyz
  1  'x, y, z'
loop_
 _atom_site_type_symbol
 _atom_site_label
 _atom_site_symmetry_multiplicity
 _atom_site_fract_x
 _atom_site_fract_y
 _atom_site_fract_z
 _atom_site_occupancy
  Tb  Tb0  1  0.250000  0.582038  0.713815  1
  Tb  Tb1  1  0.250000  0.915888  0.212095  1
  Tb  Tb2  1  0.750000  0.421540  0.288439  1
  Tb  Tb3  1  0.750000  0.077623  0.788529  1
  Cr  Cr4  1  0.250000  0.701972  0.988516  1
  Cr  Cr5  1  0.750000  0.298187  0.009598  1
  Cr  Cr6  1  0.750000  0.201876  0.509595  1
  Fe  Fe7  1  0.750000  0.778835  0.828727  1
  Fe  Fe8  1  0.750000  0.724007  0.327883  1
  Fe  Fe9  1  0.250000  0.876190  0.694820  1
  Fe  Fe10  1  0.250000  0.624161  0.195388  1
  Fe  Fe11  1  0.750000  0.119688  0.305462  1
  Fe  Fe12  1  0.750000  0.381242  0.805863  1
  Fe  Fe13  1  0.250000  0.465000  0.936502  1
  Fe  Fe14  1  0.250000  0.037187  0.436500  1
  Fe  Fe15  1  0.750000  0.538382  0.063945  1
  Fe  Fe16  1  0.750000  0.957358  0.561809  1
  P  P17  1  0.250000  0.434343  0.110838  1
  P  P18  1  0.250000  0.065344  0.610158  1
  P  P19  1  0.750000  0.576851  0.888768  1
  P  P20  1  0.750000  0.928066  0.385833  1
  P  P21  1  0.250000  0.275651  0.864801  1
  P  P22  1  0.250000  0.225696  0.365525  1
  P  P23  1  0.750000  0.725520  0.142866  1
  P  P24  1  0.750000  0.774181  0.647189  1
  P  P25  1  0.250000  0.607051  0.375349  1
  P  P26  1  0.250000  0.890595  0.877201  1
  P  P27  1  0.750000  0.402366  0.618778  1
  P  P28  1  0.750000  0.098002  0.118503  1
  Ir  Ir29  1  0.250000  0.793292  0.482677  1
  Ir  Ir30  1  0.250000  0.408631  0.478002  1
  Ir  Ir31  1  0.250000  0.094045  0.976060  1
  Ir  Ir32  1  0.750000  0.600492  0.522221  1
  Ir  Ir33  1  0.750000  0.900012  0.019837  1
  Ir  Ir34  1  0.250000  0.224227  0.174024  1
  Ir  Ir35  1  0.250000  0.274461  0.673878  1
