# generated using pymatgen
data_K3Rb3DyHoF12
_symmetry_space_group_name_H-M   'P 1'
_cell_length_a   6.73679624
_cell_length_b   6.51223978
_cell_length_c   11.28840769
_cell_angle_alpha   55.29745758
_cell_angle_beta   90.03588141
_cell_angle_gamma   89.97711728
_symmetry_Int_Tables_number   1
_chemical_formula_structural   K3Rb3DyHoF12
_chemical_formula_sum   'K3 Rb3 Dy1 Ho1 F12'
_cell_volume   407.14657009
_cell_formula_units_Z   1
loop_
 _symmetry_equiv_pos_site_id
 _symmetry_equiv_pos_as_xyz
  1  'x, y, z'
loop_
 _atom_site_type_symbol
 _atom_site_label
 _atom_site_symmetry_multiplicity
 _atom_site_fract_x
 _atom_site_fract_y
 _atom_site_fract_z
 _atom_site_occupancy
  K  K0  1  0.499910  0.498745  0.001722  1
  K  K1  1  0.998754  0.500201  0.499073  1
  K  K2  1  0.449953  0.732650  0.255025  1
  Rb  Rb3  1  0.050055  0.731872  0.752732  1
  Rb  Rb4  1  0.951163  0.263937  0.247886  1
  Rb  Rb5  1  0.546922  0.267597  0.747273  1
  Dy  Dy6  1  0.999845  0.997762  0.002373  1
  Ho  Ho7  1  0.499296  0.002389  0.497245  1
  F  F8  1  0.766218  0.771865  0.556945  1
  F  F9  1  0.236374  0.238693  0.438252  1
  F  F10  1  0.264520  0.234832  0.940876  1
  F  F11  1  0.729331  0.767306  0.065870  1
  F  F12  1  0.458957  0.872844  0.721680  1
  F  F13  1  0.541996  0.112564  0.276442  1
  F  F14  1  0.955480  0.125986  0.777198  1
  F  F15  1  0.057840  0.869376  0.225713  1
  F  F16  1  0.318318  0.688645  0.541411  1
  F  F17  1  0.673870  0.324404  0.449423  1
  F  F18  1  0.820319  0.314458  0.959623  1
  F  F19  1  0.180876  0.683873  0.043236  1
