# generated using pymatgen
data_LiSc3As6Ir7
_symmetry_space_group_name_H-M   'P 1'
_cell_length_a   7.08743846
_cell_length_b   7.13306097
_cell_length_c   7.08743837
_cell_angle_alpha   109.60167206
_cell_angle_beta   109.34046242
_cell_angle_gamma   109.60166950
_symmetry_Int_Tables_number   1
_chemical_formula_structural   LiSc3As6Ir7
_chemical_formula_sum   'Li1 Sc3 As6 Ir7'
_cell_volume   275.37904543
_cell_formula_units_Z   1
loop_
 _symmetry_equiv_pos_site_id
 _symmetry_equiv_pos_as_xyz
  1  'x, y, z'
loop_
 _atom_site_type_symbol
 _atom_site_label
 _atom_site_symmetry_multiplicity
 _atom_site_fract_x
 _atom_site_fract_y
 _atom_site_fract_z
 _atom_site_occupancy
  Li  Li0  1  0.000000  0.500000  0.000000  1
  Sc  Sc1  1  0.000000  0.000000  0.500000  1
  Sc  Sc2  1  0.500000  0.000000  0.000000  1
  Sc  Sc3  1  0.500000  0.500000  0.500000  1
  As  As4  1  0.690764  0.681235  0.000000  1
  As  As5  1  0.309236  0.318765  0.000000  1
  As  As6  1  0.000000  0.681235  0.690764  1
  As  As7  1  0.000000  0.318765  0.309236  1
  As  As8  1  0.690764  0.009529  0.690764  1
  As  As9  1  0.309236  0.990471  0.309236  1
  Ir  Ir10  1  0.000000  0.000000  0.000000  1
  Ir  Ir11  1  0.252890  0.500000  0.747110  1
  Ir  Ir12  1  0.747110  0.247110  0.494220  1
  Ir  Ir13  1  0.494220  0.247110  0.747110  1
  Ir  Ir14  1  0.505780  0.752890  0.252890  1
  Ir  Ir15  1  0.747110  0.500000  0.252890  1
  Ir  Ir16  1  0.252890  0.752890  0.505780  1
