# generated using pymatgen
data_Sm2Mn6Fe8(SiC)3
_symmetry_space_group_name_H-M   'P 1'
_cell_length_a   6.46367196
_cell_length_b   6.46985754
_cell_length_c   6.48169159
_cell_angle_alpha   83.87253378
_cell_angle_beta   83.86156293
_cell_angle_gamma   83.94932105
_symmetry_Int_Tables_number   1
_chemical_formula_structural   Sm2Mn6Fe8(SiC)3
_chemical_formula_sum   'Sm2 Mn6 Fe8 Si3 C3'
_cell_volume   266.75030194
_cell_formula_units_Z   1
loop_
 _symmetry_equiv_pos_site_id
 _symmetry_equiv_pos_as_xyz
  1  'x, y, z'
loop_
 _atom_site_type_symbol
 _atom_site_label
 _atom_site_symmetry_multiplicity
 _atom_site_fract_x
 _atom_site_fract_y
 _atom_site_fract_z
 _atom_site_occupancy
  Sm  Sm0  1  0.651846  0.652790  0.652696  1
  Sm  Sm1  1  0.347464  0.347885  0.347422  1
  Mn  Mn2  1  0.716742  0.283729  0.998575  1
  Mn  Mn3  1  0.000522  0.718361  0.283809  1
  Mn  Mn4  1  0.281589  0.999349  0.716748  1
  Mn  Mn5  1  0.000621  0.282812  0.717799  1
  Mn  Mn6  1  0.716817  0.998464  0.282953  1
  Mn  Mn7  1  0.862267  0.338581  0.336693  1
  Fe  Fe8  1  0.284485  0.715854  0.999383  1
  Fe  Fe9  1  0.338808  0.337217  0.863195  1
  Fe  Fe10  1  0.337241  0.863252  0.338494  1
  Fe  Fe11  1  0.662890  0.661572  0.135526  1
  Fe  Fe12  1  0.136215  0.663100  0.662207  1
  Fe  Fe13  1  0.661130  0.135504  0.664132  1
  Fe  Fe14  1  0.903636  0.903736  0.904363  1
  Fe  Fe15  1  0.097562  0.095972  0.094924  1
  Si  Si16  1  0.998889  0.000835  0.500024  1
  Si  Si17  1  0.499566  0.998602  0.000335  1
  Si  Si18  1  0.001466  0.501340  0.999655  1
  C  C19  1  0.500339  0.500188  0.000218  1
  C  C20  1  0.999768  0.500544  0.501056  1
  C  C21  1  0.500138  0.000313  0.499791  1
