# generated using pymatgen
data_Ti5CuSn2Sb
_symmetry_space_group_name_H-M   'P 1'
_cell_length_a   8.24165900
_cell_length_b   8.20253215
_cell_length_c   5.51665200
_cell_angle_alpha   90.00000000
_cell_angle_beta   90.00000000
_cell_angle_gamma   120.15792334
_symmetry_Int_Tables_number   1
_chemical_formula_structural   Ti5CuSn2Sb
_chemical_formula_sum   'Ti10 Cu2 Sn4 Sb2'
_cell_volume   322.45973370
_cell_formula_units_Z   2
loop_
 _symmetry_equiv_pos_site_id
 _symmetry_equiv_pos_as_xyz
  1  'x, y, z'
loop_
 _atom_site_type_symbol
 _atom_site_label
 _atom_site_symmetry_multiplicity
 _atom_site_fract_x
 _atom_site_fract_y
 _atom_site_fract_z
 _atom_site_occupancy
  Ti  Ti0  1  0.270922  0.000000  0.750000  1
  Ti  Ti1  1  0.729078  0.000000  0.250000  1
  Ti  Ti2  1  0.998751  0.266537  0.750000  1
  Ti  Ti3  1  0.001249  0.733463  0.250000  1
  Ti  Ti4  1  0.732214  0.733463  0.750000  1
  Ti  Ti5  1  0.267786  0.266537  0.250000  1
  Ti  Ti6  1  0.334971  0.669943  0.500000  1
  Ti  Ti7  1  0.665029  0.330057  0.500000  1
  Ti  Ti8  1  0.665029  0.330057  0.000000  1
  Ti  Ti9  1  0.334971  0.669943  0.000000  1
  Cu  Cu10  1  0.000000  0.000000  0.500000  1
  Cu  Cu11  1  0.000000  0.000000  0.000000  1
  Sn  Sn12  1  0.998428  0.615208  0.750000  1
  Sn  Sn13  1  0.001572  0.384792  0.250000  1
  Sn  Sn14  1  0.383220  0.384792  0.750000  1
  Sn  Sn15  1  0.616780  0.615208  0.250000  1
  Sb  Sb16  1  0.617878  0.000000  0.750000  1
  Sb  Sb17  1  0.382122  0.000000  0.250000  1
