# generated using pymatgen
data_Ce3NdDy2(SiPt5)2
_symmetry_space_group_name_H-M   'P 1'
_cell_length_a   8.30732720
_cell_length_b   8.31716698
_cell_length_c   8.31716594
_cell_angle_alpha   127.62238217
_cell_angle_beta   126.07270703
_cell_angle_gamma   78.53292736
_symmetry_Int_Tables_number   1
_chemical_formula_structural   Ce3NdDy2(SiPt5)2
_chemical_formula_sum   'Ce3 Nd1 Dy2 Si2 Pt10'
_cell_volume   356.12361133
_cell_formula_units_Z   1
loop_
 _symmetry_equiv_pos_site_id
 _symmetry_equiv_pos_as_xyz
  1  'x, y, z'
loop_
 _atom_site_type_symbol
 _atom_site_label
 _atom_site_symmetry_multiplicity
 _atom_site_fract_x
 _atom_site_fract_y
 _atom_site_fract_z
 _atom_site_occupancy
  Ce  Ce0  1  0.387539  0.748485  0.639054  1
  Ce  Ce1  1  0.227448  0.949663  0.277785  1
  Ce  Ce2  1  0.771917  0.050286  0.721631  1
  Nd  Nd3  1  0.830053  0.549246  0.280808  1
  Dy  Dy4  1  0.615183  0.251734  0.363450  1
  Dy  Dy5  1  0.173816  0.449753  0.724063  1
  Si  Si6  1  0.221173  0.250323  0.970850  1
  Si  Si7  1  0.790075  0.749243  0.040832  1
  Pt  Pt8  1  0.173033  0.901746  0.863838  1
  Pt  Pt9  1  0.829577  0.094395  0.137216  1
  Pt  Pt10  1  0.453341  0.183225  0.850536  1
  Pt  Pt11  1  0.544177  0.401679  0.731609  1
  Pt  Pt12  1  0.829577  0.692360  0.735181  1
  Pt  Pt13  1  0.453341  0.602805  0.270117  1
  Pt  Pt14  1  0.544177  0.812569  0.142499  1
  Pt  Pt15  1  0.173033  0.309195  0.271288  1
  Pt  Pt16  1  0.991267  0.019391  0.507366  1
  Pt  Pt17  1  0.991267  0.483902  0.971877  1
