# generated using pymatgen
data_BaNaAs4(IrRu)2
_symmetry_space_group_name_H-M   'P 1'
_cell_length_a   6.91798799
_cell_length_b   6.91798783
_cell_length_c   5.83633500
_cell_angle_alpha   90.00000000
_cell_angle_beta   90.00000000
_cell_angle_gamma   130.23710980
_symmetry_Int_Tables_number   1
_chemical_formula_structural   BaNaAs4(IrRu)2
_chemical_formula_sum   'Ba1 Na1 As4 Ir2 Ru2'
_cell_volume   213.22559865
_cell_formula_units_Z   1
loop_
 _symmetry_equiv_pos_site_id
 _symmetry_equiv_pos_as_xyz
  1  'x, y, z'
loop_
 _atom_site_type_symbol
 _atom_site_label
 _atom_site_symmetry_multiplicity
 _atom_site_fract_x
 _atom_site_fract_y
 _atom_site_fract_z
 _atom_site_occupancy
  Ba  Ba0  1  0.500000  0.500000  0.500000  1
  Na  Na1  1  0.000000  0.000000  0.000000  1
  As  As2  1  0.356924  0.643076  0.000000  1
  As  As3  1  0.855615  0.144385  0.500000  1
  As  As4  1  0.144385  0.855615  0.500000  1
  As  As5  1  0.643076  0.356924  0.000000  1
  Ir  Ir6  1  0.000000  0.500000  0.751318  1
  Ir  Ir7  1  0.500000  0.000000  0.248682  1
  Ru  Ru8  1  0.500000  0.000000  0.751888  1
  Ru  Ru9  1  0.000000  0.500000  0.248112  1
