# generated using pymatgen
data_HoFe4MoP3
_symmetry_space_group_name_H-M   'P 1'
_cell_length_a   3.70354800
_cell_length_b   10.40202100
_cell_length_c   12.01902700
_cell_angle_alpha   90.00000000
_cell_angle_beta   90.00000000
_cell_angle_gamma   90.00000000
_symmetry_Int_Tables_number   1
_chemical_formula_structural   HoFe4MoP3
_chemical_formula_sum   'Ho4 Fe16 Mo4 P12'
_cell_volume   463.02561230
_cell_formula_units_Z   4
loop_
 _symmetry_equiv_pos_site_id
 _symmetry_equiv_pos_as_xyz
  1  'x, y, z'
loop_
 _atom_site_type_symbol
 _atom_site_label
 _atom_site_symmetry_multiplicity
 _atom_site_fract_x
 _atom_site_fract_y
 _atom_site_fract_z
 _atom_site_occupancy
  Ho  Ho0  1  0.250000  0.583287  0.708905  1
  Ho  Ho1  1  0.250000  0.916713  0.208905  1
  Ho  Ho2  1  0.750000  0.416713  0.291095  1
  Ho  Ho3  1  0.750000  0.083287  0.791095  1
  Fe  Fe4  1  0.250000  0.411233  0.492791  1
  Fe  Fe5  1  0.250000  0.088767  0.992791  1
  Fe  Fe6  1  0.750000  0.588767  0.507209  1
  Fe  Fe7  1  0.750000  0.911233  0.007209  1
  Fe  Fe8  1  0.250000  0.217282  0.176700  1
  Fe  Fe9  1  0.250000  0.282718  0.676700  1
  Fe  Fe10  1  0.750000  0.782718  0.823300  1
  Fe  Fe11  1  0.750000  0.717282  0.323300  1
  Fe  Fe12  1  0.250000  0.877702  0.700185  1
  Fe  Fe13  1  0.250000  0.622298  0.200185  1
  Fe  Fe14  1  0.750000  0.122298  0.299815  1
  Fe  Fe15  1  0.750000  0.377702  0.799815  1
  Fe  Fe16  1  0.250000  0.463607  0.933104  1
  Fe  Fe17  1  0.250000  0.036393  0.433104  1
  Fe  Fe18  1  0.750000  0.536393  0.066896  1
  Fe  Fe19  1  0.750000  0.963607  0.566896  1
  Mo  Mo20  1  0.250000  0.706803  0.988367  1
  Mo  Mo21  1  0.250000  0.793197  0.488367  1
  Mo  Mo22  1  0.750000  0.293197  0.011633  1
  Mo  Mo23  1  0.750000  0.206803  0.511633  1
  P  P24  1  0.250000  0.424543  0.113287  1
  P  P25  1  0.250000  0.075457  0.613287  1
  P  P26  1  0.750000  0.575457  0.886713  1
  P  P27  1  0.750000  0.924543  0.386713  1
  P  P28  1  0.250000  0.266844  0.865673  1
  P  P29  1  0.250000  0.233156  0.365673  1
  P  P30  1  0.750000  0.733156  0.134327  1
  P  P31  1  0.750000  0.766844  0.634327  1
  P  P32  1  0.250000  0.594988  0.386906  1
  P  P33  1  0.250000  0.905012  0.886906  1
  P  P34  1  0.750000  0.405012  0.613094  1
  P  P35  1  0.750000  0.094988  0.113094  1
