# generated using pymatgen
data_Ho8Al2FeNi
_symmetry_space_group_name_H-M   'P 1'
_cell_length_a   9.39150377
_cell_length_b   9.39150490
_cell_length_c   9.41176400
_cell_angle_alpha   59.92862264
_cell_angle_beta   59.92861865
_cell_angle_gamma   59.98093466
_symmetry_Int_Tables_number   1
_chemical_formula_structural   Ho8Al2FeNi
_chemical_formula_sum   'Ho16 Al4 Fe2 Ni2'
_cell_volume   586.26568417
_cell_formula_units_Z   2
loop_
 _symmetry_equiv_pos_site_id
 _symmetry_equiv_pos_as_xyz
  1  'x, y, z'
loop_
 _atom_site_type_symbol
 _atom_site_label
 _atom_site_symmetry_multiplicity
 _atom_site_fract_x
 _atom_site_fract_y
 _atom_site_fract_z
 _atom_site_occupancy
  Ho  Ho0  1  0.348698  0.348698  0.353747  1
  Ho  Ho1  1  0.348698  0.348698  0.948857  1
  Ho  Ho2  1  0.348508  0.950084  0.350704  1
  Ho  Ho3  1  0.950084  0.348508  0.350704  1
  Ho  Ho4  1  0.813181  0.190844  0.191650  1
  Ho  Ho5  1  0.190844  0.813181  0.804324  1
  Ho  Ho6  1  0.190844  0.813181  0.191650  1
  Ho  Ho7  1  0.813181  0.190844  0.804324  1
  Ho  Ho8  1  0.191769  0.191769  0.808231  1
  Ho  Ho9  1  0.808568  0.808568  0.191432  1
  Ho  Ho10  1  0.937419  0.559256  0.564668  1
  Ho  Ho11  1  0.559255  0.937419  0.938657  1
  Ho  Ho12  1  0.559256  0.937419  0.564668  1
  Ho  Ho13  1  0.937419  0.559256  0.938657  1
  Ho  Ho14  1  0.562919  0.562920  0.937080  1
  Ho  Ho15  1  0.940198  0.940198  0.559802  1
  Al  Al16  1  0.577087  0.577087  0.578159  1
  Al  Al17  1  0.577087  0.577087  0.267666  1
  Al  Al18  1  0.576238  0.267595  0.578083  1
  Al  Al19  1  0.267595  0.576238  0.578083  1
  Fe  Fe20  1  0.141567  0.141567  0.141364  1
  Fe  Fe21  1  0.141567  0.141567  0.575501  1
  Ni  Ni22  1  0.142115  0.575902  0.140992  1
  Ni  Ni23  1  0.575902  0.142115  0.140992  1
