# generated using pymatgen
data_In4FeCu(SeO3)8
_symmetry_space_group_name_H-M   'P 1'
_cell_length_a   4.91651993
_cell_length_b   8.95940998
_cell_length_c   15.57848827
_cell_angle_alpha   69.81379600
_cell_angle_beta   88.56631100
_cell_angle_gamma   90.03568883
_symmetry_Int_Tables_number   1
_chemical_formula_structural   In4FeCu(SeO3)8
_chemical_formula_sum   'In4 Fe1 Cu1 Se8 O24'
_cell_volume   643.83550476
_cell_formula_units_Z   1
loop_
 _symmetry_equiv_pos_site_id
 _symmetry_equiv_pos_as_xyz
  1  'x, y, z'
loop_
 _atom_site_type_symbol
 _atom_site_label
 _atom_site_symmetry_multiplicity
 _atom_site_fract_x
 _atom_site_fract_y
 _atom_site_fract_z
 _atom_site_occupancy
  In  In0  1  0.556499  0.154187  0.782450  1
  In  In1  1  0.936386  0.159465  0.280898  1
  In  In2  1  0.443501  0.845813  0.217550  1
  In  In3  1  0.063614  0.840535  0.719102  1
  Fe  Fe4  1  0.000000  0.000000  0.000000  1
  Cu  Cu5  1  0.500000  0.000000  0.500000  1
  Se  Se6  1  0.587359  0.791143  0.892898  1
  Se  Se7  1  0.891428  0.796042  0.393461  1
  Se  Se8  1  0.412641  0.208857  0.107102  1
  Se  Se9  1  0.108572  0.203958  0.606539  1
  Se  Se10  1  0.023179  0.339018  0.868490  1
  Se  Se11  1  0.463909  0.339356  0.368815  1
  Se  Se12  1  0.976821  0.660982  0.131510  1
  Se  Se13  1  0.536091  0.660644  0.631185  1
  O  O14  1  0.790648  0.351562  0.784140  1
  O  O15  1  0.707867  0.358403  0.283308  1
  O  O16  1  0.209352  0.648438  0.215860  1
  O  O17  1  0.292133  0.641597  0.716692  1
  O  O18  1  0.844412  0.716944  0.844189  1
  O  O19  1  0.645527  0.722257  0.343153  1
  O  O20  1  0.155588  0.283056  0.155811  1
  O  O21  1  0.354473  0.277743  0.656847  1
  O  O22  1  0.224127  0.172468  0.872582  1
  O  O23  1  0.255375  0.184890  0.366022  1
  O  O24  1  0.775873  0.827532  0.127418  1
  O  O25  1  0.744625  0.815110  0.633978  1
  O  O26  1  0.726039  0.963633  0.903881  1
  O  O27  1  0.756973  0.971451  0.403752  1
  O  O28  1  0.273961  0.036367  0.096119  1
  O  O29  1  0.243027  0.028549  0.596248  1
  O  O30  1  0.394664  0.908058  0.799398  1
  O  O31  1  0.100711  0.910703  0.300794  1
  O  O32  1  0.605336  0.091942  0.200602  1
  O  O33  1  0.899289  0.089297  0.699206  1
  O  O34  1  0.856686  0.237272  0.969296  1
  O  O35  1  0.619012  0.224341  0.468349  1
  O  O36  1  0.143314  0.762728  0.030704  1
  O  O37  1  0.380988  0.775659  0.531651  1
