# generated using pymatgen
data_Yb12YEr7Si16
_symmetry_space_group_name_H-M   'P 1'
_cell_length_a   7.37424312
_cell_length_b   7.78327507
_cell_length_c   15.05901815
_cell_angle_alpha   89.99312180
_cell_angle_beta   90.01500198
_cell_angle_gamma   90.01442737
_symmetry_Int_Tables_number   1
_chemical_formula_structural   Yb12YEr7Si16
_chemical_formula_sum   'Yb12 Y1 Er7 Si16'
_cell_volume   864.32376920
_cell_formula_units_Z   1
loop_
 _symmetry_equiv_pos_site_id
 _symmetry_equiv_pos_as_xyz
  1  'x, y, z'
loop_
 _atom_site_type_symbol
 _atom_site_label
 _atom_site_symmetry_multiplicity
 _atom_site_fract_x
 _atom_site_fract_y
 _atom_site_fract_z
 _atom_site_occupancy
  Yb  Yb0  1  0.972506  0.816025  0.403872  1
  Yb  Yb1  1  0.472727  0.683784  0.096251  1
  Yb  Yb2  1  0.527325  0.316196  0.596260  1
  Yb  Yb3  1  0.027195  0.183838  0.903581  1
  Yb  Yb4  1  0.027378  0.183806  0.596275  1
  Yb  Yb5  1  0.527579  0.316232  0.903558  1
  Yb  Yb6  1  0.472647  0.683788  0.403826  1
  Yb  Yb7  1  0.972328  0.815962  0.096264  1
  Yb  Yb8  1  0.353011  0.019636  0.749956  1
  Yb  Yb9  1  0.852956  0.480325  0.750023  1
  Yb  Yb10  1  0.146841  0.519935  0.250197  1
  Yb  Yb11  1  0.647210  0.980011  0.250153  1
  Y  Y12  1  0.314050  0.177370  0.120898  1
  Er  Er13  1  0.814399  0.323411  0.379092  1
  Er  Er14  1  0.185619  0.676743  0.878672  1
  Er  Er15  1  0.685662  0.823261  0.621151  1
  Er  Er16  1  0.314385  0.176679  0.378984  1
  Er  Er17  1  0.814462  0.323519  0.121084  1
  Er  Er18  1  0.185656  0.676739  0.621145  1
  Er  Er19  1  0.685935  0.822989  0.878621  1
  Si  Si20  1  0.857535  0.533616  0.538400  1
  Si  Si21  1  0.358301  0.965565  0.960873  1
  Si  Si22  1  0.642432  0.033569  0.461621  1
  Si  Si23  1  0.141201  0.467765  0.037949  1
  Si  Si24  1  0.142479  0.466346  0.461637  1
  Si  Si25  1  0.643703  0.032902  0.037912  1
  Si  Si26  1  0.357528  0.966387  0.538415  1
  Si  Si27  1  0.857146  0.533907  0.961463  1
  Si  Si28  1  0.977706  0.881554  0.749974  1
  Si  Si29  1  0.477713  0.618431  0.749980  1
  Si  Si30  1  0.523040  0.382494  0.250577  1
  Si  Si31  1  0.021580  0.117829  0.250584  1
  Si  Si32  1  0.249157  0.395590  0.749991  1
  Si  Si33  1  0.749267  0.104294  0.749986  1
  Si  Si34  1  0.250118  0.894817  0.250690  1
  Si  Si35  1  0.751221  0.604683  0.250089  1
