# generated using pymatgen
data_YHo6Sn23Os6
_symmetry_space_group_name_H-M   'P 1'
_cell_length_a   9.84980100
_cell_length_b   9.84979948
_cell_length_c   10.14561200
_cell_angle_alpha   90.00000000
_cell_angle_beta   90.00000000
_cell_angle_gamma   119.99999503
_symmetry_Int_Tables_number   1
_chemical_formula_structural   YHo6Sn23Os6
_chemical_formula_sum   'Y1 Ho6 Sn23 Os6'
_cell_volume   852.43985918
_cell_formula_units_Z   1
loop_
 _symmetry_equiv_pos_site_id
 _symmetry_equiv_pos_as_xyz
  1  'x, y, z'
loop_
 _atom_site_type_symbol
 _atom_site_label
 _atom_site_symmetry_multiplicity
 _atom_site_fract_x
 _atom_site_fract_y
 _atom_site_fract_z
 _atom_site_occupancy
  Y  Y0  1  0.000000  0.000000  0.000000  1
  Ho  Ho1  1  0.514648  0.485352  0.698137  1
  Ho  Ho2  1  0.514648  0.029296  0.698137  1
  Ho  Ho3  1  0.970704  0.485352  0.698137  1
  Ho  Ho4  1  0.029296  0.514648  0.301863  1
  Ho  Ho5  1  0.485352  0.970704  0.301863  1
  Ho  Ho6  1  0.485352  0.514648  0.301863  1
  Sn  Sn7  1  0.666667  0.333333  0.175805  1
  Sn  Sn8  1  0.666667  0.333333  0.870154  1
  Sn  Sn9  1  0.333333  0.666667  0.129846  1
  Sn  Sn10  1  0.349924  0.349924  0.000000  1
  Sn  Sn11  1  0.000000  0.650076  0.000000  1
  Sn  Sn12  1  0.650076  0.000000  0.000000  1
  Sn  Sn13  1  0.650076  0.650076  0.000000  1
  Sn  Sn14  1  0.333333  0.666667  0.824195  1
  Sn  Sn15  1  0.439528  0.219764  0.462894  1
  Sn  Sn16  1  0.219764  0.780236  0.537106  1
  Sn  Sn17  1  0.219764  0.439528  0.537106  1
  Sn  Sn18  1  0.560472  0.780236  0.537106  1
  Sn  Sn19  1  0.117801  0.882199  0.275675  1
  Sn  Sn20  1  0.780236  0.560472  0.462894  1
  Sn  Sn21  1  0.780236  0.219764  0.462894  1
  Sn  Sn22  1  0.349924  0.000000  0.000000  1
  Sn  Sn23  1  0.117801  0.235603  0.275675  1
  Sn  Sn24  1  0.764397  0.882199  0.275675  1
  Sn  Sn25  1  0.235603  0.117801  0.724325  1
  Sn  Sn26  1  0.882199  0.764397  0.724325  1
  Sn  Sn27  1  0.882199  0.117801  0.724325  1
  Sn  Sn28  1  0.000000  0.000000  0.500000  1
  Sn  Sn29  1  0.000000  0.349924  0.000000  1
  Os  Os30  1  0.170461  0.829539  0.797692  1
  Os  Os31  1  0.170461  0.340922  0.797692  1
  Os  Os32  1  0.659078  0.829539  0.797692  1
  Os  Os33  1  0.340922  0.170461  0.202308  1
  Os  Os34  1  0.829539  0.659078  0.202308  1
  Os  Os35  1  0.829539  0.170461  0.202308  1
