# generated using pymatgen
data_Y8GaSi11Pt4
_symmetry_space_group_name_H-M   'P 1'
_cell_length_a   8.16525900
_cell_length_b   8.16966083
_cell_length_c   8.20202700
_cell_angle_alpha   90.00044183
_cell_angle_beta   90.00001403
_cell_angle_gamma   119.98226320
_symmetry_Int_Tables_number   1
_chemical_formula_structural   Y8GaSi11Pt4
_chemical_formula_sum   'Y8 Ga1 Si11 Pt4'
_cell_volume   473.91822547
_cell_formula_units_Z   1
loop_
 _symmetry_equiv_pos_site_id
 _symmetry_equiv_pos_as_xyz
  1  'x, y, z'
loop_
 _atom_site_type_symbol
 _atom_site_label
 _atom_site_symmetry_multiplicity
 _atom_site_fract_x
 _atom_site_fract_y
 _atom_site_fract_z
 _atom_site_occupancy
  Y  Y0  1  0.998230  0.996460  0.252193  1
  Y  Y1  1  0.998205  0.996409  0.747758  1
  Y  Y2  1  0.000722  0.500918  0.249484  1
  Y  Y3  1  0.500196  0.500919  0.249486  1
  Y  Y4  1  0.500690  0.001382  0.749995  1
  Y  Y5  1  0.499832  0.999662  0.250056  1
  Y  Y6  1  0.501050  0.500091  0.750514  1
  Y  Y7  1  0.999040  0.500092  0.750512  1
  Ga  Ga8  1  0.164800  0.329599  0.999364  1
  Si  Si9  1  0.668637  0.834545  0.999414  1
  Si  Si10  1  0.165321  0.330642  0.500596  1
  Si  Si11  1  0.333368  0.163661  0.000608  1
  Si  Si12  1  0.165909  0.834546  0.999414  1
  Si  Si13  1  0.668682  0.834659  0.500608  1
  Si  Si14  1  0.834325  0.668651  0.000550  1
  Si  Si15  1  0.330915  0.165565  0.499405  1
  Si  Si16  1  0.165977  0.834659  0.500608  1
  Si  Si17  1  0.834349  0.668699  0.499416  1
  Si  Si18  1  0.830293  0.163661  0.000607  1
  Si  Si19  1  0.834650  0.165565  0.499405  1
  Pt  Pt20  1  0.337624  0.675246  0.999130  1
  Pt  Pt21  1  0.333173  0.666347  0.500738  1
  Pt  Pt22  1  0.667330  0.334659  0.000863  1
  Pt  Pt23  1  0.666683  0.333366  0.499276  1
