# generated using pymatgen
data_Tm4Tc2B16IrRh
_symmetry_space_group_name_H-M   'P 1'
_cell_length_a   3.55383700
_cell_length_b   5.93332003
_cell_length_c   11.49482136
_cell_angle_alpha   90.31563807
_cell_angle_beta   90.00000000
_cell_angle_gamma   90.00000000
_symmetry_Int_Tables_number   1
_chemical_formula_structural   Tm4Tc2B16IrRh
_chemical_formula_sum   'Tm4 Tc2 B16 Ir1 Rh1'
_cell_volume   242.37672607
_cell_formula_units_Z   1
loop_
 _symmetry_equiv_pos_site_id
 _symmetry_equiv_pos_as_xyz
  1  'x, y, z'
loop_
 _atom_site_type_symbol
 _atom_site_label
 _atom_site_symmetry_multiplicity
 _atom_site_fract_x
 _atom_site_fract_y
 _atom_site_fract_z
 _atom_site_occupancy
  Tm  Tm0  1  0.000000  0.130266  0.648250  1
  Tm  Tm1  1  0.000000  0.869930  0.351442  1
  Tm  Tm2  1  0.000000  0.629425  0.850549  1
  Tm  Tm3  1  0.000000  0.370941  0.149415  1
  Tc  Tc4  1  0.000000  0.635083  0.589993  1
  Tc  Tc5  1  0.000000  0.364315  0.410432  1
  B  B6  1  0.500000  0.790838  0.685906  1
  B  B7  1  0.500000  0.209147  0.314096  1
  B  B8  1  0.500000  0.292351  0.813387  1
  B  B9  1  0.500000  0.708005  0.186568  1
  B  B10  1  0.500000  0.865660  0.530428  1
  B  B11  1  0.500000  0.134493  0.469427  1
  B  B12  1  0.500000  0.364889  0.969935  1
  B  B13  1  0.500000  0.635393  0.030407  1
  B  B14  1  0.500000  0.022314  0.193732  1
  B  B15  1  0.500000  0.977007  0.806524  1
  B  B16  1  0.500000  0.522938  0.306848  1
  B  B17  1  0.500000  0.477468  0.692864  1
  B  B18  1  0.500000  0.113379  0.047996  1
  B  B19  1  0.500000  0.887051  0.951467  1
  B  B20  1  0.500000  0.613072  0.453028  1
  B  B21  1  0.500000  0.387133  0.547001  1
  Ir  Ir22  1  0.000000  0.142881  0.904856  1
  Rh  Rh23  1  0.000000  0.856021  0.095448  1
