# generated using pymatgen
data_Cs4Li2ScGaP4
_symmetry_space_group_name_H-M   'P 1'
_cell_length_a   9.84563874
_cell_length_b   9.84563923
_cell_length_c   9.84563829
_cell_angle_alpha   142.53565937
_cell_angle_beta   141.76060956
_cell_angle_gamma   54.60825970
_symmetry_Int_Tables_number   1
_chemical_formula_structural   Cs4Li2ScGaP4
_chemical_formula_sum   'Cs4 Li2 Sc1 Ga1 P4'
_cell_volume   356.82809949
_cell_formula_units_Z   1
loop_
 _symmetry_equiv_pos_site_id
 _symmetry_equiv_pos_as_xyz
  1  'x, y, z'
loop_
 _atom_site_type_symbol
 _atom_site_label
 _atom_site_symmetry_multiplicity
 _atom_site_fract_x
 _atom_site_fract_y
 _atom_site_fract_z
 _atom_site_occupancy
  Cs  Cs0  1  0.559648  0.328663  0.222808  1
  Cs  Cs1  1  0.440352  0.663161  0.769016  1
  Cs  Cs2  1  0.105855  0.836839  0.277192  1
  Cs  Cs3  1  0.894145  0.171337  0.730984  1
  Li  Li4  1  0.500000  0.250000  0.750000  1
  Li  Li5  1  0.500000  0.750000  0.250000  1
  Sc  Sc6  1  0.000000  0.750000  0.750000  1
  Ga  Ga7  1  0.000000  0.250000  0.250000  1
  P  P8  1  0.303902  0.085600  0.237175  1
  P  P9  1  0.696098  0.933273  0.781700  1
  P  P10  1  0.848427  0.566727  0.262825  1
  P  P11  1  0.151573  0.414400  0.718300  1
