# generated using pymatgen
data_Gd3GaC3
_symmetry_space_group_name_H-M   'P 1'
_cell_length_a   3.62788000
_cell_length_b   7.19385400
_cell_length_c   9.95534900
_cell_angle_alpha   90.00000000
_cell_angle_beta   90.00000000
_cell_angle_gamma   90.00000000
_symmetry_Int_Tables_number   1
_chemical_formula_structural   Gd3GaC3
_chemical_formula_sum   'Gd6 Ga2 C6'
_cell_volume   259.81906909
_cell_formula_units_Z   2
loop_
 _symmetry_equiv_pos_site_id
 _symmetry_equiv_pos_as_xyz
  1  'x, y, z'
loop_
 _atom_site_type_symbol
 _atom_site_label
 _atom_site_symmetry_multiplicity
 _atom_site_fract_x
 _atom_site_fract_y
 _atom_site_fract_z
 _atom_site_occupancy
  Gd  Gd0  1  0.500000  0.511063  0.195127  1
  Gd  Gd1  1  0.500000  0.488937  0.804873  1
  Gd  Gd2  1  0.500000  0.988937  0.195127  1
  Gd  Gd3  1  0.500000  0.011063  0.804873  1
  Gd  Gd4  1  0.000000  0.750000  0.458955  1
  Gd  Gd5  1  0.000000  0.250000  0.541045  1
  Ga  Ga6  1  0.000000  0.750000  0.002867  1
  Ga  Ga7  1  0.000000  0.250000  0.997133  1
  C  C8  1  0.500000  0.508112  0.566322  1
  C  C9  1  0.500000  0.491888  0.433678  1
  C  C10  1  0.500000  0.991888  0.566322  1
  C  C11  1  0.500000  0.008112  0.433678  1
  C  C12  1  0.000000  0.750000  0.210186  1
  C  C13  1  0.000000  0.250000  0.789814  1
