# generated using pymatgen
data_Y4HoMg2Co17P12
_symmetry_space_group_name_H-M   'P 1'
_cell_length_a   12.13088028
_cell_length_b   12.11486106
_cell_length_c   3.72842100
_cell_angle_alpha   90.00000000
_cell_angle_beta   90.00000000
_cell_angle_gamma   119.98202009
_symmetry_Int_Tables_number   1
_chemical_formula_structural   Y4HoMg2Co17P12
_chemical_formula_sum   'Y4 Ho1 Mg2 Co17 P12'
_cell_volume   474.61885535
_cell_formula_units_Z   1
loop_
 _symmetry_equiv_pos_site_id
 _symmetry_equiv_pos_as_xyz
  1  'x, y, z'
loop_
 _atom_site_type_symbol
 _atom_site_label
 _atom_site_symmetry_multiplicity
 _atom_site_fract_x
 _atom_site_fract_y
 _atom_site_fract_z
 _atom_site_occupancy
  Y  Y0  1  0.668187  0.334961  0.000000  1
  Y  Y1  1  0.815303  0.814223  0.500000  1
  Y  Y2  1  0.185249  0.999584  0.500000  1
  Y  Y3  1  0.999674  0.190244  0.500000  1
  Ho  Ho4  1  0.331621  0.666724  0.000000  1
  Mg  Mg5  1  0.438254  0.440386  0.000000  1
  Mg  Mg6  1  0.560417  0.998947  0.000000  1
  Co  Co7  1  0.876940  0.362402  0.500000  1
  Co  Co8  1  0.645932  0.517629  0.500000  1
  Co  Co9  1  0.480999  0.122988  0.500000  1
  Co  Co10  1  0.354864  0.870823  0.500000  1
  Co  Co11  1  0.517809  0.641157  0.500000  1
  Co  Co12  1  0.123288  0.486169  0.500000  1
  Co  Co13  1  0.000554  0.554033  0.000000  1
  Co  Co14  1  0.803832  0.181943  0.000000  1
  Co  Co15  1  0.826269  0.623658  0.000000  1
  Co  Co16  1  0.374840  0.196960  0.000000  1
  Co  Co17  1  0.174908  0.798097  0.000000  1
  Co  Co18  1  0.625150  0.820517  0.000000  1
  Co  Co19  1  0.195163  0.378484  0.000000  1
  Co  Co20  1  0.279487  0.281890  0.500000  1
  Co  Co21  1  0.720014  0.001096  0.500000  1
  Co  Co22  1  0.000596  0.715247  0.500000  1
  Co  Co23  1  0.000127  0.999678  0.000000  1
  P  P24  1  0.692450  0.172931  0.500000  1
  P  P25  1  0.835362  0.522329  0.500000  1
  P  P26  1  0.478534  0.306195  0.500000  1
  P  P27  1  0.165711  0.687357  0.500000  1
  P  P28  1  0.520905  0.826019  0.500000  1
  P  P29  1  0.306796  0.481313  0.500000  1
  P  P30  1  0.178526  0.181000  0.000000  1
  P  P31  1  0.821190  0.001628  0.000000  1
  P  P32  1  0.000489  0.818927  0.000000  1
  P  P33  1  0.641954  0.637148  0.000000  1
  P  P34  1  0.358941  0.996394  0.000000  1
  P  P35  1  0.999664  0.370917  0.000000  1
