# generated using pymatgen
data_Ho4LuPb4
_symmetry_space_group_name_H-M   'P 1'
_cell_length_a   8.17570900
_cell_length_b   8.26529800
_cell_length_c   15.64349400
_cell_angle_alpha   90.00000000
_cell_angle_beta   90.00000000
_cell_angle_gamma   90.00000000
_symmetry_Int_Tables_number   1
_chemical_formula_structural   Ho4LuPb4
_chemical_formula_sum   'Ho16 Lu4 Pb16'
_cell_volume   1057.10396419
_cell_formula_units_Z   4
loop_
 _symmetry_equiv_pos_site_id
 _symmetry_equiv_pos_as_xyz
  1  'x, y, z'
loop_
 _atom_site_type_symbol
 _atom_site_label
 _atom_site_symmetry_multiplicity
 _atom_site_fract_x
 _atom_site_fract_y
 _atom_site_fract_z
 _atom_site_occupancy
  Ho  Ho0  1  0.376607  0.841668  0.879056  1
  Ho  Ho1  1  0.876607  0.658332  0.620944  1
  Ho  Ho2  1  0.623393  0.158332  0.379056  1
  Ho  Ho3  1  0.123393  0.341668  0.120944  1
  Ho  Ho4  1  0.623393  0.158332  0.120944  1
  Ho  Ho5  1  0.123393  0.341668  0.379056  1
  Ho  Ho6  1  0.376607  0.841668  0.620944  1
  Ho  Ho7  1  0.876607  0.658332  0.879056  1
  Ho  Ho8  1  0.536252  0.323610  0.900180  1
  Ho  Ho9  1  0.036252  0.176390  0.599820  1
  Ho  Ho10  1  0.463748  0.676390  0.400180  1
  Ho  Ho11  1  0.963748  0.823610  0.099820  1
  Ho  Ho12  1  0.463748  0.676390  0.099820  1
  Ho  Ho13  1  0.963748  0.823610  0.400180  1
  Ho  Ho14  1  0.536252  0.323610  0.599820  1
  Ho  Ho15  1  0.036252  0.176390  0.900180  1
  Lu  Lu16  1  0.208584  0.504433  0.750000  1
  Lu  Lu17  1  0.708584  0.995567  0.750000  1
  Lu  Lu18  1  0.791416  0.495567  0.250000  1
  Lu  Lu19  1  0.291416  0.004433  0.250000  1
  Pb  Pb20  1  0.281175  0.033024  0.043689  1
  Pb  Pb21  1  0.781175  0.466976  0.456311  1
  Pb  Pb22  1  0.718825  0.966976  0.543689  1
  Pb  Pb23  1  0.218825  0.533024  0.956311  1
  Pb  Pb24  1  0.718825  0.966976  0.956311  1
  Pb  Pb25  1  0.218825  0.533024  0.543689  1
  Pb  Pb26  1  0.281175  0.033024  0.456311  1
  Pb  Pb27  1  0.781175  0.466976  0.043689  1
  Pb  Pb28  1  0.571025  0.626366  0.750000  1
  Pb  Pb29  1  0.071025  0.873634  0.750000  1
  Pb  Pb30  1  0.428975  0.373634  0.250000  1
  Pb  Pb31  1  0.928975  0.126366  0.250000  1
  Pb  Pb32  1  0.348433  0.155544  0.750000  1
  Pb  Pb33  1  0.848433  0.344456  0.750000  1
  Pb  Pb34  1  0.651567  0.844456  0.250000  1
  Pb  Pb35  1  0.151567  0.655544  0.250000  1
