# generated using pymatgen
data_K5Eu3Br12
_symmetry_space_group_name_H-M   'P 1'
_cell_length_a   13.85373300
_cell_length_b   13.85373250
_cell_length_c   4.50492600
_cell_angle_alpha   90.00000000
_cell_angle_beta   90.00000000
_cell_angle_gamma   119.99999404
_symmetry_Int_Tables_number   1
_chemical_formula_structural   K5Eu3Br12
_chemical_formula_sum   'K5 Eu3 Br12'
_cell_volume   748.77602462
_cell_formula_units_Z   1
loop_
 _symmetry_equiv_pos_site_id
 _symmetry_equiv_pos_as_xyz
  1  'x, y, z'
loop_
 _atom_site_type_symbol
 _atom_site_label
 _atom_site_symmetry_multiplicity
 _atom_site_fract_x
 _atom_site_fract_y
 _atom_site_fract_z
 _atom_site_occupancy
  K  K0  1  0.713395  0.000000  0.500000  1
  K  K1  1  0.286605  0.286605  0.500000  1
  K  K2  1  0.000000  0.713395  0.500000  1
  K  K3  1  0.666667  0.333333  0.500000  1
  K  K4  1  0.333333  0.666667  0.500000  1
  Eu  Eu5  1  0.326207  0.000000  0.000000  1
  Eu  Eu6  1  0.000000  0.326207  0.000000  1
  Eu  Eu7  1  0.673793  0.673793  0.000000  1
  Br  Br8  1  0.180216  0.000000  0.500000  1
  Br  Br9  1  0.245433  0.445728  0.000000  1
  Br  Br10  1  0.554272  0.799705  0.000000  1
  Br  Br11  1  0.000000  0.180216  0.500000  1
  Br  Br12  1  0.819784  0.819784  0.500000  1
  Br  Br13  1  0.000000  0.466887  0.500000  1
  Br  Br14  1  0.466887  0.000000  0.500000  1
  Br  Br15  1  0.533113  0.533113  0.500000  1
  Br  Br16  1  0.754567  0.200295  0.000000  1
  Br  Br17  1  0.445728  0.245433  0.000000  1
  Br  Br18  1  0.799705  0.554272  0.000000  1
  Br  Br19  1  0.200295  0.754567  0.000000  1
