# generated using pymatgen
data_Y4Fe5Co3Mo4(P3Ir2)4
_symmetry_space_group_name_H-M   'P 1'
_cell_length_a   3.86961000
_cell_length_b   10.59369700
_cell_length_c   12.27546400
_cell_angle_alpha   90.00000000
_cell_angle_beta   90.00000000
_cell_angle_gamma   90.00000000
_symmetry_Int_Tables_number   1
_chemical_formula_structural   Y4Fe5Co3Mo4(P3Ir2)4
_chemical_formula_sum   'Y4 Fe5 Co3 Mo4 P12 Ir8'
_cell_volume   503.21393701
_cell_formula_units_Z   1
loop_
 _symmetry_equiv_pos_site_id
 _symmetry_equiv_pos_as_xyz
  1  'x, y, z'
loop_
 _atom_site_type_symbol
 _atom_site_label
 _atom_site_symmetry_multiplicity
 _atom_site_fract_x
 _atom_site_fract_y
 _atom_site_fract_z
 _atom_site_occupancy
  Y  Y0  1  0.250000  0.917565  0.210681  1
  Y  Y1  1  0.750000  0.081830  0.789333  1
  Y  Y2  1  0.750000  0.417757  0.290165  1
  Y  Y3  1  0.250000  0.582150  0.710130  1
  Fe  Fe4  1  0.250000  0.614607  0.193648  1
  Fe  Fe5  1  0.750000  0.385401  0.806393  1
  Fe  Fe6  1  0.750000  0.115902  0.305180  1
  Fe  Fe7  1  0.250000  0.885040  0.694367  1
  Fe  Fe8  1  0.250000  0.035341  0.438388  1
  Co  Co9  1  0.750000  0.963065  0.563578  1
  Co  Co10  1  0.750000  0.535750  0.062365  1
  Co  Co11  1  0.250000  0.464273  0.937522  1
  Mo  Mo12  1  0.250000  0.795259  0.486848  1
  Mo  Mo13  1  0.750000  0.205159  0.512027  1
  Mo  Mo14  1  0.750000  0.293046  0.012650  1
  Mo  Mo15  1  0.250000  0.707043  0.987126  1
  P  P16  1  0.250000  0.069837  0.612087  1
  P  P17  1  0.750000  0.931805  0.387740  1
  P  P18  1  0.750000  0.570336  0.887058  1
  P  P19  1  0.250000  0.429505  0.112989  1
  P  P20  1  0.250000  0.224523  0.368477  1
  P  P21  1  0.750000  0.774204  0.631947  1
  P  P22  1  0.750000  0.725699  0.131806  1
  P  P23  1  0.250000  0.274467  0.868369  1
  P  P24  1  0.250000  0.900282  0.881400  1
  P  P25  1  0.750000  0.099816  0.118310  1
  P  P26  1  0.750000  0.399978  0.618583  1
  P  P27  1  0.250000  0.599794  0.381149  1
  Ir  Ir28  1  0.250000  0.094621  0.978872  1
  Ir  Ir29  1  0.750000  0.905513  0.020797  1
  Ir  Ir30  1  0.750000  0.594934  0.520919  1
  Ir  Ir31  1  0.250000  0.405423  0.478892  1
  Ir  Ir32  1  0.250000  0.274754  0.679803  1
  Ir  Ir33  1  0.750000  0.725352  0.320452  1
  Ir  Ir34  1  0.750000  0.774291  0.820338  1
  Ir  Ir35  1  0.250000  0.225678  0.179611  1
