# generated using pymatgen
data_Pr6AlGaRh6
_symmetry_space_group_name_H-M   'P 1'
_cell_length_a   4.13998400
_cell_length_b   5.77069118
_cell_length_c   14.29071235
_cell_angle_alpha   90.14649155
_cell_angle_beta   90.00000000
_cell_angle_gamma   111.02085947
_symmetry_Int_Tables_number   1
_chemical_formula_structural   Pr6AlGaRh6
_chemical_formula_sum   'Pr6 Al1 Ga1 Rh6'
_cell_volume   318.69096815
_cell_formula_units_Z   1
loop_
 _symmetry_equiv_pos_site_id
 _symmetry_equiv_pos_as_xyz
  1  'x, y, z'
loop_
 _atom_site_type_symbol
 _atom_site_label
 _atom_site_symmetry_multiplicity
 _atom_site_fract_x
 _atom_site_fract_y
 _atom_site_fract_z
 _atom_site_occupancy
  Pr  Pr0  1  0.210897  0.421796  0.393720  1
  Pr  Pr1  1  0.789103  0.578204  0.606280  1
  Pr  Pr2  1  0.210868  0.421738  0.106174  1
  Pr  Pr3  1  0.789132  0.578262  0.893826  1
  Pr  Pr4  1  0.488853  0.977704  0.249979  1
  Pr  Pr5  1  0.511147  0.022296  0.750021  1
  Al  Al6  1  0.500000  0.000000  0.500000  1
  Ga  Ga7  1  0.500000  0.000000  0.000000  1
  Rh  Rh8  1  0.925962  0.851923  0.412471  1
  Rh  Rh9  1  0.074038  0.148077  0.587529  1
  Rh  Rh10  1  0.925417  0.850834  0.088210  1
  Rh  Rh11  1  0.074583  0.149166  0.911790  1
  Rh  Rh12  1  0.765362  0.530723  0.249932  1
  Rh  Rh13  1  0.234638  0.469277  0.750068  1
