# generated using pymatgen
data_GaHg3AsSeBr4
_symmetry_space_group_name_H-M   'P 1'
_cell_length_a   7.74314500
_cell_length_b   7.74314451
_cell_length_c   13.08128200
_cell_angle_alpha   90.00000000
_cell_angle_beta   90.00000000
_cell_angle_gamma   119.99999781
_symmetry_Int_Tables_number   1
_chemical_formula_structural   GaHg3AsSeBr4
_chemical_formula_sum   'Ga2 Hg6 As2 Se2 Br8'
_cell_volume   679.22819611
_cell_formula_units_Z   2
loop_
 _symmetry_equiv_pos_site_id
 _symmetry_equiv_pos_as_xyz
  1  'x, y, z'
loop_
 _atom_site_type_symbol
 _atom_site_label
 _atom_site_symmetry_multiplicity
 _atom_site_fract_x
 _atom_site_fract_y
 _atom_site_fract_z
 _atom_site_occupancy
  Ga  Ga0  1  0.000000  0.000000  0.261615  1
  Ga  Ga1  1  0.000000  0.000000  0.761615  1
  Hg  Hg2  1  0.504153  0.008306  0.468585  1
  Hg  Hg3  1  0.504153  0.495847  0.468585  1
  Hg  Hg4  1  0.991694  0.495847  0.468585  1
  Hg  Hg5  1  0.495847  0.991694  0.968585  1
  Hg  Hg6  1  0.495847  0.504153  0.968585  1
  Hg  Hg7  1  0.008306  0.504153  0.968585  1
  As  As8  1  0.666667  0.333333  0.568959  1
  As  As9  1  0.333333  0.666667  0.068959  1
  Se  Se10  1  0.333333  0.666667  0.375750  1
  Se  Se11  1  0.666667  0.333333  0.875750  1
  Br  Br12  1  0.335313  0.167656  0.207183  1
  Br  Br13  1  0.832344  0.664687  0.207183  1
  Br  Br14  1  0.832344  0.167656  0.207183  1
  Br  Br15  1  0.664687  0.832344  0.707183  1
  Br  Br16  1  0.167656  0.335313  0.707183  1
  Br  Br17  1  0.167656  0.832344  0.707183  1
  Br  Br18  1  0.000000  0.000000  0.444236  1
  Br  Br19  1  0.000000  0.000000  0.944236  1
