# generated using pymatgen
data_SiB6H
_symmetry_space_group_name_H-M   'P 1'
_cell_length_a   6.33359404
_cell_length_b   6.33359455
_cell_length_c   8.47066700
_cell_angle_alpha   90.00000000
_cell_angle_beta   90.00000000
_cell_angle_gamma   58.10173779
_symmetry_Int_Tables_number   1
_chemical_formula_structural   SiB6H
_chemical_formula_sum   'Si4 B24 H4'
_cell_volume   288.48251553
_cell_formula_units_Z   4
loop_
 _symmetry_equiv_pos_site_id
 _symmetry_equiv_pos_as_xyz
  1  'x, y, z'
loop_
 _atom_site_type_symbol
 _atom_site_label
 _atom_site_symmetry_multiplicity
 _atom_site_fract_x
 _atom_site_fract_y
 _atom_site_fract_z
 _atom_site_occupancy
  Si  Si0  1  0.670924  0.670924  0.075291  1
  Si  Si1  1  0.170924  0.170924  0.424710  1
  Si  Si2  1  0.829077  0.829077  0.575290  1
  Si  Si3  1  0.329077  0.329077  0.924709  1
  B  B4  1  0.844645  0.309992  0.027163  1
  B  B5  1  0.309992  0.844645  0.027163  1
  B  B6  1  0.852527  0.852527  0.059852  1
  B  B7  1  0.095456  0.095456  0.140522  1
  B  B8  1  0.803625  0.120521  0.170484  1
  B  B9  1  0.120521  0.803625  0.170484  1
  B  B10  1  0.620521  0.303626  0.329517  1
  B  B11  1  0.303626  0.620521  0.329517  1
  B  B12  1  0.595456  0.595456  0.359476  1
  B  B13  1  0.352527  0.352527  0.440147  1
  B  B14  1  0.809990  0.344647  0.472838  1
  B  B15  1  0.344647  0.809990  0.472838  1
  B  B16  1  0.655352  0.190009  0.527161  1
  B  B17  1  0.190009  0.655352  0.527161  1
  B  B18  1  0.647474  0.647474  0.559851  1
  B  B19  1  0.404544  0.404544  0.640522  1
  B  B20  1  0.696374  0.379479  0.670484  1
  B  B21  1  0.379479  0.696374  0.670484  1
  B  B22  1  0.879479  0.196375  0.829517  1
  B  B23  1  0.196375  0.879479  0.829517  1
  B  B24  1  0.904545  0.904545  0.859477  1
  B  B25  1  0.147474  0.147474  0.940147  1
  B  B26  1  0.690007  0.155354  0.972840  1
  B  B27  1  0.155354  0.690007  0.972840  1
  H  H28  1  0.187926  0.187926  0.227747  1
  H  H29  1  0.687926  0.687926  0.272253  1
  H  H30  1  0.312074  0.312074  0.727747  1
  H  H31  1  0.812074  0.812074  0.772253  1
