# generated using pymatgen
data_YbCeIrOs3
_symmetry_space_group_name_H-M   'P 1'
_cell_length_a   5.26500295
_cell_length_b   5.47888461
_cell_length_c   5.26500200
_cell_angle_alpha   61.28315404
_cell_angle_beta   59.99999339
_cell_angle_gamma   61.28315957
_symmetry_Int_Tables_number   1
_chemical_formula_structural   YbCeIrOs3
_chemical_formula_sum   'Yb1 Ce1 Ir1 Os3'
_cell_volume   109.42853149
_cell_formula_units_Z   1
loop_
 _symmetry_equiv_pos_site_id
 _symmetry_equiv_pos_as_xyz
  1  'x, y, z'
loop_
 _atom_site_type_symbol
 _atom_site_label
 _atom_site_symmetry_multiplicity
 _atom_site_fract_x
 _atom_site_fract_y
 _atom_site_fract_z
 _atom_site_occupancy
  Yb  Yb0  1  0.749536  0.751391  0.749536  1
  Ce  Ce1  1  0.500714  0.497859  0.500714  1
  Ir  Ir2  1  0.123266  0.630201  0.123266  1
  Os  Os3  1  0.624570  0.123516  0.125956  1
  Os  Os4  1  0.125956  0.123516  0.125956  1
  Os  Os5  1  0.125956  0.123516  0.624570  1
