# generated using pymatgen
data_Ho3Pa(TcB4)4
_symmetry_space_group_name_H-M   'P 1'
_cell_length_a   3.60953900
_cell_length_b   5.95914900
_cell_length_c   11.53056303
_cell_angle_alpha   89.94892986
_cell_angle_beta   90.00000000
_cell_angle_gamma   90.00000000
_symmetry_Int_Tables_number   1
_chemical_formula_structural   Ho3Pa(TcB4)4
_chemical_formula_sum   'Ho3 Pa1 Tc4 B16'
_cell_volume   248.01978369
_cell_formula_units_Z   1
loop_
 _symmetry_equiv_pos_site_id
 _symmetry_equiv_pos_as_xyz
  1  'x, y, z'
loop_
 _atom_site_type_symbol
 _atom_site_label
 _atom_site_symmetry_multiplicity
 _atom_site_fract_x
 _atom_site_fract_y
 _atom_site_fract_z
 _atom_site_occupancy
  Ho  Ho0  1  0.000000  0.370872  0.650589  1
  Ho  Ho1  1  0.000000  0.126776  0.148673  1
  Ho  Ho2  1  0.000000  0.874873  0.849592  1
  Pa  Pa3  1  0.000000  0.626913  0.350678  1
  Tc  Tc4  1  0.000000  0.632215  0.089622  1
  Tc  Tc5  1  0.000000  0.365496  0.911862  1
  Tc  Tc6  1  0.000000  0.138592  0.407024  1
  Tc  Tc7  1  0.000000  0.861411  0.589515  1
  B  B8  1  0.500000  0.786992  0.185493  1
  B  B9  1  0.500000  0.211894  0.815154  1
  B  B10  1  0.500000  0.289270  0.314411  1
  B  B11  1  0.500000  0.713221  0.686435  1
  B  B12  1  0.500000  0.863613  0.031440  1
  B  B13  1  0.500000  0.135495  0.968591  1
  B  B14  1  0.500000  0.364890  0.468632  1
  B  B15  1  0.500000  0.636779  0.531241  1
  B  B16  1  0.500000  0.888832  0.453945  1
  B  B17  1  0.500000  0.113661  0.547718  1
  B  B18  1  0.500000  0.385758  0.046169  1
  B  B19  1  0.500000  0.613114  0.952850  1
  B  B20  1  0.500000  0.974022  0.308445  1
  B  B21  1  0.500000  0.024042  0.692490  1
  B  B22  1  0.500000  0.478140  0.191738  1
  B  B23  1  0.500000  0.523129  0.807692  1
