# generated using pymatgen
data_K2CaNpO6
_symmetry_space_group_name_H-M   'P 1'
_cell_length_a   6.15194400
_cell_length_b   6.15181924
_cell_length_c   6.15194400
_cell_angle_alpha   120.00214964
_cell_angle_beta   89.99743880
_cell_angle_gamma   120.00214426
_symmetry_Int_Tables_number   1
_chemical_formula_structural   K2CaNpO6
_chemical_formula_sum   'K2 Ca1 Np1 O6'
_cell_volume   164.62463857
_cell_formula_units_Z   1
loop_
 _symmetry_equiv_pos_site_id
 _symmetry_equiv_pos_as_xyz
  1  'x, y, z'
loop_
 _atom_site_type_symbol
 _atom_site_label
 _atom_site_symmetry_multiplicity
 _atom_site_fract_x
 _atom_site_fract_y
 _atom_site_fract_z
 _atom_site_occupancy
  K  K0  1  0.749997  0.499998  0.249999  1
  K  K1  1  0.249999  0.499998  0.750000  1
  Ca  Ca2  1  0.500000  0.000000  0.500000  1
  Np  Np3  1  0.000000  0.000000  0.000000  1
  O  O4  1  0.768846  0.000000  0.231154  1
  O  O5  1  0.231153  0.000000  0.231153  1
  O  O6  1  0.231155  0.462310  0.231155  1
  O  O7  1  0.231155  0.000000  0.768844  1
  O  O8  1  0.768847  0.000000  0.768847  1
  O  O9  1  0.768846  0.537692  0.768846  1
