# generated using pymatgen
data_Sc22Tc5Ir2Rh
_symmetry_space_group_name_H-M   'P 1'
_cell_length_a   9.51475739
_cell_length_b   9.47449605
_cell_length_c   9.51475746
_cell_angle_alpha   60.13987169
_cell_angle_beta   60.28850858
_cell_angle_gamma   60.13987815
_symmetry_Int_Tables_number   1
_chemical_formula_structural   Sc22Tc5Ir2Rh
_chemical_formula_sum   'Sc22 Tc5 Ir2 Rh1'
_cell_volume   609.10690929
_cell_formula_units_Z   1
loop_
 _symmetry_equiv_pos_site_id
 _symmetry_equiv_pos_as_xyz
  1  'x, y, z'
loop_
 _atom_site_type_symbol
 _atom_site_label
 _atom_site_symmetry_multiplicity
 _atom_site_fract_x
 _atom_site_fract_y
 _atom_site_fract_z
 _atom_site_occupancy
  Sc  Sc0  1  0.802049  0.802968  0.197951  1
  Sc  Sc1  1  0.197644  0.802356  0.197644  1
  Sc  Sc2  1  0.802049  0.197032  0.197951  1
  Sc  Sc3  1  0.197951  0.197032  0.802049  1
  Sc  Sc4  1  0.802356  0.197644  0.802356  1
  Sc  Sc5  1  0.197951  0.802968  0.802049  1
  Sc  Sc6  1  0.613715  0.618048  0.150188  1
  Sc  Sc7  1  0.617467  0.148434  0.617467  1
  Sc  Sc8  1  0.150188  0.618048  0.613715  1
  Sc  Sc9  1  0.617467  0.616631  0.617467  1
  Sc  Sc10  1  0.386285  0.381952  0.849812  1
  Sc  Sc11  1  0.382533  0.851566  0.382533  1
  Sc  Sc12  1  0.849812  0.381952  0.386285  1
  Sc  Sc13  1  0.382533  0.383369  0.382533  1
  Sc  Sc14  1  0.842714  0.844162  0.468960  1
  Sc  Sc15  1  0.843394  0.469842  0.843394  1
  Sc  Sc16  1  0.468960  0.844162  0.842714  1
  Sc  Sc17  1  0.843394  0.843369  0.843394  1
  Sc  Sc18  1  0.157286  0.155838  0.531040  1
  Sc  Sc19  1  0.156606  0.530158  0.156606  1
  Sc  Sc20  1  0.531040  0.155838  0.157286  1
  Sc  Sc21  1  0.156606  0.156631  0.156606  1
  Tc  Tc22  1  0.000000  0.000000  0.000000  1
  Tc  Tc23  1  0.000000  0.000000  0.500000  1
  Tc  Tc24  1  0.000000  0.500000  0.500000  1
  Tc  Tc25  1  0.500000  0.500000  0.000000  1
  Tc  Tc26  1  0.500000  0.000000  0.000000  1
  Ir  Ir27  1  0.500000  0.500000  0.500000  1
  Ir  Ir28  1  0.500000  0.000000  0.500000  1
  Rh  Rh29  1  0.000000  0.500000  0.000000  1
