# generated using pymatgen
data_NaSc4Co6Ni3As7
_symmetry_space_group_name_H-M   'P 1'
_cell_length_a   9.65009400
_cell_length_b   9.65009425
_cell_length_c   3.79209500
_cell_angle_alpha   90.00000000
_cell_angle_beta   90.00000000
_cell_angle_gamma   119.99999729
_symmetry_Int_Tables_number   1
_chemical_formula_structural   NaSc4Co6Ni3As7
_chemical_formula_sum   'Na1 Sc4 Co6 Ni3 As7'
_cell_volume   305.82497664
_cell_formula_units_Z   1
loop_
 _symmetry_equiv_pos_site_id
 _symmetry_equiv_pos_as_xyz
  1  'x, y, z'
loop_
 _atom_site_type_symbol
 _atom_site_label
 _atom_site_symmetry_multiplicity
 _atom_site_fract_x
 _atom_site_fract_y
 _atom_site_fract_z
 _atom_site_occupancy
  Na  Na0  1  0.666667  0.333333  0.500000  1
  Sc  Sc1  1  0.233176  0.123319  0.500000  1
  Sc  Sc2  1  0.876681  0.109856  0.500000  1
  Sc  Sc3  1  0.890144  0.766824  0.500000  1
  Sc  Sc4  1  0.333333  0.666667  0.000000  1
  Co  Co5  1  0.121989  0.292018  0.000000  1
  Co  Co6  1  0.707982  0.829971  0.000000  1
  Co  Co7  1  0.170029  0.878011  0.000000  1
  Co  Co8  1  0.051596  0.446294  0.500000  1
  Co  Co9  1  0.553706  0.605302  0.500000  1
  Co  Co10  1  0.394698  0.948404  0.500000  1
  Ni  Ni11  1  0.419082  0.365959  0.000000  1
  Ni  Ni12  1  0.634041  0.053124  0.000000  1
  Ni  Ni13  1  0.946876  0.580918  0.000000  1
  As  As14  1  0.282034  0.423641  0.500000  1
  As  As15  1  0.576359  0.858394  0.500000  1
  As  As16  1  0.141606  0.717966  0.500000  1
  As  As17  1  0.427395  0.109875  0.000000  1
  As  As18  1  0.890125  0.317521  0.000000  1
  As  As19  1  0.682479  0.572605  0.000000  1
  As  As20  1  0.000000  0.000000  0.000000  1
