# generated using pymatgen
data_YTh3(Re2Si)8
_symmetry_space_group_name_H-M   'P 1'
_cell_length_a   4.16531400
_cell_length_b   7.29370421
_cell_length_c   15.61413169
_cell_angle_alpha   90.32965037
_cell_angle_beta   90.00000000
_cell_angle_gamma   90.00000000
_symmetry_Int_Tables_number   1
_chemical_formula_structural   YTh3(Re2Si)8
_chemical_formula_sum   'Y1 Th3 Re16 Si8'
_cell_volume   474.35834247
_cell_formula_units_Z   1
loop_
 _symmetry_equiv_pos_site_id
 _symmetry_equiv_pos_as_xyz
  1  'x, y, z'
loop_
 _atom_site_type_symbol
 _atom_site_label
 _atom_site_symmetry_multiplicity
 _atom_site_fract_x
 _atom_site_fract_y
 _atom_site_fract_z
 _atom_site_occupancy
  Y  Y0  1  0.000000  0.584999  0.118015  1
  Th  Th1  1  0.000000  0.418151  0.884017  1
  Th  Th2  1  0.500000  0.082143  0.378945  1
  Th  Th3  1  0.500000  0.913853  0.617931  1
  Re  Re4  1  0.000000  0.151374  0.052901  1
  Re  Re5  1  0.000000  0.864394  0.951259  1
  Re  Re6  1  0.500000  0.639204  0.448389  1
  Re  Re7  1  0.500000  0.356128  0.550617  1
  Re  Re8  1  0.000000  0.735426  0.319575  1
  Re  Re9  1  0.000000  0.260951  0.678996  1
  Re  Re10  1  0.500000  0.240840  0.177076  1
  Re  Re11  1  0.500000  0.762996  0.823090  1
  Re  Re12  1  0.000000  0.426594  0.417918  1
  Re  Re13  1  0.000000  0.569195  0.579998  1
  Re  Re14  1  0.500000  0.935786  0.083698  1
  Re  Re15  1  0.500000  0.073926  0.922069  1
  Re  Re16  1  0.000000  0.989551  0.203646  1
  Re  Re17  1  0.000000  0.002146  0.795201  1
  Re  Re18  1  0.500000  0.494440  0.292889  1
  Re  Re19  1  0.500000  0.500929  0.707219  1
  Si  Si20  1  0.000000  0.826942  0.473940  1
  Si  Si21  1  0.000000  0.169174  0.523884  1
  Si  Si22  1  0.500000  0.339902  0.025679  1
  Si  Si23  1  0.500000  0.675199  0.978419  1
  Si  Si24  1  0.000000  0.300493  0.268476  1
  Si  Si25  1  0.000000  0.697535  0.727163  1
  Si  Si26  1  0.500000  0.789756  0.224041  1
  Si  Si27  1  0.500000  0.197973  0.774948  1
