# generated using pymatgen
data_Y4Sc6AlSb5
_symmetry_space_group_name_H-M   'P 1'
_cell_length_a   6.10049800
_cell_length_b   8.71594756
_cell_length_c   8.61369545
_cell_angle_alpha   120.39347253
_cell_angle_beta   90.00000129
_cell_angle_gamma   90.00001339
_symmetry_Int_Tables_number   1
_chemical_formula_structural   Y4Sc6AlSb5
_chemical_formula_sum   'Y4 Sc6 Al1 Sb5'
_cell_volume   395.06123878
_cell_formula_units_Z   1
loop_
 _symmetry_equiv_pos_site_id
 _symmetry_equiv_pos_as_xyz
  1  'x, y, z'
loop_
 _atom_site_type_symbol
 _atom_site_label
 _atom_site_symmetry_multiplicity
 _atom_site_fract_x
 _atom_site_fract_y
 _atom_site_fract_z
 _atom_site_occupancy
  Y  Y0  1  0.750001  0.754640  0.765051  1
  Y  Y1  1  0.750001  0.989589  0.234949  1
  Y  Y2  1  0.250000  0.243039  0.239747  1
  Y  Y3  1  0.250000  0.003292  0.760253  1
  Sc  Sc4  1  0.502211  0.336946  0.671085  1
  Sc  Sc5  1  0.502211  0.665862  0.328915  1
  Sc  Sc6  1  0.997792  0.665861  0.328916  1
  Sc  Sc7  1  0.997792  0.336945  0.671084  1
  Sc  Sc8  1  0.750000  0.254329  0.000000  1
  Sc  Sc9  1  0.249998  0.751216  0.000000  1
  Al  Al10  1  0.750002  0.593404  0.000000  1
  Sb  Sb11  1  0.749998  0.391726  0.387621  1
  Sb  Sb12  1  0.749998  0.004103  0.612379  1
  Sb  Sb13  1  0.249998  0.405491  0.000000  1
  Sb  Sb14  1  0.250000  0.607088  0.610619  1
  Sb  Sb15  1  0.250000  0.996470  0.389381  1
