# generated using pymatgen
data_Yb15U(CdRu)4
_symmetry_space_group_name_H-M   'P 1'
_cell_length_a   10.04459534
_cell_length_b   10.04459435
_cell_length_c   10.04459578
_cell_angle_alpha   58.21455685
_cell_angle_beta   58.21455798
_cell_angle_gamma   58.21455464
_symmetry_Int_Tables_number   1
_chemical_formula_structural   Yb15U(CdRu)4
_chemical_formula_sum   'Yb15 U1 Cd4 Ru4'
_cell_volume   687.29384028
_cell_formula_units_Z   1
loop_
 _symmetry_equiv_pos_site_id
 _symmetry_equiv_pos_as_xyz
  1  'x, y, z'
loop_
 _atom_site_type_symbol
 _atom_site_label
 _atom_site_symmetry_multiplicity
 _atom_site_fract_x
 _atom_site_fract_y
 _atom_site_fract_z
 _atom_site_occupancy
  Yb  Yb0  1  0.443610  0.443610  0.059503  1
  Yb  Yb1  1  0.052638  0.052638  0.437121  1
  Yb  Yb2  1  0.437121  0.052638  0.052638  1
  Yb  Yb3  1  0.307891  0.699919  0.307891  1
  Yb  Yb4  1  0.703259  0.703259  0.297895  1
  Yb  Yb5  1  0.699919  0.307891  0.307891  1
  Yb  Yb6  1  0.284808  0.909537  0.909537  1
  Yb  Yb7  1  0.909537  0.284808  0.909537  1
  Yb  Yb8  1  0.297895  0.703259  0.703259  1
  Yb  Yb9  1  0.909537  0.909537  0.284808  1
  Yb  Yb10  1  0.052638  0.437121  0.052638  1
  Yb  Yb11  1  0.307891  0.307891  0.699919  1
  Yb  Yb12  1  0.059503  0.443610  0.443610  1
  Yb  Yb13  1  0.443610  0.059503  0.443610  1
  Yb  Yb14  1  0.703259  0.297895  0.703259  1
  U  U15  1  0.924368  0.924368  0.924368  1
  Cd  Cd16  1  0.671187  0.671187  0.992531  1
  Cd  Cd17  1  0.992531  0.671187  0.671187  1
  Cd  Cd18  1  0.671187  0.992531  0.671187  1
  Cd  Cd19  1  0.670650  0.670650  0.670650  1
  Ru  Ru20  1  0.080814  0.080814  0.682763  1
  Ru  Ru21  1  0.112571  0.112571  0.112571  1
  Ru  Ru22  1  0.080814  0.682763  0.080814  1
  Ru  Ru23  1  0.682763  0.080814  0.080814  1
