# generated using pymatgen
data_Y11ErInCo4Au
_symmetry_space_group_name_H-M   'P 1'
_cell_length_a   8.38308132
_cell_length_b   8.37619189
_cell_length_c   8.37619188
_cell_angle_alpha   110.98592174
_cell_angle_beta   110.55440121
_cell_angle_gamma   106.87216829
_symmetry_Int_Tables_number   1
_chemical_formula_structural   Y11ErInCo4Au
_chemical_formula_sum   'Y11 Er1 In1 Co4 Au1'
_cell_volume   452.25049592
_cell_formula_units_Z   1
loop_
 _symmetry_equiv_pos_site_id
 _symmetry_equiv_pos_as_xyz
  1  'x, y, z'
loop_
 _atom_site_type_symbol
 _atom_site_label
 _atom_site_symmetry_multiplicity
 _atom_site_fract_x
 _atom_site_fract_y
 _atom_site_fract_z
 _atom_site_occupancy
  Y  Y0  1  0.186018  0.290550  0.477390  1
  Y  Y1  1  0.813450  0.708373  0.520618  1
  Y  Y2  1  0.186018  0.708629  0.895468  1
  Y  Y3  1  0.813450  0.292831  0.105077  1
  Y  Y4  1  0.315116  0.619396  0.303387  1
  Y  Y5  1  0.685221  0.381488  0.697309  1
  Y  Y6  1  0.315116  0.011728  0.695719  1
  Y  Y7  1  0.685221  0.987913  0.303735  1
  Y  Y8  1  0.425285  0.220978  0.204308  1
  Y  Y9  1  0.575325  0.779138  0.796187  1
  Y  Y10  1  0.016774  0.220394  0.796379  1
  Er  Er11  1  0.985555  0.780447  0.205107  1
  In  In12  1  0.500710  0.500323  0.000388  1
  Co  Co13  1  0.110019  0.610900  0.499118  1
  Co  Co14  1  0.889550  0.389281  0.500269  1
  Co  Co15  1  0.378040  0.998978  0.379062  1
  Co  Co16  1  0.619074  0.000250  0.618824  1
  Au  Au17  1  0.000058  0.998402  0.001656  1
