# generated using pymatgen
data_Pr3Th(HgPd2)2
_symmetry_space_group_name_H-M   'P 1'
_cell_length_a   7.91530606
_cell_length_b   7.91530617
_cell_length_c   3.88570700
_cell_angle_alpha   90.00000000
_cell_angle_beta   90.00000000
_cell_angle_gamma   91.33807285
_symmetry_Int_Tables_number   1
_chemical_formula_structural   Pr3Th(HgPd2)2
_chemical_formula_sum   'Pr3 Th1 Hg2 Pd4'
_cell_volume   243.38120531
_cell_formula_units_Z   1
loop_
 _symmetry_equiv_pos_site_id
 _symmetry_equiv_pos_as_xyz
  1  'x, y, z'
loop_
 _atom_site_type_symbol
 _atom_site_label
 _atom_site_symmetry_multiplicity
 _atom_site_fract_x
 _atom_site_fract_y
 _atom_site_fract_z
 _atom_site_occupancy
  Pr  Pr0  1  0.824613  0.674680  0.500000  1
  Pr  Pr1  1  0.174680  0.324613  0.500000  1
  Pr  Pr2  1  0.676291  0.176291  0.500000  1
  Th  Th3  1  0.326806  0.826806  0.500000  1
  Hg  Hg4  1  0.996087  0.000911  0.000000  1
  Hg  Hg5  1  0.500911  0.496087  0.000000  1
  Pd  Pd6  1  0.369723  0.116475  0.000000  1
  Pd  Pd7  1  0.879199  0.379199  0.000000  1
  Pd  Pd8  1  0.135214  0.635214  0.000000  1
  Pd  Pd9  1  0.616475  0.869723  0.000000  1
