# generated using pymatgen
data_Ho2Er6Ti9Si16Tc3
_symmetry_space_group_name_H-M   'P 1'
_cell_length_a   6.95857700
_cell_length_b   6.95857419
_cell_length_c   12.77412818
_cell_angle_alpha   90.05653942
_cell_angle_beta   89.93628402
_cell_angle_gamma   90.02136219
_symmetry_Int_Tables_number   1
_chemical_formula_structural   Ho2Er6Ti9Si16Tc3
_chemical_formula_sum   'Ho2 Er6 Ti9 Si16 Tc3'
_cell_volume   618.54522547
_cell_formula_units_Z   1
loop_
 _symmetry_equiv_pos_site_id
 _symmetry_equiv_pos_as_xyz
  1  'x, y, z'
loop_
 _atom_site_type_symbol
 _atom_site_label
 _atom_site_symmetry_multiplicity
 _atom_site_fract_x
 _atom_site_fract_y
 _atom_site_fract_z
 _atom_site_occupancy
  Ho  Ho0  1  0.340565  0.001534  0.467235  1
  Ho  Ho1  1  0.498838  0.841655  0.719457  1
  Er  Er2  1  0.500131  0.158602  0.217824  1
  Er  Er3  1  0.841958  0.498918  0.280499  1
  Er  Er4  1  0.158450  0.500087  0.782250  1
  Er  Er5  1  0.658829  0.999585  0.968452  1
  Er  Er6  1  0.001480  0.340677  0.532669  1
  Er  Er7  1  0.999519  0.658791  0.031605  1
  Ti  Ti8  1  0.673886  0.673666  0.499944  1
  Ti  Ti9  1  0.151618  0.005382  0.876872  1
  Ti  Ti10  1  0.494732  0.653059  0.124323  1
  Ti  Ti11  1  0.504911  0.348179  0.627345  1
  Ti  Ti12  1  0.653128  0.494694  0.875767  1
  Ti  Ti13  1  0.348202  0.504813  0.372645  1
  Ti  Ti14  1  0.847547  0.992597  0.375587  1
  Ti  Ti15  1  0.005212  0.151692  0.123206  1
  Ti  Ti16  1  0.992554  0.847512  0.624387  1
  Si  Si17  1  0.200435  0.130230  0.683483  1
  Si  Si18  1  0.369689  0.701035  0.932690  1
  Si  Si19  1  0.632229  0.296943  0.433794  1
  Si  Si20  1  0.701125  0.369746  0.067462  1
  Si  Si21  1  0.296465  0.631535  0.566068  1
  Si  Si22  1  0.798453  0.869416  0.183110  1
  Si  Si23  1  0.129779  0.200991  0.316483  1
  Si  Si24  1  0.869727  0.798411  0.816957  1
  Si  Si25  1  0.291026  0.952211  0.066629  1
  Si  Si26  1  0.547174  0.790657  0.315667  1
  Si  Si27  1  0.452269  0.210374  0.816731  1
  Si  Si28  1  0.790979  0.546796  0.684236  1
  Si  Si29  1  0.209983  0.452396  0.183357  1
  Si  Si30  1  0.708027  0.049293  0.567305  1
  Si  Si31  1  0.952220  0.291039  0.933398  1
  Si  Si32  1  0.048798  0.707349  0.432614  1
  Tc  Tc33  1  0.327940  0.327968  0.000018  1
  Tc  Tc34  1  0.173825  0.828157  0.248569  1
  Tc  Tc35  1  0.828298  0.174011  0.751361  1
