# generated using pymatgen
data_K6NbInAs4
_symmetry_space_group_name_H-M   'P 1'
_cell_length_a   18.99637600
_cell_length_b   10.52470900
_cell_length_c   7.83332600
_cell_angle_alpha   90.00000000
_cell_angle_beta   90.00000000
_cell_angle_gamma   90.00000000
_symmetry_Int_Tables_number   1
_chemical_formula_structural   K6NbInAs4
_chemical_formula_sum   'K24 Nb4 In4 As16'
_cell_volume   1566.12728123
_cell_formula_units_Z   4
loop_
 _symmetry_equiv_pos_site_id
 _symmetry_equiv_pos_as_xyz
  1  'x, y, z'
loop_
 _atom_site_type_symbol
 _atom_site_label
 _atom_site_symmetry_multiplicity
 _atom_site_fract_x
 _atom_site_fract_y
 _atom_site_fract_z
 _atom_site_occupancy
  K  K0  1  0.743140  0.546079  0.007176  1
  K  K1  1  0.743140  0.953922  0.007176  1
  K  K2  1  0.002515  0.250000  0.055798  1
  K  K3  1  0.651912  0.250000  0.179662  1
  K  K4  1  0.421256  0.520109  0.220440  1
  K  K5  1  0.421256  0.979891  0.220440  1
  K  K6  1  0.921256  0.520109  0.279559  1
  K  K7  1  0.921256  0.979891  0.279559  1
  K  K8  1  0.151912  0.250000  0.320338  1
  K  K9  1  0.502515  0.250000  0.444202  1
  K  K10  1  0.243140  0.546079  0.492825  1
  K  K11  1  0.243140  0.953922  0.492825  1
  K  K12  1  0.756860  0.046078  0.507176  1
  K  K13  1  0.756860  0.453921  0.507176  1
  K  K14  1  0.497485  0.750000  0.555799  1
  K  K15  1  0.848088  0.750000  0.679661  1
  K  K16  1  0.078743  0.020109  0.720441  1
  K  K17  1  0.078743  0.479891  0.720441  1
  K  K18  1  0.578743  0.020109  0.779559  1
  K  K19  1  0.578743  0.479891  0.779559  1
  K  K20  1  0.348088  0.750000  0.820339  1
  K  K21  1  0.997485  0.750000  0.944202  1
  K  K22  1  0.256859  0.046078  0.992824  1
  K  K23  1  0.256859  0.453921  0.992824  1
  Nb  Nb24  1  0.169487  0.750000  0.103737  1
  Nb  Nb25  1  0.669487  0.750000  0.396262  1
  Nb  Nb26  1  0.330513  0.250000  0.603738  1
  Nb  Nb27  1  0.830513  0.250000  0.896262  1
  In  In28  1  0.553659  0.750000  0.063631  1
  In  In29  1  0.053659  0.750000  0.436369  1
  In  In30  1  0.946341  0.250000  0.563631  1
  In  In31  1  0.446341  0.250000  0.936369  1
  As  As32  1  0.294359  0.750000  0.204498  1
  As  As33  1  0.101258  0.557473  0.215192  1
  As  As34  1  0.101258  0.942527  0.215192  1
  As  As35  1  0.830546  0.250000  0.213875  1
  As  As36  1  0.330546  0.250000  0.286124  1
  As  As37  1  0.601258  0.557473  0.284808  1
  As  As38  1  0.601258  0.942527  0.284808  1
  As  As39  1  0.794359  0.750000  0.295501  1
  As  As40  1  0.205641  0.250000  0.704498  1
  As  As41  1  0.398742  0.057473  0.715191  1
  As  As42  1  0.398742  0.442527  0.715191  1
  As  As43  1  0.669455  0.750000  0.713875  1
  As  As44  1  0.169454  0.750000  0.786125  1
  As  As45  1  0.898742  0.057473  0.784809  1
  As  As46  1  0.898742  0.442527  0.784809  1
  As  As47  1  0.705641  0.250000  0.795502  1
