# generated using pymatgen
data_Tb9Al(Ni2Hg)2
_symmetry_space_group_name_H-M   'P 1'
_cell_length_a   8.62426497
_cell_length_b   8.62425504
_cell_length_c   8.61579838
_cell_angle_alpha   128.37628964
_cell_angle_beta   128.33157473
_cell_angle_gamma   76.12437366
_symmetry_Int_Tables_number   1
_chemical_formula_structural   Tb9Al(Ni2Hg)2
_chemical_formula_sum   'Tb9 Al1 Ni4 Hg2'
_cell_volume   382.93359458
_cell_formula_units_Z   1
loop_
 _symmetry_equiv_pos_site_id
 _symmetry_equiv_pos_as_xyz
  1  'x, y, z'
loop_
 _atom_site_type_symbol
 _atom_site_label
 _atom_site_symmetry_multiplicity
 _atom_site_fract_x
 _atom_site_fract_y
 _atom_site_fract_z
 _atom_site_occupancy
  Tb  Tb0  1  0.000000  0.000000  0.000000  1
  Tb  Tb1  1  0.780314  0.317742  0.837330  1
  Tb  Tb2  1  0.219686  0.682258  0.162670  1
  Tb  Tb3  1  0.480414  0.942987  0.162672  1
  Tb  Tb4  1  0.317580  0.480485  0.537431  1
  Tb  Tb5  1  0.056944  0.219850  0.537429  1
  Tb  Tb6  1  0.519586  0.057013  0.837328  1
  Tb  Tb7  1  0.682420  0.519515  0.462569  1
  Tb  Tb8  1  0.943056  0.780150  0.462571  1
  Al  Al9  1  0.500000  0.500000  0.000000  1
  Ni  Ni10  1  0.123262  0.626843  0.750103  1
  Ni  Ni11  1  0.876738  0.373157  0.249897  1
  Ni  Ni12  1  0.626555  0.876831  0.503386  1
  Ni  Ni13  1  0.373445  0.123169  0.496614  1
  Hg  Hg14  1  0.237002  0.237003  0.999999  1
  Hg  Hg15  1  0.762998  0.762997  0.000001  1
