# generated using pymatgen
data_Pr3Nd5(HgPd)2
_symmetry_space_group_name_H-M   'P 1'
_cell_length_a   10.02078666
_cell_length_b   10.02078648
_cell_length_c   10.02078600
_cell_angle_alpha   60.00000157
_cell_angle_beta   60.00000217
_cell_angle_gamma   60.00000085
_symmetry_Int_Tables_number   1
_chemical_formula_structural   Pr3Nd5(HgPd)2
_chemical_formula_sum   'Pr6 Nd10 Hg4 Pd4'
_cell_volume   711.52543434
_cell_formula_units_Z   2
loop_
 _symmetry_equiv_pos_site_id
 _symmetry_equiv_pos_as_xyz
  1  'x, y, z'
loop_
 _atom_site_type_symbol
 _atom_site_label
 _atom_site_symmetry_multiplicity
 _atom_site_fract_x
 _atom_site_fract_y
 _atom_site_fract_z
 _atom_site_occupancy
  Pr  Pr0  1  0.936372  0.563628  0.563628  1
  Pr  Pr1  1  0.563628  0.936372  0.936372  1
  Pr  Pr2  1  0.563628  0.936372  0.563628  1
  Pr  Pr3  1  0.936372  0.563628  0.936372  1
  Pr  Pr4  1  0.563628  0.563628  0.936372  1
  Pr  Pr5  1  0.936372  0.936372  0.563628  1
  Nd  Nd6  1  0.353629  0.353629  0.353629  1
  Nd  Nd7  1  0.353629  0.353629  0.939112  1
  Nd  Nd8  1  0.353629  0.939112  0.353629  1
  Nd  Nd9  1  0.939112  0.353629  0.353629  1
  Nd  Nd10  1  0.808846  0.191154  0.191154  1
  Nd  Nd11  1  0.191154  0.808846  0.808846  1
  Nd  Nd12  1  0.191154  0.808846  0.191154  1
  Nd  Nd13  1  0.808846  0.191154  0.808846  1
  Nd  Nd14  1  0.191154  0.191154  0.808846  1
  Nd  Nd15  1  0.808846  0.808846  0.191154  1
  Hg  Hg16  1  0.584547  0.584547  0.584547  1
  Hg  Hg17  1  0.584547  0.584547  0.246358  1
  Hg  Hg18  1  0.584547  0.246358  0.584547  1
  Hg  Hg19  1  0.246358  0.584547  0.584547  1
  Pd  Pd20  1  0.144285  0.144285  0.144285  1
  Pd  Pd21  1  0.144285  0.144285  0.567145  1
  Pd  Pd22  1  0.144285  0.567145  0.144285  1
  Pd  Pd23  1  0.567145  0.144285  0.144285  1
