# generated using pymatgen
data_Dy4MoI4
_symmetry_space_group_name_H-M   'P 1'
_cell_length_a   11.35108228
_cell_length_b   11.35108229
_cell_length_c   5.99675932
_cell_angle_alpha   90.40348998
_cell_angle_beta   90.40348556
_cell_angle_gamma   89.99847787
_symmetry_Int_Tables_number   1
_chemical_formula_structural   Dy4MoI4
_chemical_formula_sum   'Dy8 Mo2 I8'
_cell_volume   772.62654389
_cell_formula_units_Z   2
loop_
 _symmetry_equiv_pos_site_id
 _symmetry_equiv_pos_as_xyz
  1  'x, y, z'
loop_
 _atom_site_type_symbol
 _atom_site_label
 _atom_site_symmetry_multiplicity
 _atom_site_fract_x
 _atom_site_fract_y
 _atom_site_fract_z
 _atom_site_occupancy
  Dy  Dy0  1  0.206551  0.915192  0.002737  1
  Dy  Dy1  1  0.793449  0.084808  0.997263  1
  Dy  Dy2  1  0.084808  0.793449  0.497263  1
  Dy  Dy3  1  0.915192  0.206551  0.502737  1
  Dy  Dy4  1  0.793380  0.915220  0.496465  1
  Dy  Dy5  1  0.206620  0.084780  0.503535  1
  Dy  Dy6  1  0.084780  0.206620  0.003535  1
  Dy  Dy7  1  0.915220  0.793380  0.996465  1
  Mo  Mo8  1  0.999798  0.000202  0.250000  1
  Mo  Mo9  1  0.000202  0.999798  0.750000  1
  I  I10  1  0.359341  0.848601  0.495027  1
  I  I11  1  0.640659  0.151399  0.504973  1
  I  I12  1  0.151399  0.640659  0.004973  1
  I  I13  1  0.848601  0.359341  0.995027  1
  I  I14  1  0.359214  0.151597  0.013106  1
  I  I15  1  0.640786  0.848403  0.986894  1
  I  I16  1  0.848403  0.640786  0.486894  1
  I  I17  1  0.151597  0.359214  0.513106  1
