# generated using pymatgen
data_La2Nd2GdRu2
_symmetry_space_group_name_H-M   'P 1'
_cell_length_a   9.09711139
_cell_length_b   9.09711126
_cell_length_c   7.34500100
_cell_angle_alpha   84.44611036
_cell_angle_beta   84.44611043
_cell_angle_gamma   43.12192442
_symmetry_Int_Tables_number   1
_chemical_formula_structural   La2Nd2GdRu2
_chemical_formula_sum   'La4 Nd4 Gd2 Ru4'
_cell_volume   413.24422009
_cell_formula_units_Z   2
loop_
 _symmetry_equiv_pos_site_id
 _symmetry_equiv_pos_as_xyz
  1  'x, y, z'
loop_
 _atom_site_type_symbol
 _atom_site_label
 _atom_site_symmetry_multiplicity
 _atom_site_fract_x
 _atom_site_fract_y
 _atom_site_fract_z
 _atom_site_occupancy
  La  La0  1  0.018115  0.794640  0.905226  1
  La  La1  1  0.205360  0.981885  0.594774  1
  La  La2  1  0.981885  0.205360  0.094774  1
  La  La3  1  0.794640  0.018115  0.405226  1
  Nd  Nd4  1  0.363216  0.208977  0.816395  1
  Nd  Nd5  1  0.791023  0.636784  0.683605  1
  Nd  Nd6  1  0.636784  0.791023  0.183605  1
  Nd  Nd7  1  0.208977  0.363216  0.316395  1
  Gd  Gd8  1  0.570267  0.429733  0.750000  1
  Gd  Gd9  1  0.429733  0.570267  0.250000  1
  Ru  Ru10  1  0.169588  0.610527  0.584619  1
  Ru  Ru11  1  0.389473  0.830412  0.915381  1
  Ru  Ru12  1  0.830412  0.389473  0.415381  1
  Ru  Ru13  1  0.610527  0.169588  0.084619  1
