# generated using pymatgen
data_Yb6YErSb6
_symmetry_space_group_name_H-M   'P 1'
_cell_length_a   8.09767288
_cell_length_b   8.10136296
_cell_length_c   9.37702106
_cell_angle_alpha   55.05009784
_cell_angle_beta   55.06217157
_cell_angle_gamma   70.82703915
_symmetry_Int_Tables_number   1
_chemical_formula_structural   Yb6YErSb6
_chemical_formula_sum   'Yb6 Y1 Er1 Sb6'
_cell_volume   413.33999428
_cell_formula_units_Z   1
loop_
 _symmetry_equiv_pos_site_id
 _symmetry_equiv_pos_as_xyz
  1  'x, y, z'
loop_
 _atom_site_type_symbol
 _atom_site_label
 _atom_site_symmetry_multiplicity
 _atom_site_fract_x
 _atom_site_fract_y
 _atom_site_fract_z
 _atom_site_occupancy
  Yb  Yb0  1  0.999446  0.137847  0.109064  1
  Yb  Yb1  1  0.862248  0.999904  0.891324  1
  Yb  Yb2  1  0.499070  0.852925  0.751022  1
  Yb  Yb3  1  0.147089  0.500930  0.249006  1
  Yb  Yb4  1  0.998923  0.649217  0.600966  1
  Yb  Yb5  1  0.350774  0.001074  0.399071  1
  Y  Y6  1  0.500523  0.357615  0.752455  1
  Er  Er7  1  0.641965  0.499587  0.247294  1
  Sb  Sb8  1  0.865729  0.134524  0.499471  1
  Sb  Sb9  1  0.626268  0.374179  0.000932  1
  Sb  Sb10  1  0.260690  0.257760  0.620314  1
  Sb  Sb11  1  0.742966  0.740216  0.378032  1
  Sb  Sb12  1  0.121707  0.618157  0.879142  1
  Sb  Sb13  1  0.382604  0.876064  0.121908  1
