# generated using pymatgen
data_Ca2Al20Fe3Pd
_symmetry_space_group_name_H-M   'P 1'
_cell_length_a   6.83683120
_cell_length_b   6.82397377
_cell_length_c   9.05777601
_cell_angle_alpha   90.13433579
_cell_angle_beta   89.97821072
_cell_angle_gamma   96.92212884
_symmetry_Int_Tables_number   1
_chemical_formula_structural   Ca2Al20Fe3Pd
_chemical_formula_sum   'Ca2 Al20 Fe3 Pd1'
_cell_volume   419.50328317
_cell_formula_units_Z   1
loop_
 _symmetry_equiv_pos_site_id
 _symmetry_equiv_pos_as_xyz
  1  'x, y, z'
loop_
 _atom_site_type_symbol
 _atom_site_label
 _atom_site_symmetry_multiplicity
 _atom_site_fract_x
 _atom_site_fract_y
 _atom_site_fract_z
 _atom_site_occupancy
  Ca  Ca0  1  0.876998  0.124324  0.249008  1
  Ca  Ca1  1  0.123002  0.875676  0.750992  1
  Al  Al2  1  0.219121  0.232125  0.495077  1
  Al  Al3  1  0.776356  0.772929  0.000588  1
  Al  Al4  1  0.780879  0.767875  0.504923  1
  Al  Al5  1  0.223644  0.227071  0.999412  1
  Al  Al6  1  0.370970  0.615337  0.550775  1
  Al  Al7  1  0.626221  0.376645  0.047659  1
  Al  Al8  1  0.587958  0.862054  0.756998  1
  Al  Al9  1  0.412042  0.137946  0.243002  1
  Al  Al10  1  0.866452  0.583951  0.248222  1
  Al  Al11  1  0.133548  0.416049  0.751778  1
  Al  Al12  1  0.477579  0.226161  0.759624  1
  Al  Al13  1  0.522421  0.773839  0.240376  1
  Al  Al14  1  0.220285  0.477669  0.248750  1
  Al  Al15  1  0.779715  0.522331  0.751250  1
  Al  Al16  1  0.152144  0.835264  0.398847  1
  Al  Al17  1  0.840923  0.158067  0.905114  1
  Al  Al18  1  0.847856  0.164736  0.601153  1
  Al  Al19  1  0.159077  0.841933  0.094886  1
  Al  Al20  1  0.373779  0.623355  0.952341  1
  Al  Al21  1  0.629030  0.384663  0.449225  1
  Fe  Fe22  1  0.000000  0.500000  0.500000  1
  Fe  Fe23  1  0.000000  0.500000  0.000000  1
  Fe  Fe24  1  0.500000  0.000000  0.000000  1
  Pd  Pd25  1  0.500000  0.000000  0.500000  1
