# generated using pymatgen
data_Er2Pa2ReB12W
_symmetry_space_group_name_H-M   'P 1'
_cell_length_a   3.72364400
_cell_length_b   9.16576617
_cell_length_c   11.52165047
_cell_angle_alpha   89.94202690
_cell_angle_beta   90.00000000
_cell_angle_gamma   90.00000000
_symmetry_Int_Tables_number   1
_chemical_formula_structural   Er2Pa2ReB12W
_chemical_formula_sum   'Er4 Pa4 Re2 B24 W2'
_cell_volume   393.23430796
_cell_formula_units_Z   2
loop_
 _symmetry_equiv_pos_site_id
 _symmetry_equiv_pos_as_xyz
  1  'x, y, z'
loop_
 _atom_site_type_symbol
 _atom_site_label
 _atom_site_symmetry_multiplicity
 _atom_site_fract_x
 _atom_site_fract_y
 _atom_site_fract_z
 _atom_site_occupancy
  Er  Er0  1  0.000000  0.945734  0.374241  1
  Er  Er1  1  0.000000  0.054266  0.625759  1
  Er  Er2  1  0.000000  0.445265  0.125675  1
  Er  Er3  1  0.000000  0.554735  0.874325  1
  Pa  Pa4  1  0.000000  0.322455  0.413803  1
  Pa  Pa5  1  0.000000  0.677545  0.586197  1
  Pa  Pa6  1  0.000000  0.821121  0.087426  1
  Pa  Pa7  1  0.000000  0.178879  0.912574  1
  Re  Re8  1  0.000000  0.138153  0.177471  1
  Re  Re9  1  0.000000  0.861847  0.822529  1
  B  B10  1  0.500000  0.552900  0.433095  1
  B  B11  1  0.500000  0.447100  0.566905  1
  B  B12  1  0.500000  0.053444  0.066845  1
  B  B13  1  0.500000  0.946556  0.933155  1
  B  B14  1  0.500000  0.748669  0.420689  1
  B  B15  1  0.500000  0.251331  0.579311  1
  B  B16  1  0.500000  0.248898  0.080104  1
  B  B17  1  0.500000  0.751102  0.919896  1
  B  B18  1  0.500000  0.794322  0.264898  1
  B  B19  1  0.500000  0.205678  0.735102  1
  B  B20  1  0.500000  0.292303  0.233993  1
  B  B21  1  0.500000  0.707697  0.766007  1
  B  B22  1  0.500000  0.633252  0.184227  1
  B  B23  1  0.500000  0.366748  0.815773  1
  B  B24  1  0.500000  0.132088  0.314314  1
  B  B25  1  0.500000  0.867912  0.685686  1
  B  B26  1  0.500000  0.982937  0.213091  1
  B  B27  1  0.500000  0.017063  0.786909  1
  B  B28  1  0.500000  0.481552  0.286266  1
  B  B29  1  0.500000  0.518448  0.713734  1
  B  B30  1  0.500000  0.610289  0.029889  1
  B  B31  1  0.500000  0.389711  0.970111  1
  B  B32  1  0.500000  0.109712  0.468778  1
  B  B33  1  0.500000  0.890288  0.531222  1
  W  W34  1  0.000000  0.638895  0.321132  1
  W  W35  1  0.000000  0.361105  0.678868  1
