# generated using pymatgen
data_Nd2MnZn(SiIr2)2
_symmetry_space_group_name_H-M   'P 1'
_cell_length_a   4.11027300
_cell_length_b   4.11027800
_cell_length_c   10.62204100
_cell_angle_alpha   90.00000000
_cell_angle_beta   90.00000000
_cell_angle_gamma   90.00000000
_symmetry_Int_Tables_number   1
_chemical_formula_structural   Nd2MnZn(SiIr2)2
_chemical_formula_sum   'Nd2 Mn1 Zn1 Si2 Ir4'
_cell_volume   179.45263436
_cell_formula_units_Z   1
loop_
 _symmetry_equiv_pos_site_id
 _symmetry_equiv_pos_as_xyz
  1  'x, y, z'
loop_
 _atom_site_type_symbol
 _atom_site_label
 _atom_site_symmetry_multiplicity
 _atom_site_fract_x
 _atom_site_fract_y
 _atom_site_fract_z
 _atom_site_occupancy
  Nd  Nd0  1  0.000000  0.500000  0.247707  1
  Nd  Nd1  1  0.500000  0.000000  0.752293  1
  Mn  Mn2  1  0.000000  0.000000  0.499999  1
  Zn  Zn3  1  0.500000  0.500000  0.500001  1
  Si  Si4  1  0.000000  0.500000  0.878757  1
  Si  Si5  1  0.500000  0.000000  0.121243  1
  Ir  Ir6  1  0.000000  0.000000  0.000000  1
  Ir  Ir7  1  0.500000  0.500000  0.000000  1
  Ir  Ir8  1  0.000000  0.500000  0.652793  1
  Ir  Ir9  1  0.500000  0.000000  0.347207  1
