# generated using pymatgen
data_PrTh(AuBr6)2
_symmetry_space_group_name_H-M   'P 1'
_cell_length_a   8.49161263
_cell_length_b   10.71325903
_cell_length_c   15.03294254
_cell_angle_alpha   102.68986363
_cell_angle_beta   96.66507362
_cell_angle_gamma   112.72581801
_symmetry_Int_Tables_number   1
_chemical_formula_structural   PrTh(AuBr6)2
_chemical_formula_sum   'Pr2 Th2 Au4 Br24'
_cell_volume   1199.53134925
_cell_formula_units_Z   2
loop_
 _symmetry_equiv_pos_site_id
 _symmetry_equiv_pos_as_xyz
  1  'x, y, z'
loop_
 _atom_site_type_symbol
 _atom_site_label
 _atom_site_symmetry_multiplicity
 _atom_site_fract_x
 _atom_site_fract_y
 _atom_site_fract_z
 _atom_site_occupancy
  Pr  Pr0  1  0.980798  0.315818  0.874039  1
  Pr  Pr1  1  0.019202  0.684182  0.125961  1
  Th  Th2  1  0.576047  0.909887  0.623639  1
  Th  Th3  1  0.423953  0.090113  0.376361  1
  Au  Au4  1  0.293252  0.626781  0.761246  1
  Au  Au5  1  0.706748  0.373219  0.238754  1
  Au  Au6  1  0.500000  0.500000  0.500000  1
  Au  Au7  1  0.000000  0.000000  0.000000  1
  Br  Br8  1  0.611539  0.729818  0.749073  1
  Br  Br9  1  0.388461  0.270182  0.250927  1
  Br  Br10  1  0.284234  0.848339  0.731661  1
  Br  Br11  1  0.715766  0.151661  0.268339  1
  Br  Br12  1  0.976680  0.531437  0.771403  1
  Br  Br13  1  0.023320  0.468563  0.228597  1
  Br  Br14  1  0.308076  0.408155  0.791067  1
  Br  Br15  1  0.691924  0.591845  0.208933  1
  Br  Br16  1  0.698160  0.369155  0.501838  1
  Br  Br17  1  0.301840  0.630845  0.498162  1
  Br  Br18  1  0.757849  0.738546  0.525778  1
  Br  Br19  1  0.242151  0.261454  0.474222  1
  Br  Br20  1  0.787230  0.105809  0.976123  1
  Br  Br21  1  0.212770  0.894191  0.023877  1
  Br  Br22  1  0.772824  0.798736  0.040139  1
  Br  Br23  1  0.227176  0.201264  0.959861  1
  Br  Br24  1  0.617807  0.181954  0.737200  1
  Br  Br25  1  0.382193  0.818046  0.262800  1
  Br  Br26  1  0.941427  0.049645  0.721080  1
  Br  Br27  1  0.058573  0.950355  0.278920  1
  Br  Br28  1  0.716543  0.043720  0.481512  1
  Br  Br29  1  0.283457  0.956280  0.518488  1
  Br  Br30  1  0.761561  0.434054  0.972177  1
  Br  Br31  1  0.238439  0.565946  0.027823  1
