# generated using pymatgen
data_YLuBe2(Ru2C)2
_symmetry_space_group_name_H-M   'P 1'
_cell_length_a   5.65888263
_cell_length_b   5.65888376
_cell_length_c   6.97819000
_cell_angle_alpha   90.00000000
_cell_angle_beta   90.00000000
_cell_angle_gamma   141.18100190
_symmetry_Int_Tables_number   1
_chemical_formula_structural   YLuBe2(Ru2C)2
_chemical_formula_sum   'Y1 Lu1 Be2 Ru4 C2'
_cell_volume   140.08006187
_cell_formula_units_Z   1
loop_
 _symmetry_equiv_pos_site_id
 _symmetry_equiv_pos_as_xyz
  1  'x, y, z'
loop_
 _atom_site_type_symbol
 _atom_site_label
 _atom_site_symmetry_multiplicity
 _atom_site_fract_x
 _atom_site_fract_y
 _atom_site_fract_z
 _atom_site_occupancy
  Y  Y0  1  0.455741  0.544259  0.750000  1
  Lu  Lu1  1  0.544602  0.455398  0.250000  1
  Be  Be2  1  0.271641  0.728359  0.250000  1
  Be  Be3  1  0.728182  0.271818  0.750000  1
  Ru  Ru4  1  0.827090  0.172910  0.058043  1
  Ru  Ru5  1  0.172434  0.827566  0.944978  1
  Ru  Ru6  1  0.172434  0.827566  0.555022  1
  Ru  Ru7  1  0.827090  0.172910  0.441957  1
  C  C8  1  0.000393  0.999607  0.005039  1
  C  C9  1  0.000393  0.999607  0.494961  1
