# generated using pymatgen
data_Tb3Ga6Ni8Rh
_symmetry_space_group_name_H-M   'P 1'
_cell_length_a   4.11379100
_cell_length_b   8.89339797
_cell_length_c   8.89339737
_cell_angle_alpha   58.31207990
_cell_angle_beta   90.00000000
_cell_angle_gamma   90.00000000
_symmetry_Int_Tables_number   1
_chemical_formula_structural   Tb3Ga6Ni8Rh
_chemical_formula_sum   'Tb3 Ga6 Ni8 Rh1'
_cell_volume   276.86454155
_cell_formula_units_Z   1
loop_
 _symmetry_equiv_pos_site_id
 _symmetry_equiv_pos_as_xyz
  1  'x, y, z'
loop_
 _atom_site_type_symbol
 _atom_site_label
 _atom_site_symmetry_multiplicity
 _atom_site_fract_x
 _atom_site_fract_y
 _atom_site_fract_z
 _atom_site_occupancy
  Tb  Tb0  1  0.500000  0.332959  0.333493  1
  Tb  Tb1  1  0.500000  0.666507  0.667041  1
  Tb  Tb2  1  0.000000  0.011763  0.988237  1
  Ga  Ga3  1  0.500000  0.731586  0.268414  1
  Ga  Ga4  1  0.500000  0.274127  0.005268  1
  Ga  Ga5  1  0.500000  0.994732  0.725873  1
  Ga  Ga6  1  0.000000  0.475132  0.524868  1
  Ga  Ga7  1  0.000000  0.520284  0.009753  1
  Ga  Ga8  1  0.000000  0.990247  0.479716  1
  Ni  Ni9  1  0.000000  0.197829  0.175434  1
  Ni  Ni10  1  0.000000  0.166951  0.611350  1
  Ni  Ni11  1  0.000000  0.631868  0.199620  1
  Ni  Ni12  1  0.000000  0.824565  0.802171  1
  Ni  Ni13  1  0.000000  0.388650  0.833049  1
  Ni  Ni14  1  0.000000  0.800380  0.368132  1
  Ni  Ni15  1  0.500000  0.708757  0.004552  1
  Ni  Ni16  1  0.500000  0.995448  0.291243  1
  Rh  Rh17  1  0.500000  0.288115  0.711885  1
