# generated using pymatgen
data_TbEuNi12P5
_symmetry_space_group_name_H-M   'P 1'
_cell_length_a   3.64349200
_cell_length_b   10.80661620
_cell_length_c   13.18154504
_cell_angle_alpha   71.82414998
_cell_angle_beta   90.00000000
_cell_angle_gamma   90.00000000
_symmetry_Int_Tables_number   1
_chemical_formula_structural   TbEuNi12P5
_chemical_formula_sum   'Tb2 Eu2 Ni24 P10'
_cell_volume   493.11116558
_cell_formula_units_Z   2
loop_
 _symmetry_equiv_pos_site_id
 _symmetry_equiv_pos_as_xyz
  1  'x, y, z'
loop_
 _atom_site_type_symbol
 _atom_site_label
 _atom_site_symmetry_multiplicity
 _atom_site_fract_x
 _atom_site_fract_y
 _atom_site_fract_z
 _atom_site_occupancy
  Tb  Tb0  1  0.250000  0.281081  0.681278  1
  Tb  Tb1  1  0.750000  0.718919  0.318722  1
  Eu  Eu2  1  0.250000  0.245173  0.187834  1
  Eu  Eu3  1  0.750000  0.754827  0.812166  1
  Ni  Ni4  1  0.250000  0.837452  0.139073  1
  Ni  Ni5  1  0.750000  0.162548  0.860927  1
  Ni  Ni6  1  0.250000  0.287886  0.439856  1
  Ni  Ni7  1  0.750000  0.712114  0.560144  1
  Ni  Ni8  1  0.250000  0.070012  0.015195  1
  Ni  Ni9  1  0.750000  0.929988  0.984805  1
  Ni  Ni10  1  0.250000  0.064474  0.447527  1
  Ni  Ni11  1  0.750000  0.935526  0.552473  1
  Ni  Ni12  1  0.250000  0.593812  0.695566  1
  Ni  Ni13  1  0.750000  0.406188  0.304434  1
  Ni  Ni14  1  0.250000  0.582247  0.009699  1
  Ni  Ni15  1  0.750000  0.417753  0.990301  1
  Ni  Ni16  1  0.250000  0.580532  0.507754  1
  Ni  Ni17  1  0.750000  0.419468  0.492246  1
  Ni  Ni18  1  0.250000  0.297979  0.915588  1
  Ni  Ni19  1  0.750000  0.702021  0.084412  1
  Ni  Ni20  1  0.250000  0.997520  0.658185  1
  Ni  Ni21  1  0.750000  0.002480  0.341815  1
  Ni  Ni22  1  0.250000  0.838175  0.437970  1
  Ni  Ni23  1  0.750000  0.161825  0.562030  1
  Ni  Ni24  1  0.250000  0.994387  0.847797  1
  Ni  Ni25  1  0.750000  0.005613  0.152203  1
  Ni  Ni26  1  0.250000  0.567523  0.204831  1
  Ni  Ni27  1  0.750000  0.432477  0.795169  1
  P  P28  1  0.250000  0.509481  0.871197  1
  P  P29  1  0.750000  0.490519  0.128803  1
  P  P30  1  0.250000  0.801177  0.982947  1
  P  P31  1  0.750000  0.198823  0.017053  1
  P  P32  1  0.250000  0.496632  0.377775  1
  P  P33  1  0.750000  0.503368  0.622225  1
  P  P34  1  0.250000  0.811113  0.612524  1
  P  P35  1  0.750000  0.188887  0.387476  1
  P  P36  1  0.250000  0.945053  0.261155  1
  P  P37  1  0.750000  0.054947  0.738845  1
