# generated using pymatgen
data_Ho10Co(RuO8)3
_symmetry_space_group_name_H-M   'P 1'
_cell_length_a   5.74142201
_cell_length_b   7.29174413
_cell_length_c   12.24764000
_cell_angle_alpha   107.09428797
_cell_angle_beta   90.00322334
_cell_angle_gamma   89.97244660
_symmetry_Int_Tables_number   1
_chemical_formula_structural   Ho10Co(RuO8)3
_chemical_formula_sum   'Ho10 Co1 Ru3 O24'
_cell_volume   490.09516808
_cell_formula_units_Z   1
loop_
 _symmetry_equiv_pos_site_id
 _symmetry_equiv_pos_as_xyz
  1  'x, y, z'
loop_
 _atom_site_type_symbol
 _atom_site_label
 _atom_site_symmetry_multiplicity
 _atom_site_fract_x
 _atom_site_fract_y
 _atom_site_fract_z
 _atom_site_occupancy
  Ho  Ho0  1  0.255666  0.613556  0.444578  1
  Ho  Ho1  1  0.741742  0.394210  0.565291  1
  Ho  Ho2  1  0.244291  0.086473  0.449391  1
  Ho  Ho3  1  0.743427  0.909475  0.554420  1
  Ho  Ho4  1  0.255705  0.886593  0.055448  1
  Ho  Ho5  1  0.741745  0.105866  0.934783  1
  Ho  Ho6  1  0.244325  0.413460  0.050631  1
  Ho  Ho7  1  0.743377  0.590463  0.945583  1
  Ho  Ho8  1  0.247739  0.249958  0.750009  1
  Ho  Ho9  1  0.751309  0.749973  0.249996  1
  Co  Co10  1  0.507260  0.750013  0.749999  1
  Ru  Ru11  1  0.975955  0.250090  0.250036  1
  Ru  Ru12  1  0.516381  0.250031  0.250013  1
  Ru  Ru13  1  0.025923  0.749947  0.750049  1
  O  O14  1  0.264545  0.934224  0.749831  1
  O  O15  1  0.745992  0.049985  0.247944  1
  O  O16  1  0.496768  0.329954  0.903029  1
  O  O17  1  0.999469  0.671877  0.096467  1
  O  O18  1  0.496085  0.670342  0.098443  1
  O  O19  1  0.997630  0.328378  0.901284  1
  O  O20  1  0.264712  0.565777  0.750196  1
  O  O21  1  0.745710  0.450102  0.252133  1
  O  O22  1  0.246398  0.071048  0.249799  1
  O  O23  1  0.756748  0.930359  0.748356  1
  O  O24  1  0.514831  0.832081  0.914790  1
  O  O25  1  0.000896  0.170293  0.084855  1
  O  O26  1  0.489341  0.171310  0.085243  1
  O  O27  1  0.993958  0.833012  0.915193  1
  O  O28  1  0.496738  0.170084  0.596935  1
  O  O29  1  0.999496  0.828189  0.403496  1
  O  O30  1  0.496101  0.829660  0.401551  1
  O  O31  1  0.997604  0.171575  0.598711  1
  O  O32  1  0.514879  0.667954  0.585170  1
  O  O33  1  0.000784  0.329684  0.415032  1
  O  O34  1  0.489323  0.328571  0.414677  1
  O  O35  1  0.993962  0.666777  0.584687  1
  O  O36  1  0.246205  0.429013  0.250278  1
  O  O37  1  0.756981  0.569642  0.751672  1
