# generated using pymatgen
data_Lu8Ta5Nb6Si16Mo
_symmetry_space_group_name_H-M   'P 1'
_cell_length_a   6.78683870
_cell_length_b   6.99169810
_cell_length_c   13.25332101
_cell_angle_alpha   90.04128423
_cell_angle_beta   89.95757702
_cell_angle_gamma   89.96028292
_symmetry_Int_Tables_number   1
_chemical_formula_structural   Lu8Ta5Nb6Si16Mo
_chemical_formula_sum   'Lu8 Ta5 Nb6 Si16 Mo1'
_cell_volume   628.88983557
_cell_formula_units_Z   1
loop_
 _symmetry_equiv_pos_site_id
 _symmetry_equiv_pos_as_xyz
  1  'x, y, z'
loop_
 _atom_site_type_symbol
 _atom_site_label
 _atom_site_symmetry_multiplicity
 _atom_site_fract_x
 _atom_site_fract_y
 _atom_site_fract_z
 _atom_site_occupancy
  Lu  Lu0  1  0.502431  0.327877  0.095293  1
  Lu  Lu1  1  0.000773  0.172867  0.404709  1
  Lu  Lu2  1  0.497612  0.673103  0.595041  1
  Lu  Lu3  1  0.998596  0.828310  0.904510  1
  Lu  Lu4  1  0.498095  0.672106  0.904166  1
  Lu  Lu5  1  0.999012  0.827808  0.595305  1
  Lu  Lu6  1  0.501838  0.327718  0.405943  1
  Lu  Lu7  1  0.002038  0.172719  0.095445  1
  Ta  Ta8  1  0.836141  0.325716  0.873326  1
  Ta  Ta9  1  0.661016  0.007989  0.749044  1
  Ta  Ta10  1  0.160002  0.492347  0.749429  1
  Ta  Ta11  1  0.338956  0.993794  0.250452  1
  Ta  Ta12  1  0.838996  0.507094  0.250200  1
  Nb  Nb13  1  0.837610  0.326205  0.624565  1
  Nb  Nb14  1  0.336980  0.174224  0.873655  1
  Nb  Nb15  1  0.163854  0.673753  0.125282  1
  Nb  Nb16  1  0.662055  0.827242  0.375423  1
  Nb  Nb17  1  0.166020  0.673897  0.376259  1
  Nb  Nb18  1  0.663855  0.826216  0.125307  1
  Si  Si19  1  0.661924  0.036137  0.542159  1
  Si  Si20  1  0.164630  0.464872  0.958558  1
  Si  Si21  1  0.334875  0.965316  0.041090  1
  Si  Si22  1  0.835276  0.535385  0.458828  1
  Si  Si23  1  0.333271  0.966375  0.461039  1
  Si  Si24  1  0.834837  0.534833  0.040552  1
  Si  Si25  1  0.665321  0.035221  0.959054  1
  Si  Si26  1  0.167144  0.460319  0.542391  1
  Si  Si27  1  0.537238  0.378984  0.747687  1
  Si  Si28  1  0.041596  0.119669  0.748815  1
  Si  Si29  1  0.461628  0.619142  0.250207  1
  Si  Si30  1  0.961091  0.879932  0.250513  1
  Si  Si31  1  0.793509  0.633064  0.749889  1
  Si  Si32  1  0.295720  0.867524  0.749655  1
  Si  Si33  1  0.205650  0.366906  0.250422  1
  Si  Si34  1  0.704845  0.133891  0.249973  1
  Mo  Mo35  1  0.335563  0.171443  0.625810  1
