# generated using pymatgen
data_La12Pr8Si15Sb
_symmetry_space_group_name_H-M   'P 1'
_cell_length_a   8.04043661
_cell_length_b   8.03625712
_cell_length_c   15.43657600
_cell_angle_alpha   90.03256829
_cell_angle_beta   89.72204396
_cell_angle_gamma   89.86972942
_symmetry_Int_Tables_number   1
_chemical_formula_structural   La12Pr8Si15Sb
_chemical_formula_sum   'La12 Pr8 Si15 Sb1'
_cell_volume   997.42012251
_cell_formula_units_Z   1
loop_
 _symmetry_equiv_pos_site_id
 _symmetry_equiv_pos_as_xyz
  1  'x, y, z'
loop_
 _atom_site_type_symbol
 _atom_site_label
 _atom_site_symmetry_multiplicity
 _atom_site_fract_x
 _atom_site_fract_y
 _atom_site_fract_z
 _atom_site_occupancy
  La  La0  1  0.309894  0.310098  0.000490  1
  La  La1  1  0.192016  0.809641  0.249765  1
  La  La2  1  0.798363  0.188058  0.753046  1
  La  La3  1  0.687936  0.690094  0.496120  1
  La  La4  1  0.375816  0.012314  0.448421  1
  La  La5  1  0.493852  0.871019  0.698559  1
  La  La6  1  0.511310  0.122327  0.197944  1
  La  La7  1  0.877355  0.488525  0.299987  1
  La  La8  1  0.120733  0.516182  0.805109  1
  La  La9  1  0.625202  0.986951  0.950306  1
  La  La10  1  0.001401  0.383369  0.546450  1
  La  La11  1  0.989211  0.622680  0.053071  1
  Pr  Pr12  1  0.129384  0.985501  0.878837  1
  Pr  Pr13  1  0.517358  0.627800  0.126526  1
  Pr  Pr14  1  0.492302  0.379424  0.625736  1
  Pr  Pr15  1  0.628943  0.517359  0.876396  1
  Pr  Pr16  1  0.373075  0.484060  0.372964  1
  Pr  Pr17  1  0.872969  0.016874  0.375883  1
  Pr  Pr18  1  0.985214  0.127887  0.124752  1
  Pr  Pr19  1  0.005793  0.859198  0.620786  1
  Si  Si20  1  0.332474  0.698204  0.951674  1
  Si  Si21  1  0.664621  0.301090  0.449721  1
  Si  Si22  1  0.701322  0.333671  0.051186  1
  Si  Si23  1  0.301494  0.668383  0.548376  1
  Si  Si24  1  0.802182  0.833604  0.200539  1
  Si  Si25  1  0.167200  0.199321  0.299638  1
  Si  Si26  1  0.836755  0.800769  0.800176  1
  Si  Si27  1  0.288539  0.920461  0.059258  1
  Si  Si28  1  0.579673  0.790354  0.307978  1
  Si  Si29  1  0.433991  0.210801  0.816315  1
  Si  Si30  1  0.789242  0.577481  0.692035  1
  Si  Si31  1  0.211774  0.420907  0.191606  1
  Si  Si32  1  0.706656  0.078237  0.558515  1
  Si  Si33  1  0.923407  0.289300  0.942362  1
  Si  Si34  1  0.079926  0.713281  0.439640  1
  Sb  Sb35  1  0.192608  0.164778  0.689834  1
