# generated using pymatgen
data_TmBi3W2O11
_symmetry_space_group_name_H-M   'P 1'
_cell_length_a   6.56138313
_cell_length_b   7.71754802
_cell_length_c   9.85206000
_cell_angle_alpha   100.57626658
_cell_angle_beta   90.42219169
_cell_angle_gamma   90.25620714
_symmetry_Int_Tables_number   1
_chemical_formula_structural   TmBi3W2O11
_chemical_formula_sum   'Tm2 Bi6 W4 O22'
_cell_volume   490.38926475
_cell_formula_units_Z   2
loop_
 _symmetry_equiv_pos_site_id
 _symmetry_equiv_pos_as_xyz
  1  'x, y, z'
loop_
 _atom_site_type_symbol
 _atom_site_label
 _atom_site_symmetry_multiplicity
 _atom_site_fract_x
 _atom_site_fract_y
 _atom_site_fract_z
 _atom_site_occupancy
  Tm  Tm0  1  0.748244  0.375914  0.478604  1
  Tm  Tm1  1  0.251756  0.624086  0.521396  1
  Bi  Bi2  1  0.753085  0.872287  0.492738  1
  Bi  Bi3  1  0.246915  0.127713  0.507262  1
  Bi  Bi4  1  0.453224  0.936566  0.816844  1
  Bi  Bi5  1  0.546776  0.063434  0.183156  1
  Bi  Bi6  1  0.385809  0.453977  0.824773  1
  Bi  Bi7  1  0.614191  0.546023  0.175227  1
  W  W8  1  0.922353  0.699732  0.809491  1
  W  W9  1  0.077647  0.300268  0.190509  1
  W  W10  1  0.916101  0.199717  0.803094  1
  W  W11  1  0.083899  0.800283  0.196906  1
  O  O12  1  0.228997  0.711451  0.754034  1
  O  O13  1  0.771003  0.288549  0.245966  1
  O  O14  1  0.623775  0.671376  0.837245  1
  O  O15  1  0.376225  0.328624  0.162755  1
  O  O16  1  0.640212  0.250873  0.854808  1
  O  O17  1  0.359788  0.749127  0.145192  1
  O  O18  1  0.875125  0.182447  0.596485  1
  O  O19  1  0.124875  0.817553  0.403515  1
  O  O20  1  0.208764  0.145814  0.758091  1
  O  O21  1  0.791236  0.854186  0.241909  1
  O  O22  1  0.900014  0.621453  0.600271  1
  O  O23  1  0.099986  0.378547  0.399729  1
  O  O24  1  0.001430  0.546545  0.177651  1
  O  O25  1  0.998570  0.453455  0.822349  1
  O  O26  1  0.995592  0.792265  0.993294  1
  O  O27  1  0.004408  0.207735  0.006706  1
  O  O28  1  0.567342  0.599177  0.396525  1
  O  O29  1  0.432658  0.400823  0.603475  1
  O  O30  1  0.173657  0.060849  0.232995  1
  O  O31  1  0.826343  0.939151  0.767005  1
  O  O32  1  0.553806  0.108614  0.403574  1
  O  O33  1  0.446194  0.891386  0.596426  1
