# generated using pymatgen
data_RbGaGeS4
_symmetry_space_group_name_H-M   'P 1'
_cell_length_a   16.45462400
_cell_length_b   7.01390921
_cell_length_c   7.55899011
_cell_angle_alpha   70.18769793
_cell_angle_beta   90.00000000
_cell_angle_gamma   90.00000000
_symmetry_Int_Tables_number   1
_chemical_formula_structural   RbGaGeS4
_chemical_formula_sum   'Rb4 Ga4 Ge4 S16'
_cell_volume   820.75377525
_cell_formula_units_Z   4
loop_
 _symmetry_equiv_pos_site_id
 _symmetry_equiv_pos_as_xyz
  1  'x, y, z'
loop_
 _atom_site_type_symbol
 _atom_site_label
 _atom_site_symmetry_multiplicity
 _atom_site_fract_x
 _atom_site_fract_y
 _atom_site_fract_z
 _atom_site_occupancy
  Rb  Rb0  1  0.396604  0.966859  0.179600  1
  Rb  Rb1  1  0.896604  0.033141  0.820400  1
  Rb  Rb2  1  0.602908  0.521375  0.822730  1
  Rb  Rb3  1  0.102908  0.478625  0.177270  1
  Ga  Ga4  1  0.584517  0.166927  0.474517  1
  Ga  Ga5  1  0.084517  0.833073  0.525483  1
  Ga  Ga6  1  0.272727  0.595108  0.707231  1
  Ga  Ga7  1  0.772727  0.404892  0.292769  1
  Ge  Ge8  1  0.419326  0.327944  0.535496  1
  Ge  Ge9  1  0.919326  0.672056  0.464504  1
  Ge  Ge10  1  0.725017  0.910057  0.274031  1
  Ge  Ge11  1  0.225017  0.089943  0.725969  1
  S  S12  1  0.596807  0.890926  0.376537  1
  S  S13  1  0.096807  0.109074  0.623463  1
  S  S14  1  0.408183  0.599820  0.623448  1
  S  S15  1  0.908183  0.400180  0.376552  1
  S  S16  1  0.799903  0.783530  0.541168  1
  S  S17  1  0.299903  0.216470  0.458832  1
  S  S18  1  0.200699  0.721146  0.438993  1
  S  S19  1  0.700699  0.278854  0.561007  1
  S  S20  1  0.763816  0.219936  0.091251  1
  S  S21  1  0.263816  0.780064  0.908749  1
  S  S22  1  0.238320  0.275620  0.912642  1
  S  S23  1  0.738320  0.724380  0.087358  1
  S  S24  1  0.997752  0.909016  0.263724  1
  S  S25  1  0.497752  0.090984  0.736276  1
  S  S26  1  0.993419  0.603803  0.728104  1
  S  S27  1  0.493419  0.396197  0.271896  1
