# generated using pymatgen
data_Tb3Dy3(LuIn4)2
_symmetry_space_group_name_H-M   'P 1'
_cell_length_a   6.53764615
_cell_length_b   6.53756190
_cell_length_c   9.98544200
_cell_angle_alpha   90.00122896
_cell_angle_beta   90.00019568
_cell_angle_gamma   98.35152873
_symmetry_Int_Tables_number   1
_chemical_formula_structural   Tb3Dy3(LuIn4)2
_chemical_formula_sum   'Tb3 Dy3 Lu2 In8'
_cell_volume   422.25468437
_cell_formula_units_Z   1
loop_
 _symmetry_equiv_pos_site_id
 _symmetry_equiv_pos_as_xyz
  1  'x, y, z'
loop_
 _atom_site_type_symbol
 _atom_site_label
 _atom_site_symmetry_multiplicity
 _atom_site_fract_x
 _atom_site_fract_y
 _atom_site_fract_z
 _atom_site_occupancy
  Tb  Tb0  1  0.245844  0.754146  0.000002  1
  Tb  Tb1  1  0.754127  0.245869  0.499996  1
  Tb  Tb2  1  0.754125  0.245875  0.000004  1
  Dy  Dy3  1  0.532979  0.533280  0.250088  1
  Dy  Dy4  1  0.466725  0.467021  0.749911  1
  Dy  Dy5  1  0.245946  0.754050  0.500000  1
  Lu  Lu6  1  0.978304  0.978049  0.250090  1
  Lu  Lu7  1  0.021956  0.021689  0.749907  1
  In  In8  1  0.251439  0.251480  0.021087  1
  In  In9  1  0.748520  0.748560  0.978898  1
  In  In10  1  0.251493  0.251386  0.479026  1
  In  In11  1  0.748620  0.748520  0.520991  1
  In  In12  1  0.483317  0.023065  0.250181  1
  In  In13  1  0.976929  0.516671  0.749819  1
  In  In14  1  0.516441  0.976779  0.749815  1
  In  In15  1  0.023234  0.483560  0.250184  1
