# generated using pymatgen
data_Ba2AsIO4
_symmetry_space_group_name_H-M   'P 1'
_cell_length_a   9.64810300
_cell_length_b   9.21862659
_cell_length_c   9.86131119
_cell_angle_alpha   66.95342365
_cell_angle_beta   90.00000000
_cell_angle_gamma   90.00000000
_symmetry_Int_Tables_number   1
_chemical_formula_structural   Ba2AsIO4
_chemical_formula_sum   'Ba8 As4 I4 O16'
_cell_volume   807.08425453
_cell_formula_units_Z   4
loop_
 _symmetry_equiv_pos_site_id
 _symmetry_equiv_pos_as_xyz
  1  'x, y, z'
loop_
 _atom_site_type_symbol
 _atom_site_label
 _atom_site_symmetry_multiplicity
 _atom_site_fract_x
 _atom_site_fract_y
 _atom_site_fract_z
 _atom_site_occupancy
  Ba  Ba0  1  0.306126  0.455713  0.153561  1
  Ba  Ba1  1  0.806126  0.044287  0.846439  1
  Ba  Ba2  1  0.693874  0.544287  0.846439  1
  Ba  Ba3  1  0.193874  0.955713  0.153561  1
  Ba  Ba4  1  0.327687  0.956106  0.745280  1
  Ba  Ba5  1  0.827687  0.543894  0.254720  1
  Ba  Ba6  1  0.672313  0.043894  0.254720  1
  Ba  Ba7  1  0.172313  0.456106  0.745280  1
  As  As8  1  0.052996  0.739458  0.957411  1
  As  As9  1  0.552996  0.760542  0.042589  1
  As  As10  1  0.947004  0.260542  0.042589  1
  As  As11  1  0.447004  0.239458  0.957411  1
  I  I12  1  0.902814  0.739181  0.506402  1
  I  I13  1  0.402814  0.760819  0.493598  1
  I  I14  1  0.097186  0.260819  0.493598  1
  I  I15  1  0.597186  0.239181  0.506402  1
  O  O16  1  0.083160  0.655771  0.146056  1
  O  O17  1  0.583160  0.844229  0.853944  1
  O  O18  1  0.916840  0.344229  0.853944  1
  O  O19  1  0.416840  0.155771  0.146056  1
  O  O20  1  0.120115  0.286253  0.068645  1
  O  O21  1  0.620115  0.213747  0.931355  1
  O  O22  1  0.879885  0.713747  0.931355  1
  O  O23  1  0.379885  0.786253  0.068645  1
  O  O24  1  0.671045  0.835111  0.129734  1
  O  O25  1  0.171045  0.664889  0.870266  1
  O  O26  1  0.328955  0.164889  0.870266  1
  O  O27  1  0.828955  0.335111  0.129734  1
  O  O28  1  0.415626  0.440027  0.894500  1
  O  O29  1  0.915626  0.059973  0.105500  1
  O  O30  1  0.584374  0.559973  0.105500  1
  O  O31  1  0.084374  0.940027  0.894500  1
