# generated using pymatgen
data_Sc3SiP2Ir2Ru
_symmetry_space_group_name_H-M   'P 1'
_cell_length_a   6.47421724
_cell_length_b   6.47421809
_cell_length_c   3.81676800
_cell_angle_alpha   90.00000000
_cell_angle_beta   90.00000000
_cell_angle_gamma   119.90457918
_symmetry_Int_Tables_number   1
_chemical_formula_structural   Sc3SiP2Ir2Ru
_chemical_formula_sum   'Sc3 Si1 P2 Ir2 Ru1'
_cell_volume   138.68125697
_cell_formula_units_Z   1
loop_
 _symmetry_equiv_pos_site_id
 _symmetry_equiv_pos_as_xyz
  1  'x, y, z'
loop_
 _atom_site_type_symbol
 _atom_site_label
 _atom_site_symmetry_multiplicity
 _atom_site_fract_x
 _atom_site_fract_y
 _atom_site_fract_z
 _atom_site_occupancy
  Sc  Sc0  1  0.422770  0.422770  0.500000  1
  Sc  Sc1  1  0.577519  0.999031  0.500000  1
  Sc  Sc2  1  0.999031  0.577519  0.500000  1
  Si  Si3  1  0.999961  0.999961  0.500000  1
  P  P4  1  0.667289  0.334359  0.000000  1
  P  P5  1  0.334359  0.667289  0.000000  1
  Ir  Ir6  1  0.999360  0.247028  0.000000  1
  Ir  Ir7  1  0.247028  0.999360  0.000000  1
  Ru  Ru8  1  0.752683  0.752683  0.000000  1
