# generated using pymatgen
data_Si4Ni8Mo3W9C2
_symmetry_space_group_name_H-M   'P 1'
_cell_length_a   7.74663947
_cell_length_b   7.74663881
_cell_length_c   7.74870914
_cell_angle_alpha   60.00883983
_cell_angle_beta   60.00884259
_cell_angle_gamma   59.99999645
_symmetry_Int_Tables_number   1
_chemical_formula_structural   Si4Ni8Mo3W9C2
_chemical_formula_sum   'Si4 Ni8 Mo3 W9 C2'
_cell_volume   328.85089288
_cell_formula_units_Z   1
loop_
 _symmetry_equiv_pos_site_id
 _symmetry_equiv_pos_as_xyz
  1  'x, y, z'
loop_
 _atom_site_type_symbol
 _atom_site_label
 _atom_site_symmetry_multiplicity
 _atom_site_fract_x
 _atom_site_fract_y
 _atom_site_fract_z
 _atom_site_occupancy
  Si  Si0  1  0.625243  0.625243  0.124271  1
  Si  Si1  1  0.625766  0.123940  0.624529  1
  Si  Si2  1  0.123940  0.625766  0.624529  1
  Si  Si3  1  0.625766  0.625766  0.624529  1
  Ni  Ni4  1  0.418784  0.418784  0.743647  1
  Ni  Ni5  1  0.418859  0.743327  0.418954  1
  Ni  Ni6  1  0.743327  0.418859  0.418954  1
  Ni  Ni7  1  0.418859  0.418859  0.418954  1
  Ni  Ni8  1  0.831685  0.831685  0.504945  1
  Ni  Ni9  1  0.831654  0.504784  0.831909  1
  Ni  Ni10  1  0.504784  0.831654  0.831909  1
  Ni  Ni11  1  0.831654  0.831654  0.831909  1
  Mo  Mo12  1  0.055636  0.055636  0.444371  1
  Mo  Mo13  1  0.444357  0.055636  0.444371  1
  Mo  Mo14  1  0.055636  0.444357  0.444371  1
  W  W15  1  0.445141  0.445141  0.055168  1
  W  W16  1  0.054549  0.445141  0.055168  1
  W  W17  1  0.445141  0.054549  0.055168  1
  W  W18  1  0.195653  0.195653  0.805562  1
  W  W19  1  0.803132  0.195653  0.805562  1
  W  W20  1  0.195653  0.803132  0.805562  1
  W  W21  1  0.804294  0.804294  0.195860  1
  W  W22  1  0.195552  0.804294  0.195860  1
  W  W23  1  0.804294  0.195552  0.195860  1
  C  C24  1  0.250606  0.250606  0.248181  1
  C  C25  1  0.000034  0.000034  0.999899  1
