# generated using pymatgen
data_Pr3Nd5(HgIr)2
_symmetry_space_group_name_H-M   'P 1'
_cell_length_a   9.96068180
_cell_length_b   9.96068160
_cell_length_c   9.96068200
_cell_angle_alpha   60.00000532
_cell_angle_beta   60.00000599
_cell_angle_gamma   60.00000525
_symmetry_Int_Tables_number   1
_chemical_formula_structural   Pr3Nd5(HgIr)2
_chemical_formula_sum   'Pr6 Nd10 Hg4 Ir4'
_cell_volume   698.79897022
_cell_formula_units_Z   2
loop_
 _symmetry_equiv_pos_site_id
 _symmetry_equiv_pos_as_xyz
  1  'x, y, z'
loop_
 _atom_site_type_symbol
 _atom_site_label
 _atom_site_symmetry_multiplicity
 _atom_site_fract_x
 _atom_site_fract_y
 _atom_site_fract_z
 _atom_site_occupancy
  Pr  Pr0  1  0.939718  0.560282  0.560282  1
  Pr  Pr1  1  0.560282  0.939718  0.939718  1
  Pr  Pr2  1  0.560282  0.939718  0.560282  1
  Pr  Pr3  1  0.939718  0.560282  0.939718  1
  Pr  Pr4  1  0.560282  0.560282  0.939718  1
  Pr  Pr5  1  0.939718  0.939718  0.560282  1
  Nd  Nd6  1  0.349438  0.349438  0.349438  1
  Nd  Nd7  1  0.349438  0.349438  0.951685  1
  Nd  Nd8  1  0.349438  0.951685  0.349438  1
  Nd  Nd9  1  0.951685  0.349438  0.349438  1
  Nd  Nd10  1  0.809502  0.190498  0.190498  1
  Nd  Nd11  1  0.190498  0.809502  0.809502  1
  Nd  Nd12  1  0.190498  0.809502  0.190498  1
  Nd  Nd13  1  0.809502  0.190498  0.809502  1
  Nd  Nd14  1  0.190498  0.190498  0.809502  1
  Nd  Nd15  1  0.809502  0.809502  0.190498  1
  Hg  Hg16  1  0.583288  0.583288  0.583288  1
  Hg  Hg17  1  0.583288  0.583288  0.250134  1
  Hg  Hg18  1  0.583288  0.250134  0.583288  1
  Hg  Hg19  1  0.250134  0.583288  0.583288  1
  Ir  Ir20  1  0.141708  0.141708  0.141708  1
  Ir  Ir21  1  0.141708  0.141708  0.574876  1
  Ir  Ir22  1  0.141708  0.574876  0.141708  1
  Ir  Ir23  1  0.574876  0.141708  0.141708  1
