# generated using pymatgen
data_Dy3Er3Al24GaOs7
_symmetry_space_group_name_H-M   'P 1'
_cell_length_a   8.85921482
_cell_length_b   8.85759738
_cell_length_c   9.54362924
_cell_angle_alpha   90.14393870
_cell_angle_beta   89.83044515
_cell_angle_gamma   119.94010672
_symmetry_Int_Tables_number   1
_chemical_formula_structural   Dy3Er3Al24GaOs7
_chemical_formula_sum   'Dy3 Er3 Al24 Ga1 Os7'
_cell_volume   648.95553181
_cell_formula_units_Z   1
loop_
 _symmetry_equiv_pos_site_id
 _symmetry_equiv_pos_as_xyz
  1  'x, y, z'
loop_
 _atom_site_type_symbol
 _atom_site_label
 _atom_site_symmetry_multiplicity
 _atom_site_fract_x
 _atom_site_fract_y
 _atom_site_fract_z
 _atom_site_occupancy
  Dy  Dy0  1  0.192027  0.384294  0.244952  1
  Dy  Dy1  1  0.807759  0.616018  0.754974  1
  Dy  Dy2  1  0.615750  0.807861  0.245149  1
  Er  Er3  1  0.386425  0.192638  0.754317  1
  Er  Er4  1  0.195272  0.804201  0.256248  1
  Er  Er5  1  0.804263  0.195373  0.743545  1
  Al  Al6  1  0.327345  0.672896  0.022609  1
  Al  Al7  1  0.672559  0.327524  0.976499  1
  Al  Al8  1  0.665745  0.334137  0.519796  1
  Al  Al9  1  0.334097  0.665730  0.480533  1
  Al  Al10  1  0.162452  0.325693  0.571746  1
  Al  Al11  1  0.837633  0.673955  0.428628  1
  Al  Al12  1  0.673938  0.837445  0.571789  1
  Al  Al13  1  0.852654  0.678339  0.082687  1
  Al  Al14  1  0.325796  0.162264  0.428813  1
  Al  Al15  1  0.147500  0.321403  0.917110  1
  Al  Al16  1  0.162750  0.837336  0.576690  1
  Al  Al17  1  0.321473  0.147327  0.082092  1
  Al  Al18  1  0.837144  0.162742  0.423556  1
  Al  Al19  1  0.678433  0.852904  0.917186  1
  Al  Al20  1  0.836652  0.163156  0.076024  1
  Al  Al21  1  0.163180  0.837240  0.923450  1
  Al  Al22  1  0.561867  0.120448  0.249426  1
  Al  Al23  1  0.437584  0.879449  0.750379  1
  Al  Al24  1  0.879182  0.437645  0.249657  1
  Al  Al25  1  0.120402  0.562027  0.750485  1
  Al  Al26  1  0.565947  0.433825  0.258438  1
  Al  Al27  1  0.433614  0.565441  0.742077  1
  Al  Al28  1  0.000198  0.999893  0.250850  1
  Al  Al29  1  0.001817  0.001208  0.749375  1
  Ga  Ga30  1  0.499769  0.499958  0.000303  1
  Os  Os31  1  0.499744  0.000331  0.999500  1
  Os  Os32  1  0.999995  0.499992  0.000085  1
  Os  Os33  1  0.499805  0.000104  0.500290  1
  Os  Os34  1  0.999861  0.499789  0.500107  1
  Os  Os35  1  0.499806  0.499678  0.500381  1
  Os  Os36  1  0.999770  0.999876  0.000098  1
  Os  Os37  1  0.999788  0.999860  0.500153  1
