# generated using pymatgen
data_LaCePaRu3
_symmetry_space_group_name_H-M   'P 1'
_cell_length_a   5.94396639
_cell_length_b   5.94396630
_cell_length_c   5.31746842
_cell_angle_alpha   56.01958627
_cell_angle_beta   56.01959376
_cell_angle_gamma   59.99999455
_symmetry_Int_Tables_number   1
_chemical_formula_structural   LaCePaRu3
_chemical_formula_sum   'La1 Ce1 Pa1 Ru3'
_cell_volume   124.28144679
_cell_formula_units_Z   1
loop_
 _symmetry_equiv_pos_site_id
 _symmetry_equiv_pos_as_xyz
  1  'x, y, z'
loop_
 _atom_site_type_symbol
 _atom_site_label
 _atom_site_symmetry_multiplicity
 _atom_site_fract_x
 _atom_site_fract_y
 _atom_site_fract_z
 _atom_site_occupancy
  La  La0  1  0.005361  0.005361  0.983916  1
  Ce  Ce1  1  0.252946  0.252946  0.241162  1
  Pa  Pa2  1  0.623430  0.623430  0.129711  1
  Ru  Ru3  1  0.621830  0.124604  0.631737  1
  Ru  Ru4  1  0.124604  0.621830  0.631737  1
  Ru  Ru5  1  0.621830  0.621830  0.631737  1
