# generated using pymatgen
data_SrLiEuNiN2
_symmetry_space_group_name_H-M   'P 1'
_cell_length_a   3.59515500
_cell_length_b   4.03824100
_cell_length_c   14.31515300
_cell_angle_alpha   90.00000000
_cell_angle_beta   90.00000000
_cell_angle_gamma   90.00000000
_symmetry_Int_Tables_number   1
_chemical_formula_structural   SrLiEuNiN2
_chemical_formula_sum   'Sr2 Li2 Eu2 Ni2 N4'
_cell_volume   207.82885601
_cell_formula_units_Z   2
loop_
 _symmetry_equiv_pos_site_id
 _symmetry_equiv_pos_as_xyz
  1  'x, y, z'
loop_
 _atom_site_type_symbol
 _atom_site_label
 _atom_site_symmetry_multiplicity
 _atom_site_fract_x
 _atom_site_fract_y
 _atom_site_fract_z
 _atom_site_occupancy
  Sr  Sr0  1  0.000000  0.000000  0.376858  1
  Sr  Sr1  1  0.000000  0.000000  0.876858  1
  Li  Li2  1  0.500000  0.500000  0.242108  1
  Li  Li3  1  0.500000  0.500000  0.742108  1
  Eu  Eu4  1  0.000000  0.000000  0.124667  1
  Eu  Eu5  1  0.000000  0.000000  0.624667  1
  Ni  Ni6  1  0.500000  0.500000  0.006263  1
  Ni  Ni7  1  0.500000  0.500000  0.506263  1
  N  N8  1  0.500000  0.000000  0.242192  1
  N  N9  1  0.500000  0.000000  0.742192  1
  N  N10  1  0.000000  0.500000  0.007912  1
  N  N11  1  0.000000  0.500000  0.507912  1
