# generated using pymatgen
data_Dy5Ho7Ga2TcNi3
_symmetry_space_group_name_H-M   'P 1'
_cell_length_a   8.31769441
_cell_length_b   8.31767406
_cell_length_c   8.31593503
_cell_angle_alpha   112.81192124
_cell_angle_beta   109.78605352
_cell_angle_gamma   105.89943291
_symmetry_Int_Tables_number   1
_chemical_formula_structural   Dy5Ho7Ga2TcNi3
_chemical_formula_sum   'Dy5 Ho7 Ga2 Tc1 Ni3'
_cell_volume   441.22062467
_cell_formula_units_Z   1
loop_
 _symmetry_equiv_pos_site_id
 _symmetry_equiv_pos_as_xyz
  1  'x, y, z'
loop_
 _atom_site_type_symbol
 _atom_site_label
 _atom_site_symmetry_multiplicity
 _atom_site_fract_x
 _atom_site_fract_y
 _atom_site_fract_z
 _atom_site_occupancy
  Dy  Dy0  1  0.442659  0.248544  0.193850  1
  Dy  Dy1  1  0.573272  0.768267  0.805569  1
  Dy  Dy2  1  0.037327  0.232318  0.805580  1
  Dy  Dy3  1  0.945327  0.751209  0.193854  1
  Dy  Dy4  1  0.185571  0.280841  0.466391  1
  Ho  Ho5  1  0.825739  0.720926  0.546665  1
  Ho  Ho6  1  0.185118  0.719268  0.904374  1
  Ho  Ho7  1  0.825588  0.278947  0.104532  1
  Ho  Ho8  1  0.325531  0.638338  0.307282  1
  Ho  Ho9  1  0.669725  0.362188  0.687603  1
  Ho  Ho10  1  0.325439  0.017888  0.687587  1
  Ho  Ho11  1  0.668959  0.981769  0.307290  1
  Ga  Ga12  1  0.493360  0.499883  0.993257  1
  Ga  Ga13  1  0.017226  0.999337  0.016547  1
  Tc  Tc14  1  0.325913  0.999915  0.325822  1
  Ni  Ni15  1  0.653916  0.999870  0.653870  1
  Ni  Ni16  1  0.117844  0.618349  0.499972  1
  Ni  Ni17  1  0.881488  0.382144  0.499953  1
