# generated using pymatgen
data_PrNd5Cr2(Co4P3)4
_symmetry_space_group_name_H-M   'P 1'
_cell_length_a   3.75927200
_cell_length_b   10.68835100
_cell_length_c   12.39619900
_cell_angle_alpha   90.00000000
_cell_angle_beta   90.00000000
_cell_angle_gamma   90.00000000
_symmetry_Int_Tables_number   1
_chemical_formula_structural   PrNd5Cr2(Co4P3)4
_chemical_formula_sum   'Pr1 Nd5 Cr2 Co16 P12'
_cell_volume   498.08446537
_cell_formula_units_Z   1
loop_
 _symmetry_equiv_pos_site_id
 _symmetry_equiv_pos_as_xyz
  1  'x, y, z'
loop_
 _atom_site_type_symbol
 _atom_site_label
 _atom_site_symmetry_multiplicity
 _atom_site_fract_x
 _atom_site_fract_y
 _atom_site_fract_z
 _atom_site_occupancy
  Pr  Pr0  1  0.500000  0.000000  0.477622  1
  Nd  Nd1  1  0.000000  0.500000  0.522072  1
  Nd  Nd2  1  0.500000  0.818157  0.205073  1
  Nd  Nd3  1  0.500000  0.181843  0.205073  1
  Nd  Nd4  1  0.000000  0.681845  0.794854  1
  Nd  Nd5  1  0.000000  0.318155  0.794854  1
  Cr  Cr6  1  0.500000  0.500000  0.153889  1
  Cr  Cr7  1  0.000000  0.000000  0.846183  1
  Co  Co8  1  0.500000  0.500000  0.704482  1
  Co  Co9  1  0.000000  0.000000  0.295002  1
  Co  Co10  1  0.000000  0.500000  0.988303  1
  Co  Co11  1  0.500000  0.000000  0.011686  1
  Co  Co12  1  0.500000  0.332762  0.994690  1
  Co  Co13  1  0.500000  0.667238  0.994690  1
  Co  Co14  1  0.000000  0.167200  0.005324  1
  Co  Co15  1  0.000000  0.832800  0.005324  1
  Co  Co16  1  0.500000  0.296623  0.430300  1
  Co  Co17  1  0.500000  0.703377  0.430300  1
  Co  Co18  1  0.000000  0.204143  0.569754  1
  Co  Co19  1  0.000000  0.795857  0.569754  1
  Co  Co20  1  0.500000  0.881576  0.710900  1
  Co  Co21  1  0.500000  0.118424  0.710900  1
  Co  Co22  1  0.000000  0.618277  0.289285  1
  Co  Co23  1  0.000000  0.381723  0.289285  1
  P  P24  1  0.500000  0.500000  0.886740  1
  P  P25  1  0.000000  0.000000  0.113228  1
  P  P26  1  0.500000  0.500000  0.341196  1
  P  P27  1  0.000000  0.000000  0.659727  1
  P  P28  1  0.500000  0.306940  0.614513  1
  P  P29  1  0.500000  0.693060  0.614513  1
  P  P30  1  0.000000  0.193842  0.385283  1
  P  P31  1  0.000000  0.806158  0.385283  1
  P  P32  1  0.500000  0.848211  0.894737  1
  P  P33  1  0.500000  0.151789  0.894737  1
  P  P34  1  0.000000  0.651831  0.105221  1
  P  P35  1  0.000000  0.348169  0.105221  1
