# generated using pymatgen
data_Pr2Eu6SnPd24
_symmetry_space_group_name_H-M   'P 1'
_cell_length_a   8.58987550
_cell_length_b   8.58987550
_cell_length_c   8.58987550
_cell_angle_alpha   90.02771780
_cell_angle_beta   89.97228220
_cell_angle_gamma   89.97228220
_symmetry_Int_Tables_number   1
_chemical_formula_structural   Pr2Eu6SnPd24
_chemical_formula_sum   'Pr2 Eu6 Sn1 Pd24'
_cell_volume   633.81199757
_cell_formula_units_Z   1
loop_
 _symmetry_equiv_pos_site_id
 _symmetry_equiv_pos_as_xyz
  1  'x, y, z'
loop_
 _atom_site_type_symbol
 _atom_site_label
 _atom_site_symmetry_multiplicity
 _atom_site_fract_x
 _atom_site_fract_y
 _atom_site_fract_z
 _atom_site_occupancy
  Pr  Pr0  1  0.252212  0.747788  0.747788  1
  Pr  Pr1  1  0.747788  0.252212  0.252212  1
  Eu  Eu2  1  0.250147  0.249767  0.249767  1
  Eu  Eu3  1  0.749853  0.750233  0.750233  1
  Eu  Eu4  1  0.750233  0.749853  0.249767  1
  Eu  Eu5  1  0.750233  0.249767  0.749853  1
  Eu  Eu6  1  0.249767  0.250147  0.750233  1
  Eu  Eu7  1  0.249767  0.750233  0.250147  1
  Sn  Sn8  1  0.000000  0.000000  0.000000  1
  Pd  Pd9  1  0.268213  0.499588  0.000686  1
  Pd  Pd10  1  0.731787  0.500412  0.999314  1
  Pd  Pd11  1  0.000686  0.268213  0.500412  1
  Pd  Pd12  1  0.499588  0.268213  0.999314  1
  Pd  Pd13  1  0.999314  0.731787  0.499588  1
  Pd  Pd14  1  0.500412  0.731787  0.000686  1
  Pd  Pd15  1  0.499588  0.999314  0.268213  1
  Pd  Pd16  1  0.268213  0.000686  0.499588  1
  Pd  Pd17  1  0.500412  0.000686  0.731787  1
  Pd  Pd18  1  0.731787  0.999314  0.500412  1
  Pd  Pd19  1  0.000686  0.500412  0.268213  1
  Pd  Pd20  1  0.999314  0.499588  0.731787  1
  Pd  Pd21  1  0.255711  0.499221  0.499221  1
  Pd  Pd22  1  0.744289  0.500779  0.500779  1
  Pd  Pd23  1  0.499221  0.255711  0.500779  1
  Pd  Pd24  1  0.500779  0.744289  0.499221  1
  Pd  Pd25  1  0.499221  0.500779  0.255711  1
  Pd  Pd26  1  0.500779  0.499221  0.744289  1
  Pd  Pd27  1  0.318297  0.999919  0.999919  1
  Pd  Pd28  1  0.681703  0.000081  0.000081  1
  Pd  Pd29  1  0.999919  0.318297  0.000081  1
  Pd  Pd30  1  0.000081  0.681703  0.999919  1
  Pd  Pd31  1  0.999919  0.000081  0.318297  1
  Pd  Pd32  1  0.000081  0.999919  0.681703  1
