# generated using pymatgen
data_CsK6Rb11(GaSb4)2
_symmetry_space_group_name_H-M   'P 1'
_cell_length_a   10.96793269
_cell_length_b   10.99115860
_cell_length_c   11.38033806
_cell_angle_alpha   89.99965807
_cell_angle_beta   90.05973186
_cell_angle_gamma   120.07010147
_symmetry_Int_Tables_number   1
_chemical_formula_structural   CsK6Rb11(GaSb4)2
_chemical_formula_sum   'Cs1 K6 Rb11 Ga2 Sb8'
_cell_volume   1187.26186469
_cell_formula_units_Z   1
loop_
 _symmetry_equiv_pos_site_id
 _symmetry_equiv_pos_as_xyz
  1  'x, y, z'
loop_
 _atom_site_type_symbol
 _atom_site_label
 _atom_site_symmetry_multiplicity
 _atom_site_fract_x
 _atom_site_fract_y
 _atom_site_fract_z
 _atom_site_occupancy
  Cs  Cs0  1  0.581351  0.790676  0.957838  1
  K  K1  1  0.118821  0.237498  0.250012  1
  K  K2  1  0.118817  0.881316  0.250017  1
  K  K3  1  0.762792  0.881396  0.250531  1
  K  K4  1  0.237619  0.118810  0.749981  1
  K  K5  1  0.881509  0.119074  0.749802  1
  K  K6  1  0.881500  0.762430  0.749801  1
  Rb  Rb7  1  0.417173  0.208587  0.041506  1
  Rb  Rb8  1  0.791523  0.208960  0.041520  1
  Rb  Rb9  1  0.791525  0.582566  0.041519  1
  Rb  Rb10  1  0.791305  0.582730  0.458570  1
  Rb  Rb11  1  0.417228  0.208614  0.458627  1
  Rb  Rb12  1  0.791302  0.208576  0.458566  1
  Rb  Rb13  1  0.208671  0.791462  0.541455  1
  Rb  Rb14  1  0.582741  0.791370  0.541227  1
  Rb  Rb15  1  0.208668  0.417202  0.541451  1
  Rb  Rb16  1  0.208392  0.417000  0.958538  1
  Rb  Rb17  1  0.208392  0.791389  0.958535  1
  Ga  Ga18  1  0.333326  0.666658  0.250450  1
  Ga  Ga19  1  0.666095  0.333051  0.749389  1
  Sb  Sb20  1  0.001071  0.000534  0.000093  1
  Sb  Sb21  1  0.048636  0.524315  0.249921  1
  Sb  Sb22  1  0.475346  0.524024  0.250706  1
  Sb  Sb23  1  0.475342  0.951313  0.250706  1
  Sb  Sb24  1  0.999858  0.999928  0.500029  1
  Sb  Sb25  1  0.524843  0.049678  0.749585  1
  Sb  Sb26  1  0.524837  0.475185  0.749578  1
  Sb  Sb27  1  0.951319  0.475661  0.750045  1
