# generated using pymatgen
data_Dy4Lu12MgCd3Ni4
_symmetry_space_group_name_H-M   'P 1'
_cell_length_a   9.38919140
_cell_length_b   9.36136553
_cell_length_c   9.36136700
_cell_angle_alpha   59.99999833
_cell_angle_beta   60.09798534
_cell_angle_gamma   60.09798109
_symmetry_Int_Tables_number   1
_chemical_formula_structural   Dy4Lu12MgCd3Ni4
_chemical_formula_sum   'Dy4 Lu12 Mg1 Cd3 Ni4'
_cell_volume   582.68424514
_cell_formula_units_Z   1
loop_
 _symmetry_equiv_pos_site_id
 _symmetry_equiv_pos_as_xyz
  1  'x, y, z'
loop_
 _atom_site_type_symbol
 _atom_site_label
 _atom_site_symmetry_multiplicity
 _atom_site_fract_x
 _atom_site_fract_y
 _atom_site_fract_z
 _atom_site_occupancy
  Dy  Dy0  1  0.598976  0.598717  0.598717  1
  Dy  Dy1  1  0.598976  0.598717  0.203590  1
  Dy  Dy2  1  0.598976  0.203590  0.598717  1
  Dy  Dy3  1  0.199688  0.600104  0.600104  1
  Lu  Lu4  1  0.062406  0.437293  0.437293  1
  Lu  Lu5  1  0.435875  0.063928  0.063928  1
  Lu  Lu6  1  0.435875  0.063928  0.436269  1
  Lu  Lu7  1  0.062406  0.437293  0.063008  1
  Lu  Lu8  1  0.435875  0.436269  0.063928  1
  Lu  Lu9  1  0.062406  0.063008  0.437293  1
  Lu  Lu10  1  0.183587  0.815370  0.815370  1
  Lu  Lu11  1  0.814845  0.185049  0.185049  1
  Lu  Lu12  1  0.814845  0.185049  0.815057  1
  Lu  Lu13  1  0.183587  0.815370  0.185672  1
  Lu  Lu14  1  0.814845  0.815057  0.185049  1
  Lu  Lu15  1  0.183587  0.185672  0.815370  1
  Mg  Mg16  1  0.518958  0.827014  0.827014  1
  Cd  Cd17  1  0.832534  0.832596  0.832596  1
  Cd  Cd18  1  0.832534  0.832596  0.502274  1
  Cd  Cd19  1  0.832534  0.502274  0.832596  1
  Ni  Ni20  1  0.390289  0.391889  0.391889  1
  Ni  Ni21  1  0.390289  0.391889  0.825934  1
  Ni  Ni22  1  0.390289  0.825934  0.391889  1
  Ni  Ni23  1  0.825817  0.391394  0.391394  1
