# generated using pymatgen
data_Hf2FeP2Ir
_symmetry_space_group_name_H-M   'P 1'
_cell_length_a   3.76715300
_cell_length_b   6.38717150
_cell_length_c   7.23212584
_cell_angle_alpha   89.23769111
_cell_angle_beta   90.00000000
_cell_angle_gamma   90.00000000
_symmetry_Int_Tables_number   1
_chemical_formula_structural   Hf2FeP2Ir
_chemical_formula_sum   'Hf4 Fe2 P4 Ir2'
_cell_volume   174.00004893
_cell_formula_units_Z   2
loop_
 _symmetry_equiv_pos_site_id
 _symmetry_equiv_pos_as_xyz
  1  'x, y, z'
loop_
 _atom_site_type_symbol
 _atom_site_label
 _atom_site_symmetry_multiplicity
 _atom_site_fract_x
 _atom_site_fract_y
 _atom_site_fract_z
 _atom_site_occupancy
  Hf  Hf0  1  0.250000  0.526011  0.684457  1
  Hf  Hf1  1  0.750000  0.473989  0.315543  1
  Hf  Hf2  1  0.250000  0.016886  0.823884  1
  Hf  Hf3  1  0.750000  0.983114  0.176116  1
  Fe  Fe4  1  0.750000  0.357931  0.942068  1
  Fe  Fe5  1  0.250000  0.642069  0.057932  1
  P  P6  1  0.250000  0.282527  0.101400  1
  P  P7  1  0.750000  0.717473  0.898600  1
  P  P8  1  0.250000  0.760273  0.360011  1
  P  P9  1  0.750000  0.239727  0.639989  1
  Ir  Ir10  1  0.750000  0.845458  0.564662  1
  Ir  Ir11  1  0.250000  0.154542  0.435338  1
