# generated using pymatgen
data_DyYLu4(GaNi2)6
_symmetry_space_group_name_H-M   'P 1'
_cell_length_a   5.16656800
_cell_length_b   5.16656738
_cell_length_c   15.85278500
_cell_angle_alpha   90.00000000
_cell_angle_beta   90.00000000
_cell_angle_gamma   119.99999116
_symmetry_Int_Tables_number   1
_chemical_formula_structural   DyYLu4(GaNi2)6
_chemical_formula_sum   'Dy1 Y1 Lu4 Ga6 Ni12'
_cell_volume   366.47173763
_cell_formula_units_Z   1
loop_
 _symmetry_equiv_pos_site_id
 _symmetry_equiv_pos_as_xyz
  1  'x, y, z'
loop_
 _atom_site_type_symbol
 _atom_site_label
 _atom_site_symmetry_multiplicity
 _atom_site_fract_x
 _atom_site_fract_y
 _atom_site_fract_z
 _atom_site_occupancy
  Dy  Dy0  1  0.666667  0.333333  0.250000  1
  Y  Y1  1  0.333333  0.666667  0.750000  1
  Lu  Lu2  1  0.333333  0.666667  0.541849  1
  Lu  Lu3  1  0.666667  0.333333  0.458224  1
  Lu  Lu4  1  0.666667  0.333333  0.041776  1
  Lu  Lu5  1  0.333333  0.666667  0.958151  1
  Ga  Ga6  1  0.000000  0.000000  0.250000  1
  Ga  Ga7  1  0.000000  0.000000  0.750000  1
  Ga  Ga8  1  0.333333  0.666667  0.250000  1
  Ga  Ga9  1  0.666667  0.333333  0.750000  1
  Ga  Ga10  1  0.000000  0.000000  0.999845  1
  Ga  Ga11  1  0.000000  0.000000  0.500155  1
  Ni  Ni12  1  0.169123  0.338245  0.124814  1
  Ni  Ni13  1  0.831344  0.662687  0.875377  1
  Ni  Ni14  1  0.661755  0.830877  0.124814  1
  Ni  Ni15  1  0.831344  0.662687  0.624623  1
  Ni  Ni16  1  0.337313  0.168656  0.875377  1
  Ni  Ni17  1  0.169123  0.338245  0.375186  1
  Ni  Ni18  1  0.169123  0.830877  0.124814  1
  Ni  Ni19  1  0.337313  0.168656  0.624623  1
  Ni  Ni20  1  0.831344  0.168656  0.875377  1
  Ni  Ni21  1  0.661755  0.830877  0.375186  1
  Ni  Ni22  1  0.831344  0.168656  0.624623  1
  Ni  Ni23  1  0.169123  0.830877  0.375186  1
