# generated using pymatgen
data_Er6Al6GeAu5
_symmetry_space_group_name_H-M   'P 1'
_cell_length_a   7.09608000
_cell_length_b   7.09607989
_cell_length_c   8.48663000
_cell_angle_alpha   90.00000000
_cell_angle_beta   90.00000000
_cell_angle_gamma   119.99999118
_symmetry_Int_Tables_number   1
_chemical_formula_structural   Er6Al6GeAu5
_chemical_formula_sum   'Er6 Al6 Ge1 Au5'
_cell_volume   370.08623986
_cell_formula_units_Z   1
loop_
 _symmetry_equiv_pos_site_id
 _symmetry_equiv_pos_as_xyz
  1  'x, y, z'
loop_
 _atom_site_type_symbol
 _atom_site_label
 _atom_site_symmetry_multiplicity
 _atom_site_fract_x
 _atom_site_fract_y
 _atom_site_fract_z
 _atom_site_occupancy
  Er  Er0  1  0.582083  0.001914  0.747777  1
  Er  Er1  1  0.998086  0.580169  0.747777  1
  Er  Er2  1  0.419831  0.417917  0.747777  1
  Er  Er3  1  0.998324  0.580200  0.252195  1
  Er  Er4  1  0.581876  0.001676  0.252195  1
  Er  Er5  1  0.419800  0.418124  0.252195  1
  Al  Al6  1  0.752360  0.763099  0.000071  1
  Al  Al7  1  0.236901  0.989261  0.000071  1
  Al  Al8  1  0.010739  0.247640  0.000071  1
  Al  Al9  1  0.759750  0.759550  0.500073  1
  Al  Al10  1  0.240450  0.000199  0.500073  1
  Al  Al11  1  0.999801  0.240250  0.500073  1
  Ge  Ge12  1  0.666667  0.333333  0.999919  1
  Au  Au13  1  0.000000  0.000000  0.753759  1
  Au  Au14  1  0.000000  0.000000  0.246077  1
  Au  Au15  1  0.666667  0.333333  0.499940  1
  Au  Au16  1  0.333333  0.666667  0.500009  1
  Au  Au17  1  0.333333  0.666667  0.999943  1
