# generated using pymatgen
data_TbEr15(AlRu)4
_symmetry_space_group_name_H-M   'P 1'
_cell_length_a   9.43435271
_cell_length_b   9.43435381
_cell_length_c   9.43879100
_cell_angle_alpha   59.98443713
_cell_angle_beta   59.98443328
_cell_angle_gamma   59.85700983
_symmetry_Int_Tables_number   1
_chemical_formula_structural   TbEr15(AlRu)4
_chemical_formula_sum   'Tb1 Er15 Al4 Ru4'
_cell_volume   593.26964694
_cell_formula_units_Z   1
loop_
 _symmetry_equiv_pos_site_id
 _symmetry_equiv_pos_as_xyz
  1  'x, y, z'
loop_
 _atom_site_type_symbol
 _atom_site_label
 _atom_site_symmetry_multiplicity
 _atom_site_fract_x
 _atom_site_fract_y
 _atom_site_fract_z
 _atom_site_occupancy
  Tb  Tb0  1  0.060964  0.060964  0.439036  1
  Er  Er1  1  0.648077  0.054999  0.648462  1
  Er  Er2  1  0.194270  0.806069  0.193663  1
  Er  Er3  1  0.439820  0.060787  0.439679  1
  Er  Er4  1  0.194136  0.194136  0.805864  1
  Er  Er5  1  0.647923  0.647923  0.649062  1
  Er  Er6  1  0.054999  0.648077  0.648462  1
  Er  Er7  1  0.439820  0.060787  0.059714  1
  Er  Er8  1  0.647923  0.647923  0.055094  1
  Er  Er9  1  0.194270  0.806069  0.805998  1
  Er  Er10  1  0.806069  0.194270  0.805998  1
  Er  Er11  1  0.806069  0.194270  0.193663  1
  Er  Er12  1  0.806160  0.806160  0.193840  1
  Er  Er13  1  0.060787  0.439820  0.439679  1
  Er  Er14  1  0.439063  0.439063  0.060937  1
  Er  Er15  1  0.060787  0.439820  0.059714  1
  Al  Al16  1  0.730956  0.423450  0.422797  1
  Al  Al17  1  0.422862  0.422862  0.731776  1
  Al  Al18  1  0.423450  0.730956  0.422797  1
  Al  Al19  1  0.422862  0.422862  0.422501  1
  Ru  Ru20  1  0.858969  0.858969  0.860805  1
  Ru  Ru21  1  0.421475  0.859321  0.859602  1
  Ru  Ru22  1  0.858969  0.858969  0.421258  1
  Ru  Ru23  1  0.859321  0.421475  0.859602  1
