# generated using pymatgen
data_Tb2NdAl12RuRh3
_symmetry_space_group_name_H-M   'P 1'
_cell_length_a   8.83745600
_cell_length_b   8.86932973
_cell_length_c   9.58603900
_cell_angle_alpha   90.00000000
_cell_angle_beta   90.00000000
_cell_angle_gamma   119.88119231
_symmetry_Int_Tables_number   1
_chemical_formula_structural   Tb2NdAl12RuRh3
_chemical_formula_sum   'Tb4 Nd2 Al24 Ru2 Rh6'
_cell_volume   651.48823242
_cell_formula_units_Z   2
loop_
 _symmetry_equiv_pos_site_id
 _symmetry_equiv_pos_as_xyz
  1  'x, y, z'
loop_
 _atom_site_type_symbol
 _atom_site_label
 _atom_site_symmetry_multiplicity
 _atom_site_fract_x
 _atom_site_fract_y
 _atom_site_fract_z
 _atom_site_occupancy
  Tb  Tb0  1  0.808581  0.617161  0.250000  1
  Tb  Tb1  1  0.616772  0.808916  0.750000  1
  Tb  Tb2  1  0.192144  0.808916  0.750000  1
  Tb  Tb3  1  0.191527  0.383056  0.750000  1
  Nd  Nd4  1  0.379742  0.189909  0.250000  1
  Nd  Nd5  1  0.810169  0.189909  0.250000  1
  Al  Al6  1  0.436385  0.872770  0.250000  1
  Al  Al7  1  0.125809  0.563806  0.250000  1
  Al  Al8  1  0.437997  0.563806  0.250000  1
  Al  Al9  1  0.562033  0.124067  0.750000  1
  Al  Al10  1  0.876049  0.438619  0.750000  1
  Al  Al11  1  0.562569  0.438619  0.750000  1
  Al  Al12  1  0.162363  0.834900  0.426152  1
  Al  Al13  1  0.164189  0.328380  0.427042  1
  Al  Al14  1  0.672536  0.834900  0.426152  1
  Al  Al15  1  0.836994  0.163298  0.578126  1
  Al  Al16  1  0.837065  0.674127  0.576484  1
  Al  Al17  1  0.326306  0.163298  0.578126  1
  Al  Al18  1  0.836994  0.163298  0.921874  1
  Al  Al19  1  0.837065  0.674127  0.923516  1
  Al  Al20  1  0.326306  0.163298  0.921874  1
  Al  Al21  1  0.162363  0.834900  0.073848  1
  Al  Al22  1  0.164189  0.328380  0.072958  1
  Al  Al23  1  0.672536  0.834900  0.073848  1
  Al  Al24  1  0.333614  0.667228  0.530037  1
  Al  Al25  1  0.667158  0.334316  0.476360  1
  Al  Al26  1  0.667158  0.334316  0.023640  1
  Al  Al27  1  0.333614  0.667228  0.969963  1
  Al  Al28  1  0.997822  0.995645  0.250000  1
  Al  Al29  1  0.999885  0.999771  0.750000  1
  Ru  Ru30  1  0.000029  0.000057  0.500431  1
  Ru  Ru31  1  0.000029  0.000057  0.999569  1
  Rh  Rh32  1  0.499396  0.998793  0.502037  1
  Rh  Rh33  1  0.001165  0.501608  0.501460  1
  Rh  Rh34  1  0.500443  0.501608  0.501460  1
  Rh  Rh35  1  0.499396  0.998793  0.997963  1
  Rh  Rh36  1  0.001165  0.501608  0.998540  1
  Rh  Rh37  1  0.500443  0.501608  0.998540  1
