# generated using pymatgen
data_SiSn2PRh4
_symmetry_space_group_name_H-M   'P 1'
_cell_length_a   3.69890700
_cell_length_b   5.67975100
_cell_length_c   6.42945200
_cell_angle_alpha   90.00000000
_cell_angle_beta   90.00000000
_cell_angle_gamma   90.00000000
_symmetry_Int_Tables_number   1
_chemical_formula_structural   SiSn2PRh4
_chemical_formula_sum   'Si1 Sn2 P1 Rh4'
_cell_volume   135.07552595
_cell_formula_units_Z   1
loop_
 _symmetry_equiv_pos_site_id
 _symmetry_equiv_pos_as_xyz
  1  'x, y, z'
loop_
 _atom_site_type_symbol
 _atom_site_label
 _atom_site_symmetry_multiplicity
 _atom_site_fract_x
 _atom_site_fract_y
 _atom_site_fract_z
 _atom_site_occupancy
  Si  Si0  1  0.000000  0.000000  0.106623  1
  Sn  Sn1  1  0.000000  0.500001  0.428706  1
  Sn  Sn2  1  0.500000  0.000000  0.570086  1
  P  P3  1  0.500000  0.500001  0.899906  1
  Rh  Rh4  1  0.500000  0.249508  0.187916  1
  Rh  Rh5  1  0.500000  0.750492  0.187916  1
  Rh  Rh6  1  0.000000  0.256029  0.809424  1
  Rh  Rh7  1  0.000000  0.743973  0.809424  1
