# generated using pymatgen
data_NdSmNi2(B4Os3)2
_symmetry_space_group_name_H-M   'P 1'
_cell_length_a   7.61307443
_cell_length_b   7.35041868
_cell_length_c   3.99306800
_cell_angle_alpha   90.00000000
_cell_angle_beta   90.00000000
_cell_angle_gamma   87.92156280
_symmetry_Int_Tables_number   1
_chemical_formula_structural   NdSmNi2(B4Os3)2
_chemical_formula_sum   'Nd1 Sm1 Ni2 B8 Os6'
_cell_volume   223.30222426
_cell_formula_units_Z   1
loop_
 _symmetry_equiv_pos_site_id
 _symmetry_equiv_pos_as_xyz
  1  'x, y, z'
loop_
 _atom_site_type_symbol
 _atom_site_label
 _atom_site_symmetry_multiplicity
 _atom_site_fract_x
 _atom_site_fract_y
 _atom_site_fract_z
 _atom_site_occupancy
  Nd  Nd0  1  0.000000  0.000000  0.019092  1
  Sm  Sm1  1  0.500000  0.500000  0.597737  1
  Ni  Ni2  1  0.139433  0.385139  0.881125  1
  Ni  Ni3  1  0.860567  0.614861  0.881125  1
  B  B4  1  0.671970  0.779272  0.105628  1
  B  B5  1  0.328030  0.220728  0.105628  1
  B  B6  1  0.278824  0.836468  0.601818  1
  B  B7  1  0.721176  0.163532  0.601818  1
  B  B8  1  0.843015  0.692324  0.383576  1
  B  B9  1  0.156985  0.307676  0.383576  1
  B  B10  1  0.205312  0.670815  0.882495  1
  B  B11  1  0.794688  0.329185  0.882495  1
  Os  Os12  1  0.881595  0.368952  0.376750  1
  Os  Os13  1  0.118405  0.631048  0.376750  1
  Os  Os14  1  0.347395  0.114338  0.605557  1
  Os  Os15  1  0.652605  0.885662  0.605557  1
  Os  Os16  1  0.602791  0.150988  0.104639  1
  Os  Os17  1  0.397209  0.849012  0.104639  1
