# generated using pymatgen
data_Tb3Tm13Tl5InIr2
_symmetry_space_group_name_H-M   'P 1'
_cell_length_a   10.27695297
_cell_length_b   10.27692669
_cell_length_c   7.11237414
_cell_angle_alpha   89.99106366
_cell_angle_beta   90.00902002
_cell_angle_gamma   119.96049653
_symmetry_Int_Tables_number   1
_chemical_formula_structural   Tb3Tm13Tl5InIr2
_chemical_formula_sum   'Tb3 Tm13 Tl5 In1 Ir2'
_cell_volume   650.79706424
_cell_formula_units_Z   1
loop_
 _symmetry_equiv_pos_site_id
 _symmetry_equiv_pos_as_xyz
  1  'x, y, z'
loop_
 _atom_site_type_symbol
 _atom_site_label
 _atom_site_symmetry_multiplicity
 _atom_site_fract_x
 _atom_site_fract_y
 _atom_site_fract_z
 _atom_site_occupancy
  Tb  Tb0  1  0.532849  0.067513  0.514427  1
  Tb  Tb1  1  0.932486  0.467150  0.514427  1
  Tb  Tb2  1  0.534143  0.465856  0.515792  1
  Tm  Tm3  1  0.463975  0.927798  0.016943  1
  Tm  Tm4  1  0.072202  0.536025  0.016943  1
  Tm  Tm5  1  0.463685  0.536315  0.016517  1
  Tm  Tm6  1  0.175907  0.352559  0.718622  1
  Tm  Tm7  1  0.647441  0.824093  0.718622  1
  Tm  Tm8  1  0.176290  0.823710  0.720508  1
  Tm  Tm9  1  0.822862  0.646751  0.214326  1
  Tm  Tm10  1  0.353248  0.177138  0.214326  1
  Tm  Tm11  1  0.823704  0.176295  0.214529  1
  Tm  Tm12  1  0.666798  0.333202  0.898241  1
  Tm  Tm13  1  0.333163  0.666838  0.399026  1
  Tm  Tm14  1  0.000925  0.999075  0.496488  1
  Tm  Tm15  1  0.000804  0.999196  0.998611  1
  Tl  Tl16  1  0.837134  0.674516  0.766822  1
  Tl  Tl17  1  0.325485  0.162866  0.766821  1
  Tl  Tl18  1  0.837178  0.162822  0.766597  1
  Tl  Tl19  1  0.163146  0.326457  0.266737  1
  Tl  Tl20  1  0.673543  0.836855  0.266737  1
  In  In21  1  0.162928  0.837072  0.265116  1
  Ir  Ir22  1  0.666715  0.333285  0.283637  1
  Ir  Ir23  1  0.333386  0.666613  0.787193  1
