# generated using pymatgen
data_Lu3Zr(Co3Os)2
_symmetry_space_group_name_H-M   'P 1'
_cell_length_a   5.00481300
_cell_length_b   5.00481294
_cell_length_c   8.28327800
_cell_angle_alpha   90.00000000
_cell_angle_beta   90.00000000
_cell_angle_gamma   119.99998054
_symmetry_Int_Tables_number   1
_chemical_formula_structural   Lu3Zr(Co3Os)2
_chemical_formula_sum   'Lu3 Zr1 Co6 Os2'
_cell_volume   179.68369070
_cell_formula_units_Z   1
loop_
 _symmetry_equiv_pos_site_id
 _symmetry_equiv_pos_as_xyz
  1  'x, y, z'
loop_
 _atom_site_type_symbol
 _atom_site_label
 _atom_site_symmetry_multiplicity
 _atom_site_fract_x
 _atom_site_fract_y
 _atom_site_fract_z
 _atom_site_occupancy
  Lu  Lu0  1  0.666667  0.333333  0.565572  1
  Lu  Lu1  1  0.666667  0.333333  0.935369  1
  Lu  Lu2  1  0.333333  0.666667  0.065768  1
  Zr  Zr3  1  0.333333  0.666667  0.434427  1
  Co  Co4  1  0.169434  0.338869  0.747517  1
  Co  Co5  1  0.169434  0.830566  0.747517  1
  Co  Co6  1  0.337502  0.168750  0.252207  1
  Co  Co7  1  0.831250  0.662498  0.252207  1
  Co  Co8  1  0.661131  0.830566  0.747517  1
  Co  Co9  1  0.831250  0.168750  0.252207  1
  Os  Os10  1  0.000000  0.000000  0.999369  1
  Os  Os11  1  0.000000  0.000000  0.500322  1
