# generated using pymatgen
data_Tb3Np7O20
_symmetry_space_group_name_H-M   'P 1'
_cell_length_a   10.06418956
_cell_length_b   10.06418992
_cell_length_c   6.56888747
_cell_angle_alpha   83.73676849
_cell_angle_beta   83.73677589
_cell_angle_gamma   141.82465997
_symmetry_Int_Tables_number   1
_chemical_formula_structural   Tb3Np7O20
_chemical_formula_sum   'Tb3 Np7 O20'
_cell_volume   387.67279785
_cell_formula_units_Z   1
loop_
 _symmetry_equiv_pos_site_id
 _symmetry_equiv_pos_as_xyz
  1  'x, y, z'
loop_
 _atom_site_type_symbol
 _atom_site_label
 _atom_site_symmetry_multiplicity
 _atom_site_fract_x
 _atom_site_fract_y
 _atom_site_fract_z
 _atom_site_occupancy
  Tb  Tb0  1  0.500000  0.500000  0.000000  1
  Tb  Tb1  1  0.201076  0.798924  0.500000  1
  Tb  Tb2  1  0.798924  0.201076  0.500000  1
  Np  Np3  1  0.900118  0.099882  0.000000  1
  Np  Np4  1  0.399443  0.600557  0.500000  1
  Np  Np5  1  0.099882  0.900118  0.000000  1
  Np  Np6  1  0.000000  0.000000  0.500000  1
  Np  Np7  1  0.699828  0.300172  0.000000  1
  Np  Np8  1  0.600557  0.399443  0.500000  1
  Np  Np9  1  0.300172  0.699828  0.000000  1
  O  O10  1  0.268430  0.470731  0.875247  1
  O  O11  1  0.881921  0.881921  0.872523  1
  O  O12  1  0.774750  0.971682  0.371933  1
  O  O13  1  0.028318  0.225250  0.628067  1
  O  O14  1  0.470731  0.268430  0.875247  1
  O  O15  1  0.372329  0.372329  0.381715  1
  O  O16  1  0.627671  0.627671  0.618285  1
  O  O17  1  0.072986  0.673247  0.884184  1
  O  O18  1  0.529269  0.731570  0.124753  1
  O  O19  1  0.971682  0.774750  0.371933  1
  O  O20  1  0.225250  0.028318  0.628067  1
  O  O21  1  0.673247  0.072986  0.884184  1
  O  O22  1  0.118079  0.118079  0.127477  1
  O  O23  1  0.579158  0.184023  0.365197  1
  O  O24  1  0.815977  0.420842  0.634803  1
  O  O25  1  0.420842  0.815977  0.634803  1
  O  O26  1  0.731570  0.529269  0.124753  1
  O  O27  1  0.184023  0.579158  0.365197  1
  O  O28  1  0.326753  0.927014  0.115816  1
  O  O29  1  0.927014  0.326753  0.115816  1
