# generated using pymatgen
data_Tm4Zn4Ir3Rh
_symmetry_space_group_name_H-M   'P 1'
_cell_length_a   4.02210900
_cell_length_b   6.91635855
_cell_length_c   8.03857164
_cell_angle_alpha   89.95436531
_cell_angle_beta   90.00000000
_cell_angle_gamma   90.00000000
_symmetry_Int_Tables_number   1
_chemical_formula_structural   Tm4Zn4Ir3Rh
_chemical_formula_sum   'Tm4 Zn4 Ir3 Rh1'
_cell_volume   223.61971202
_cell_formula_units_Z   1
loop_
 _symmetry_equiv_pos_site_id
 _symmetry_equiv_pos_as_xyz
  1  'x, y, z'
loop_
 _atom_site_type_symbol
 _atom_site_label
 _atom_site_symmetry_multiplicity
 _atom_site_fract_x
 _atom_site_fract_y
 _atom_site_fract_z
 _atom_site_occupancy
  Tm  Tm0  1  0.250000  0.535771  0.182979  1
  Tm  Tm1  1  0.750000  0.465146  0.817251  1
  Tm  Tm2  1  0.750000  0.963345  0.683344  1
  Tm  Tm3  1  0.250000  0.035332  0.316511  1
  Zn  Zn4  1  0.250000  0.639009  0.565525  1
  Zn  Zn5  1  0.750000  0.360961  0.434657  1
  Zn  Zn6  1  0.750000  0.860886  0.065758  1
  Zn  Zn7  1  0.250000  0.139245  0.934614  1
  Ir  Ir8  1  0.250000  0.756310  0.877171  1
  Ir  Ir9  1  0.750000  0.244097  0.121879  1
  Ir  Ir10  1  0.750000  0.744235  0.378496  1
  Rh  Rh11  1  0.250000  0.255663  0.621815  1
