# generated using pymatgen
data_CeLuCrB6
_symmetry_space_group_name_H-M   'P 1'
_cell_length_a   3.59143100
_cell_length_b   9.13156900
_cell_length_c   11.54099500
_cell_angle_alpha   90.00000000
_cell_angle_beta   90.00000000
_cell_angle_gamma   90.00000000
_symmetry_Int_Tables_number   1
_chemical_formula_structural   CeLuCrB6
_chemical_formula_sum   'Ce4 Lu4 Cr4 B24'
_cell_volume   378.49154725
_cell_formula_units_Z   4
loop_
 _symmetry_equiv_pos_site_id
 _symmetry_equiv_pos_as_xyz
  1  'x, y, z'
loop_
 _atom_site_type_symbol
 _atom_site_label
 _atom_site_symmetry_multiplicity
 _atom_site_fract_x
 _atom_site_fract_y
 _atom_site_fract_z
 _atom_site_occupancy
  Ce  Ce0  1  0.000000  0.322840  0.414288  1
  Ce  Ce1  1  0.000000  0.677160  0.585712  1
  Ce  Ce2  1  0.000000  0.822840  0.085712  1
  Ce  Ce3  1  0.000000  0.177160  0.914288  1
  Lu  Lu4  1  0.000000  0.943766  0.370230  1
  Lu  Lu5  1  0.000000  0.056234  0.629770  1
  Lu  Lu6  1  0.000000  0.443766  0.129770  1
  Lu  Lu7  1  0.000000  0.556234  0.870230  1
  Cr  Cr8  1  0.000000  0.640178  0.319624  1
  Cr  Cr9  1  0.000000  0.359822  0.680376  1
  Cr  Cr10  1  0.000000  0.140178  0.180376  1
  Cr  Cr11  1  0.000000  0.859822  0.819624  1
  B  B12  1  0.500000  0.555013  0.430871  1
  B  B13  1  0.500000  0.444987  0.569129  1
  B  B14  1  0.500000  0.055013  0.069129  1
  B  B15  1  0.500000  0.944987  0.930871  1
  B  B16  1  0.500000  0.749754  0.417093  1
  B  B17  1  0.500000  0.250246  0.582907  1
  B  B18  1  0.500000  0.249754  0.082907  1
  B  B19  1  0.500000  0.750246  0.917093  1
  B  B20  1  0.500000  0.792049  0.265779  1
  B  B21  1  0.500000  0.207951  0.734221  1
  B  B22  1  0.500000  0.292049  0.234221  1
  B  B23  1  0.500000  0.707951  0.765779  1
  B  B24  1  0.500000  0.630846  0.185759  1
  B  B25  1  0.500000  0.369154  0.814241  1
  B  B26  1  0.500000  0.130846  0.314241  1
  B  B27  1  0.500000  0.869154  0.685759  1
  B  B28  1  0.500000  0.984230  0.213028  1
  B  B29  1  0.500000  0.015770  0.786972  1
  B  B30  1  0.500000  0.484230  0.286972  1
  B  B31  1  0.500000  0.515770  0.713028  1
  B  B32  1  0.500000  0.600810  0.027753  1
  B  B33  1  0.500000  0.399190  0.972247  1
  B  B34  1  0.500000  0.100810  0.472247  1
  B  B35  1  0.500000  0.899190  0.527753  1
