# generated using pymatgen
data_Sr2Ag4Pd3
_symmetry_space_group_name_H-M   'P 1'
_cell_length_a   5.58101562
_cell_length_b   5.58101531
_cell_length_c   14.02821900
_cell_angle_alpha   90.00000000
_cell_angle_beta   90.00000000
_cell_angle_gamma   120.25157194
_symmetry_Int_Tables_number   1
_chemical_formula_structural   Sr2Ag4Pd3
_chemical_formula_sum   'Sr4 Ag8 Pd6'
_cell_volume   377.44449103
_cell_formula_units_Z   2
loop_
 _symmetry_equiv_pos_site_id
 _symmetry_equiv_pos_as_xyz
  1  'x, y, z'
loop_
 _atom_site_type_symbol
 _atom_site_label
 _atom_site_symmetry_multiplicity
 _atom_site_fract_x
 _atom_site_fract_y
 _atom_site_fract_z
 _atom_site_occupancy
  Sr  Sr0  1  0.826827  0.826827  0.125528  1
  Sr  Sr1  1  0.173173  0.173173  0.874472  1
  Sr  Sr2  1  0.826827  0.826827  0.374472  1
  Sr  Sr3  1  0.173173  0.173173  0.625528  1
  Ag  Ag4  1  0.164801  0.503388  0.080317  1
  Ag  Ag5  1  0.496612  0.835199  0.919683  1
  Ag  Ag6  1  0.503388  0.164801  0.080317  1
  Ag  Ag7  1  0.835199  0.496612  0.580317  1
  Ag  Ag8  1  0.503388  0.164801  0.419683  1
  Ag  Ag9  1  0.835199  0.496612  0.919683  1
  Ag  Ag10  1  0.496612  0.835199  0.580317  1
  Ag  Ag11  1  0.164801  0.503388  0.419683  1
  Pd  Pd12  1  0.170491  0.672643  0.750000  1
  Pd  Pd13  1  0.672643  0.170491  0.750000  1
  Pd  Pd14  1  0.673492  0.673492  0.750000  1
  Pd  Pd15  1  0.327357  0.829509  0.250000  1
  Pd  Pd16  1  0.829509  0.327357  0.250000  1
  Pd  Pd17  1  0.326508  0.326508  0.250000  1
