# generated using pymatgen
data_Y2Co9Mo3As6P
_symmetry_space_group_name_H-M   'P 1'
_cell_length_a   3.82714700
_cell_length_b   9.35800916
_cell_length_c   9.35800900
_cell_angle_alpha   119.99999589
_cell_angle_beta   90.00000000
_cell_angle_gamma   90.00000000
_symmetry_Int_Tables_number   1
_chemical_formula_structural   Y2Co9Mo3As6P
_chemical_formula_sum   'Y2 Co9 Mo3 As6 P1'
_cell_volume   290.25032724
_cell_formula_units_Z   1
loop_
 _symmetry_equiv_pos_site_id
 _symmetry_equiv_pos_as_xyz
  1  'x, y, z'
loop_
 _atom_site_type_symbol
 _atom_site_label
 _atom_site_symmetry_multiplicity
 _atom_site_fract_x
 _atom_site_fract_y
 _atom_site_fract_z
 _atom_site_occupancy
  Y  Y0  1  0.000000  0.666667  0.333333  1
  Y  Y1  1  0.500000  0.333333  0.666667  1
  Co  Co2  1  0.000000  0.572387  0.940869  1
  Co  Co3  1  0.000000  0.368482  0.427613  1
  Co  Co4  1  0.000000  0.059131  0.631518  1
  Co  Co5  1  0.000000  0.881691  0.153329  1
  Co  Co6  1  0.000000  0.271639  0.118309  1
  Co  Co7  1  0.000000  0.846671  0.728361  1
  Co  Co8  1  0.500000  0.949296  0.380396  1
  Co  Co9  1  0.500000  0.431100  0.050704  1
  Co  Co10  1  0.500000  0.619604  0.568900  1
  Mo  Mo11  1  0.500000  0.790330  0.905814  1
  Mo  Mo12  1  0.500000  0.115484  0.209670  1
  Mo  Mo13  1  0.500000  0.094186  0.884516  1
  As  As14  1  0.500000  0.707050  0.118584  1
  As  As15  1  0.500000  0.411535  0.292950  1
  As  As16  1  0.500000  0.881416  0.588465  1
  As  As17  1  0.000000  0.585731  0.698941  1
  As  As18  1  0.000000  0.113210  0.414269  1
  As  As19  1  0.000000  0.301059  0.886790  1
  P  P20  1  0.000000  0.000000  0.000000  1
