# generated using pymatgen
data_HoTa4(TiSn3)2
_symmetry_space_group_name_H-M   'P 1'
_cell_length_a   5.73082100
_cell_length_b   5.74331547
_cell_length_c   9.66641000
_cell_angle_alpha   90.00000000
_cell_angle_beta   90.00000000
_cell_angle_gamma   119.92805600
_symmetry_Int_Tables_number   1
_chemical_formula_structural   HoTa4(TiSn3)2
_chemical_formula_sum   'Ho1 Ta4 Ti2 Sn6'
_cell_volume   275.73363539
_cell_formula_units_Z   1
loop_
 _symmetry_equiv_pos_site_id
 _symmetry_equiv_pos_as_xyz
  1  'x, y, z'
loop_
 _atom_site_type_symbol
 _atom_site_label
 _atom_site_symmetry_multiplicity
 _atom_site_fract_x
 _atom_site_fract_y
 _atom_site_fract_z
 _atom_site_occupancy
  Ho  Ho0  1  0.000000  0.000000  0.000000  1
  Ta  Ta1  1  0.000000  0.500000  0.752297  1
  Ta  Ta2  1  0.500000  0.500000  0.752297  1
  Ta  Ta3  1  0.000000  0.500000  0.247703  1
  Ta  Ta4  1  0.500000  0.500000  0.247703  1
  Ti  Ti5  1  0.500000  0.000000  0.750815  1
  Ti  Ti6  1  0.500000  0.000000  0.249185  1
  Sn  Sn7  1  0.664706  0.329412  0.500000  1
  Sn  Sn8  1  0.335294  0.670588  0.500000  1
  Sn  Sn9  1  0.663955  0.327909  0.000000  1
  Sn  Sn10  1  0.336045  0.672091  0.000000  1
  Sn  Sn11  1  0.000000  0.000000  0.678344  1
  Sn  Sn12  1  0.000000  0.000000  0.321656  1
