# generated using pymatgen
data_Dy2Be2SiGe
_symmetry_space_group_name_H-M   'P 1'
_cell_length_a   3.89182100
_cell_length_b   3.89181951
_cell_length_c   8.06198000
_cell_angle_alpha   90.00000000
_cell_angle_beta   90.00000000
_cell_angle_gamma   119.99998715
_symmetry_Int_Tables_number   1
_chemical_formula_structural   Dy2Be2SiGe
_chemical_formula_sum   'Dy2 Be2 Si1 Ge1'
_cell_volume   105.74940988
_cell_formula_units_Z   1
loop_
 _symmetry_equiv_pos_site_id
 _symmetry_equiv_pos_as_xyz
  1  'x, y, z'
loop_
 _atom_site_type_symbol
 _atom_site_label
 _atom_site_symmetry_multiplicity
 _atom_site_fract_x
 _atom_site_fract_y
 _atom_site_fract_z
 _atom_site_occupancy
  Dy  Dy0  1  0.000000  0.000000  0.502458  1
  Dy  Dy1  1  0.000000  0.000000  0.997542  1
  Be  Be2  1  0.666667  0.333333  0.750000  1
  Be  Be3  1  0.333333  0.666667  0.250000  1
  Si  Si4  1  0.333333  0.666667  0.750000  1
  Ge  Ge5  1  0.666667  0.333333  0.250000  1
