# generated using pymatgen
data_Hf6Si6OsRu5
_symmetry_space_group_name_H-M   'P 1'
_cell_length_a   7.60266038
_cell_length_b   7.59818204
_cell_length_c   7.59818159
_cell_angle_alpha   127.86973086
_cell_angle_beta   121.93833463
_cell_angle_gamma   81.77261602
_symmetry_Int_Tables_number   1
_chemical_formula_structural   Hf6Si6OsRu5
_chemical_formula_sum   'Hf6 Si6 Os1 Ru5'
_cell_volume   283.02040673
_cell_formula_units_Z   1
loop_
 _symmetry_equiv_pos_site_id
 _symmetry_equiv_pos_as_xyz
  1  'x, y, z'
loop_
 _atom_site_type_symbol
 _atom_site_label
 _atom_site_symmetry_multiplicity
 _atom_site_fract_x
 _atom_site_fract_y
 _atom_site_fract_z
 _atom_site_occupancy
  Hf  Hf0  1  0.470658  0.698586  0.728754  1
  Hf  Hf1  1  0.529342  0.258096  0.227928  1
  Hf  Hf2  1  0.746932  0.831417  0.584072  1
  Hf  Hf3  1  0.253068  0.837139  0.084485  1
  Hf  Hf4  1  0.052711  0.257132  0.704707  1
  Hf  Hf5  1  0.947289  0.651996  0.204420  1
  Si  Si6  1  0.275154  0.269178  0.493267  1
  Si  Si7  1  0.724846  0.218112  0.994024  1
  Si  Si8  1  0.326960  0.587513  0.249685  1
  Si  Si9  1  0.673040  0.922725  0.260553  1
  Si  Si10  1  0.161694  0.922580  0.749238  1
  Si  Si11  1  0.838306  0.587544  0.760886  1
  Os  Os12  1  0.500000  0.500252  0.000252  1
  Ru  Ru13  1  0.000000  0.499812  0.499812  1
  Ru  Ru14  1  0.096240  0.253789  0.101935  1
  Ru  Ru15  1  0.903760  0.005695  0.157550  1
  Ru  Ru16  1  0.348188  0.005055  0.601169  1
  Ru  Ru17  1  0.651812  0.252981  0.656867  1
