# generated using pymatgen
data_Y2HoFe2Co9B4
_symmetry_space_group_name_H-M   'P 1'
_cell_length_a   5.06015447
_cell_length_b   5.06039717
_cell_length_c   9.71537700
_cell_angle_alpha   89.99975803
_cell_angle_beta   90.00029672
_cell_angle_gamma   119.98447458
_symmetry_Int_Tables_number   1
_chemical_formula_structural   Y2HoFe2Co9B4
_chemical_formula_sum   'Y2 Ho1 Fe2 Co9 B4'
_cell_volume   215.47981316
_cell_formula_units_Z   1
loop_
 _symmetry_equiv_pos_site_id
 _symmetry_equiv_pos_as_xyz
  1  'x, y, z'
loop_
 _atom_site_type_symbol
 _atom_site_label
 _atom_site_symmetry_multiplicity
 _atom_site_fract_x
 _atom_site_fract_y
 _atom_site_fract_z
 _atom_site_occupancy
  Y  Y0  1  0.999984  0.000001  0.999763  1
  Y  Y1  1  0.999996  0.000001  0.341914  1
  Ho  Ho2  1  0.000003  0.000004  0.658397  1
  Fe  Fe3  1  0.333320  0.666676  0.000061  1
  Fe  Fe4  1  0.666648  0.333323  0.000074  1
  Co  Co5  1  0.499996  0.999996  0.500352  1
  Co  Co6  1  0.499997  0.500004  0.500341  1
  Co  Co7  1  0.000001  0.500001  0.500350  1
  Co  Co8  1  0.499979  0.999975  0.202222  1
  Co  Co9  1  0.499979  0.500013  0.202208  1
  Co  Co10  1  0.000015  0.500013  0.202209  1
  Co  Co11  1  0.499989  0.999976  0.797364  1
  Co  Co12  1  0.499988  0.500012  0.797342  1
  Co  Co13  1  0.000022  0.500010  0.797363  1
  B  B14  1  0.333347  0.666655  0.349530  1
  B  B15  1  0.666637  0.333343  0.349540  1
  B  B16  1  0.666666  0.333364  0.650479  1
  B  B17  1  0.333333  0.666636  0.650489  1
