# generated using pymatgen
data_Y10AlSn4Sb
_symmetry_space_group_name_H-M   'P 1'
_cell_length_a   6.56804800
_cell_length_b   8.93936779
_cell_length_c   8.95151441
_cell_angle_alpha   119.96701044
_cell_angle_beta   89.99977647
_cell_angle_gamma   89.99999996
_symmetry_Int_Tables_number   1
_chemical_formula_structural   Y10AlSn4Sb
_chemical_formula_sum   'Y10 Al1 Sn4 Sb1'
_cell_volume   455.31771206
_cell_formula_units_Z   1
loop_
 _symmetry_equiv_pos_site_id
 _symmetry_equiv_pos_as_xyz
  1  'x, y, z'
loop_
 _atom_site_type_symbol
 _atom_site_label
 _atom_site_symmetry_multiplicity
 _atom_site_fract_x
 _atom_site_fract_y
 _atom_site_fract_z
 _atom_site_occupancy
  Y  Y0  1  0.502834  0.338740  0.673072  1
  Y  Y1  1  0.502517  0.665346  0.328066  1
  Y  Y2  1  0.997482  0.665352  0.328069  1
  Y  Y3  1  0.997167  0.338735  0.673068  1
  Y  Y4  1  0.750000  0.242226  0.001281  1
  Y  Y5  1  0.750001  0.758046  0.766260  1
  Y  Y6  1  0.749999  0.993322  0.235068  1
  Y  Y7  1  0.249997  0.760062  0.996635  1
  Y  Y8  1  0.250000  0.241988  0.239269  1
  Y  Y9  1  0.250002  0.999220  0.760381  1
  Al  Al10  1  0.750000  0.601888  0.001175  1
  Sn  Sn11  1  0.750003  0.392220  0.394069  1
  Sn  Sn12  1  0.749999  0.999122  0.606737  1
  Sn  Sn13  1  0.249996  0.396675  0.999486  1
  Sn  Sn14  1  0.249999  0.605644  0.603515  1
  Sb  Sb15  1  0.250003  0.001416  0.393850  1
