# generated using pymatgen
data_Lu17Hf2MgIr12
_symmetry_space_group_name_H-M   'P 1'
_cell_length_a   10.69840300
_cell_length_b   10.69840300
_cell_length_c   6.21757400
_cell_angle_alpha   90.00000000
_cell_angle_beta   90.00000000
_cell_angle_gamma   90.00000000
_symmetry_Int_Tables_number   1
_chemical_formula_structural   Lu17Hf2MgIr12
_chemical_formula_sum   'Lu17 Hf2 Mg1 Ir12'
_cell_volume   711.63757255
_cell_formula_units_Z   1
loop_
 _symmetry_equiv_pos_site_id
 _symmetry_equiv_pos_as_xyz
  1  'x, y, z'
loop_
 _atom_site_type_symbol
 _atom_site_label
 _atom_site_symmetry_multiplicity
 _atom_site_fract_x
 _atom_site_fract_y
 _atom_site_fract_z
 _atom_site_occupancy
  Lu  Lu0  1  0.285345  0.082822  0.376839  1
  Lu  Lu1  1  0.292264  0.912618  0.877324  1
  Lu  Lu2  1  0.707736  0.087382  0.877324  1
  Lu  Lu3  1  0.714655  0.917178  0.376839  1
  Lu  Lu4  1  0.587429  0.790283  0.876189  1
  Lu  Lu5  1  0.585233  0.209733  0.374615  1
  Lu  Lu6  1  0.414767  0.790267  0.374615  1
  Lu  Lu7  1  0.412571  0.209717  0.876189  1
  Lu  Lu8  1  0.209733  0.414767  0.625385  1
  Lu  Lu9  1  0.209717  0.587429  0.123811  1
  Lu  Lu10  1  0.790283  0.412571  0.123811  1
  Lu  Lu11  1  0.790267  0.585233  0.625385  1
  Lu  Lu12  1  0.912618  0.707736  0.122676  1
  Lu  Lu13  1  0.917178  0.285345  0.623161  1
  Lu  Lu14  1  0.082822  0.714655  0.623161  1
  Lu  Lu15  1  0.087382  0.292264  0.122676  1
  Lu  Lu16  1  0.000000  0.000000  0.000000  1
  Hf  Hf17  1  0.500000  0.500000  0.000000  1
  Hf  Hf18  1  0.500000  0.500000  0.500000  1
  Mg  Mg19  1  0.000000  0.000000  0.500000  1
  Ir  Ir20  1  0.844058  0.156640  0.245832  1
  Ir  Ir21  1  0.843360  0.844058  0.754168  1
  Ir  Ir22  1  0.156640  0.155942  0.754168  1
  Ir  Ir23  1  0.155942  0.843360  0.245832  1
  Ir  Ir24  1  0.644657  0.355252  0.748457  1
  Ir  Ir25  1  0.644748  0.644657  0.251543  1
  Ir  Ir26  1  0.355252  0.355343  0.251543  1
  Ir  Ir27  1  0.355343  0.644748  0.748457  1
  Ir  Ir28  1  0.500000  0.000000  0.125052  1
  Ir  Ir29  1  0.500000  0.000000  0.621015  1
  Ir  Ir30  1  0.000000  0.500000  0.874948  1
  Ir  Ir31  1  0.000000  0.500000  0.378985  1
