# generated using pymatgen
data_Ho4HgPd3Pb2
_symmetry_space_group_name_H-M   'P 1'
_cell_length_a   8.10334142
_cell_length_b   8.10334142
_cell_length_c   3.58463300
_cell_angle_alpha   90.00000000
_cell_angle_beta   90.00000000
_cell_angle_gamma   90.58451789
_symmetry_Int_Tables_number   1
_chemical_formula_structural   Ho4HgPd3Pb2
_chemical_formula_sum   'Ho4 Hg1 Pd3 Pb2'
_cell_volume   235.36960226
_cell_formula_units_Z   1
loop_
 _symmetry_equiv_pos_site_id
 _symmetry_equiv_pos_as_xyz
  1  'x, y, z'
loop_
 _atom_site_type_symbol
 _atom_site_label
 _atom_site_symmetry_multiplicity
 _atom_site_fract_x
 _atom_site_fract_y
 _atom_site_fract_z
 _atom_site_occupancy
  Ho  Ho0  1  0.688341  0.165443  0.500000  1
  Ho  Ho1  1  0.152459  0.347541  0.500000  1
  Ho  Ho2  1  0.831040  0.668960  0.500000  1
  Ho  Ho3  1  0.334557  0.811659  0.500000  1
  Hg  Hg4  1  0.374386  0.125614  0.000000  1
  Pd  Pd5  1  0.123073  0.628920  0.000000  1
  Pd  Pd6  1  0.624888  0.875112  0.000000  1
  Pd  Pd7  1  0.871080  0.376927  0.000000  1
  Pb  Pb8  1  0.995596  0.995421  0.000000  1
  Pb  Pb9  1  0.504579  0.504404  0.000000  1
