# generated using pymatgen
data_SmDy5V2(Co4P3)4
_symmetry_space_group_name_H-M   'P 1'
_cell_length_a   3.69885200
_cell_length_b   10.56876200
_cell_length_c   12.25881600
_cell_angle_alpha   90.00000000
_cell_angle_beta   90.00000000
_cell_angle_gamma   90.00000000
_symmetry_Int_Tables_number   1
_chemical_formula_structural   SmDy5V2(Co4P3)4
_chemical_formula_sum   'Sm1 Dy5 V2 Co16 P12'
_cell_volume   479.22514675
_cell_formula_units_Z   1
loop_
 _symmetry_equiv_pos_site_id
 _symmetry_equiv_pos_as_xyz
  1  'x, y, z'
loop_
 _atom_site_type_symbol
 _atom_site_label
 _atom_site_symmetry_multiplicity
 _atom_site_fract_x
 _atom_site_fract_y
 _atom_site_fract_z
 _atom_site_occupancy
  Sm  Sm0  1  0.000000  0.500000  0.523269  1
  Dy  Dy1  1  0.500000  0.000000  0.477258  1
  Dy  Dy2  1  0.500000  0.818807  0.204419  1
  Dy  Dy3  1  0.500000  0.181193  0.204419  1
  Dy  Dy4  1  0.000000  0.681541  0.795911  1
  Dy  Dy5  1  0.000000  0.318459  0.795911  1
  V  V6  1  0.500000  0.500000  0.152903  1
  V  V7  1  0.000000  0.000000  0.846136  1
  Co  Co8  1  0.500000  0.500000  0.703688  1
  Co  Co9  1  0.000000  0.000000  0.297571  1
  Co  Co10  1  0.000000  0.500000  0.986885  1
  Co  Co11  1  0.500000  0.000000  0.013209  1
  Co  Co12  1  0.500000  0.332273  0.993197  1
  Co  Co13  1  0.500000  0.667727  0.993197  1
  Co  Co14  1  0.000000  0.167365  0.006730  1
  Co  Co15  1  0.000000  0.832635  0.006730  1
  Co  Co16  1  0.500000  0.294233  0.430687  1
  Co  Co17  1  0.500000  0.705767  0.430687  1
  Co  Co18  1  0.000000  0.202575  0.569269  1
  Co  Co19  1  0.000000  0.797425  0.569269  1
  Co  Co20  1  0.500000  0.879365  0.708654  1
  Co  Co21  1  0.500000  0.120635  0.708654  1
  Co  Co22  1  0.000000  0.621494  0.291053  1
  Co  Co23  1  0.000000  0.378506  0.291053  1
  P  P24  1  0.500000  0.500000  0.882811  1
  P  P25  1  0.000000  0.000000  0.117651  1
  P  P26  1  0.500000  0.500000  0.344245  1
  P  P27  1  0.000000  0.000000  0.653468  1
  P  P28  1  0.500000  0.308994  0.616603  1
  P  P29  1  0.500000  0.691006  0.616603  1
  P  P30  1  0.000000  0.188563  0.384104  1
  P  P31  1  0.000000  0.811437  0.384104  1
  P  P32  1  0.500000  0.846123  0.892362  1
  P  P33  1  0.500000  0.153877  0.892362  1
  P  P34  1  0.000000  0.654283  0.107464  1
  P  P35  1  0.000000  0.345717  0.107464  1
