# generated using pymatgen
data_YHo7Re3RuC8
_symmetry_space_group_name_H-M   'P 1'
_cell_length_a   5.09214000
_cell_length_b   6.54470657
_cell_length_c   9.80878113
_cell_angle_alpha   90.13011175
_cell_angle_beta   90.00000000
_cell_angle_gamma   90.00000000
_symmetry_Int_Tables_number   1
_chemical_formula_structural   YHo7Re3RuC8
_chemical_formula_sum   'Y1 Ho7 Re3 Ru1 C8'
_cell_volume   326.89211042
_cell_formula_units_Z   1
loop_
 _symmetry_equiv_pos_site_id
 _symmetry_equiv_pos_as_xyz
  1  'x, y, z'
loop_
 _atom_site_type_symbol
 _atom_site_label
 _atom_site_symmetry_multiplicity
 _atom_site_fract_x
 _atom_site_fract_y
 _atom_site_fract_z
 _atom_site_occupancy
  Y  Y0  1  0.250000  0.467427  0.784172  1
  Ho  Ho1  1  0.750000  0.033490  0.284205  1
  Ho  Ho2  1  0.250000  0.968174  0.717157  1
  Ho  Ho3  1  0.750000  0.531626  0.214018  1
  Ho  Ho4  1  0.250000  0.825692  0.055435  1
  Ho  Ho5  1  0.750000  0.678919  0.556632  1
  Ho  Ho6  1  0.250000  0.320204  0.442681  1
  Ho  Ho7  1  0.750000  0.179000  0.942817  1
  Re  Re8  1  0.750000  0.220118  0.632341  1
  Re  Re9  1  0.250000  0.780459  0.365956  1
  Re  Re10  1  0.750000  0.720941  0.867139  1
  Ru  Ru11  1  0.250000  0.279796  0.133873  1
  C  C12  1  0.250000  0.172630  0.950138  1
  C  C13  1  0.750000  0.822849  0.052665  1
  C  C14  1  0.250000  0.675956  0.550744  1
  C  C15  1  0.750000  0.322904  0.447547  1
  C  C16  1  0.250000  0.045322  0.259755  1
  C  C17  1  0.750000  0.453572  0.758924  1
  C  C18  1  0.250000  0.547806  0.243212  1
  C  C19  1  0.750000  0.953113  0.740590  1
