# generated using pymatgen
data_Hf8Ta2CuSiSn6
_symmetry_space_group_name_H-M   'P 1'
_cell_length_a   5.72111600
_cell_length_b   8.55702025
_cell_length_c   8.55703400
_cell_angle_alpha   119.99995871
_cell_angle_beta   90.00005054
_cell_angle_gamma   89.99989730
_symmetry_Int_Tables_number   1
_chemical_formula_structural   Hf8Ta2CuSiSn6
_chemical_formula_sum   'Hf8 Ta2 Cu1 Si1 Sn6'
_cell_volume   362.79173389
_cell_formula_units_Z   1
loop_
 _symmetry_equiv_pos_site_id
 _symmetry_equiv_pos_as_xyz
  1  'x, y, z'
loop_
 _atom_site_type_symbol
 _atom_site_label
 _atom_site_symmetry_multiplicity
 _atom_site_fract_x
 _atom_site_fract_y
 _atom_site_fract_z
 _atom_site_occupancy
  Hf  Hf0  1  0.000000  0.666666  0.333331  1
  Hf  Hf1  1  0.000000  0.333334  0.666669  1
  Hf  Hf2  1  0.752076  0.263029  0.000000  1
  Hf  Hf3  1  0.752078  0.736977  0.736973  1
  Hf  Hf4  1  0.752078  0.000004  0.263027  1
  Hf  Hf5  1  0.247924  0.736972  0.000000  1
  Hf  Hf6  1  0.247921  0.263023  0.263028  1
  Hf  Hf7  1  0.247921  0.999995  0.736972  1
  Ta  Ta8  1  0.500000  0.333334  0.666670  1
  Ta  Ta9  1  0.500000  0.666664  0.333330  1
  Cu  Cu10  1  0.500000  0.000001  0.000000  1
  Si  Si11  1  0.000000  0.000001  0.000000  1
  Sn  Sn12  1  0.743239  0.609095  0.000000  1
  Sn  Sn13  1  0.743235  0.390912  0.390912  1
  Sn  Sn14  1  0.743235  0.000000  0.609088  1
  Sn  Sn15  1  0.256761  0.390905  0.000000  1
  Sn  Sn16  1  0.256765  0.609088  0.609088  1
  Sn  Sn17  1  0.256765  0.999999  0.390912  1
