# generated using pymatgen
data_Tb2Y3Hf3(Ni4P3)4
_symmetry_space_group_name_H-M   'P 1'
_cell_length_a   12.30813600
_cell_length_b   12.30813611
_cell_length_c   3.79465400
_cell_angle_alpha   90.00000000
_cell_angle_beta   90.00000000
_cell_angle_gamma   120.00000508
_symmetry_Int_Tables_number   1
_chemical_formula_structural   Tb2Y3Hf3(Ni4P3)4
_chemical_formula_sum   'Tb2 Y3 Hf3 Ni16 P12'
_cell_volume   497.83722689
_cell_formula_units_Z   1
loop_
 _symmetry_equiv_pos_site_id
 _symmetry_equiv_pos_as_xyz
  1  'x, y, z'
loop_
 _atom_site_type_symbol
 _atom_site_label
 _atom_site_symmetry_multiplicity
 _atom_site_fract_x
 _atom_site_fract_y
 _atom_site_fract_z
 _atom_site_occupancy
  Tb  Tb0  1  0.333333  0.666667  0.000000  1
  Tb  Tb1  1  0.666667  0.333333  0.000000  1
  Y  Y2  1  0.184397  0.184397  0.500000  1
  Y  Y3  1  0.815603  0.000000  0.500000  1
  Y  Y4  1  0.000000  0.815603  0.500000  1
  Hf  Hf5  1  0.561537  0.561537  0.000000  1
  Hf  Hf6  1  0.438463  0.000000  0.000000  1
  Hf  Hf7  1  0.000000  0.438463  0.000000  1
  Ni  Ni8  1  0.724904  0.724904  0.500000  1
  Ni  Ni9  1  0.275096  0.000000  0.500000  1
  Ni  Ni10  1  0.000000  0.275096  0.500000  1
  Ni  Ni11  1  0.184393  0.376877  0.000000  1
  Ni  Ni12  1  0.623123  0.807516  0.000000  1
  Ni  Ni13  1  0.192484  0.815607  0.000000  1
  Ni  Ni14  1  0.807516  0.623123  0.000000  1
  Ni  Ni15  1  0.815607  0.192484  0.000000  1
  Ni  Ni16  1  0.376877  0.184393  0.000000  1
  Ni  Ni17  1  0.360944  0.484565  0.500000  1
  Ni  Ni18  1  0.515435  0.876380  0.500000  1
  Ni  Ni19  1  0.123620  0.639056  0.500000  1
  Ni  Ni20  1  0.876380  0.515435  0.500000  1
  Ni  Ni21  1  0.639056  0.123620  0.500000  1
  Ni  Ni22  1  0.484565  0.360944  0.500000  1
  Ni  Ni23  1  0.000000  0.000000  0.000000  1
  P  P24  1  0.821946  0.821946  0.000000  1
  P  P25  1  0.178054  0.000000  0.000000  1
  P  P26  1  0.000000  0.178054  0.000000  1
  P  P27  1  0.169861  0.476235  0.500000  1
  P  P28  1  0.523765  0.693625  0.500000  1
  P  P29  1  0.306375  0.830139  0.500000  1
  P  P30  1  0.693625  0.523765  0.500000  1
  P  P31  1  0.830139  0.306375  0.500000  1
  P  P32  1  0.476235  0.169861  0.500000  1
  P  P33  1  0.356624  0.356624  0.000000  1
  P  P34  1  0.643376  0.000000  0.000000  1
  P  P35  1  0.000000  0.643376  0.000000  1
