# generated using pymatgen
data_ErZn3CuPd
_symmetry_space_group_name_H-M   'P 1'
_cell_length_a   5.07251980
_cell_length_b   5.07251935
_cell_length_c   5.07251846
_cell_angle_alpha   60.75270704
_cell_angle_beta   60.75270693
_cell_angle_gamma   60.75271135
_symmetry_Int_Tables_number   1
_chemical_formula_structural   ErZn3CuPd
_chemical_formula_sum   'Er1 Zn3 Cu1 Pd1'
_cell_volume   93.85765891
_cell_formula_units_Z   1
loop_
 _symmetry_equiv_pos_site_id
 _symmetry_equiv_pos_as_xyz
  1  'x, y, z'
loop_
 _atom_site_type_symbol
 _atom_site_label
 _atom_site_symmetry_multiplicity
 _atom_site_fract_x
 _atom_site_fract_y
 _atom_site_fract_z
 _atom_site_occupancy
  Er  Er0  1  0.999188  0.999188  0.999188  1
  Zn  Zn1  1  0.623127  0.623127  0.129868  1
  Zn  Zn2  1  0.623127  0.129868  0.623127  1
  Zn  Zn3  1  0.129868  0.623127  0.623127  1
  Cu  Cu4  1  0.625064  0.625064  0.625064  1
  Pd  Pd5  1  0.249626  0.249626  0.249626  1
