# generated using pymatgen
data_Ce4Si4TcOs3
_symmetry_space_group_name_H-M   'P 1'
_cell_length_a   7.40223126
_cell_length_b   4.40024300
_cell_length_c   6.74213705
_cell_angle_alpha   90.00000000
_cell_angle_beta   89.64883661
_cell_angle_gamma   90.00000000
_symmetry_Int_Tables_number   1
_chemical_formula_structural   Ce4Si4TcOs3
_chemical_formula_sum   'Ce4 Si4 Tc1 Os3'
_cell_volume   219.59817642
_cell_formula_units_Z   1
loop_
 _symmetry_equiv_pos_site_id
 _symmetry_equiv_pos_as_xyz
  1  'x, y, z'
loop_
 _atom_site_type_symbol
 _atom_site_label
 _atom_site_symmetry_multiplicity
 _atom_site_fract_x
 _atom_site_fract_y
 _atom_site_fract_z
 _atom_site_occupancy
  Ce  Ce0  1  0.520777  0.749999  0.161852  1
  Ce  Ce1  1  0.021858  0.749999  0.334969  1
  Ce  Ce2  1  0.978941  0.250000  0.663277  1
  Ce  Ce3  1  0.475782  0.250000  0.839635  1
  Si  Si4  1  0.808417  0.250000  0.111132  1
  Si  Si5  1  0.311097  0.250000  0.389296  1
  Si  Si6  1  0.690373  0.749999  0.613052  1
  Si  Si7  1  0.189852  0.749999  0.887156  1
  Tc  Tc8  1  0.140977  0.250000  0.066200  1
  Os  Os9  1  0.641801  0.250000  0.433812  1
  Os  Os10  1  0.361328  0.749999  0.568592  1
  Os  Os11  1  0.858797  0.749999  0.931018  1
