# generated using pymatgen
data_Dy4Tm8Co4CuBi
_symmetry_space_group_name_H-M   'P 1'
_cell_length_a   8.25740583
_cell_length_b   8.25740558
_cell_length_c   8.25740545
_cell_angle_alpha   110.15101773
_cell_angle_beta   111.07228749
_cell_angle_gamma   107.21503051
_symmetry_Int_Tables_number   1
_chemical_formula_structural   Dy4Tm8Co4CuBi
_chemical_formula_sum   'Dy4 Tm8 Co4 Cu1 Bi1'
_cell_volume   432.88927764
_cell_formula_units_Z   1
loop_
 _symmetry_equiv_pos_site_id
 _symmetry_equiv_pos_as_xyz
  1  'x, y, z'
loop_
 _atom_site_type_symbol
 _atom_site_label
 _atom_site_symmetry_multiplicity
 _atom_site_fract_x
 _atom_site_fract_y
 _atom_site_fract_z
 _atom_site_occupancy
  Dy  Dy0  1  0.286598  0.183831  0.470429  1
  Dy  Dy1  1  0.713402  0.816169  0.529571  1
  Dy  Dy2  1  0.286598  0.816169  0.102766  1
  Dy  Dy3  1  0.713402  0.183831  0.897234  1
  Tm  Tm4  1  0.621507  0.312997  0.308509  1
  Tm  Tm5  1  0.378493  0.687003  0.691491  1
  Tm  Tm6  1  0.004488  0.312997  0.691491  1
  Tm  Tm7  1  0.995512  0.687003  0.308509  1
  Tm  Tm8  1  0.213674  0.415162  0.201490  1
  Tm  Tm9  1  0.786326  0.584838  0.798510  1
  Tm  Tm10  1  0.213674  0.012184  0.798510  1
  Tm  Tm11  1  0.786326  0.987816  0.201490  1
  Co  Co12  1  0.000000  0.375979  0.375979  1
  Co  Co13  1  0.000000  0.624021  0.624021  1
  Co  Co14  1  0.386139  0.886139  0.500000  1
  Co  Co15  1  0.613861  0.113861  0.500000  1
  Cu  Cu16  1  0.000000  0.000000  0.000000  1
  Bi  Bi17  1  0.500000  0.500000  0.000000  1
