# generated using pymatgen
data_Nd7ZnAu2
_symmetry_space_group_name_H-M   'P 1'
_cell_length_a   3.87173600
_cell_length_b   12.57625300
_cell_length_c   12.57625300
_cell_angle_alpha   90.00000000
_cell_angle_beta   90.00000000
_cell_angle_gamma   90.00000000
_symmetry_Int_Tables_number   1
_chemical_formula_structural   Nd7ZnAu2
_chemical_formula_sum   'Nd14 Zn2 Au4'
_cell_volume   612.36204942
_cell_formula_units_Z   2
loop_
 _symmetry_equiv_pos_site_id
 _symmetry_equiv_pos_as_xyz
  1  'x, y, z'
loop_
 _atom_site_type_symbol
 _atom_site_label
 _atom_site_symmetry_multiplicity
 _atom_site_fract_x
 _atom_site_fract_y
 _atom_site_fract_z
 _atom_site_occupancy
  Nd  Nd0  1  0.500000  0.000000  0.500000  1
  Nd  Nd1  1  0.500000  0.500000  0.000000  1
  Nd  Nd2  1  0.000000  0.320831  0.820831  1
  Nd  Nd3  1  0.000000  0.679169  0.179169  1
  Nd  Nd4  1  0.000000  0.179169  0.320831  1
  Nd  Nd5  1  0.000000  0.820831  0.679169  1
  Nd  Nd6  1  0.500000  0.552510  0.693281  1
  Nd  Nd7  1  0.500000  0.447490  0.306719  1
  Nd  Nd8  1  0.500000  0.947490  0.193281  1
  Nd  Nd9  1  0.500000  0.052510  0.806719  1
  Nd  Nd10  1  0.500000  0.693281  0.447490  1
  Nd  Nd11  1  0.500000  0.306719  0.552510  1
  Nd  Nd12  1  0.500000  0.193281  0.052510  1
  Nd  Nd13  1  0.500000  0.806719  0.947490  1
  Zn  Zn14  1  0.000000  0.500000  0.500000  1
  Zn  Zn15  1  0.000000  0.000000  0.000000  1
  Au  Au16  1  0.000000  0.133202  0.633202  1
  Au  Au17  1  0.000000  0.866798  0.366798  1
  Au  Au18  1  0.000000  0.366798  0.133202  1
  Au  Au19  1  0.000000  0.633202  0.866798  1
