# generated using pymatgen
data_CaGaSn5Ir4
_symmetry_space_group_name_H-M   'P 1'
_cell_length_a   6.90077510
_cell_length_b   6.98287946
_cell_length_c   6.89576873
_cell_angle_alpha   119.65855220
_cell_angle_beta   119.25751341
_cell_angle_gamma   91.31519909
_symmetry_Int_Tables_number   1
_chemical_formula_structural   CaGaSn5Ir4
_chemical_formula_sum   'Ca1 Ga1 Sn5 Ir4'
_cell_volume   236.05386245
_cell_formula_units_Z   1
loop_
 _symmetry_equiv_pos_site_id
 _symmetry_equiv_pos_as_xyz
  1  'x, y, z'
loop_
 _atom_site_type_symbol
 _atom_site_label
 _atom_site_symmetry_multiplicity
 _atom_site_fract_x
 _atom_site_fract_y
 _atom_site_fract_z
 _atom_site_occupancy
  Ca  Ca0  1  0.998145  0.988681  0.000003  1
  Ga  Ga1  1  0.876314  0.534957  0.999999  1
  Sn  Sn2  1  0.534235  0.877977  0.999997  1
  Sn  Sn3  1  0.457137  0.463310  0.333631  1
  Sn  Sn4  1  0.504704  0.002051  0.501944  1
  Sn  Sn5  1  0.002760  0.500107  0.498051  1
  Sn  Sn6  1  0.123504  0.129677  0.666374  1
  Ir  Ir7  1  0.606247  0.243301  0.000000  1
  Ir  Ir8  1  0.230550  0.603747  0.999999  1
  Ir  Ir9  1  0.752376  0.747270  0.338351  1
  Ir  Ir10  1  0.414024  0.408917  0.661647  1
