# generated using pymatgen
data_La5Pt19
_symmetry_space_group_name_H-M   'P 1'
_cell_length_a   5.48816276
_cell_length_b   5.48816218
_cell_length_c   18.15834806
_cell_angle_alpha   81.30819117
_cell_angle_beta   81.30820195
_cell_angle_gamma   60.00000568
_symmetry_Int_Tables_number   1
_chemical_formula_structural   La5Pt19
_chemical_formula_sum   'La5 Pt19'
_cell_volume   466.38668590
_cell_formula_units_Z   1
loop_
 _symmetry_equiv_pos_site_id
 _symmetry_equiv_pos_as_xyz
  1  'x, y, z'
loop_
 _atom_site_type_symbol
 _atom_site_label
 _atom_site_symmetry_multiplicity
 _atom_site_fract_x
 _atom_site_fract_y
 _atom_site_fract_z
 _atom_site_occupancy
  La  La0  1  0.000000  0.000000  0.000000  1
  La  La1  1  0.922756  0.922756  0.231733  1
  La  La2  1  0.077244  0.077244  0.768267  1
  La  La3  1  0.847966  0.847966  0.456102  1
  La  La4  1  0.152034  0.152034  0.543898  1
  Pt  Pt5  1  0.500000  0.500000  0.500000  1
  Pt  Pt6  1  0.749810  0.749811  0.750568  1
  Pt  Pt7  1  0.250189  0.250189  0.249433  1
  Pt  Pt8  1  0.666740  0.666740  0.999782  1
  Pt  Pt9  1  0.333260  0.333260  0.000218  1
  Pt  Pt10  1  0.583908  0.583908  0.248277  1
  Pt  Pt11  1  0.416092  0.416092  0.751723  1
  Pt  Pt12  1  0.373688  0.373688  0.374820  1
  Pt  Pt13  1  0.877804  0.373688  0.374820  1
  Pt  Pt14  1  0.373688  0.877804  0.374820  1
  Pt  Pt15  1  0.626312  0.626312  0.625180  1
  Pt  Pt16  1  0.122196  0.626312  0.625180  1
  Pt  Pt17  1  0.626312  0.122196  0.625180  1
  Pt  Pt18  1  0.458806  0.458806  0.123407  1
  Pt  Pt19  1  0.958979  0.458806  0.123407  1
  Pt  Pt20  1  0.458806  0.958979  0.123407  1
  Pt  Pt21  1  0.541194  0.541194  0.876593  1
  Pt  Pt22  1  0.041021  0.541194  0.876593  1
  Pt  Pt23  1  0.541194  0.041021  0.876593  1
