# generated using pymatgen
data_Lu8InPb3Au8
_symmetry_space_group_name_H-M   'P 1'
_cell_length_a   8.02154500
_cell_length_b   8.02154500
_cell_length_c   7.19146100
_cell_angle_alpha   90.00000000
_cell_angle_beta   90.00000000
_cell_angle_gamma   90.00000000
_symmetry_Int_Tables_number   1
_chemical_formula_structural   Lu8InPb3Au8
_chemical_formula_sum   'Lu8 In1 Pb3 Au8'
_cell_volume   462.73588262
_cell_formula_units_Z   1
loop_
 _symmetry_equiv_pos_site_id
 _symmetry_equiv_pos_as_xyz
  1  'x, y, z'
loop_
 _atom_site_type_symbol
 _atom_site_label
 _atom_site_symmetry_multiplicity
 _atom_site_fract_x
 _atom_site_fract_y
 _atom_site_fract_z
 _atom_site_occupancy
  Lu  Lu0  1  0.847618  0.156692  0.497594  1
  Lu  Lu1  1  0.152382  0.843308  0.497594  1
  Lu  Lu2  1  0.343308  0.347618  0.002406  1
  Lu  Lu3  1  0.656692  0.652382  0.002406  1
  Lu  Lu4  1  0.681818  0.678592  0.498370  1
  Lu  Lu5  1  0.318182  0.321408  0.498370  1
  Lu  Lu6  1  0.178593  0.818182  0.001630  1
  Lu  Lu7  1  0.821408  0.181819  0.001630  1
  In  In8  1  0.000000  0.500000  0.250000  1
  Pb  Pb9  1  0.500000  0.000000  0.250000  1
  Pb  Pb10  1  0.000000  0.500000  0.750000  1
  Pb  Pb11  1  0.500000  0.000000  0.750000  1
  Au  Au12  1  0.631585  0.375057  0.276470  1
  Au  Au13  1  0.368415  0.624943  0.276470  1
  Au  Au14  1  0.127675  0.126596  0.777167  1
  Au  Au15  1  0.872325  0.873404  0.777167  1
  Au  Au16  1  0.373404  0.627675  0.722833  1
  Au  Au17  1  0.626596  0.372325  0.722833  1
  Au  Au18  1  0.875057  0.868415  0.223530  1
  Au  Au19  1  0.124943  0.131585  0.223530  1
