# generated using pymatgen
data_UTeCl9
_symmetry_space_group_name_H-M   'P 1'
_cell_length_a   6.90889482
_cell_length_b   10.15743138
_cell_length_c   12.18627519
_cell_angle_alpha   106.55887963
_cell_angle_beta   105.01105239
_cell_angle_gamma   91.22098970
_symmetry_Int_Tables_number   1
_chemical_formula_structural   UTeCl9
_chemical_formula_sum   'U2 Te2 Cl18'
_cell_volume   787.56187589
_cell_formula_units_Z   2
loop_
 _symmetry_equiv_pos_site_id
 _symmetry_equiv_pos_as_xyz
  1  'x, y, z'
loop_
 _atom_site_type_symbol
 _atom_site_label
 _atom_site_symmetry_multiplicity
 _atom_site_fract_x
 _atom_site_fract_y
 _atom_site_fract_z
 _atom_site_occupancy
  U  U0  1  0.134704  0.272774  0.716702  1
  U  U1  1  0.865296  0.727226  0.283298  1
  Te  Te2  1  0.302814  0.334331  0.165848  1
  Te  Te3  1  0.697186  0.665669  0.834152  1
  Cl  Cl4  1  0.472216  0.135793  0.157982  1
  Cl  Cl5  1  0.527784  0.864207  0.842018  1
  Cl  Cl6  1  0.278312  0.365368  0.358412  1
  Cl  Cl7  1  0.721688  0.634632  0.641588  1
  Cl  Cl8  1  0.114507  0.744763  0.475975  1
  Cl  Cl9  1  0.885493  0.255237  0.524025  1
  Cl  Cl10  1  0.714234  0.489795  0.283727  1
  Cl  Cl11  1  0.285766  0.510205  0.716273  1
  Cl  Cl12  1  0.011962  0.948032  0.274402  1
  Cl  Cl13  1  0.988038  0.051968  0.725598  1
  Cl  Cl14  1  0.110626  0.595294  0.170229  1
  Cl  Cl15  1  0.889374  0.404706  0.829771  1
  Cl  Cl16  1  0.610583  0.692362  0.076335  1
  Cl  Cl17  1  0.389417  0.307638  0.923665  1
  Cl  Cl18  1  0.619878  0.846797  0.383069  1
  Cl  Cl19  1  0.380122  0.153203  0.616931  1
  Cl  Cl20  1  0.016308  0.787497  0.929395  1
  Cl  Cl21  1  0.983692  0.212503  0.070605  1
