# generated using pymatgen
data_Th7Fe2Pd
_symmetry_space_group_name_H-M   'P 1'
_cell_length_a   9.94818664
_cell_length_b   9.85410948
_cell_length_c   6.25574558
_cell_angle_alpha   90.45219699
_cell_angle_beta   89.10413717
_cell_angle_gamma   120.31631789
_symmetry_Int_Tables_number   1
_chemical_formula_structural   Th7Fe2Pd
_chemical_formula_sum   'Th14 Fe4 Pd2'
_cell_volume   529.32791910
_cell_formula_units_Z   2
loop_
 _symmetry_equiv_pos_site_id
 _symmetry_equiv_pos_as_xyz
  1  'x, y, z'
loop_
 _atom_site_type_symbol
 _atom_site_label
 _atom_site_symmetry_multiplicity
 _atom_site_fract_x
 _atom_site_fract_y
 _atom_site_fract_z
 _atom_site_occupancy
  Th  Th0  1  0.321139  0.659913  0.040836  1
  Th  Th1  1  0.661227  0.340087  0.540836  1
  Th  Th2  1  0.126004  0.874945  0.244228  1
  Th  Th3  1  0.251060  0.125055  0.744228  1
  Th  Th4  1  0.887361  0.747470  0.745343  1
  Th  Th5  1  0.139890  0.252530  0.245343  1
  Th  Th6  1  0.752237  0.859157  0.264222  1
  Th  Th7  1  0.893079  0.140843  0.764222  1
  Th  Th8  1  0.543711  0.453801  0.048237  1
  Th  Th9  1  0.089911  0.546199  0.548237  1
  Th  Th10  1  0.444321  0.915813  0.545435  1
  Th  Th11  1  0.528508  0.084187  0.045435  1
  Th  Th12  1  0.912078  0.468809  0.050559  1
  Th  Th13  1  0.443269  0.531191  0.550559  1
  Fe  Fe14  1  0.183321  0.367613  0.791924  1
  Fe  Fe15  1  0.815709  0.632387  0.291924  1
  Fe  Fe16  1  0.373908  0.184601  0.289732  1
  Fe  Fe17  1  0.189306  0.815399  0.789732  1
  Pd  Pd18  1  0.812541  0.181119  0.309485  1
  Pd  Pd19  1  0.631421  0.818881  0.809485  1
