# generated using pymatgen
data_ThZnGa7Pd3
_symmetry_space_group_name_H-M   'P 1'
_cell_length_a   8.53490672
_cell_length_b   8.53146797
_cell_length_c   8.54465680
_cell_angle_alpha   89.60659921
_cell_angle_beta   89.83271460
_cell_angle_gamma   89.50002712
_symmetry_Int_Tables_number   1
_chemical_formula_structural   ThZnGa7Pd3
_chemical_formula_sum   'Th3 Zn3 Ga21 Pd9'
_cell_volume   622.14070825
_cell_formula_units_Z   3
loop_
 _symmetry_equiv_pos_site_id
 _symmetry_equiv_pos_as_xyz
  1  'x, y, z'
loop_
 _atom_site_type_symbol
 _atom_site_label
 _atom_site_symmetry_multiplicity
 _atom_site_fract_x
 _atom_site_fract_y
 _atom_site_fract_z
 _atom_site_occupancy
  Th  Th0  1  0.000222  0.499645  0.999915  1
  Th  Th1  1  0.499688  0.000517  0.998994  1
  Th  Th2  1  0.000053  0.000248  0.500428  1
  Zn  Zn3  1  0.737993  0.500374  0.263018  1
  Zn  Zn4  1  0.264055  0.498747  0.736700  1
  Zn  Zn5  1  0.497965  0.263820  0.736170  1
  Ga  Ga6  1  0.989670  0.641569  0.645545  1
  Ga  Ga7  1  0.645375  0.642697  0.990645  1
  Ga  Ga8  1  0.641172  0.990107  0.643776  1
  Ga  Ga9  1  0.009885  0.356383  0.356853  1
  Ga  Ga10  1  0.357517  0.356445  0.005714  1
  Ga  Ga11  1  0.356304  0.014084  0.356750  1
  Ga  Ga12  1  0.502665  0.736948  0.263148  1
  Ga  Ga13  1  0.262828  0.735898  0.502245  1
  Ga  Ga14  1  0.734935  0.264192  0.498893  1
  Ga  Ga15  1  0.836224  0.143391  0.836943  1
  Ga  Ga16  1  0.143224  0.836333  0.836690  1
  Ga  Ga17  1  0.836845  0.836309  0.143585  1
  Ga  Ga18  1  0.161834  0.857568  0.161963  1
  Ga  Ga19  1  0.856496  0.163876  0.163421  1
  Ga  Ga20  1  0.165455  0.165064  0.855736  1
  Ga  Ga21  1  0.727145  0.484434  0.730186  1
  Ga  Ga22  1  0.485221  0.727179  0.732574  1
  Ga  Ga23  1  0.732603  0.729419  0.485787  1
  Ga  Ga24  1  0.270393  0.507998  0.267594  1
  Ga  Ga25  1  0.515151  0.272946  0.267320  1
  Ga  Ga26  1  0.269966  0.271977  0.520927  1
  Pd  Pd27  1  0.838148  0.839073  0.838065  1
  Pd  Pd28  1  0.161362  0.161429  0.161659  1
  Pd  Pd29  1  0.665202  0.335274  0.999229  1
  Pd  Pd30  1  0.997248  0.334891  0.664402  1
  Pd  Pd31  1  0.335015  0.997816  0.664028  1
  Pd  Pd32  1  0.335972  0.665297  0.002254  1
  Pd  Pd33  1  0.003015  0.664447  0.335782  1
  Pd  Pd34  1  0.663857  0.000447  0.335709  1
  Pd  Pd35  1  0.499297  0.503160  0.497352  1
