# generated using pymatgen
data_Tm2U2Ga12Ru
_symmetry_space_group_name_H-M   'P 1'
_cell_length_a   7.46242646
_cell_length_b   7.35516928
_cell_length_c   7.46242683
_cell_angle_alpha   109.23621086
_cell_angle_beta   110.52058787
_cell_angle_gamma   109.23620879
_symmetry_Int_Tables_number   1
_chemical_formula_structural   Tm2U2Ga12Ru
_chemical_formula_sum   'Tm2 U2 Ga12 Ru1'
_cell_volume   312.99099352
_cell_formula_units_Z   1
loop_
 _symmetry_equiv_pos_site_id
 _symmetry_equiv_pos_as_xyz
  1  'x, y, z'
loop_
 _atom_site_type_symbol
 _atom_site_label
 _atom_site_symmetry_multiplicity
 _atom_site_fract_x
 _atom_site_fract_y
 _atom_site_fract_z
 _atom_site_occupancy
  Tm  Tm0  1  0.000000  0.000000  0.500000  1
  Tm  Tm1  1  0.500000  0.000000  0.000000  1
  U  U2  1  0.500000  0.500000  0.500000  1
  U  U3  1  0.000000  0.500000  0.000000  1
  Ga  Ga4  1  0.749119  0.249557  0.500438  1
  Ga  Ga5  1  0.999372  0.707633  0.708260  1
  Ga  Ga6  1  0.292793  0.000000  0.292793  1
  Ga  Ga7  1  0.500438  0.249557  0.749119  1
  Ga  Ga8  1  0.750000  0.500000  0.250000  1
  Ga  Ga9  1  0.250881  0.750443  0.499562  1
  Ga  Ga10  1  0.250000  0.500000  0.750000  1
  Ga  Ga11  1  0.707207  0.000000  0.707207  1
  Ga  Ga12  1  0.499562  0.750443  0.250881  1
  Ga  Ga13  1  0.708260  0.707633  0.999372  1
  Ga  Ga14  1  0.291740  0.292367  0.000628  1
  Ga  Ga15  1  0.000628  0.292367  0.291740  1
  Ru  Ru16  1  0.000000  0.000000  0.000000  1
