# generated using pymatgen
data_Pr3Nd5(SiBr6)2
_symmetry_space_group_name_H-M   'P 1'
_cell_length_a   4.22340300
_cell_length_b   13.80720861
_cell_length_c   14.61014870
_cell_angle_alpha   89.94466607
_cell_angle_beta   90.00000000
_cell_angle_gamma   90.00000000
_symmetry_Int_Tables_number   1
_chemical_formula_structural   Pr3Nd5(SiBr6)2
_chemical_formula_sum   'Pr3 Nd5 Si2 Br12'
_cell_volume   851.96713960
_cell_formula_units_Z   1
loop_
 _symmetry_equiv_pos_site_id
 _symmetry_equiv_pos_as_xyz
  1  'x, y, z'
loop_
 _atom_site_type_symbol
 _atom_site_label
 _atom_site_symmetry_multiplicity
 _atom_site_fract_x
 _atom_site_fract_y
 _atom_site_fract_z
 _atom_site_occupancy
  Pr  Pr0  1  0.000000  0.120432  0.580033  1
  Pr  Pr1  1  0.000000  0.879569  0.419951  1
  Pr  Pr2  1  0.000000  0.619822  0.920339  1
  Nd  Nd3  1  0.500000  0.118671  0.340831  1
  Nd  Nd4  1  0.500000  0.881409  0.659061  1
  Nd  Nd5  1  0.500000  0.618219  0.158948  1
  Nd  Nd6  1  0.500000  0.381442  0.841263  1
  Nd  Nd7  1  0.000000  0.380262  0.079607  1
  Si  Si8  1  0.500000  0.000025  0.499958  1
  Si  Si9  1  0.500000  0.499015  0.000651  1
  Br  Br10  1  0.500000  0.243721  0.162314  1
  Br  Br11  1  0.500000  0.757882  0.836783  1
  Br  Br12  1  0.500000  0.741972  0.336681  1
  Br  Br13  1  0.500000  0.257982  0.663346  1
  Br  Br14  1  0.000000  0.253451  0.410121  1
  Br  Br15  1  0.000000  0.746534  0.589863  1
  Br  Br16  1  0.000000  0.753362  0.089806  1
  Br  Br17  1  0.000000  0.247165  0.911255  1
  Br  Br18  1  0.000000  0.003302  0.244588  1
  Br  Br19  1  0.000000  0.996747  0.755399  1
  Br  Br20  1  0.000000  0.502261  0.254488  1
  Br  Br21  1  0.000000  0.496755  0.744714  1
