# generated using pymatgen
data_LiSmCdCuPt2
_symmetry_space_group_name_H-M   'P 1'
_cell_length_a   5.13525612
_cell_length_b   5.24373613
_cell_length_c   5.24373749
_cell_angle_alpha   64.09642736
_cell_angle_beta   61.23014106
_cell_angle_gamma   61.23013603
_symmetry_Int_Tables_number   1
_chemical_formula_structural   LiSmCdCuPt2
_chemical_formula_sum   'Li1 Sm1 Cd1 Cu1 Pt2'
_cell_volume   104.55313679
_cell_formula_units_Z   1
loop_
 _symmetry_equiv_pos_site_id
 _symmetry_equiv_pos_as_xyz
  1  'x, y, z'
loop_
 _atom_site_type_symbol
 _atom_site_label
 _atom_site_symmetry_multiplicity
 _atom_site_fract_x
 _atom_site_fract_y
 _atom_site_fract_z
 _atom_site_occupancy
  Li  Li0  1  0.622168  0.629389  0.629389  1
  Sm  Sm1  1  0.250945  0.244101  0.244101  1
  Cd  Cd2  1  0.007544  0.992938  0.992938  1
  Cu  Cu3  1  0.123494  0.629213  0.629213  1
  Pt  Pt4  1  0.622925  0.628145  0.126216  1
  Pt  Pt5  1  0.622925  0.126216  0.628145  1
