# generated using pymatgen
data_Sc11Ir2OsPt
_symmetry_space_group_name_H-M   'P 1'
_cell_length_a   9.50277700
_cell_length_b   9.50277637
_cell_length_c   9.46975600
_cell_angle_alpha   60.11487251
_cell_angle_beta   60.11487470
_cell_angle_gamma   59.77024546
_symmetry_Int_Tables_number   1
_chemical_formula_structural   Sc11Ir2OsPt
_chemical_formula_sum   'Sc22 Ir4 Os2 Pt2'
_cell_volume   604.66434888
_cell_formula_units_Z   2
loop_
 _symmetry_equiv_pos_site_id
 _symmetry_equiv_pos_as_xyz
  1  'x, y, z'
loop_
 _atom_site_type_symbol
 _atom_site_label
 _atom_site_symmetry_multiplicity
 _atom_site_fract_x
 _atom_site_fract_y
 _atom_site_fract_z
 _atom_site_occupancy
  Sc  Sc0  1  0.803279  0.803279  0.196721  1
  Sc  Sc1  1  0.197077  0.802923  0.197077  1
  Sc  Sc2  1  0.802923  0.197077  0.197077  1
  Sc  Sc3  1  0.196721  0.196721  0.803279  1
  Sc  Sc4  1  0.802923  0.197077  0.802923  1
  Sc  Sc5  1  0.197077  0.802923  0.802923  1
  Sc  Sc6  1  0.617762  0.617762  0.149710  1
  Sc  Sc7  1  0.614767  0.149710  0.617762  1
  Sc  Sc8  1  0.149710  0.614767  0.617762  1
  Sc  Sc9  1  0.617762  0.617762  0.614767  1
  Sc  Sc10  1  0.382238  0.382238  0.850290  1
  Sc  Sc11  1  0.385233  0.850290  0.382238  1
  Sc  Sc12  1  0.850290  0.385233  0.382238  1
  Sc  Sc13  1  0.382238  0.382238  0.385233  1
  Sc  Sc14  1  0.841306  0.841306  0.470929  1
  Sc  Sc15  1  0.846456  0.470929  0.841306  1
  Sc  Sc16  1  0.470929  0.846456  0.841306  1
  Sc  Sc17  1  0.841306  0.841306  0.846456  1
  Sc  Sc18  1  0.158694  0.158694  0.529071  1
  Sc  Sc19  1  0.153544  0.529071  0.158694  1
  Sc  Sc20  1  0.529071  0.153544  0.158694  1
  Sc  Sc21  1  0.158694  0.158694  0.153544  1
  Ir  Ir22  1  0.500000  0.000000  0.500000  1
  Ir  Ir23  1  0.000000  0.500000  0.500000  1
  Ir  Ir24  1  0.000000  0.500000  0.000000  1
  Ir  Ir25  1  0.500000  0.000000  0.000000  1
  Os  Os26  1  0.000000  0.000000  0.000000  1
  Os  Os27  1  0.500000  0.500000  0.500000  1
  Pt  Pt28  1  0.000000  0.000000  0.500000  1
  Pt  Pt29  1  0.500000  0.500000  0.000000  1
