# generated using pymatgen
data_Yb6Si24Os5Ru3
_symmetry_space_group_name_H-M   'P 1'
_cell_length_a   10.15771256
_cell_length_b   10.15771310
_cell_length_c   8.16842052
_cell_angle_alpha   89.98103573
_cell_angle_beta   89.98103350
_cell_angle_gamma   132.54207156
_symmetry_Int_Tables_number   1
_chemical_formula_structural   Yb6Si24Os5Ru3
_chemical_formula_sum   'Yb6 Si24 Os5 Ru3'
_cell_volume   620.96662092
_cell_formula_units_Z   1
loop_
 _symmetry_equiv_pos_site_id
 _symmetry_equiv_pos_as_xyz
  1  'x, y, z'
loop_
 _atom_site_type_symbol
 _atom_site_label
 _atom_site_symmetry_multiplicity
 _atom_site_fract_x
 _atom_site_fract_y
 _atom_site_fract_z
 _atom_site_occupancy
  Yb  Yb0  1  0.499477  0.499477  0.499857  1
  Yb  Yb1  1  0.999970  0.999970  0.999229  1
  Yb  Yb2  1  0.501710  0.001669  0.750110  1
  Yb  Yb3  1  0.998331  0.498637  0.250124  1
  Yb  Yb4  1  0.498637  0.998331  0.250124  1
  Yb  Yb5  1  0.001669  0.501710  0.750110  1
  Si  Si6  1  0.794652  0.205532  0.500105  1
  Si  Si7  1  0.294334  0.705490  0.999991  1
  Si  Si8  1  0.205532  0.794652  0.500105  1
  Si  Si9  1  0.705490  0.294334  0.999991  1
  Si  Si10  1  0.332743  0.332743  0.832611  1
  Si  Si11  1  0.667636  0.667636  0.167387  1
  Si  Si12  1  0.166981  0.166981  0.330869  1
  Si  Si13  1  0.830815  0.830815  0.666466  1
  Si  Si14  1  0.125647  0.892444  0.731045  1
  Si  Si15  1  0.107439  0.874695  0.269149  1
  Si  Si16  1  0.607407  0.374505  0.230660  1
  Si  Si17  1  0.625995  0.392879  0.769538  1
  Si  Si18  1  0.874695  0.107439  0.269149  1
  Si  Si19  1  0.892444  0.125647  0.731045  1
  Si  Si20  1  0.392879  0.625995  0.769538  1
  Si  Si21  1  0.374505  0.607407  0.230660  1
  Si  Si22  1  0.347477  0.113534  0.507876  1
  Si  Si23  1  0.886372  0.652983  0.492471  1
  Si  Si24  1  0.387166  0.153282  0.008433  1
  Si  Si25  1  0.846626  0.613167  0.992349  1
  Si  Si26  1  0.652983  0.886372  0.492471  1
  Si  Si27  1  0.113534  0.347477  0.507876  1
  Si  Si28  1  0.613167  0.846626  0.992349  1
  Si  Si29  1  0.153282  0.387166  0.008433  1
  Os  Os30  1  0.669775  0.330397  0.500165  1
  Os  Os31  1  0.169551  0.830417  0.000039  1
  Os  Os32  1  0.330397  0.669775  0.500165  1
  Os  Os33  1  0.830417  0.169551  0.000039  1
  Os  Os34  1  0.125818  0.125818  0.624997  1
  Ru  Ru35  1  0.874394  0.874394  0.374640  1
  Ru  Ru36  1  0.374606  0.374606  0.124790  1
  Ru  Ru37  1  0.625445  0.625445  0.875041  1
