# generated using pymatgen
data_Zr6Al7Ni15Ir
_symmetry_space_group_name_H-M   'P 1'
_cell_length_a   8.34840688
_cell_length_b   8.34760015
_cell_length_c   8.33535563
_cell_angle_alpha   59.89303611
_cell_angle_beta   59.89975278
_cell_angle_gamma   59.94005225
_symmetry_Int_Tables_number   1
_chemical_formula_structural   Zr6Al7Ni15Ir
_chemical_formula_sum   'Zr6 Al7 Ni15 Ir1'
_cell_volume   409.91703701
_cell_formula_units_Z   1
loop_
 _symmetry_equiv_pos_site_id
 _symmetry_equiv_pos_as_xyz
  1  'x, y, z'
loop_
 _atom_site_type_symbol
 _atom_site_label
 _atom_site_symmetry_multiplicity
 _atom_site_fract_x
 _atom_site_fract_y
 _atom_site_fract_z
 _atom_site_occupancy
  Zr  Zr0  1  0.206617  0.792476  0.792584  1
  Zr  Zr1  1  0.206639  0.794446  0.206670  1
  Zr  Zr2  1  0.794393  0.206742  0.206733  1
  Zr  Zr3  1  0.792585  0.206484  0.792681  1
  Zr  Zr4  1  0.792606  0.792585  0.206514  1
  Zr  Zr5  1  0.206671  0.206706  0.794391  1
  Al  Al6  1  0.999129  0.999139  0.500532  1
  Al  Al7  1  0.500739  0.996458  0.500673  1
  Al  Al8  1  0.503565  0.503610  0.503591  1
  Al  Al9  1  0.999146  0.500485  0.999172  1
  Al  Al10  1  0.500778  0.500763  0.996417  1
  Al  Al11  1  0.500386  0.999184  0.999183  1
  Al  Al12  1  0.996447  0.500721  0.500705  1
  Ni  Ni13  1  0.505586  0.831619  0.831541  1
  Ni  Ni14  1  0.621691  0.621903  0.137538  1
  Ni  Ni15  1  0.167117  0.167047  0.493999  1
  Ni  Ni16  1  0.831567  0.831632  0.505670  1
  Ni  Ni17  1  0.169158  0.169312  0.169343  1
  Ni  Ni18  1  0.830268  0.830299  0.830331  1
  Ni  Ni19  1  0.378277  0.378162  0.864080  1
  Ni  Ni20  1  0.831590  0.505728  0.831569  1
  Ni  Ni21  1  0.622125  0.621946  0.621928  1
  Ni  Ni22  1  0.378217  0.864110  0.378169  1
  Ni  Ni23  1  0.137667  0.621723  0.621729  1
  Ni  Ni24  1  0.621654  0.137636  0.621865  1
  Ni  Ni25  1  0.167189  0.493762  0.167111  1
  Ni  Ni26  1  0.864000  0.378222  0.378347  1
  Ni  Ni27  1  0.494159  0.167040  0.166992  1
  Ir  Ir28  1  0.380035  0.380060  0.379942  1
