# generated using pymatgen
data_Pr5Lu5(Pb3Cl)2
_symmetry_space_group_name_H-M   'P 1'
_cell_length_a   9.39556200
_cell_length_b   9.39556216
_cell_length_c   6.68643400
_cell_angle_alpha   90.00000000
_cell_angle_beta   90.00000000
_cell_angle_gamma   120.23175509
_symmetry_Int_Tables_number   1
_chemical_formula_structural   Pr5Lu5(Pb3Cl)2
_chemical_formula_sum   'Pr5 Lu5 Pb6 Cl2'
_cell_volume   509.97838204
_cell_formula_units_Z   1
loop_
 _symmetry_equiv_pos_site_id
 _symmetry_equiv_pos_as_xyz
  1  'x, y, z'
loop_
 _atom_site_type_symbol
 _atom_site_label
 _atom_site_symmetry_multiplicity
 _atom_site_fract_x
 _atom_site_fract_y
 _atom_site_fract_z
 _atom_site_occupancy
  Pr  Pr0  1  0.259580  0.001167  0.250000  1
  Pr  Pr1  1  0.736200  0.997762  0.750000  1
  Pr  Pr2  1  0.001167  0.259580  0.250000  1
  Pr  Pr3  1  0.997762  0.736200  0.750000  1
  Pr  Pr4  1  0.741866  0.741866  0.250000  1
  Lu  Lu5  1  0.261336  0.261336  0.750000  1
  Lu  Lu6  1  0.333243  0.665475  0.999666  1
  Lu  Lu7  1  0.665475  0.333243  0.999666  1
  Lu  Lu8  1  0.665475  0.333243  0.500334  1
  Lu  Lu9  1  0.333243  0.665475  0.500334  1
  Pb  Pb10  1  0.605251  0.000106  0.250000  1
  Pb  Pb11  1  0.391666  0.006673  0.750000  1
  Pb  Pb12  1  0.000106  0.605251  0.250000  1
  Pb  Pb13  1  0.006673  0.391666  0.750000  1
  Pb  Pb14  1  0.395136  0.395136  0.250000  1
  Pb  Pb15  1  0.597394  0.597394  0.750000  1
  Cl  Cl16  1  0.004212  0.004212  0.994073  1
  Cl  Cl17  1  0.004212  0.004212  0.505927  1
