# generated using pymatgen
data_TbYEr2(ReB6)2
_symmetry_space_group_name_H-M   'P 1'
_cell_length_a   3.67427700
_cell_length_b   9.16299400
_cell_length_c   11.55651900
_cell_angle_alpha   89.99966260
_cell_angle_beta   90.00000000
_cell_angle_gamma   90.00000000
_symmetry_Int_Tables_number   1
_chemical_formula_structural   TbYEr2(ReB6)2
_chemical_formula_sum   'Tb2 Y2 Er4 Re4 B24'
_cell_volume   389.07769475
_cell_formula_units_Z   2
loop_
 _symmetry_equiv_pos_site_id
 _symmetry_equiv_pos_as_xyz
  1  'x, y, z'
loop_
 _atom_site_type_symbol
 _atom_site_label
 _atom_site_symmetry_multiplicity
 _atom_site_fract_x
 _atom_site_fract_y
 _atom_site_fract_z
 _atom_site_occupancy
  Tb  Tb0  1  0.000000  0.323431  0.413872  1
  Tb  Tb1  1  0.000000  0.676569  0.586128  1
  Y  Y2  1  0.000000  0.823397  0.086058  1
  Y  Y3  1  0.000000  0.176603  0.913942  1
  Er  Er4  1  0.000000  0.943335  0.370056  1
  Er  Er5  1  0.000000  0.056665  0.629944  1
  Er  Er6  1  0.000000  0.443384  0.129833  1
  Er  Er7  1  0.000000  0.556616  0.870167  1
  Re  Re8  1  0.000000  0.639125  0.320383  1
  Re  Re9  1  0.000000  0.360875  0.679617  1
  Re  Re10  1  0.000000  0.139001  0.179482  1
  Re  Re11  1  0.000000  0.860999  0.820518  1
  B  B12  1  0.500000  0.553637  0.432547  1
  B  B13  1  0.500000  0.446363  0.567453  1
  B  B14  1  0.500000  0.053539  0.067334  1
  B  B15  1  0.500000  0.946461  0.932666  1
  B  B16  1  0.500000  0.749819  0.418402  1
  B  B17  1  0.500000  0.250181  0.581598  1
  B  B18  1  0.500000  0.249843  0.081520  1
  B  B19  1  0.500000  0.750157  0.918480  1
  B  B20  1  0.500000  0.792542  0.265758  1
  B  B21  1  0.500000  0.207458  0.734242  1
  B  B22  1  0.500000  0.292480  0.234196  1
  B  B23  1  0.500000  0.707520  0.765804  1
  B  B24  1  0.500000  0.630689  0.185574  1
  B  B25  1  0.500000  0.369311  0.814426  1
  B  B26  1  0.500000  0.130685  0.314342  1
  B  B27  1  0.500000  0.869315  0.685658  1
  B  B28  1  0.500000  0.982379  0.212348  1
  B  B29  1  0.500000  0.017621  0.787652  1
  B  B30  1  0.500000  0.482465  0.287616  1
  B  B31  1  0.500000  0.517535  0.712384  1
  B  B32  1  0.500000  0.599390  0.027767  1
  B  B33  1  0.500000  0.400610  0.972233  1
  B  B34  1  0.500000  0.099199  0.472288  1
  B  B35  1  0.500000  0.900801  0.527712  1
