# generated using pymatgen
data_Sm2Si7Rh12
_symmetry_space_group_name_H-M   'P 1'
_cell_length_a   9.80609800
_cell_length_b   9.80609888
_cell_length_c   3.86163000
_cell_angle_alpha   90.00000000
_cell_angle_beta   90.00000000
_cell_angle_gamma   119.99999702
_symmetry_Int_Tables_number   1
_chemical_formula_structural   Sm2Si7Rh12
_chemical_formula_sum   'Sm2 Si7 Rh12'
_cell_volume   321.58353284
_cell_formula_units_Z   1
loop_
 _symmetry_equiv_pos_site_id
 _symmetry_equiv_pos_as_xyz
  1  'x, y, z'
loop_
 _atom_site_type_symbol
 _atom_site_label
 _atom_site_symmetry_multiplicity
 _atom_site_fract_x
 _atom_site_fract_y
 _atom_site_fract_z
 _atom_site_occupancy
  Sm  Sm0  1  0.333333  0.666667  0.250608  1
  Sm  Sm1  1  0.666667  0.333333  0.749392  1
  Si  Si2  1  0.000000  0.000000  0.500000  1
  Si  Si3  1  0.398685  0.108425  0.248674  1
  Si  Si4  1  0.709740  0.601315  0.248674  1
  Si  Si5  1  0.891575  0.290260  0.248674  1
  Si  Si6  1  0.601315  0.891575  0.751326  1
  Si  Si7  1  0.290260  0.398685  0.751326  1
  Si  Si8  1  0.108425  0.709740  0.751326  1
  Rh  Rh9  1  0.443138  0.380574  0.248322  1
  Rh  Rh10  1  0.937435  0.556862  0.248322  1
  Rh  Rh11  1  0.619426  0.062565  0.248322  1
  Rh  Rh12  1  0.556862  0.619426  0.751678  1
  Rh  Rh13  1  0.062565  0.443138  0.751678  1
  Rh  Rh14  1  0.380574  0.937435  0.751678  1
  Rh  Rh15  1  0.142420  0.881033  0.254774  1
  Rh  Rh16  1  0.738613  0.857580  0.254774  1
  Rh  Rh17  1  0.118967  0.261387  0.254774  1
  Rh  Rh18  1  0.857580  0.118967  0.745226  1
  Rh  Rh19  1  0.261387  0.142420  0.745226  1
  Rh  Rh20  1  0.881033  0.738613  0.745226  1
