# generated using pymatgen
data_Pr7Eu9(CdPt)4
_symmetry_space_group_name_H-M   'P 1'
_cell_length_a   10.22351715
_cell_length_b   10.14723533
_cell_length_c   10.20445044
_cell_angle_alpha   60.30942032
_cell_angle_beta   60.71315092
_cell_angle_gamma   60.12254872
_symmetry_Int_Tables_number   1
_chemical_formula_structural   Pr7Eu9(CdPt)4
_chemical_formula_sum   'Pr7 Eu9 Cd4 Pt4'
_cell_volume   754.97408921
_cell_formula_units_Z   1
loop_
 _symmetry_equiv_pos_site_id
 _symmetry_equiv_pos_as_xyz
  1  'x, y, z'
loop_
 _atom_site_type_symbol
 _atom_site_label
 _atom_site_symmetry_multiplicity
 _atom_site_fract_x
 _atom_site_fract_y
 _atom_site_fract_z
 _atom_site_occupancy
  Pr  Pr0  1  0.348163  0.347726  0.348167  1
  Pr  Pr1  1  0.350072  0.349395  0.952604  1
  Pr  Pr2  1  0.348167  0.955944  0.348163  1
  Pr  Pr3  1  0.952604  0.347929  0.350072  1
  Pr  Pr4  1  0.806410  0.191810  0.195272  1
  Pr  Pr5  1  0.195272  0.806508  0.806410  1
  Pr  Pr6  1  0.191957  0.808043  0.191957  1
  Eu  Eu7  1  0.806612  0.193388  0.806612  1
  Eu  Eu8  1  0.193777  0.191060  0.807336  1
  Eu  Eu9  1  0.807336  0.807829  0.193777  1
  Eu  Eu10  1  0.940011  0.562348  0.559358  1
  Eu  Eu11  1  0.559358  0.938284  0.940011  1
  Eu  Eu12  1  0.561948  0.938052  0.561948  1
  Eu  Eu13  1  0.938871  0.561129  0.938871  1
  Eu  Eu14  1  0.560212  0.563436  0.938945  1
  Eu  Eu15  1  0.938945  0.937408  0.560212  1
  Cd  Cd16  1  0.577026  0.579467  0.579432  1
  Cd  Cd17  1  0.578344  0.577426  0.263966  1
  Cd  Cd18  1  0.579432  0.264077  0.577026  1
  Cd  Cd19  1  0.263966  0.580264  0.578344  1
  Pt  Pt20  1  0.141062  0.142226  0.145867  1
  Pt  Pt21  1  0.144368  0.139446  0.570223  1
  Pt  Pt22  1  0.145867  0.570845  0.141062  1
  Pt  Pt23  1  0.570223  0.145963  0.144368  1
