# generated using pymatgen
data_Ca12Y8Si15Sn
_symmetry_space_group_name_H-M   'P 1'
_cell_length_a   7.49048038
_cell_length_b   7.81824049
_cell_length_c   15.28281100
_cell_angle_alpha   90.42567105
_cell_angle_beta   89.23115359
_cell_angle_gamma   90.28622910
_symmetry_Int_Tables_number   1
_chemical_formula_structural   Ca12Y8Si15Sn
_chemical_formula_sum   'Ca12 Y8 Si15 Sn1'
_cell_volume   894.88173540
_cell_formula_units_Z   1
loop_
 _symmetry_equiv_pos_site_id
 _symmetry_equiv_pos_as_xyz
  1  'x, y, z'
loop_
 _atom_site_type_symbol
 _atom_site_label
 _atom_site_symmetry_multiplicity
 _atom_site_fract_x
 _atom_site_fract_y
 _atom_site_fract_z
 _atom_site_occupancy
  Ca  Ca0  1  0.649696  0.977714  0.251323  1
  Ca  Ca1  1  0.151695  0.518263  0.250715  1
  Ca  Ca2  1  0.848626  0.482279  0.747395  1
  Ca  Ca3  1  0.348632  0.021554  0.746683  1
  Ca  Ca4  1  0.981746  0.821215  0.098956  1
  Ca  Ca5  1  0.473500  0.683028  0.404810  1
  Ca  Ca6  1  0.510446  0.312565  0.903276  1
  Ca  Ca7  1  0.026883  0.184299  0.594517  1
  Ca  Ca8  1  0.024185  0.177036  0.904301  1
  Ca  Ca9  1  0.527131  0.317716  0.594787  1
  Ca  Ca10  1  0.478610  0.681277  0.095944  1
  Ca  Ca11  1  0.972805  0.815740  0.404418  1
  Y  Y12  1  0.675683  0.835422  0.873078  1
  Y  Y13  1  0.183813  0.677611  0.620375  1
  Y  Y14  1  0.820318  0.314273  0.126593  1
  Y  Y15  1  0.317038  0.176519  0.379824  1
  Y  Y16  1  0.320961  0.176771  0.123554  1
  Y  Y17  1  0.816554  0.322866  0.379515  1
  Y  Y18  1  0.187327  0.679595  0.877554  1
  Y  Y19  1  0.684686  0.823892  0.619911  1
  Si  Si20  1  0.756574  0.603616  0.251762  1
  Si  Si21  1  0.256494  0.893980  0.251127  1
  Si  Si22  1  0.745907  0.107957  0.747224  1
  Si  Si23  1  0.243315  0.396309  0.748604  1
  Si  Si24  1  0.028254  0.113224  0.251963  1
  Si  Si25  1  0.527289  0.383004  0.252818  1
  Si  Si26  1  0.473042  0.617642  0.747165  1
  Si  Si27  1  0.973922  0.885610  0.748294  1
  Si  Si28  1  0.359676  0.966349  0.537903  1
  Si  Si29  1  0.642857  0.035329  0.037103  1
  Si  Si30  1  0.140735  0.465955  0.461608  1
  Si  Si31  1  0.152801  0.461759  0.039695  1
  Si  Si32  1  0.641224  0.034048  0.461674  1
  Si  Si33  1  0.358924  0.964123  0.964297  1
  Si  Si34  1  0.859901  0.534777  0.537881  1
  Sn  Sn35  1  0.838749  0.536677  0.963355  1
