# generated using pymatgen
data_TbDyTh2(InAu2)2
_symmetry_space_group_name_H-M   'P 1'
_cell_length_a   8.07813609
_cell_length_b   8.07143009
_cell_length_c   3.83664800
_cell_angle_alpha   90.00000000
_cell_angle_beta   90.00000000
_cell_angle_gamma   89.91756991
_symmetry_Int_Tables_number   1
_chemical_formula_structural   TbDyTh2(InAu2)2
_chemical_formula_sum   'Tb1 Dy1 Th2 In2 Au4'
_cell_volume   250.15728870
_cell_formula_units_Z   1
loop_
 _symmetry_equiv_pos_site_id
 _symmetry_equiv_pos_as_xyz
  1  'x, y, z'
loop_
 _atom_site_type_symbol
 _atom_site_label
 _atom_site_symmetry_multiplicity
 _atom_site_fract_x
 _atom_site_fract_y
 _atom_site_fract_z
 _atom_site_occupancy
  Tb  Tb0  1  0.672612  0.176422  0.500000  1
  Dy  Dy1  1  0.172580  0.323657  0.500000  1
  Th  Th2  1  0.326390  0.830057  0.500000  1
  Th  Th3  1  0.826606  0.669803  0.500000  1
  In  In4  1  0.497940  0.493306  0.000000  1
  In  In5  1  0.998234  0.006812  0.000000  1
  Au  Au6  1  0.129293  0.620759  0.000000  1
  Au  Au7  1  0.628994  0.878843  0.000000  1
  Au  Au8  1  0.373142  0.133009  0.000000  1
  Au  Au9  1  0.874208  0.367332  0.000000  1
