# generated using pymatgen
data_Ho2Lu3Co19(Si5P)2
_symmetry_space_group_name_H-M   'P 1'
_cell_length_a   12.06951700
_cell_length_b   12.09545019
_cell_length_c   3.69658400
_cell_angle_alpha   90.00000000
_cell_angle_beta   90.00000000
_cell_angle_gamma   119.92909813
_symmetry_Int_Tables_number   1
_chemical_formula_structural   Ho2Lu3Co19(Si5P)2
_chemical_formula_sum   'Ho2 Lu3 Co19 Si10 P2'
_cell_volume   467.68450319
_cell_formula_units_Z   1
loop_
 _symmetry_equiv_pos_site_id
 _symmetry_equiv_pos_as_xyz
  1  'x, y, z'
loop_
 _atom_site_type_symbol
 _atom_site_label
 _atom_site_symmetry_multiplicity
 _atom_site_fract_x
 _atom_site_fract_y
 _atom_site_fract_z
 _atom_site_occupancy
  Ho  Ho0  1  0.332374  0.665732  0.500000  1
  Ho  Ho1  1  0.666643  0.334268  0.500000  1
  Lu  Lu2  1  0.184423  0.000000  0.000000  1
  Lu  Lu3  1  0.000725  0.185318  0.000000  1
  Lu  Lu4  1  0.815407  0.814682  0.000000  1
  Co  Co5  1  0.196877  0.372357  0.500000  1
  Co  Co6  1  0.624402  0.820780  0.500000  1
  Co  Co7  1  0.175368  0.803276  0.500000  1
  Co  Co8  1  0.824520  0.627643  0.500000  1
  Co  Co9  1  0.803622  0.179220  0.500000  1
  Co  Co10  1  0.372092  0.196724  0.500000  1
  Co  Co11  1  0.557490  0.000000  0.500000  1
  Co  Co12  1  0.000623  0.557447  0.500000  1
  Co  Co13  1  0.443177  0.442553  0.500000  1
  Co  Co14  1  0.123780  0.477788  0.000000  1
  Co  Co15  1  0.521741  0.644133  0.000000  1
  Co  Co16  1  0.353687  0.876234  0.000000  1
  Co  Co17  1  0.645992  0.522212  0.000000  1
  Co  Co18  1  0.877607  0.355867  0.000000  1
  Co  Co19  1  0.477453  0.123766  0.000000  1
  Co  Co20  1  0.719449  0.000000  0.000000  1
  Co  Co21  1  0.999688  0.722985  0.000000  1
  Co  Co22  1  0.276703  0.277015  0.000000  1
  Co  Co23  1  0.004916  0.000000  0.500000  1
  Si  Si24  1  0.368494  0.000000  0.500000  1
  Si  Si25  1  0.000341  0.368680  0.500000  1
  Si  Si26  1  0.631660  0.631320  0.500000  1
  Si  Si27  1  0.319200  0.477935  0.000000  1
  Si  Si28  1  0.521274  0.839303  0.000000  1
  Si  Si29  1  0.158804  0.680554  0.000000  1
  Si  Si30  1  0.841264  0.522065  0.000000  1
  Si  Si31  1  0.681971  0.160697  0.000000  1
  Si  Si32  1  0.478250  0.319446  0.000000  1
  Si  Si33  1  0.819602  0.000000  0.500000  1
  P  P34  1  0.999566  0.818753  0.500000  1
  P  P35  1  0.180814  0.181247  0.500000  1
