# generated using pymatgen
data_Tb9Er11Pb16
_symmetry_space_group_name_H-M   'P 1'
_cell_length_a   8.19049516
_cell_length_b   8.27190615
_cell_length_c   15.60690708
_cell_angle_alpha   90.00578307
_cell_angle_beta   90.01025841
_cell_angle_gamma   90.06018981
_symmetry_Int_Tables_number   1
_chemical_formula_structural   Tb9Er11Pb16
_chemical_formula_sum   'Tb9 Er11 Pb16'
_cell_volume   1057.38307020
_cell_formula_units_Z   1
loop_
 _symmetry_equiv_pos_site_id
 _symmetry_equiv_pos_as_xyz
  1  'x, y, z'
loop_
 _atom_site_type_symbol
 _atom_site_label
 _atom_site_symmetry_multiplicity
 _atom_site_fract_x
 _atom_site_fract_y
 _atom_site_fract_z
 _atom_site_occupancy
  Tb  Tb0  1  0.876792  0.659512  0.879530  1
  Tb  Tb1  1  0.534223  0.322657  0.900111  1
  Tb  Tb2  1  0.034444  0.177068  0.599807  1
  Tb  Tb3  1  0.465640  0.677123  0.400045  1
  Tb  Tb4  1  0.965636  0.823147  0.100325  1
  Tb  Tb5  1  0.465824  0.676920  0.099969  1
  Tb  Tb6  1  0.965576  0.822931  0.400033  1
  Tb  Tb7  1  0.534269  0.322804  0.599884  1
  Tb  Tb8  1  0.034405  0.176880  0.899989  1
  Er  Er9  1  0.376460  0.840711  0.879101  1
  Er  Er10  1  0.876509  0.659134  0.620748  1
  Er  Er11  1  0.623552  0.159123  0.379189  1
  Er  Er12  1  0.123399  0.340960  0.120728  1
  Er  Er13  1  0.623290  0.159118  0.121111  1
  Er  Er14  1  0.123463  0.340735  0.379168  1
  Er  Er15  1  0.376687  0.840869  0.620697  1
  Er  Er16  1  0.208289  0.504392  0.749830  1
  Er  Er17  1  0.707876  0.995727  0.749772  1
  Er  Er18  1  0.791898  0.495332  0.250088  1
  Er  Er19  1  0.291879  0.004519  0.249962  1
  Pb  Pb20  1  0.282336  0.033968  0.042705  1
  Pb  Pb21  1  0.782464  0.466023  0.457283  1
  Pb  Pb22  1  0.717577  0.966067  0.542665  1
  Pb  Pb23  1  0.219046  0.533472  0.957462  1
  Pb  Pb24  1  0.716776  0.967444  0.957447  1
  Pb  Pb25  1  0.217488  0.533988  0.542667  1
  Pb  Pb26  1  0.282356  0.034016  0.457255  1
  Pb  Pb27  1  0.782046  0.465285  0.043474  1
  Pb  Pb28  1  0.570969  0.627531  0.749656  1
  Pb  Pb29  1  0.072092  0.873175  0.749540  1
  Pb  Pb30  1  0.428400  0.372496  0.250047  1
  Pb  Pb31  1  0.928580  0.127543  0.250009  1
  Pb  Pb32  1  0.345244  0.151780  0.749967  1
  Pb  Pb33  1  0.845191  0.347537  0.749718  1
  Pb  Pb34  1  0.654669  0.848066  0.250004  1
  Pb  Pb35  1  0.154654  0.651948  0.250016  1
