# generated using pymatgen
data_Mn(AuF4)2
_symmetry_space_group_name_H-M   'P 1'
_cell_length_a   11.10714300
_cell_length_b   5.50314943
_cell_length_c   7.73150915
_cell_angle_alpha   47.16823301
_cell_angle_beta   90.00000000
_cell_angle_gamma   90.00000000
_symmetry_Int_Tables_number   1
_chemical_formula_structural   Mn(AuF4)2
_chemical_formula_sum   'Mn2 Au4 F16'
_cell_volume   346.57006017
_cell_formula_units_Z   2
loop_
 _symmetry_equiv_pos_site_id
 _symmetry_equiv_pos_as_xyz
  1  'x, y, z'
loop_
 _atom_site_type_symbol
 _atom_site_label
 _atom_site_symmetry_multiplicity
 _atom_site_fract_x
 _atom_site_fract_y
 _atom_site_fract_z
 _atom_site_occupancy
  Mn  Mn0  1  0.500000  0.500000  0.500000  1
  Mn  Mn1  1  0.000000  0.500000  0.000000  1
  Au  Au2  1  0.686123  0.228817  0.031778  1
  Au  Au3  1  0.186123  0.771183  0.468222  1
  Au  Au4  1  0.813877  0.228817  0.531778  1
  Au  Au5  1  0.313877  0.771183  0.968222  1
  F  F6  1  0.468271  0.981937  0.799586  1
  F  F7  1  0.968271  0.018063  0.700414  1
  F  F8  1  0.531729  0.018063  0.200414  1
  F  F9  1  0.031729  0.981937  0.299586  1
  F  F10  1  0.901384  0.520331  0.223839  1
  F  F11  1  0.401384  0.479669  0.276161  1
  F  F12  1  0.843744  0.428879  0.871973  1
  F  F13  1  0.343744  0.571121  0.628027  1
  F  F14  1  0.156256  0.571121  0.128027  1
  F  F15  1  0.656256  0.428879  0.371973  1
  F  F16  1  0.272170  0.051947  0.169754  1
  F  F17  1  0.772170  0.948053  0.330246  1
  F  F18  1  0.727830  0.948053  0.830246  1
  F  F19  1  0.227830  0.051947  0.669754  1
  F  F20  1  0.598616  0.520331  0.723839  1
  F  F21  1  0.098616  0.479669  0.776161  1
