# generated using pymatgen
data_Tm3LuAl24Pt7Au2
_symmetry_space_group_name_H-M   'P 1'
_cell_length_a   7.55054094
_cell_length_b   7.56432616
_cell_length_c   13.11220219
_cell_angle_alpha   84.54024814
_cell_angle_beta   78.99278264
_cell_angle_gamma   59.92940875
_symmetry_Int_Tables_number   1
_chemical_formula_structural   Tm3LuAl24Pt7Au2
_chemical_formula_sum   'Tm3 Lu1 Al24 Pt7 Au2'
_cell_volume   636.18155767
_cell_formula_units_Z   1
loop_
 _symmetry_equiv_pos_site_id
 _symmetry_equiv_pos_as_xyz
  1  'x, y, z'
loop_
 _atom_site_type_symbol
 _atom_site_label
 _atom_site_symmetry_multiplicity
 _atom_site_fract_x
 _atom_site_fract_y
 _atom_site_fract_z
 _atom_site_occupancy
  Tm  Tm0  1  0.392840  0.169373  0.808979  1
  Tm  Tm1  1  0.607206  0.830632  0.191031  1
  Tm  Tm2  1  0.733548  0.499102  0.809699  1
  Lu  Lu3  1  0.266387  0.500863  0.190548  1
  Al  Al4  1  0.682741  0.834165  0.944342  1
  Al  Al5  1  0.317182  0.166063  0.055939  1
  Al  Al6  1  0.145741  0.839240  0.562625  1
  Al  Al7  1  0.854285  0.160712  0.437339  1
  Al  Al8  1  0.488247  0.159105  0.559500  1
  Al  Al9  1  0.511745  0.840920  0.440442  1
  Al  Al10  1  0.224137  0.161000  0.323464  1
  Al  Al11  1  0.775978  0.839157  0.676280  1
  Al  Al12  1  0.439436  0.506299  0.676448  1
  Al  Al13  1  0.560402  0.493756  0.323292  1
  Al  Al14  1  0.108371  0.155083  0.674879  1
  Al  Al15  1  0.891885  0.844727  0.324895  1
  Al  Al16  1  0.353946  0.498308  0.944303  1
  Al  Al17  1  0.645653  0.501676  0.056099  1
  Al  Al18  1  0.015906  0.168182  0.952318  1
  Al  Al19  1  0.984244  0.831606  0.047961  1
  Al  Al20  1  0.195719  0.499385  0.437430  1
  Al  Al21  1  0.804318  0.500643  0.562470  1
  Al  Al22  1  0.731890  0.164761  0.182716  1
  Al  Al23  1  0.267695  0.835344  0.817260  1
  Al  Al24  1  0.060248  0.633513  0.818059  1
  Al  Al25  1  0.939894  0.366754  0.181953  1
  Al  Al26  1  0.853644  0.042927  0.816568  1
  Al  Al27  1  0.146656  0.956608  0.183413  1
  Pt  Pt28  1  0.657043  0.171670  0.999613  1
  Pt  Pt29  1  0.342962  0.828379  0.000220  1
  Pt  Pt30  1  0.536835  0.167272  0.361289  1
  Pt  Pt31  1  0.463000  0.832956  0.638685  1
  Pt  Pt32  1  0.778827  0.175735  0.637173  1
  Pt  Pt33  1  0.221174  0.824125  0.362804  1
  Pt  Pt34  1  0.000053  0.499984  0.999943  1
  Au  Au35  1  0.119832  0.490235  0.638523  1
  Au  Au36  1  0.880329  0.509740  0.361499  1
