# generated using pymatgen
data_Pr6DyScO12
_symmetry_space_group_name_H-M   'P 1'
_cell_length_a   6.95644368
_cell_length_b   6.95644343
_cell_length_c   6.95644241
_cell_angle_alpha   92.95435380
_cell_angle_beta   92.95434291
_cell_angle_gamma   92.95436485
_symmetry_Int_Tables_number   1
_chemical_formula_structural   Pr6DyScO12
_chemical_formula_sum   'Pr6 Dy1 Sc1 O12'
_cell_volume   335.24657687
_cell_formula_units_Z   1
loop_
 _symmetry_equiv_pos_site_id
 _symmetry_equiv_pos_as_xyz
  1  'x, y, z'
loop_
 _atom_site_type_symbol
 _atom_site_label
 _atom_site_symmetry_multiplicity
 _atom_site_fract_x
 _atom_site_fract_y
 _atom_site_fract_z
 _atom_site_occupancy
  Pr  Pr0  1  0.561992  0.071280  0.258518  1
  Pr  Pr1  1  0.071280  0.258518  0.561992  1
  Pr  Pr2  1  0.741482  0.438008  0.928720  1
  Pr  Pr3  1  0.258518  0.561992  0.071280  1
  Pr  Pr4  1  0.928720  0.741482  0.438008  1
  Pr  Pr5  1  0.438008  0.928720  0.741482  1
  Dy  Dy6  1  0.000000  0.000000  0.000000  1
  Sc  Sc7  1  0.500000  0.500000  0.500000  1
  O  O8  1  0.690109  0.088818  0.935557  1
  O  O9  1  0.911182  0.064443  0.309891  1
  O  O10  1  0.412376  0.203367  0.538467  1
  O  O11  1  0.064443  0.309891  0.911182  1
  O  O12  1  0.538467  0.412376  0.203367  1
  O  O13  1  0.796633  0.461533  0.587624  1
  O  O14  1  0.203367  0.538467  0.412376  1
  O  O15  1  0.461533  0.587624  0.796633  1
  O  O16  1  0.935557  0.690109  0.088818  1
  O  O17  1  0.587624  0.796633  0.461533  1
  O  O18  1  0.088818  0.935557  0.690109  1
  O  O19  1  0.309891  0.911182  0.064443  1
