# generated using pymatgen
data_Mg4Zn(BRh2)4
_symmetry_space_group_name_H-M   'P 1'
_cell_length_a   9.57395888
_cell_length_b   9.57395882
_cell_length_c   2.92731600
_cell_angle_alpha   90.00000000
_cell_angle_beta   90.00000000
_cell_angle_gamma   126.29078773
_symmetry_Int_Tables_number   1
_chemical_formula_structural   Mg4Zn(BRh2)4
_chemical_formula_sum   'Mg4 Zn1 B4 Rh8'
_cell_volume   216.27205211
_cell_formula_units_Z   1
loop_
 _symmetry_equiv_pos_site_id
 _symmetry_equiv_pos_as_xyz
  1  'x, y, z'
loop_
 _atom_site_type_symbol
 _atom_site_label
 _atom_site_symmetry_multiplicity
 _atom_site_fract_x
 _atom_site_fract_y
 _atom_site_fract_z
 _atom_site_occupancy
  Mg  Mg0  1  0.205814  0.794186  0.500000  1
  Mg  Mg1  1  0.794186  0.205814  0.500000  1
  Mg  Mg2  1  0.344323  0.344323  0.500000  1
  Mg  Mg3  1  0.655677  0.655677  0.500000  1
  Zn  Zn4  1  0.000000  0.000000  0.500000  1
  B  B5  1  0.462164  0.152948  0.500000  1
  B  B6  1  0.152948  0.462164  0.500000  1
  B  B7  1  0.537836  0.847052  0.500000  1
  B  B8  1  0.847052  0.537836  0.500000  1
  Rh  Rh9  1  0.630764  0.369236  0.000000  1
  Rh  Rh10  1  0.369236  0.630764  0.000000  1
  Rh  Rh11  1  0.924086  0.734053  0.000000  1
  Rh  Rh12  1  0.075914  0.265947  0.000000  1
  Rh  Rh13  1  0.500000  0.000000  0.000000  1
  Rh  Rh14  1  0.265947  0.075914  0.000000  1
  Rh  Rh15  1  0.734053  0.924086  0.000000  1
  Rh  Rh16  1  0.000000  0.500000  0.000000  1
