# generated using pymatgen
data_Dy7TmRe3B24Rh
_symmetry_space_group_name_H-M   'P 1'
_cell_length_a   3.67861000
_cell_length_b   9.16206841
_cell_length_c   11.54440431
_cell_angle_alpha   90.18337332
_cell_angle_beta   90.00000000
_cell_angle_gamma   90.00000000
_symmetry_Int_Tables_number   1
_chemical_formula_structural   Dy7TmRe3B24Rh
_chemical_formula_sum   'Dy7 Tm1 Re3 B24 Rh1'
_cell_volume   389.08687503
_cell_formula_units_Z   1
loop_
 _symmetry_equiv_pos_site_id
 _symmetry_equiv_pos_as_xyz
  1  'x, y, z'
loop_
 _atom_site_type_symbol
 _atom_site_label
 _atom_site_symmetry_multiplicity
 _atom_site_fract_x
 _atom_site_fract_y
 _atom_site_fract_z
 _atom_site_occupancy
  Dy  Dy0  1  0.000000  0.318669  0.415758  1
  Dy  Dy1  1  0.000000  0.677811  0.591456  1
  Dy  Dy2  1  0.000000  0.826880  0.081163  1
  Dy  Dy3  1  0.000000  0.177569  0.912558  1
  Dy  Dy4  1  0.000000  0.942767  0.369943  1
  Dy  Dy5  1  0.000000  0.055932  0.629109  1
  Dy  Dy6  1  0.000000  0.441589  0.128593  1
  Tm  Tm7  1  0.000000  0.557100  0.871267  1
  Re  Re8  1  0.000000  0.363315  0.678356  1
  Re  Re9  1  0.000000  0.138135  0.179555  1
  Re  Re10  1  0.000000  0.860862  0.821032  1
  B  B11  1  0.500000  0.553641  0.433646  1
  B  B12  1  0.500000  0.447018  0.567197  1
  B  B13  1  0.500000  0.053468  0.066334  1
  B  B14  1  0.500000  0.946840  0.932431  1
  B  B15  1  0.500000  0.748316  0.420107  1
  B  B16  1  0.500000  0.251455  0.581375  1
  B  B17  1  0.500000  0.249162  0.081145  1
  B  B18  1  0.500000  0.751129  0.918780  1
  B  B19  1  0.500000  0.790484  0.264987  1
  B  B20  1  0.500000  0.209387  0.734327  1
  B  B21  1  0.500000  0.291367  0.234963  1
  B  B22  1  0.500000  0.707739  0.766353  1
  B  B23  1  0.500000  0.631809  0.184060  1
  B  B24  1  0.500000  0.370595  0.814489  1
  B  B25  1  0.500000  0.130766  0.314643  1
  B  B26  1  0.500000  0.868028  0.685901  1
  B  B27  1  0.500000  0.983027  0.211609  1
  B  B28  1  0.500000  0.017048  0.787221  1
  B  B29  1  0.500000  0.483090  0.288042  1
  B  B30  1  0.500000  0.518690  0.713139  1
  B  B31  1  0.500000  0.603757  0.028406  1
  B  B32  1  0.500000  0.399003  0.971387  1
  B  B33  1  0.500000  0.102422  0.470878  1
  B  B34  1  0.500000  0.893851  0.528592  1
  Rh  Rh35  1  0.000000  0.637277  0.321200  1
