# generated using pymatgen
data_CsRb2Y(AsSe2)6
_symmetry_space_group_name_H-M   'P 1'
_cell_length_a   9.99823900
_cell_length_b   9.99824051
_cell_length_c   8.50683400
_cell_angle_alpha   90.00000000
_cell_angle_beta   90.00000000
_cell_angle_gamma   119.99999169
_symmetry_Int_Tables_number   1
_chemical_formula_structural   CsRb2Y(AsSe2)6
_chemical_formula_sum   'Cs1 Rb2 Y1 As6 Se12'
_cell_volume   736.45416026
_cell_formula_units_Z   1
loop_
 _symmetry_equiv_pos_site_id
 _symmetry_equiv_pos_as_xyz
  1  'x, y, z'
loop_
 _atom_site_type_symbol
 _atom_site_label
 _atom_site_symmetry_multiplicity
 _atom_site_fract_x
 _atom_site_fract_y
 _atom_site_fract_z
 _atom_site_occupancy
  Cs  Cs0  1  0.333333  0.666667  0.840674  1
  Rb  Rb1  1  0.000000  0.000000  0.999881  1
  Rb  Rb2  1  0.666667  0.333333  0.147840  1
  Y  Y3  1  0.000000  0.000000  0.496349  1
  As  As4  1  0.290369  0.838396  0.383738  1
  As  As5  1  0.161604  0.451972  0.383738  1
  As  As6  1  0.548028  0.709631  0.383738  1
  As  As7  1  0.711599  0.164315  0.618735  1
  As  As8  1  0.835685  0.547286  0.618735  1
  As  As9  1  0.452714  0.288401  0.618735  1
  Se  Se10  1  0.260478  0.050001  0.301570  1
  Se  Se11  1  0.949999  0.210477  0.301570  1
  Se  Se12  1  0.789523  0.739522  0.301570  1
  Se  Se13  1  0.745799  0.954231  0.696134  1
  Se  Se14  1  0.045769  0.791567  0.696134  1
  Se  Se15  1  0.208433  0.254201  0.696134  1
  Se  Se16  1  0.526041  0.905726  0.228081  1
  Se  Se17  1  0.094274  0.620313  0.228081  1
  Se  Se18  1  0.379687  0.473959  0.228081  1
  Se  Se19  1  0.476238  0.094810  0.776826  1
  Se  Se20  1  0.905190  0.381431  0.776826  1
  Se  Se21  1  0.618569  0.523762  0.776826  1
