# generated using pymatgen
data_DyHo7(Si3Rh4)2
_symmetry_space_group_name_H-M   'P 1'
_cell_length_a   10.70559608
_cell_length_b   10.70499377
_cell_length_c   7.70551998
_cell_angle_alpha   71.25211315
_cell_angle_beta   71.25147582
_cell_angle_gamma   29.69410679
_symmetry_Int_Tables_number   1
_chemical_formula_structural   DyHo7(Si3Rh4)2
_chemical_formula_sum   'Dy1 Ho7 Si6 Rh8'
_cell_volume   412.55869521
_cell_formula_units_Z   1
loop_
 _symmetry_equiv_pos_site_id
 _symmetry_equiv_pos_as_xyz
  1  'x, y, z'
loop_
 _atom_site_type_symbol
 _atom_site_label
 _atom_site_symmetry_multiplicity
 _atom_site_fract_x
 _atom_site_fract_y
 _atom_site_fract_z
 _atom_site_occupancy
  Dy  Dy0  1  0.789834  0.549991  0.599750  1
  Ho  Ho1  1  0.449909  0.210260  0.900239  1
  Ho  Ho2  1  0.210285  0.449903  0.400226  1
  Ho  Ho3  1  0.550102  0.789743  0.099754  1
  Ho  Ho4  1  0.791190  0.073625  0.168625  1
  Ho  Ho5  1  0.926380  0.208787  0.331363  1
  Ho  Ho6  1  0.208774  0.926377  0.831411  1
  Ho  Ho7  1  0.073623  0.791191  0.668632  1
  Si  Si8  1  0.953099  0.703420  0.055603  1
  Si  Si9  1  0.296550  0.046942  0.444311  1
  Si  Si10  1  0.046941  0.296545  0.944465  1
  Si  Si11  1  0.703427  0.953100  0.555603  1
  Si  Si12  1  0.635212  0.364755  0.750018  1
  Si  Si13  1  0.364764  0.635232  0.249997  1
  Rh  Rh14  1  0.575964  0.298288  0.520485  1
  Rh  Rh15  1  0.701715  0.424002  0.979580  1
  Rh  Rh16  1  0.423953  0.701766  0.479489  1
  Rh  Rh17  1  0.298276  0.575975  0.020499  1
  Rh  Rh18  1  0.628798  0.929702  0.308559  1
  Rh  Rh19  1  0.070427  0.371130  0.191338  1
  Rh  Rh20  1  0.371137  0.070431  0.691416  1
  Rh  Rh21  1  0.929640  0.628834  0.808637  1
