# generated using pymatgen
data_Ce2Sm(Co3P2)3
_symmetry_space_group_name_H-M   'P 1'
_cell_length_a   3.75829100
_cell_length_b   10.57220500
_cell_length_c   12.31549400
_cell_angle_alpha   90.00000000
_cell_angle_beta   90.00000000
_cell_angle_gamma   90.00000000
_symmetry_Int_Tables_number   1
_chemical_formula_structural   Ce2Sm(Co3P2)3
_chemical_formula_sum   'Ce4 Sm2 Co18 P12'
_cell_volume   489.33673134
_cell_formula_units_Z   2
loop_
 _symmetry_equiv_pos_site_id
 _symmetry_equiv_pos_as_xyz
  1  'x, y, z'
loop_
 _atom_site_type_symbol
 _atom_site_label
 _atom_site_symmetry_multiplicity
 _atom_site_fract_x
 _atom_site_fract_y
 _atom_site_fract_z
 _atom_site_occupancy
  Ce  Ce0  1  0.000000  0.500000  0.525785  1
  Ce  Ce1  1  0.500000  0.000000  0.476284  1
  Ce  Ce2  1  0.500000  0.816900  0.207196  1
  Ce  Ce3  1  0.500000  0.183100  0.207196  1
  Sm  Sm4  1  0.000000  0.685038  0.794495  1
  Sm  Sm5  1  0.000000  0.314962  0.794495  1
  Co  Co6  1  0.500000  0.500000  0.159777  1
  Co  Co7  1  0.000000  0.000000  0.841808  1
  Co  Co8  1  0.500000  0.500000  0.699057  1
  Co  Co9  1  0.000000  0.000000  0.296504  1
  Co  Co10  1  0.000000  0.500000  0.984634  1
  Co  Co11  1  0.500000  0.000000  0.014673  1
  Co  Co12  1  0.500000  0.333907  0.995990  1
  Co  Co13  1  0.500000  0.666093  0.995990  1
  Co  Co14  1  0.000000  0.166382  0.005200  1
  Co  Co15  1  0.000000  0.833618  0.005200  1
  Co  Co16  1  0.500000  0.299448  0.429489  1
  Co  Co17  1  0.500000  0.700552  0.429489  1
  Co  Co18  1  0.000000  0.199601  0.569944  1
  Co  Co19  1  0.000000  0.800399  0.569944  1
  Co  Co20  1  0.500000  0.881780  0.710915  1
  Co  Co21  1  0.500000  0.118220  0.710915  1
  Co  Co22  1  0.000000  0.620205  0.288318  1
  Co  Co23  1  0.000000  0.379795  0.288318  1
  P  P24  1  0.500000  0.500000  0.882034  1
  P  P25  1  0.000000  0.000000  0.114200  1
  P  P26  1  0.500000  0.500000  0.342598  1
  P  P27  1  0.000000  0.000000  0.658689  1
  P  P28  1  0.500000  0.306011  0.614631  1
  P  P29  1  0.500000  0.693989  0.614631  1
  P  P30  1  0.000000  0.193748  0.386997  1
  P  P31  1  0.000000  0.806252  0.386997  1
  P  P32  1  0.500000  0.848602  0.894806  1
  P  P33  1  0.500000  0.151398  0.894806  1
  P  P34  1  0.000000  0.651223  0.103997  1
  P  P35  1  0.000000  0.348777  0.103997  1
