# generated using pymatgen
data_Ho4Mn9Fe7(P3W)4
_symmetry_space_group_name_H-M   'P 1'
_cell_length_a   3.68171200
_cell_length_b   10.55768979
_cell_length_c   12.21855427
_cell_angle_alpha   89.90358661
_cell_angle_beta   90.00000000
_cell_angle_gamma   90.00000000
_symmetry_Int_Tables_number   1
_chemical_formula_structural   Ho4Mn9Fe7(P3W)4
_chemical_formula_sum   'Ho4 Mn9 Fe7 P12 W4'
_cell_volume   474.93909168
_cell_formula_units_Z   1
loop_
 _symmetry_equiv_pos_site_id
 _symmetry_equiv_pos_as_xyz
  1  'x, y, z'
loop_
 _atom_site_type_symbol
 _atom_site_label
 _atom_site_symmetry_multiplicity
 _atom_site_fract_x
 _atom_site_fract_y
 _atom_site_fract_z
 _atom_site_occupancy
  Ho  Ho0  1  0.250000  0.581437  0.710304  1
  Ho  Ho1  1  0.250000  0.917609  0.210982  1
  Ho  Ho2  1  0.750000  0.417191  0.289572  1
  Ho  Ho3  1  0.750000  0.084434  0.791033  1
  Mn  Mn4  1  0.250000  0.407445  0.492639  1
  Mn  Mn5  1  0.250000  0.092917  0.993696  1
  Mn  Mn6  1  0.750000  0.590400  0.505607  1
  Mn  Mn7  1  0.750000  0.908315  0.007835  1
  Mn  Mn8  1  0.250000  0.217807  0.176563  1
  Mn  Mn9  1  0.250000  0.283824  0.676114  1
  Mn  Mn10  1  0.750000  0.782400  0.822783  1
  Mn  Mn11  1  0.750000  0.717363  0.323254  1
  Mn  Mn12  1  0.250000  0.877064  0.697985  1
  Fe  Fe13  1  0.250000  0.623165  0.198472  1
  Fe  Fe14  1  0.750000  0.122612  0.302088  1
  Fe  Fe15  1  0.750000  0.377371  0.801460  1
  Fe  Fe16  1  0.250000  0.463400  0.934944  1
  Fe  Fe17  1  0.250000  0.036985  0.435184  1
  Fe  Fe18  1  0.750000  0.537297  0.065219  1
  Fe  Fe19  1  0.750000  0.962445  0.566051  1
  P  P20  1  0.250000  0.428769  0.113831  1
  P  P21  1  0.250000  0.074615  0.613540  1
  P  P22  1  0.750000  0.571859  0.886195  1
  P  P23  1  0.750000  0.928481  0.386799  1
  P  P24  1  0.250000  0.268726  0.866451  1
  P  P25  1  0.250000  0.231849  0.366138  1
  P  P26  1  0.750000  0.732724  0.133102  1
  P  P27  1  0.750000  0.762708  0.631064  1
  P  P28  1  0.250000  0.590816  0.383429  1
  P  P29  1  0.250000  0.909228  0.885529  1
  P  P30  1  0.750000  0.408479  0.615575  1
  P  P31  1  0.750000  0.091426  0.116916  1
  W  W32  1  0.250000  0.704903  0.987851  1
  W  W33  1  0.250000  0.794042  0.486245  1
  W  W34  1  0.750000  0.295252  0.012968  1
  W  W35  1  0.750000  0.204643  0.512584  1
