# generated using pymatgen
data_La2Mo(SeO4)3
_symmetry_space_group_name_H-M   'P 1'
_cell_length_a   6.84911909
_cell_length_b   7.38792304
_cell_length_c   11.30409852
_cell_angle_alpha   85.31052869
_cell_angle_beta   73.08653825
_cell_angle_gamma   85.85550538
_symmetry_Int_Tables_number   1
_chemical_formula_structural   La2Mo(SeO4)3
_chemical_formula_sum   'La4 Mo2 Se6 O24'
_cell_volume   544.71691533
_cell_formula_units_Z   2
loop_
 _symmetry_equiv_pos_site_id
 _symmetry_equiv_pos_as_xyz
  1  'x, y, z'
loop_
 _atom_site_type_symbol
 _atom_site_label
 _atom_site_symmetry_multiplicity
 _atom_site_fract_x
 _atom_site_fract_y
 _atom_site_fract_z
 _atom_site_occupancy
  La  La0  1  0.730810  0.642227  0.510785  1
  La  La1  1  0.269190  0.357773  0.489215  1
  La  La2  1  0.203316  0.178865  0.163551  1
  La  La3  1  0.796684  0.821135  0.836449  1
  Mo  Mo4  1  0.719820  0.893420  0.210167  1
  Mo  Mo5  1  0.280180  0.106580  0.789833  1
  Se  Se6  1  0.194063  0.662387  0.217066  1
  Se  Se7  1  0.805937  0.337613  0.782934  1
  Se  Se8  1  0.657296  0.354220  0.140919  1
  Se  Se9  1  0.342704  0.645780  0.859081  1
  Se  Se10  1  0.790748  0.139544  0.489013  1
  Se  Se11  1  0.209252  0.860456  0.510987  1
  O  O12  1  0.692778  0.679665  0.298217  1
  O  O13  1  0.307222  0.320335  0.701783  1
  O  O14  1  0.721036  0.969154  0.413077  1
  O  O15  1  0.278964  0.030846  0.586923  1
  O  O16  1  0.457263  0.972092  0.237085  1
  O  O17  1  0.542737  0.027908  0.762915  1
  O  O18  1  0.815023  0.166040  0.178523  1
  O  O19  1  0.184977  0.833960  0.821477  1
  O  O20  1  0.780231  0.833560  0.054302  1
  O  O21  1  0.219769  0.166440  0.945698  1
  O  O22  1  0.050006  0.867469  0.198148  1
  O  O23  1  0.949994  0.132531  0.801852  1
  O  O24  1  0.097367  0.503108  0.152673  1
  O  O25  1  0.902633  0.496892  0.847327  1
  O  O26  1  0.086500  0.606207  0.377469  1
  O  O27  1  0.913500  0.393793  0.622531  1
  O  O28  1  0.558934  0.268261  0.036896  1
  O  O29  1  0.441066  0.731739  0.963104  1
  O  O30  1  0.433373  0.348328  0.264479  1
  O  O31  1  0.566627  0.651672  0.735521  1
  O  O32  1  0.035625  0.188299  0.394044  1
  O  O33  1  0.964375  0.811701  0.605956  1
  O  O34  1  0.647557  0.333107  0.458590  1
  O  O35  1  0.352443  0.666893  0.541410  1
