# generated using pymatgen
data_Ho11Er(TmRh3)2
_symmetry_space_group_name_H-M   'P 1'
_cell_length_a   9.74077904
_cell_length_b   9.74077956
_cell_length_c   6.15536400
_cell_angle_alpha   90.00180876
_cell_angle_beta   89.99819122
_cell_angle_gamma   120.00972916
_symmetry_Int_Tables_number   1
_chemical_formula_structural   Ho11Er(TmRh3)2
_chemical_formula_sum   'Ho11 Er1 Tm2 Rh6'
_cell_volume   505.74219957
_cell_formula_units_Z   1
loop_
 _symmetry_equiv_pos_site_id
 _symmetry_equiv_pos_as_xyz
  1  'x, y, z'
loop_
 _atom_site_type_symbol
 _atom_site_label
 _atom_site_symmetry_multiplicity
 _atom_site_fract_x
 _atom_site_fract_y
 _atom_site_fract_z
 _atom_site_occupancy
  Ho  Ho0  1  0.752555  0.876188  0.253630  1
  Ho  Ho1  1  0.123812  0.247445  0.253630  1
  Ho  Ho2  1  0.876211  0.123789  0.753667  1
  Ho  Ho3  1  0.247492  0.123663  0.753661  1
  Ho  Ho4  1  0.876337  0.752508  0.753661  1
  Ho  Ho5  1  0.540799  0.459201  0.447639  1
  Ho  Ho6  1  0.918422  0.459285  0.447708  1
  Ho  Ho7  1  0.540715  0.081578  0.447708  1
  Ho  Ho8  1  0.459180  0.540820  0.947652  1
  Ho  Ho9  1  0.081601  0.540906  0.947861  1
  Ho  Ho10  1  0.459094  0.918399  0.947861  1
  Er  Er11  1  0.123828  0.876172  0.253908  1
  Tm  Tm12  1  0.333298  0.666702  0.456591  1
  Tm  Tm13  1  0.666664  0.333336  0.956575  1
  Rh  Rh14  1  0.809557  0.190443  0.180317  1
  Rh  Rh15  1  0.380660  0.190126  0.180388  1
  Rh  Rh16  1  0.809874  0.619340  0.180388  1
  Rh  Rh17  1  0.190381  0.809619  0.680034  1
  Rh  Rh18  1  0.619067  0.809547  0.680332  1
  Rh  Rh19  1  0.190453  0.380933  0.680332  1
