# generated using pymatgen
data_Mg3Zn2In(B2Rh5)2
_symmetry_space_group_name_H-M   'P 1'
_cell_length_a   9.48443391
_cell_length_b   2.94212800
_cell_length_c   9.48443391
_cell_angle_alpha   90.00000000
_cell_angle_beta   90.69194414
_cell_angle_gamma   90.00000000
_symmetry_Int_Tables_number   1
_chemical_formula_structural   Mg3Zn2In(B2Rh5)2
_chemical_formula_sum   'Mg3 Zn2 In1 B4 Rh10'
_cell_volume   264.63831417
_cell_formula_units_Z   1
loop_
 _symmetry_equiv_pos_site_id
 _symmetry_equiv_pos_as_xyz
  1  'x, y, z'
loop_
 _atom_site_type_symbol
 _atom_site_label
 _atom_site_symmetry_multiplicity
 _atom_site_fract_x
 _atom_site_fract_y
 _atom_site_fract_z
 _atom_site_occupancy
  Mg  Mg0  1  0.823583  0.000000  0.324869  1
  Mg  Mg1  1  0.175132  0.000000  0.676418  1
  Mg  Mg2  1  0.676854  0.000000  0.823147  1
  Zn  Zn3  1  0.999559  0.000000  0.998813  1
  Zn  Zn4  1  0.501187  0.000000  0.500441  1
  In  In5  1  0.322995  0.000000  0.177006  1
  B  B6  1  0.633093  0.000000  0.125300  1
  B  B7  1  0.119685  0.000000  0.380314  1
  B  B8  1  0.871991  0.000000  0.628010  1
  B  B9  1  0.374699  0.000000  0.866908  1
  Rh  Rh10  1  0.500637  0.500000  0.999363  1
  Rh  Rh11  1  0.785210  0.500000  0.071723  1
  Rh  Rh12  1  0.070521  0.500000  0.217919  1
  Rh  Rh13  1  0.572116  0.500000  0.282237  1
  Rh  Rh14  1  0.282082  0.500000  0.429480  1
  Rh  Rh15  1  0.998829  0.500000  0.501171  1
  Rh  Rh16  1  0.716908  0.500000  0.571120  1
  Rh  Rh17  1  0.428278  0.500000  0.714789  1
  Rh  Rh18  1  0.928880  0.500000  0.783091  1
  Rh  Rh19  1  0.217764  0.500000  0.927884  1
