# generated using pymatgen
data_Y4Sn3Sb3Rh7
_symmetry_space_group_name_H-M   'P 1'
_cell_length_a   7.61561173
_cell_length_b   7.62472068
_cell_length_c   7.61561109
_cell_angle_alpha   109.49545370
_cell_angle_beta   109.44698090
_cell_angle_gamma   109.49544909
_symmetry_Int_Tables_number   1
_chemical_formula_structural   Y4Sn3Sb3Rh7
_chemical_formula_sum   'Y4 Sn3 Sb3 Rh7'
_cell_volume   340.31542232
_cell_formula_units_Z   1
loop_
 _symmetry_equiv_pos_site_id
 _symmetry_equiv_pos_as_xyz
  1  'x, y, z'
loop_
 _atom_site_type_symbol
 _atom_site_label
 _atom_site_symmetry_multiplicity
 _atom_site_fract_x
 _atom_site_fract_y
 _atom_site_fract_z
 _atom_site_occupancy
  Y  Y0  1  0.502960  0.998797  0.000000  1
  Y  Y1  1  0.000000  0.488264  0.000000  1
  Y  Y2  1  0.000000  0.998797  0.502960  1
  Y  Y3  1  0.497040  0.495836  0.497040  1
  Sn  Sn4  1  0.308382  0.993719  0.308382  1
  Sn  Sn5  1  0.000000  0.685337  0.691618  1
  Sn  Sn6  1  0.691618  0.685337  0.000000  1
  Sb  Sb7  1  0.675030  0.995750  0.675030  1
  Sb  Sb8  1  0.000000  0.320719  0.324970  1
  Sb  Sb9  1  0.324970  0.320719  0.000000  1
  Rh  Rh10  1  0.253099  0.502499  0.753009  1
  Rh  Rh11  1  0.499910  0.249400  0.746901  1
  Rh  Rh12  1  0.746901  0.249400  0.499910  1
  Rh  Rh13  1  0.500090  0.749490  0.246991  1
  Rh  Rh14  1  0.000000  0.013948  0.000000  1
  Rh  Rh15  1  0.246991  0.749490  0.500090  1
  Rh  Rh16  1  0.753009  0.502499  0.253099  1
