# generated using pymatgen
data_Tb3Ho3Mg2(Co4P3)4
_symmetry_space_group_name_H-M   'P 1'
_cell_length_a   3.72996300
_cell_length_b   10.62719101
_cell_length_c   12.28818502
_cell_angle_alpha   89.99430370
_cell_angle_beta   90.00000000
_cell_angle_gamma   90.00000000
_symmetry_Int_Tables_number   1
_chemical_formula_structural   Tb3Ho3Mg2(Co4P3)4
_chemical_formula_sum   'Tb3 Ho3 Mg2 Co16 P12'
_cell_volume   487.09172312
_cell_formula_units_Z   1
loop_
 _symmetry_equiv_pos_site_id
 _symmetry_equiv_pos_as_xyz
  1  'x, y, z'
loop_
 _atom_site_type_symbol
 _atom_site_label
 _atom_site_symmetry_multiplicity
 _atom_site_fract_x
 _atom_site_fract_y
 _atom_site_fract_z
 _atom_site_occupancy
  Tb  Tb0  1  0.000000  0.500025  0.525966  1
  Tb  Tb1  1  0.500000  0.000052  0.473732  1
  Tb  Tb2  1  0.000000  0.322207  0.793844  1
  Ho  Ho3  1  0.500000  0.822222  0.206242  1
  Ho  Ho4  1  0.500000  0.177827  0.206178  1
  Ho  Ho5  1  0.000000  0.677885  0.793883  1
  Mg  Mg6  1  0.500000  0.499958  0.156477  1
  Mg  Mg7  1  0.000000  0.999905  0.843579  1
  Co  Co8  1  0.500000  0.500729  0.705624  1
  Co  Co9  1  0.000000  0.999987  0.294100  1
  Co  Co10  1  0.000000  0.500238  0.989203  1
  Co  Co11  1  0.500000  0.999813  0.011262  1
  Co  Co12  1  0.500000  0.332516  0.997215  1
  Co  Co13  1  0.500000  0.667623  0.996986  1
  Co  Co14  1  0.000000  0.167181  0.003455  1
  Co  Co15  1  0.000000  0.832581  0.003218  1
  Co  Co16  1  0.500000  0.296243  0.431572  1
  Co  Co17  1  0.500000  0.703820  0.431735  1
  Co  Co18  1  0.000000  0.203661  0.567828  1
  Co  Co19  1  0.000000  0.796227  0.568140  1
  Co  Co20  1  0.500000  0.877593  0.705788  1
  Co  Co21  1  0.500000  0.121854  0.705368  1
  Co  Co22  1  0.000000  0.622347  0.294303  1
  Co  Co23  1  0.000000  0.377652  0.294222  1
  P  P24  1  0.500000  0.500618  0.885765  1
  P  P25  1  0.000000  0.999951  0.114642  1
  P  P26  1  0.500000  0.500009  0.355175  1
  P  P27  1  0.000000  0.000075  0.644811  1
  P  P28  1  0.500000  0.309102  0.615026  1
  P  P29  1  0.500000  0.690691  0.615631  1
  P  P30  1  0.000000  0.190630  0.384176  1
  P  P31  1  0.000000  0.809250  0.384249  1
  P  P32  1  0.500000  0.838719  0.892603  1
  P  P33  1  0.500000  0.160766  0.893184  1
  P  P34  1  0.000000  0.661371  0.107469  1
  P  P35  1  0.000000  0.338673  0.107348  1
