# generated using pymatgen
data_Tm2Mn3Fe9P7
_symmetry_space_group_name_H-M   'P 1'
_cell_length_a   9.01570100
_cell_length_b   9.01570116
_cell_length_c   3.61268000
_cell_angle_alpha   90.00000000
_cell_angle_beta   90.00000000
_cell_angle_gamma   120.00000307
_symmetry_Int_Tables_number   1
_chemical_formula_structural   Tm2Mn3Fe9P7
_chemical_formula_sum   'Tm2 Mn3 Fe9 P7'
_cell_volume   254.30747239
_cell_formula_units_Z   1
loop_
 _symmetry_equiv_pos_site_id
 _symmetry_equiv_pos_as_xyz
  1  'x, y, z'
loop_
 _atom_site_type_symbol
 _atom_site_label
 _atom_site_symmetry_multiplicity
 _atom_site_fract_x
 _atom_site_fract_y
 _atom_site_fract_z
 _atom_site_occupancy
  Tm  Tm0  1  0.666667  0.333333  0.000000  1
  Tm  Tm1  1  0.000000  0.000000  0.500000  1
  Mn  Mn2  1  0.555524  0.770769  0.500000  1
  Mn  Mn3  1  0.229231  0.784756  0.500000  1
  Mn  Mn4  1  0.215244  0.444476  0.500000  1
  Fe  Fe5  1  0.757762  0.722922  0.000000  1
  Fe  Fe6  1  0.277078  0.034841  0.000000  1
  Fe  Fe7  1  0.965159  0.242238  0.000000  1
  Fe  Fe8  1  0.488423  0.941459  0.000000  1
  Fe  Fe9  1  0.058541  0.546963  0.000000  1
  Fe  Fe10  1  0.453037  0.511577  0.000000  1
  Fe  Fe11  1  0.719762  0.102965  0.500000  1
  Fe  Fe12  1  0.897035  0.616798  0.500000  1
  Fe  Fe13  1  0.383202  0.280238  0.500000  1
  P  P14  1  0.453039  0.074860  0.500000  1
  P  P15  1  0.925140  0.378180  0.500000  1
  P  P16  1  0.621820  0.546961  0.500000  1
  P  P17  1  0.748615  0.969639  0.000000  1
  P  P18  1  0.030361  0.778977  0.000000  1
  P  P19  1  0.221023  0.251385  0.000000  1
  P  P20  1  0.333333  0.666667  0.000000  1
