# generated using pymatgen
data_Dy2YCd3CuPt2
_symmetry_space_group_name_H-M   'P 1'
_cell_length_a   7.75473536
_cell_length_b   7.74222156
_cell_length_c   3.73075500
_cell_angle_alpha   90.00000000
_cell_angle_beta   90.00000000
_cell_angle_gamma   119.94662628
_symmetry_Int_Tables_number   1
_chemical_formula_structural   Dy2YCd3CuPt2
_chemical_formula_sum   'Dy2 Y1 Cd3 Cu1 Pt2'
_cell_volume   194.08557718
_cell_formula_units_Z   1
loop_
 _symmetry_equiv_pos_site_id
 _symmetry_equiv_pos_as_xyz
  1  'x, y, z'
loop_
 _atom_site_type_symbol
 _atom_site_label
 _atom_site_symmetry_multiplicity
 _atom_site_fract_x
 _atom_site_fract_y
 _atom_site_fract_z
 _atom_site_occupancy
  Dy  Dy0  1  0.587732  0.587901  0.500000  1
  Dy  Dy1  1  0.412268  0.000170  0.500000  1
  Y  Y2  1  0.000000  0.411116  0.500000  1
  Cd  Cd3  1  0.000000  0.750118  0.000000  1
  Cd  Cd4  1  0.249719  0.249672  0.000000  1
  Cd  Cd5  1  0.750281  0.999953  0.000000  1
  Cu  Cu6  1  0.000000  0.999867  0.500000  1
  Pt  Pt7  1  0.334742  0.667973  0.000000  1
  Pt  Pt8  1  0.665258  0.333230  0.000000  1
