# generated using pymatgen
data_Nd8Y9Sc3Si15Rh
_symmetry_space_group_name_H-M   'P 1'
_cell_length_a   7.39481887
_cell_length_b   7.82239478
_cell_length_c   14.66868000
_cell_angle_alpha   90.00000000
_cell_angle_beta   90.00000000
_cell_angle_gamma   90.08364766
_symmetry_Int_Tables_number   1
_chemical_formula_structural   Nd8Y9Sc3Si15Rh
_chemical_formula_sum   'Nd8 Y9 Sc3 Si15 Rh1'
_cell_volume   848.51171371
_cell_formula_units_Z   1
loop_
 _symmetry_equiv_pos_site_id
 _symmetry_equiv_pos_as_xyz
  1  'x, y, z'
loop_
 _atom_site_type_symbol
 _atom_site_label
 _atom_site_symmetry_multiplicity
 _atom_site_fract_x
 _atom_site_fract_y
 _atom_site_fract_z
 _atom_site_occupancy
  Nd  Nd0  1  0.018296  0.183609  0.098245  1
  Nd  Nd1  1  0.982848  0.825406  0.904169  1
  Nd  Nd2  1  0.483748  0.680756  0.904764  1
  Nd  Nd3  1  0.982848  0.825406  0.595831  1
  Nd  Nd4  1  0.517694  0.320310  0.097674  1
  Nd  Nd5  1  0.018296  0.183609  0.401755  1
  Nd  Nd6  1  0.517694  0.320310  0.402326  1
  Nd  Nd7  1  0.483748  0.680756  0.595236  1
  Y  Y8  1  0.152771  0.517644  0.750000  1
  Y  Y9  1  0.315320  0.172250  0.626552  1
  Y  Y10  1  0.678466  0.824281  0.373152  1
  Y  Y11  1  0.177313  0.679325  0.373455  1
  Y  Y12  1  0.678466  0.824281  0.126848  1
  Y  Y13  1  0.827145  0.315218  0.625836  1
  Y  Y14  1  0.315320  0.172250  0.873448  1
  Y  Y15  1  0.827145  0.315218  0.874164  1
  Y  Y16  1  0.177313  0.679325  0.126545  1
  Sc  Sc17  1  0.841899  0.483915  0.250000  1
  Sc  Sc18  1  0.343098  0.017560  0.250000  1
  Sc  Sc19  1  0.666069  0.986294  0.750000  1
  Si  Si20  1  0.979940  0.901397  0.250000  1
  Si  Si21  1  0.479925  0.600269  0.250000  1
  Si  Si22  1  0.526335  0.394752  0.750000  1
  Si  Si23  1  0.286814  0.872169  0.750000  1
  Si  Si24  1  0.718227  0.131213  0.250000  1
  Si  Si25  1  0.220136  0.370364  0.250000  1
  Si  Si26  1  0.767579  0.626335  0.750000  1
  Si  Si27  1  0.150960  0.471509  0.537323  1
  Si  Si28  1  0.850975  0.531713  0.460192  1
  Si  Si29  1  0.351041  0.969824  0.459102  1
  Si  Si30  1  0.850975  0.531713  0.039808  1
  Si  Si31  1  0.647110  0.030513  0.538498  1
  Si  Si32  1  0.150960  0.471509  0.962677  1
  Si  Si33  1  0.647110  0.030513  0.961502  1
  Si  Si34  1  0.351041  0.969824  0.040898  1
  Rh  Rh35  1  0.015370  0.088663  0.750000  1
