# generated using pymatgen
data_YEr3Al18(Pd2Rh)2
_symmetry_space_group_name_H-M   'P 1'
_cell_length_a   7.59928933
_cell_length_b   7.60021217
_cell_length_c   9.43365400
_cell_angle_alpha   90.00000000
_cell_angle_beta   90.00000000
_cell_angle_gamma   119.59084842
_symmetry_Int_Tables_number   1
_chemical_formula_structural   YEr3Al18(Pd2Rh)2
_chemical_formula_sum   'Y1 Er3 Al18 Pd4 Rh2'
_cell_volume   473.78912953
_cell_formula_units_Z   1
loop_
 _symmetry_equiv_pos_site_id
 _symmetry_equiv_pos_as_xyz
  1  'x, y, z'
loop_
 _atom_site_type_symbol
 _atom_site_label
 _atom_site_symmetry_multiplicity
 _atom_site_fract_x
 _atom_site_fract_y
 _atom_site_fract_z
 _atom_site_occupancy
  Y  Y0  1  0.994203  0.667841  0.750000  1
  Er  Er1  1  0.005810  0.331442  0.250000  1
  Er  Er2  1  0.668375  0.994268  0.750000  1
  Er  Er3  1  0.331659  0.006012  0.250000  1
  Al  Al4  1  0.125940  0.126230  0.750000  1
  Al  Al5  1  0.874723  0.874853  0.250000  1
  Al  Al6  1  0.999555  0.330399  0.576034  1
  Al  Al7  1  0.000485  0.669071  0.422555  1
  Al  Al8  1  0.000485  0.669071  0.077445  1
  Al  Al9  1  0.331452  0.000131  0.923967  1
  Al  Al10  1  0.999555  0.330399  0.923966  1
  Al  Al11  1  0.669033  0.000502  0.076968  1
  Al  Al12  1  0.669033  0.000502  0.423032  1
  Al  Al13  1  0.331452  0.000131  0.576033  1
  Al  Al14  1  0.329640  0.329643  0.056298  1
  Al  Al15  1  0.669909  0.670375  0.944617  1
  Al  Al16  1  0.669909  0.670375  0.555383  1
  Al  Al17  1  0.329640  0.329643  0.443702  1
  Al  Al18  1  0.340821  0.547352  0.750000  1
  Al  Al19  1  0.659364  0.451946  0.250000  1
  Al  Al20  1  0.546795  0.339966  0.750000  1
  Al  Al21  1  0.451999  0.659477  0.250000  1
  Pd  Pd22  1  0.672594  0.327369  0.500090  1
  Pd  Pd23  1  0.327502  0.672657  0.500088  1
  Pd  Pd24  1  0.327502  0.672657  0.999912  1
  Pd  Pd25  1  0.672594  0.327369  0.999910  1
  Rh  Rh26  1  0.999985  0.000157  0.500114  1
  Rh  Rh27  1  0.999985  0.000157  0.999886  1
