# generated using pymatgen
data_Pr2Nd2TmPb4
_symmetry_space_group_name_H-M   'P 1'
_cell_length_a   8.37346000
_cell_length_b   8.51277200
_cell_length_c   16.20348100
_cell_angle_alpha   90.00000000
_cell_angle_beta   90.00000000
_cell_angle_gamma   90.00000000
_symmetry_Int_Tables_number   1
_chemical_formula_structural   Pr2Nd2TmPb4
_chemical_formula_sum   'Pr8 Nd8 Tm4 Pb16'
_cell_volume   1155.00609486
_cell_formula_units_Z   4
loop_
 _symmetry_equiv_pos_site_id
 _symmetry_equiv_pos_as_xyz
  1  'x, y, z'
loop_
 _atom_site_type_symbol
 _atom_site_label
 _atom_site_symmetry_multiplicity
 _atom_site_fract_x
 _atom_site_fract_y
 _atom_site_fract_z
 _atom_site_occupancy
  Pr  Pr0  1  0.476478  0.678821  0.598420  1
  Pr  Pr1  1  0.976478  0.821179  0.901580  1
  Pr  Pr2  1  0.523522  0.321179  0.098420  1
  Pr  Pr3  1  0.023522  0.178821  0.401580  1
  Pr  Pr4  1  0.523522  0.321179  0.401580  1
  Pr  Pr5  1  0.023522  0.178821  0.098420  1
  Pr  Pr6  1  0.476478  0.678821  0.901580  1
  Pr  Pr7  1  0.976478  0.821179  0.598420  1
  Nd  Nd8  1  0.632874  0.157832  0.620841  1
  Nd  Nd9  1  0.132874  0.342168  0.879159  1
  Nd  Nd10  1  0.367126  0.842168  0.120841  1
  Nd  Nd11  1  0.867126  0.657832  0.379159  1
  Nd  Nd12  1  0.367126  0.842168  0.379159  1
  Nd  Nd13  1  0.867126  0.657832  0.120841  1
  Nd  Nd14  1  0.632874  0.157832  0.879159  1
  Nd  Nd15  1  0.132874  0.342168  0.620841  1
  Tm  Tm16  1  0.799777  0.496436  0.750000  1
  Tm  Tm17  1  0.299777  0.003564  0.750000  1
  Tm  Tm18  1  0.200223  0.503564  0.250000  1
  Tm  Tm19  1  0.700223  0.996436  0.250000  1
  Pb  Pb20  1  0.709802  0.963809  0.454836  1
  Pb  Pb21  1  0.209802  0.536191  0.045164  1
  Pb  Pb22  1  0.290198  0.036191  0.954836  1
  Pb  Pb23  1  0.790198  0.463809  0.545164  1
  Pb  Pb24  1  0.290198  0.036191  0.545164  1
  Pb  Pb25  1  0.790198  0.463809  0.954836  1
  Pb  Pb26  1  0.709802  0.963809  0.045164  1
  Pb  Pb27  1  0.209802  0.536191  0.454836  1
  Pb  Pb28  1  0.438473  0.375522  0.750000  1
  Pb  Pb29  1  0.938473  0.124478  0.750000  1
  Pb  Pb30  1  0.561527  0.624478  0.250000  1
  Pb  Pb31  1  0.061527  0.875522  0.250000  1
  Pb  Pb32  1  0.666157  0.846380  0.750000  1
  Pb  Pb33  1  0.166157  0.653620  0.750000  1
  Pb  Pb34  1  0.333843  0.153620  0.250000  1
  Pb  Pb35  1  0.833843  0.346380  0.250000  1
