# generated using pymatgen
data_Cs4Rb2(MoH9)3
_symmetry_space_group_name_H-M   'P 1'
_cell_length_a   10.09107590
_cell_length_b   10.77437864
_cell_length_c   6.32916500
_cell_angle_alpha   90.00000000
_cell_angle_beta   90.00000000
_cell_angle_gamma   122.26642223
_symmetry_Int_Tables_number   1
_chemical_formula_structural   Cs4Rb2(MoH9)3
_chemical_formula_sum   'Cs4 Rb2 Mo3 H27'
_cell_volume   581.87296142
_cell_formula_units_Z   1
loop_
 _symmetry_equiv_pos_site_id
 _symmetry_equiv_pos_as_xyz
  1  'x, y, z'
loop_
 _atom_site_type_symbol
 _atom_site_label
 _atom_site_symmetry_multiplicity
 _atom_site_fract_x
 _atom_site_fract_y
 _atom_site_fract_z
 _atom_site_occupancy
  Cs  Cs0  1  0.000000  0.224468  0.500000  1
  Cs  Cs1  1  0.000000  0.609316  0.000000  1
  Cs  Cs2  1  0.396216  0.387471  0.000000  1
  Cs  Cs3  1  0.603784  0.991255  0.000000  1
  Rb  Rb4  1  0.751173  0.766046  0.500000  1
  Rb  Rb5  1  0.248827  0.014871  0.500000  1
  Mo  Mo6  1  0.696577  0.338288  0.500000  1
  Mo  Mo7  1  0.303423  0.641711  0.500000  1
  Mo  Mo8  1  0.000000  0.981699  0.000000  1
  H  H9  1  0.746789  0.304041  0.746647  1
  H  H10  1  0.762184  0.499412  0.662310  1
  H  H11  1  0.536061  0.233709  0.654852  1
  H  H12  1  0.253211  0.557254  0.253353  1
  H  H13  1  0.536061  0.233709  0.345148  1
  H  H14  1  0.746789  0.304041  0.253353  1
  H  H15  1  0.762184  0.499412  0.337690  1
  H  H16  1  0.237816  0.737229  0.662310  1
  H  H17  1  0.463939  0.697649  0.654852  1
  H  H18  1  0.178965  0.990150  0.000000  1
  H  H19  1  0.821035  0.811185  0.000000  1
  H  H20  1  0.000000  0.143461  0.000000  1
  H  H21  1  0.872414  0.978468  0.195958  1
  H  H22  1  0.127586  0.106055  0.804042  1
  H  H23  1  0.000000  0.865678  0.797076  1
  H  H24  1  0.000000  0.865678  0.202924  1
  H  H25  1  0.127586  0.106055  0.195958  1
  H  H26  1  0.872414  0.978468  0.804042  1
  H  H27  1  0.203106  0.738174  0.500000  1
  H  H28  1  0.441917  0.824934  0.500000  1
  H  H29  1  0.341509  0.500702  0.500000  1
  H  H30  1  0.558083  0.383017  0.500000  1
  H  H31  1  0.796894  0.535069  0.500000  1
  H  H32  1  0.658491  0.159194  0.500000  1
  H  H33  1  0.253211  0.557254  0.746647  1
  H  H34  1  0.237816  0.737229  0.337690  1
  H  H35  1  0.463939  0.697649  0.345148  1
