# generated using pymatgen
data_ThCd4Ag
_symmetry_space_group_name_H-M   'P 1'
_cell_length_a   10.23507900
_cell_length_b   10.23507788
_cell_length_c   4.62659700
_cell_angle_alpha   90.00000000
_cell_angle_beta   90.00000000
_cell_angle_gamma   119.99999391
_symmetry_Int_Tables_number   1
_chemical_formula_structural   ThCd4Ag
_chemical_formula_sum   'Th3 Cd12 Ag3'
_cell_volume   419.73451322
_cell_formula_units_Z   3
loop_
 _symmetry_equiv_pos_site_id
 _symmetry_equiv_pos_as_xyz
  1  'x, y, z'
loop_
 _atom_site_type_symbol
 _atom_site_label
 _atom_site_symmetry_multiplicity
 _atom_site_fract_x
 _atom_site_fract_y
 _atom_site_fract_z
 _atom_site_occupancy
  Th  Th0  1  0.000000  0.398791  0.000000  1
  Th  Th1  1  0.398791  0.000000  0.000000  1
  Th  Th2  1  0.601209  0.601209  0.000000  1
  Cd  Cd3  1  0.525801  0.821184  0.500000  1
  Cd  Cd4  1  0.295383  0.474199  0.500000  1
  Cd  Cd5  1  0.474199  0.295383  0.500000  1
  Cd  Cd6  1  0.704617  0.178816  0.500000  1
  Cd  Cd7  1  0.825426  0.825426  0.500000  1
  Cd  Cd8  1  0.000000  0.174574  0.500000  1
  Cd  Cd9  1  0.174574  0.000000  0.500000  1
  Cd  Cd10  1  0.178816  0.704617  0.500000  1
  Cd  Cd11  1  0.000000  0.727407  0.000000  1
  Cd  Cd12  1  0.821184  0.525801  0.500000  1
  Cd  Cd13  1  0.272593  0.272593  0.000000  1
  Cd  Cd14  1  0.727407  0.000000  0.000000  1
  Ag  Ag15  1  0.000000  0.000000  0.000000  1
  Ag  Ag16  1  0.666667  0.333333  0.000000  1
  Ag  Ag17  1  0.333333  0.666667  0.000000  1
