# generated using pymatgen
data_Pr2Cu2Pt5
_symmetry_space_group_name_H-M   'P 1'
_cell_length_a   5.50115506
_cell_length_b   5.50115551
_cell_length_c   13.10839452
_cell_angle_alpha   77.88742501
_cell_angle_beta   77.88742343
_cell_angle_gamma   60.00000394
_symmetry_Int_Tables_number   1
_chemical_formula_structural   Pr2Cu2Pt5
_chemical_formula_sum   'Pr4 Cu4 Pt10'
_cell_volume   333.31162796
_cell_formula_units_Z   2
loop_
 _symmetry_equiv_pos_site_id
 _symmetry_equiv_pos_as_xyz
  1  'x, y, z'
loop_
 _atom_site_type_symbol
 _atom_site_label
 _atom_site_symmetry_multiplicity
 _atom_site_fract_x
 _atom_site_fract_y
 _atom_site_fract_z
 _atom_site_occupancy
  Pr  Pr0  1  0.950647  0.950647  0.148056  1
  Pr  Pr1  1  0.049353  0.049353  0.851944  1
  Pr  Pr2  1  0.852912  0.852912  0.441265  1
  Pr  Pr3  1  0.147088  0.147088  0.558735  1
  Cu  Cu4  1  0.720846  0.720846  0.837462  1
  Cu  Cu5  1  0.279154  0.279154  0.162538  1
  Cu  Cu6  1  0.612201  0.612201  0.163397  1
  Cu  Cu7  1  0.387799  0.387799  0.836603  1
  Pt  Pt8  1  0.500000  0.500000  0.500000  1
  Pt  Pt9  1  0.000000  0.500000  0.000000  1
  Pt  Pt10  1  0.500000  0.000000  0.000000  1
  Pt  Pt11  1  0.500000  0.500000  0.000000  1
  Pt  Pt12  1  0.389934  0.389934  0.325394  1
  Pt  Pt13  1  0.894738  0.389934  0.325394  1
  Pt  Pt14  1  0.389934  0.894738  0.325394  1
  Pt  Pt15  1  0.610066  0.610066  0.674606  1
  Pt  Pt16  1  0.105262  0.610066  0.674606  1
  Pt  Pt17  1  0.610066  0.105262  0.674606  1
