# generated using pymatgen
data_TbNd4Ga2Sn
_symmetry_space_group_name_H-M   'P 1'
_cell_length_a   9.09845104
_cell_length_b   9.09845186
_cell_length_c   9.09845138
_cell_angle_alpha   127.18686567
_cell_angle_beta   127.18686338
_cell_angle_gamma   77.94603404
_symmetry_Int_Tables_number   1
_chemical_formula_structural   TbNd4Ga2Sn
_chemical_formula_sum   'Tb2 Nd8 Ga4 Sn2'
_cell_volume   463.27488477
_cell_formula_units_Z   2
loop_
 _symmetry_equiv_pos_site_id
 _symmetry_equiv_pos_as_xyz
  1  'x, y, z'
loop_
 _atom_site_type_symbol
 _atom_site_label
 _atom_site_symmetry_multiplicity
 _atom_site_fract_x
 _atom_site_fract_y
 _atom_site_fract_z
 _atom_site_occupancy
  Tb  Tb0  1  0.500000  0.500000  0.000000  1
  Tb  Tb1  1  0.000000  0.000000  0.000000  1
  Nd  Nd2  1  0.524425  0.024425  0.838770  1
  Nd  Nd3  1  0.185653  0.685653  0.161230  1
  Nd  Nd4  1  0.024425  0.185653  0.500000  1
  Nd  Nd5  1  0.685653  0.524425  0.500000  1
  Nd  Nd6  1  0.475575  0.975575  0.161230  1
  Nd  Nd7  1  0.814347  0.314347  0.838770  1
  Nd  Nd8  1  0.975575  0.814347  0.500000  1
  Nd  Nd9  1  0.314347  0.475575  0.500000  1
  Ga  Ga10  1  0.876155  0.376155  0.252309  1
  Ga  Ga11  1  0.123845  0.623845  0.747691  1
  Ga  Ga12  1  0.376155  0.123845  0.500000  1
  Ga  Ga13  1  0.623845  0.876155  0.500000  1
  Sn  Sn14  1  0.250000  0.250000  0.000000  1
  Sn  Sn15  1  0.750000  0.750000  0.000000  1
