# generated using pymatgen
data_Yb6Y2Si12HgPd3
_symmetry_space_group_name_H-M   'P 1'
_cell_length_a   8.25892000
_cell_length_b   8.25891904
_cell_length_c   8.18842200
_cell_angle_alpha   90.00000000
_cell_angle_beta   90.00000000
_cell_angle_gamma   119.99999582
_symmetry_Int_Tables_number   1
_chemical_formula_structural   Yb6Y2Si12HgPd3
_chemical_formula_sum   'Yb6 Y2 Si12 Hg1 Pd3'
_cell_volume   483.70138929
_cell_formula_units_Z   1
loop_
 _symmetry_equiv_pos_site_id
 _symmetry_equiv_pos_as_xyz
  1  'x, y, z'
loop_
 _atom_site_type_symbol
 _atom_site_label
 _atom_site_symmetry_multiplicity
 _atom_site_fract_x
 _atom_site_fract_y
 _atom_site_fract_z
 _atom_site_occupancy
  Yb  Yb0  1  0.503694  0.007388  0.257756  1
  Yb  Yb1  1  0.502362  0.004725  0.742468  1
  Yb  Yb2  1  0.992612  0.496306  0.257756  1
  Yb  Yb3  1  0.995275  0.497638  0.742468  1
  Yb  Yb4  1  0.503694  0.496306  0.257756  1
  Yb  Yb5  1  0.502362  0.497638  0.742468  1
  Y  Y6  1  0.000000  0.000000  0.253758  1
  Y  Y7  1  0.000000  0.000000  0.745442  1
  Si  Si8  1  0.156239  0.312479  0.998650  1
  Si  Si9  1  0.833066  0.666132  0.000611  1
  Si  Si10  1  0.687521  0.843761  0.998650  1
  Si  Si11  1  0.836926  0.673851  0.500320  1
  Si  Si12  1  0.333868  0.166934  0.000611  1
  Si  Si13  1  0.164172  0.328345  0.499702  1
  Si  Si14  1  0.156239  0.843761  0.998650  1
  Si  Si15  1  0.326149  0.163074  0.500320  1
  Si  Si16  1  0.833066  0.166934  0.000611  1
  Si  Si17  1  0.671655  0.835828  0.499702  1
  Si  Si18  1  0.836926  0.163074  0.500320  1
  Si  Si19  1  0.164172  0.835828  0.499702  1
  Hg  Hg20  1  0.333333  0.666667  0.005381  1
  Pd  Pd21  1  0.666667  0.333333  0.997843  1
  Pd  Pd22  1  0.666667  0.333333  0.501655  1
  Pd  Pd23  1  0.333333  0.666667  0.497398  1
