# generated using pymatgen
data_Tb2YbHo(Ga2Ag)4
_symmetry_space_group_name_H-M   'P 1'
_cell_length_a   4.36938400
_cell_length_b   6.98934180
_cell_length_c   10.29595566
_cell_angle_alpha   90.33931332
_cell_angle_beta   90.00000000
_cell_angle_gamma   90.00000000
_symmetry_Int_Tables_number   1
_chemical_formula_structural   Tb2YbHo(Ga2Ag)4
_chemical_formula_sum   'Tb2 Yb1 Ho1 Ga8 Ag4'
_cell_volume   314.42389336
_cell_formula_units_Z   1
loop_
 _symmetry_equiv_pos_site_id
 _symmetry_equiv_pos_as_xyz
  1  'x, y, z'
loop_
 _atom_site_type_symbol
 _atom_site_label
 _atom_site_symmetry_multiplicity
 _atom_site_fract_x
 _atom_site_fract_y
 _atom_site_fract_z
 _atom_site_occupancy
  Tb  Tb0  1  0.250000  0.779502  0.827100  1
  Tb  Tb1  1  0.750000  0.223133  0.172349  1
  Yb  Yb2  1  0.250000  0.276009  0.671534  1
  Ho  Ho3  1  0.750000  0.721353  0.328426  1
  Ga  Ga4  1  0.250000  0.704331  0.536105  1
  Ga  Ga5  1  0.750000  0.297615  0.464084  1
  Ga  Ga6  1  0.750000  0.793577  0.037744  1
  Ga  Ga7  1  0.250000  0.202009  0.963866  1
  Ga  Ga8  1  0.250000  0.926738  0.154405  1
  Ga  Ga9  1  0.750000  0.071932  0.849018  1
  Ga  Ga10  1  0.750000  0.571877  0.650814  1
  Ga  Ga11  1  0.250000  0.428544  0.345292  1
  Ag  Ag12  1  0.250000  0.543341  0.097684  1
  Ag  Ag13  1  0.750000  0.456799  0.901280  1
  Ag  Ag14  1  0.750000  0.959269  0.598072  1
  Ag  Ag15  1  0.250000  0.043971  0.402227  1
