# generated using pymatgen
data_CeH6Os
_symmetry_space_group_name_H-M   'P 1'
_cell_length_a   4.61138100
_cell_length_b   4.61138165
_cell_length_c   4.61527462
_cell_angle_alpha   58.38117184
_cell_angle_beta   58.38118327
_cell_angle_gamma   58.39601358
_symmetry_Int_Tables_number   1
_chemical_formula_structural   CeH6Os
_chemical_formula_sum   'Ce1 H6 Os1'
_cell_volume   66.83391477
_cell_formula_units_Z   1
loop_
 _symmetry_equiv_pos_site_id
 _symmetry_equiv_pos_as_xyz
  1  'x, y, z'
loop_
 _atom_site_type_symbol
 _atom_site_label
 _atom_site_symmetry_multiplicity
 _atom_site_fract_x
 _atom_site_fract_y
 _atom_site_fract_z
 _atom_site_occupancy
  Ce  Ce0  1  0.500000  0.500000  0.500000  1
  H  H1  1  0.552876  0.101969  0.102155  1
  H  H2  1  0.101969  0.552876  0.102155  1
  H  H3  1  0.898186  0.898186  0.446555  1
  H  H4  1  0.101814  0.101814  0.553444  1
  H  H5  1  0.898031  0.447123  0.897845  1
  H  H6  1  0.447123  0.898031  0.897845  1
  Os  Os7  1  0.000000  0.000000  0.000000  1
