# generated using pymatgen
data_Zr10Pb6Se
_symmetry_space_group_name_H-M   'P 1'
_cell_length_a   5.96352501
_cell_length_b   8.73874215
_cell_length_c   8.73936401
_cell_angle_alpha   119.99766203
_cell_angle_beta   90.00314505
_cell_angle_gamma   89.99369818
_symmetry_Int_Tables_number   1
_chemical_formula_structural   Zr10Pb6Se
_chemical_formula_sum   'Zr10 Pb6 Se1'
_cell_volume   394.43246988
_cell_formula_units_Z   1
loop_
 _symmetry_equiv_pos_site_id
 _symmetry_equiv_pos_as_xyz
  1  'x, y, z'
loop_
 _atom_site_type_symbol
 _atom_site_label
 _atom_site_symmetry_multiplicity
 _atom_site_fract_x
 _atom_site_fract_y
 _atom_site_fract_z
 _atom_site_occupancy
  Zr  Zr0  1  0.500000  0.333330  0.666663  1
  Zr  Zr1  1  0.500000  0.666668  0.333337  1
  Zr  Zr2  1  0.000000  0.666666  0.333332  1
  Zr  Zr3  1  0.000000  0.333335  0.666668  1
  Zr  Zr4  1  0.762782  0.254630  0.000000  1
  Zr  Zr5  1  0.762835  0.745421  0.745403  1
  Zr  Zr6  1  0.762835  0.000016  0.254597  1
  Zr  Zr7  1  0.237218  0.745370  0.000000  1
  Zr  Zr8  1  0.237165  0.254582  0.254597  1
  Zr  Zr9  1  0.237165  0.999985  0.745403  1
  Pb  Pb10  1  0.749163  0.608369  0.000000  1
  Pb  Pb11  1  0.749126  0.391650  0.391645  1
  Pb  Pb12  1  0.749126  0.000005  0.608355  1
  Pb  Pb13  1  0.250837  0.391630  0.000000  1
  Pb  Pb14  1  0.250874  0.608350  0.608354  1
  Pb  Pb15  1  0.250874  0.999996  0.391646  1
  Se  Se16  1  0.499999  0.000001  0.000000  1
