# generated using pymatgen
data_PrPa3(SnPt2)2
_symmetry_space_group_name_H-M   'P 1'
_cell_length_a   7.84373133
_cell_length_b   7.84598194
_cell_length_c   3.73939100
_cell_angle_alpha   90.00000000
_cell_angle_beta   90.00000000
_cell_angle_gamma   91.29281667
_symmetry_Int_Tables_number   1
_chemical_formula_structural   PrPa3(SnPt2)2
_chemical_formula_sum   'Pr1 Pa3 Sn2 Pt4'
_cell_volume   230.07017707
_cell_formula_units_Z   1
loop_
 _symmetry_equiv_pos_site_id
 _symmetry_equiv_pos_as_xyz
  1  'x, y, z'
loop_
 _atom_site_type_symbol
 _atom_site_label
 _atom_site_symmetry_multiplicity
 _atom_site_fract_x
 _atom_site_fract_y
 _atom_site_fract_z
 _atom_site_occupancy
  Pr  Pr0  1  0.324385  0.175560  0.500000  1
  Pa  Pa1  1  0.173593  0.674069  0.500000  1
  Pa  Pa2  1  0.825957  0.326400  0.500000  1
  Pa  Pa3  1  0.672778  0.827205  0.500000  1
  Sn  Sn4  1  0.499067  0.496770  0.000000  1
  Sn  Sn5  1  0.003230  0.000823  0.000000  1
  Pt  Pt6  1  0.645122  0.120319  0.000000  1
  Pt  Pt7  1  0.379580  0.854854  0.000000  1
  Pt  Pt8  1  0.112538  0.387651  0.000000  1
  Pt  Pt9  1  0.863749  0.636349  0.000000  1
