# generated using pymatgen
data_Ba2ErAg5Se6
_symmetry_space_group_name_H-M   'P 1'
_cell_length_a   4.38214000
_cell_length_b   7.61947674
_cell_length_c   11.62557249
_cell_angle_alpha   94.17007755
_cell_angle_beta   90.00000000
_cell_angle_gamma   106.71203721
_symmetry_Int_Tables_number   1
_chemical_formula_structural   Ba2ErAg5Se6
_chemical_formula_sum   'Ba2 Er1 Ag5 Se6'
_cell_volume   370.70464544
_cell_formula_units_Z   1
loop_
 _symmetry_equiv_pos_site_id
 _symmetry_equiv_pos_as_xyz
  1  'x, y, z'
loop_
 _atom_site_type_symbol
 _atom_site_label
 _atom_site_symmetry_multiplicity
 _atom_site_fract_x
 _atom_site_fract_y
 _atom_site_fract_z
 _atom_site_occupancy
  Ba  Ba0  1  0.252482  0.504965  0.703520  1
  Ba  Ba1  1  0.747518  0.495035  0.296480  1
  Er  Er2  1  0.500000  0.000000  0.500000  1
  Ag  Ag3  1  0.019012  0.038024  0.254660  1
  Ag  Ag4  1  0.980988  0.961976  0.745340  1
  Ag  Ag5  1  0.352552  0.705105  0.037731  1
  Ag  Ag6  1  0.647448  0.294895  0.962269  1
  Ag  Ag7  1  0.000000  0.000000  0.000000  1
  Se  Se8  1  0.126047  0.252093  0.454872  1
  Se  Se9  1  0.873953  0.747907  0.545128  1
  Se  Se10  1  0.159132  0.318264  0.102275  1
  Se  Se11  1  0.840868  0.681736  0.897725  1
  Se  Se12  1  0.413069  0.826138  0.265204  1
  Se  Se13  1  0.586931  0.173862  0.734796  1
