# generated using pymatgen
data_CaHo(BIr)8
_symmetry_space_group_name_H-M   'P 1'
_cell_length_a   4.00354800
_cell_length_b   7.62946600
_cell_length_c   7.62946600
_cell_angle_alpha   90.00000000
_cell_angle_beta   90.00000000
_cell_angle_gamma   90.00000000
_symmetry_Int_Tables_number   1
_chemical_formula_structural   CaHo(BIr)8
_chemical_formula_sum   'Ca1 Ho1 B8 Ir8'
_cell_volume   233.04153043
_cell_formula_units_Z   1
loop_
 _symmetry_equiv_pos_site_id
 _symmetry_equiv_pos_as_xyz
  1  'x, y, z'
loop_
 _atom_site_type_symbol
 _atom_site_label
 _atom_site_symmetry_multiplicity
 _atom_site_fract_x
 _atom_site_fract_y
 _atom_site_fract_z
 _atom_site_occupancy
  Ca  Ca0  1  0.750000  0.750000  0.750000  1
  Ho  Ho1  1  0.250000  0.250000  0.250000  1
  B  B2  1  0.360292  0.907592  0.028877  1
  B  B3  1  0.360292  0.592408  0.471123  1
  B  B4  1  0.861995  0.528278  0.092737  1
  B  B5  1  0.861995  0.971722  0.407263  1
  B  B6  1  0.638005  0.092737  0.971722  1
  B  B7  1  0.638005  0.407263  0.528278  1
  B  B8  1  0.139708  0.471123  0.907592  1
  B  B9  1  0.139708  0.028877  0.592408  1
  Ir  Ir10  1  0.138046  0.404770  0.638881  1
  Ir  Ir11  1  0.138046  0.095230  0.861119  1
  Ir  Ir12  1  0.636789  0.139390  0.590155  1
  Ir  Ir13  1  0.636789  0.360610  0.909845  1
  Ir  Ir14  1  0.863211  0.590155  0.360610  1
  Ir  Ir15  1  0.863211  0.909845  0.139390  1
  Ir  Ir16  1  0.361954  0.861119  0.404770  1
  Ir  Ir17  1  0.361954  0.638881  0.095230  1
