# generated using pymatgen
data_CeNd5(In4Te)2
_symmetry_space_group_name_H-M   'P 1'
_cell_length_a   8.57213245
_cell_length_b   8.57213170
_cell_length_c   8.57213300
_cell_angle_alpha   119.20331363
_cell_angle_beta   119.20331081
_cell_angle_gamma   91.38553771
_symmetry_Int_Tables_number   1
_chemical_formula_structural   CeNd5(In4Te)2
_chemical_formula_sum   'Ce1 Nd5 In8 Te2'
_cell_volume   450.62231256
_cell_formula_units_Z   1
loop_
 _symmetry_equiv_pos_site_id
 _symmetry_equiv_pos_as_xyz
  1  'x, y, z'
loop_
 _atom_site_type_symbol
 _atom_site_label
 _atom_site_symmetry_multiplicity
 _atom_site_fract_x
 _atom_site_fract_y
 _atom_site_fract_z
 _atom_site_occupancy
  Ce  Ce0  1  0.750000  0.750000  0.000000  1
  Nd  Nd1  1  0.250000  0.250000  0.000000  1
  Nd  Nd2  1  0.658754  0.158754  0.817509  1
  Nd  Nd3  1  0.341246  0.841246  0.182491  1
  Nd  Nd4  1  0.158754  0.341246  0.500000  1
  Nd  Nd5  1  0.841246  0.658754  0.500000  1
  In  In6  1  0.332791  0.831092  0.791539  1
  In  In7  1  0.668908  0.167209  0.208461  1
  In  In8  1  0.039552  0.541251  0.208461  1
  In  In9  1  0.831092  0.039552  0.498300  1
  In  In10  1  0.460448  0.668908  0.501700  1
  In  In11  1  0.958749  0.460448  0.791539  1
  In  In12  1  0.167209  0.958749  0.498300  1
  In  In13  1  0.541251  0.332791  0.501700  1
  Te  Te14  1  0.501338  0.501338  0.000000  1
  Te  Te15  1  0.998662  0.998662  0.000000  1
