# generated using pymatgen
data_Tb2Pr3P12Ru19
_symmetry_space_group_name_H-M   'P 1'
_cell_length_a   12.62146900
_cell_length_b   12.62146943
_cell_length_c   4.01707700
_cell_angle_alpha   90.00000000
_cell_angle_beta   90.00000000
_cell_angle_gamma   120.00000148
_symmetry_Int_Tables_number   1
_chemical_formula_structural   Tb2Pr3P12Ru19
_chemical_formula_sum   'Tb2 Pr3 P12 Ru19'
_cell_volume   554.19245201
_cell_formula_units_Z   1
loop_
 _symmetry_equiv_pos_site_id
 _symmetry_equiv_pos_as_xyz
  1  'x, y, z'
loop_
 _atom_site_type_symbol
 _atom_site_label
 _atom_site_symmetry_multiplicity
 _atom_site_fract_x
 _atom_site_fract_y
 _atom_site_fract_z
 _atom_site_occupancy
  Tb  Tb0  1  0.333333  0.666667  0.000000  1
  Tb  Tb1  1  0.666667  0.333333  0.000000  1
  Pr  Pr2  1  0.183784  0.183784  0.500000  1
  Pr  Pr3  1  0.816216  0.000000  0.500000  1
  Pr  Pr4  1  0.000000  0.816216  0.500000  1
  P  P5  1  0.811044  0.811044  0.000000  1
  P  P6  1  0.188956  0.000000  0.000000  1
  P  P7  1  0.000000  0.188956  0.000000  1
  P  P8  1  0.173894  0.478617  0.500000  1
  P  P9  1  0.521383  0.695277  0.500000  1
  P  P10  1  0.304723  0.826106  0.500000  1
  P  P11  1  0.695277  0.521383  0.500000  1
  P  P12  1  0.826106  0.304723  0.500000  1
  P  P13  1  0.478617  0.173894  0.500000  1
  P  P14  1  0.374296  0.374296  0.000000  1
  P  P15  1  0.625704  0.000000  0.000000  1
  P  P16  1  0.000000  0.625704  0.000000  1
  Ru  Ru17  1  0.553723  0.553723  0.000000  1
  Ru  Ru18  1  0.446277  0.000000  0.000000  1
  Ru  Ru19  1  0.000000  0.446277  0.000000  1
  Ru  Ru20  1  0.712493  0.712493  0.500000  1
  Ru  Ru21  1  0.287507  0.000000  0.500000  1
  Ru  Ru22  1  0.000000  0.287507  0.500000  1
  Ru  Ru23  1  0.185284  0.381190  0.000000  1
  Ru  Ru24  1  0.618810  0.804094  0.000000  1
  Ru  Ru25  1  0.195906  0.814716  0.000000  1
  Ru  Ru26  1  0.804094  0.618810  0.000000  1
  Ru  Ru27  1  0.814716  0.195906  0.000000  1
  Ru  Ru28  1  0.381190  0.185284  0.000000  1
  Ru  Ru29  1  0.367879  0.493390  0.500000  1
  Ru  Ru30  1  0.506610  0.874489  0.500000  1
  Ru  Ru31  1  0.125511  0.632121  0.500000  1
  Ru  Ru32  1  0.874489  0.506610  0.500000  1
  Ru  Ru33  1  0.632121  0.125511  0.500000  1
  Ru  Ru34  1  0.493390  0.367879  0.500000  1
  Ru  Ru35  1  0.000000  0.000000  0.000000  1
