# generated using pymatgen
data_La8CeNdSn6
_symmetry_space_group_name_H-M   'P 1'
_cell_length_a   9.54511669
_cell_length_b   9.54511557
_cell_length_c   9.54511600
_cell_angle_alpha   96.19570504
_cell_angle_beta   96.19571638
_cell_angle_gamma   141.64214710
_symmetry_Int_Tables_number   1
_chemical_formula_structural   La8CeNdSn6
_chemical_formula_sum   'La8 Ce1 Nd1 Sn6'
_cell_volume   509.72496410
_cell_formula_units_Z   1
loop_
 _symmetry_equiv_pos_site_id
 _symmetry_equiv_pos_as_xyz
  1  'x, y, z'
loop_
 _atom_site_type_symbol
 _atom_site_label
 _atom_site_symmetry_multiplicity
 _atom_site_fract_x
 _atom_site_fract_y
 _atom_site_fract_z
 _atom_site_occupancy
  La  La0  1  0.912129  0.221868  0.132792  1
  La  La1  1  0.220663  0.087871  0.309738  1
  La  La2  1  0.778132  0.910924  0.690262  1
  La  La3  1  0.089076  0.779337  0.867208  1
  La  La4  1  0.721868  0.412129  0.132792  1
  La  La5  1  0.279337  0.589076  0.867208  1
  La  La6  1  0.587871  0.720663  0.309738  1
  La  La7  1  0.410924  0.278132  0.690262  1
  Ce  Ce8  1  0.250000  0.750000  0.500000  1
  Nd  Nd9  1  0.750000  0.250000  0.500000  1
  Sn  Sn10  1  0.750000  0.750000  0.000000  1
  Sn  Sn11  1  0.250000  0.250000  0.000000  1
  Sn  Sn12  1  0.844880  0.659072  0.500000  1
  Sn  Sn13  1  0.655120  0.155120  0.814193  1
  Sn  Sn14  1  0.340928  0.840928  0.185807  1
  Sn  Sn15  1  0.159072  0.344880  0.500000  1
