# generated using pymatgen
data_YTm9(Ga2Te)2
_symmetry_space_group_name_H-M   'P 1'
_cell_length_a   8.58771700
_cell_length_b   8.61080526
_cell_length_c   6.45172400
_cell_angle_alpha   90.00000000
_cell_angle_beta   90.00000000
_cell_angle_gamma   120.12170433
_symmetry_Int_Tables_number   1
_chemical_formula_structural   YTm9(Ga2Te)2
_chemical_formula_sum   'Y1 Tm9 Ga4 Te2'
_cell_volume   412.66153458
_cell_formula_units_Z   1
loop_
 _symmetry_equiv_pos_site_id
 _symmetry_equiv_pos_as_xyz
  1  'x, y, z'
loop_
 _atom_site_type_symbol
 _atom_site_label
 _atom_site_symmetry_multiplicity
 _atom_site_fract_x
 _atom_site_fract_y
 _atom_site_fract_z
 _atom_site_occupancy
  Y  Y0  1  0.765741  0.750702  0.250000  1
  Tm  Tm1  1  0.313420  0.656768  0.999989  1
  Tm  Tm2  1  0.670164  0.334761  0.500164  1
  Tm  Tm3  1  0.670164  0.334761  0.999836  1
  Tm  Tm4  1  0.313420  0.656768  0.500011  1
  Tm  Tm5  1  0.233443  0.999748  0.250000  1
  Tm  Tm6  1  0.231896  0.232606  0.750000  1
  Tm  Tm7  1  0.014796  0.765400  0.750000  1
  Tm  Tm8  1  0.014414  0.249057  0.250000  1
  Tm  Tm9  1  0.766119  0.016806  0.750000  1
  Ga  Ga10  1  0.996426  0.396631  0.750000  1
  Ga  Ga11  1  0.997311  0.599074  0.250000  1
  Ga  Ga12  1  0.399547  0.396008  0.250000  1
  Ga  Ga13  1  0.400570  0.003190  0.750000  1
  Te  Te14  1  0.605846  0.996574  0.250000  1
  Te  Te15  1  0.606723  0.611144  0.750000  1
