# generated using pymatgen
data_PrCoOs2C
_symmetry_space_group_name_H-M   'P 1'
_cell_length_a   5.64481238
_cell_length_b   5.64481250
_cell_length_c   7.55935300
_cell_angle_alpha   90.00000000
_cell_angle_beta   90.00000000
_cell_angle_gamma   139.35414990
_symmetry_Int_Tables_number   1
_chemical_formula_structural   PrCoOs2C
_chemical_formula_sum   'Pr2 Co2 Os4 C2'
_cell_volume   156.89862898
_cell_formula_units_Z   2
loop_
 _symmetry_equiv_pos_site_id
 _symmetry_equiv_pos_as_xyz
  1  'x, y, z'
loop_
 _atom_site_type_symbol
 _atom_site_label
 _atom_site_symmetry_multiplicity
 _atom_site_fract_x
 _atom_site_fract_y
 _atom_site_fract_z
 _atom_site_occupancy
  Pr  Pr0  1  0.536198  0.463802  0.250000  1
  Pr  Pr1  1  0.463802  0.536198  0.750000  1
  Co  Co2  1  0.264062  0.735938  0.250000  1
  Co  Co3  1  0.735938  0.264062  0.750000  1
  Os  Os4  1  0.824110  0.175890  0.060346  1
  Os  Os5  1  0.175890  0.824110  0.939654  1
  Os  Os6  1  0.175890  0.824110  0.560346  1
  Os  Os7  1  0.824110  0.175890  0.439654  1
  C  C8  1  0.000000  0.000000  0.000000  1
  C  C9  1  0.000000  0.000000  0.500000  1
