# generated using pymatgen
data_Tb11Dy(Cd2Pd)4
_symmetry_space_group_name_H-M   'P 1'
_cell_length_a   13.16892100
_cell_length_b   13.16892024
_cell_length_c   3.74369400
_cell_angle_alpha   90.00000000
_cell_angle_beta   90.00000000
_cell_angle_gamma   112.39375355
_symmetry_Int_Tables_number   1
_chemical_formula_structural   Tb11Dy(Cd2Pd)4
_chemical_formula_sum   'Tb11 Dy1 Cd8 Pd4'
_cell_volume   600.27292459
_cell_formula_units_Z   1
loop_
 _symmetry_equiv_pos_site_id
 _symmetry_equiv_pos_as_xyz
  1  'x, y, z'
loop_
 _atom_site_type_symbol
 _atom_site_label
 _atom_site_symmetry_multiplicity
 _atom_site_fract_x
 _atom_site_fract_y
 _atom_site_fract_z
 _atom_site_occupancy
  Tb  Tb0  1  0.422890  0.085847  0.000000  1
  Tb  Tb1  1  0.577110  0.914153  0.000000  1
  Tb  Tb2  1  0.085847  0.422890  0.000000  1
  Tb  Tb3  1  0.914153  0.577110  0.000000  1
  Tb  Tb4  1  0.164417  0.835583  0.000000  1
  Tb  Tb5  1  0.835583  0.164417  0.000000  1
  Tb  Tb6  1  0.351764  0.648236  0.000000  1
  Tb  Tb7  1  0.648236  0.351764  0.000000  1
  Tb  Tb8  1  0.282721  0.282721  0.000000  1
  Tb  Tb9  1  0.717279  0.717279  0.000000  1
  Tb  Tb10  1  0.000000  0.000000  0.000000  1
  Dy  Dy11  1  0.500000  0.500000  0.500000  1
  Cd  Cd12  1  0.366126  0.856924  0.500000  1
  Cd  Cd13  1  0.633874  0.143076  0.500000  1
  Cd  Cd14  1  0.856926  0.366126  0.500000  1
  Cd  Cd15  1  0.143074  0.633874  0.500000  1
  Cd  Cd16  1  0.212174  0.053950  0.500000  1
  Cd  Cd17  1  0.787826  0.946050  0.500000  1
  Cd  Cd18  1  0.053949  0.212173  0.500000  1
  Cd  Cd19  1  0.946051  0.787827  0.500000  1
  Pd  Pd20  1  0.452360  0.260796  0.500000  1
  Pd  Pd21  1  0.547640  0.739204  0.500000  1
  Pd  Pd22  1  0.260797  0.452360  0.500000  1
  Pd  Pd23  1  0.739203  0.547640  0.500000  1
