# generated using pymatgen
data_Dy12InCo2Cu3
_symmetry_space_group_name_H-M   'P 1'
_cell_length_a   8.37072045
_cell_length_b   8.37070985
_cell_length_c   8.37071978
_cell_angle_alpha   112.38866425
_cell_angle_beta   110.22888105
_cell_angle_gamma   105.86324408
_symmetry_Int_Tables_number   1
_chemical_formula_structural   Dy12InCo2Cu3
_chemical_formula_sum   'Dy12 In1 Co2 Cu3'
_cell_volume   450.00519310
_cell_formula_units_Z   1
loop_
 _symmetry_equiv_pos_site_id
 _symmetry_equiv_pos_as_xyz
  1  'x, y, z'
loop_
 _atom_site_type_symbol
 _atom_site_label
 _atom_site_symmetry_multiplicity
 _atom_site_fract_x
 _atom_site_fract_y
 _atom_site_fract_z
 _atom_site_occupancy
  Dy  Dy0  1  0.817856  0.710914  0.528770  1
  Dy  Dy1  1  0.182144  0.289086  0.471230  1
  Dy  Dy2  1  0.182144  0.710914  0.893058  1
  Dy  Dy3  1  0.817856  0.289086  0.106942  1
  Dy  Dy4  1  0.690444  0.381886  0.691442  1
  Dy  Dy5  1  0.309556  0.618114  0.308558  1
  Dy  Dy6  1  0.690444  0.999001  0.308557  1
  Dy  Dy7  1  0.309556  0.000999  0.691443  1
  Dy  Dy8  1  0.579219  0.770465  0.808755  1
  Dy  Dy9  1  0.420781  0.229535  0.191245  1
  Dy  Dy10  1  0.961710  0.770465  0.191245  1
  Dy  Dy11  1  0.038290  0.229535  0.808755  1
  In  In12  1  0.500000  0.500000  0.000000  1
  Co  Co13  1  0.112496  0.612496  0.500000  1
  Co  Co14  1  0.887504  0.387504  0.500000  1
  Cu  Cu15  1  0.641595  0.000000  0.641595  1
  Cu  Cu16  1  0.358405  0.000000  0.358405  1
  Cu  Cu17  1  0.000000  0.000000  0.000000  1
