# generated using pymatgen
data_Be12CuNi5Rh6
_symmetry_space_group_name_H-M   'P 1'
_cell_length_a   3.82331200
_cell_length_b   5.40466600
_cell_length_c   11.46319400
_cell_angle_alpha   90.00000000
_cell_angle_beta   90.00093440
_cell_angle_gamma   90.00000000
_symmetry_Int_Tables_number   1
_chemical_formula_structural   Be12CuNi5Rh6
_chemical_formula_sum   'Be12 Cu1 Ni5 Rh6'
_cell_volume   236.87228124
_cell_formula_units_Z   1
loop_
 _symmetry_equiv_pos_site_id
 _symmetry_equiv_pos_as_xyz
  1  'x, y, z'
loop_
 _atom_site_type_symbol
 _atom_site_label
 _atom_site_symmetry_multiplicity
 _atom_site_fract_x
 _atom_site_fract_y
 _atom_site_fract_z
 _atom_site_occupancy
  Be  Be0  1  0.500000  0.260384  0.000000  1
  Be  Be1  1  0.500000  0.739615  0.000000  1
  Be  Be2  1  0.000449  0.255503  0.170501  1
  Be  Be3  1  0.000449  0.744496  0.170501  1
  Be  Be4  1  0.500535  0.249777  0.333229  1
  Be  Be5  1  0.500535  0.750222  0.333229  1
  Be  Be6  1  0.000000  0.248580  0.500000  1
  Be  Be7  1  0.000000  0.751421  0.500000  1
  Be  Be8  1  0.499466  0.249777  0.666771  1
  Be  Be9  1  0.499466  0.750222  0.666771  1
  Be  Be10  1  0.999552  0.255503  0.829499  1
  Be  Be11  1  0.999552  0.744496  0.829499  1
  Cu  Cu12  1  0.000000  0.000000  0.000000  1
  Ni  Ni13  1  0.500287  0.500000  0.166839  1
  Ni  Ni14  1  0.000401  0.000000  0.332716  1
  Ni  Ni15  1  0.500000  0.500000  0.500000  1
  Ni  Ni16  1  0.999600  0.000000  0.667284  1
  Ni  Ni17  1  0.499711  0.500000  0.833161  1
  Rh  Rh18  1  0.000000  0.500000  0.000000  1
  Rh  Rh19  1  0.500369  0.000000  0.163976  1
  Rh  Rh20  1  0.000378  0.500000  0.334755  1
  Rh  Rh21  1  0.500000  0.000000  0.500000  1
  Rh  Rh22  1  0.999622  0.500000  0.665245  1
  Rh  Rh23  1  0.499632  0.000000  0.836024  1
