# generated using pymatgen
data_Ba6BiPb8Cl
_symmetry_space_group_name_H-M   'P 1'
_cell_length_a   9.46138010
_cell_length_b   9.46138113
_cell_length_c   9.46138186
_cell_angle_alpha   119.43808582
_cell_angle_beta   119.43809072
_cell_angle_gamma   90.97604877
_symmetry_Int_Tables_number   1
_chemical_formula_structural   Ba6BiPb8Cl
_chemical_formula_sum   'Ba6 Bi1 Pb8 Cl1'
_cell_volume   603.88382323
_cell_formula_units_Z   1
loop_
 _symmetry_equiv_pos_site_id
 _symmetry_equiv_pos_as_xyz
  1  'x, y, z'
loop_
 _atom_site_type_symbol
 _atom_site_label
 _atom_site_symmetry_multiplicity
 _atom_site_fract_x
 _atom_site_fract_y
 _atom_site_fract_z
 _atom_site_occupancy
  Ba  Ba0  1  0.259196  0.259196  0.000000  1
  Ba  Ba1  1  0.740804  0.740804  0.000000  1
  Ba  Ba2  1  0.163767  0.664494  0.828263  1
  Ba  Ba3  1  0.836233  0.335506  0.171737  1
  Ba  Ba4  1  0.664494  0.836233  0.500726  1
  Ba  Ba5  1  0.335506  0.163767  0.499274  1
  Bi  Bi6  1  0.000000  0.000000  0.000000  1
  Pb  Pb7  1  0.833936  0.330406  0.784850  1
  Pb  Pb8  1  0.166064  0.669594  0.215150  1
  Pb  Pb9  1  0.545556  0.049086  0.215150  1
  Pb  Pb10  1  0.330406  0.545556  0.496470  1
  Pb  Pb11  1  0.950914  0.166064  0.496470  1
  Pb  Pb12  1  0.454444  0.950914  0.784850  1
  Pb  Pb13  1  0.669594  0.454444  0.503530  1
  Pb  Pb14  1  0.049086  0.833936  0.503530  1
  Cl  Cl15  1  0.500000  0.500000  0.000000  1
