# generated using pymatgen
data_Nd2GaRhI2
_symmetry_space_group_name_H-M   'P 1'
_cell_length_a   4.33981000
_cell_length_b   4.33981162
_cell_length_c   11.97900600
_cell_angle_alpha   90.00000000
_cell_angle_beta   90.00000000
_cell_angle_gamma   120.00000290
_symmetry_Int_Tables_number   1
_chemical_formula_structural   Nd2GaRhI2
_chemical_formula_sum   'Nd2 Ga1 Rh1 I2'
_cell_volume   195.38579931
_cell_formula_units_Z   1
loop_
 _symmetry_equiv_pos_site_id
 _symmetry_equiv_pos_as_xyz
  1  'x, y, z'
loop_
 _atom_site_type_symbol
 _atom_site_label
 _atom_site_symmetry_multiplicity
 _atom_site_fract_x
 _atom_site_fract_y
 _atom_site_fract_z
 _atom_site_occupancy
  Nd  Nd0  1  0.000000  0.000000  0.338354  1
  Nd  Nd1  1  0.000000  0.000000  0.661493  1
  Ga  Ga2  1  0.666666  0.333333  0.500296  1
  Rh  Rh3  1  0.333333  0.666667  0.499401  1
  I  I4  1  0.666666  0.333333  0.159780  1
  I  I5  1  0.333333  0.666667  0.840678  1
