# generated using pymatgen
data_Sc2P2PtRh
_symmetry_space_group_name_H-M   'P 1'
_cell_length_a   3.84805000
_cell_length_b   6.53583500
_cell_length_c   7.45042800
_cell_angle_alpha   90.00000000
_cell_angle_beta   90.00000000
_cell_angle_gamma   90.00000000
_symmetry_Int_Tables_number   1
_chemical_formula_structural   Sc2P2PtRh
_chemical_formula_sum   'Sc4 P4 Pt2 Rh2'
_cell_volume   187.37990234
_cell_formula_units_Z   2
loop_
 _symmetry_equiv_pos_site_id
 _symmetry_equiv_pos_as_xyz
  1  'x, y, z'
loop_
 _atom_site_type_symbol
 _atom_site_label
 _atom_site_symmetry_multiplicity
 _atom_site_fract_x
 _atom_site_fract_y
 _atom_site_fract_z
 _atom_site_occupancy
  Sc  Sc0  1  0.250000  0.029976  0.181135  1
  Sc  Sc1  1  0.250000  0.529976  0.318865  1
  Sc  Sc2  1  0.750000  0.468447  0.678948  1
  Sc  Sc3  1  0.750000  0.968447  0.821052  1
  P  P4  1  0.750000  0.741947  0.131202  1
  P  P5  1  0.750000  0.241947  0.368798  1
  P  P6  1  0.250000  0.755102  0.616999  1
  P  P7  1  0.250000  0.255102  0.883001  1
  Pt  Pt8  1  0.250000  0.158587  0.565629  1
  Pt  Pt9  1  0.250000  0.658587  0.934371  1
  Rh  Rh10  1  0.750000  0.345941  0.055542  1
  Rh  Rh11  1  0.750000  0.845941  0.444458  1
