# generated using pymatgen
data_ErPa(FeB)8
_symmetry_space_group_name_H-M   'P 1'
_cell_length_a   6.93742000
_cell_length_b   6.93742000
_cell_length_c   3.81742200
_cell_angle_alpha   90.00000000
_cell_angle_beta   90.00000000
_cell_angle_gamma   90.00000000
_symmetry_Int_Tables_number   1
_chemical_formula_structural   ErPa(FeB)8
_chemical_formula_sum   'Er1 Pa1 Fe8 B8'
_cell_volume   183.72410824
_cell_formula_units_Z   1
loop_
 _symmetry_equiv_pos_site_id
 _symmetry_equiv_pos_as_xyz
  1  'x, y, z'
loop_
 _atom_site_type_symbol
 _atom_site_label
 _atom_site_symmetry_multiplicity
 _atom_site_fract_x
 _atom_site_fract_y
 _atom_site_fract_z
 _atom_site_occupancy
  Er  Er0  1  0.500000  0.500000  0.500000  1
  Pa  Pa1  1  0.000000  0.000000  0.000000  1
  Fe  Fe2  1  0.130494  0.382694  0.897066  1
  Fe  Fe3  1  0.869506  0.617306  0.897066  1
  Fe  Fe4  1  0.886454  0.367063  0.393178  1
  Fe  Fe5  1  0.113546  0.632937  0.393178  1
  Fe  Fe6  1  0.367063  0.113546  0.606822  1
  Fe  Fe7  1  0.632937  0.886454  0.606822  1
  Fe  Fe8  1  0.617306  0.130494  0.102934  1
  Fe  Fe9  1  0.382694  0.869506  0.102934  1
  B  B10  1  0.663078  0.796106  0.107620  1
  B  B11  1  0.336922  0.203894  0.107620  1
  B  B12  1  0.296982  0.833841  0.601487  1
  B  B13  1  0.703018  0.166159  0.601487  1
  B  B14  1  0.833841  0.703018  0.398513  1
  B  B15  1  0.166159  0.296982  0.398513  1
  B  B16  1  0.203894  0.663078  0.892380  1
  B  B17  1  0.796106  0.336922  0.892380  1
