# generated using pymatgen
data_TcClO3
_symmetry_space_group_name_H-M   'P 1'
_cell_length_a   6.82515224
_cell_length_b   6.82515164
_cell_length_c   5.54440600
_cell_angle_alpha   90.00000000
_cell_angle_beta   90.00000000
_cell_angle_gamma   109.66128285
_symmetry_Int_Tables_number   1
_chemical_formula_structural   TcClO3
_chemical_formula_sum   'Tc2 Cl2 O6'
_cell_volume   243.21557120
_cell_formula_units_Z   2
loop_
 _symmetry_equiv_pos_site_id
 _symmetry_equiv_pos_as_xyz
  1  'x, y, z'
loop_
 _atom_site_type_symbol
 _atom_site_label
 _atom_site_symmetry_multiplicity
 _atom_site_fract_x
 _atom_site_fract_y
 _atom_site_fract_z
 _atom_site_occupancy
  Tc  Tc0  1  0.823528  0.176472  0.593793  1
  Tc  Tc1  1  0.176472  0.823528  0.093793  1
  Cl  Cl2  1  0.633789  0.366211  0.714852  1
  Cl  Cl3  1  0.366211  0.633789  0.214852  1
  O  O4  1  0.071993  0.282543  0.700083  1
  O  O5  1  0.717457  0.928007  0.700083  1
  O  O6  1  0.928007  0.717457  0.200083  1
  O  O7  1  0.828187  0.171813  0.285262  1
  O  O8  1  0.282543  0.071993  0.200083  1
  O  O9  1  0.171813  0.828187  0.785262  1
