# generated using pymatgen
data_Hf3Si2MoAsRu2
_symmetry_space_group_name_H-M   'P 1'
_cell_length_a   7.69116816
_cell_length_b   7.69920671
_cell_length_c   7.69920542
_cell_angle_alpha   126.70883939
_cell_angle_beta   124.31736557
_cell_angle_gamma   80.72896279
_symmetry_Int_Tables_number   1
_chemical_formula_structural   Hf3Si2MoAsRu2
_chemical_formula_sum   'Hf6 Si4 Mo2 As2 Ru4'
_cell_volume   291.03020722
_cell_formula_units_Z   2
loop_
 _symmetry_equiv_pos_site_id
 _symmetry_equiv_pos_as_xyz
  1  'x, y, z'
loop_
 _atom_site_type_symbol
 _atom_site_label
 _atom_site_symmetry_multiplicity
 _atom_site_fract_x
 _atom_site_fract_y
 _atom_site_fract_z
 _atom_site_occupancy
  Hf  Hf0  1  0.461681  0.686162  0.723576  1
  Hf  Hf1  1  0.538319  0.261895  0.224481  1
  Hf  Hf2  1  0.742061  0.839453  0.587435  1
  Hf  Hf3  1  0.257939  0.845375  0.097392  1
  Hf  Hf4  1  0.056389  0.262096  0.705243  1
  Hf  Hf5  1  0.943611  0.648854  0.205707  1
  Si  Si6  1  0.274041  0.261124  0.487671  1
  Si  Si7  1  0.725959  0.213631  0.987084  1
  Si  Si8  1  0.325586  0.586654  0.251061  1
  Si  Si9  1  0.674414  0.925475  0.261068  1
  Mo  Mo10  1  0.500000  0.500085  0.000085  1
  Mo  Mo11  1  0.000000  0.498695  0.498695  1
  As  As12  1  0.162472  0.926477  0.752662  1
  As  As13  1  0.837528  0.590190  0.764005  1
  Ru  Ru14  1  0.096665  0.259603  0.104537  1
  Ru  Ru15  1  0.903335  0.007872  0.162937  1
  Ru  Ru16  1  0.346800  0.999482  0.593275  1
  Ru  Ru17  1  0.653200  0.246476  0.652683  1
