# generated using pymatgen
data_Tm2UCo7(P3Rh)2
_symmetry_space_group_name_H-M   'P 1'
_cell_length_a   3.71708900
_cell_length_b   10.64147900
_cell_length_c   12.34752400
_cell_angle_alpha   90.00000000
_cell_angle_beta   90.00000000
_cell_angle_gamma   90.00000000
_symmetry_Int_Tables_number   1
_chemical_formula_structural   Tm2UCo7(P3Rh)2
_chemical_formula_sum   'Tm4 U2 Co14 P12 Rh4'
_cell_volume   488.41031902
_cell_formula_units_Z   2
loop_
 _symmetry_equiv_pos_site_id
 _symmetry_equiv_pos_as_xyz
  1  'x, y, z'
loop_
 _atom_site_type_symbol
 _atom_site_label
 _atom_site_symmetry_multiplicity
 _atom_site_fract_x
 _atom_site_fract_y
 _atom_site_fract_z
 _atom_site_occupancy
  Tm  Tm0  1  0.500000  0.814340  0.205566  1
  Tm  Tm1  1  0.500000  0.185660  0.205566  1
  Tm  Tm2  1  0.000000  0.685660  0.794434  1
  Tm  Tm3  1  0.000000  0.314340  0.794434  1
  U  U4  1  0.000000  0.500000  0.521514  1
  U  U5  1  0.500000  0.000000  0.478486  1
  Co  Co6  1  0.000000  0.500000  0.988770  1
  Co  Co7  1  0.500000  0.000000  0.011230  1
  Co  Co8  1  0.500000  0.331831  0.993909  1
  Co  Co9  1  0.500000  0.668169  0.993909  1
  Co  Co10  1  0.000000  0.168169  0.006091  1
  Co  Co11  1  0.000000  0.831831  0.006091  1
  Co  Co12  1  0.500000  0.300050  0.429415  1
  Co  Co13  1  0.500000  0.699950  0.429415  1
  Co  Co14  1  0.000000  0.199950  0.570585  1
  Co  Co15  1  0.000000  0.800050  0.570585  1
  Co  Co16  1  0.500000  0.879586  0.710637  1
  Co  Co17  1  0.500000  0.120414  0.710637  1
  Co  Co18  1  0.000000  0.620414  0.289363  1
  Co  Co19  1  0.000000  0.379586  0.289363  1
  P  P20  1  0.500000  0.500000  0.890395  1
  P  P21  1  0.000000  0.000000  0.109605  1
  P  P22  1  0.500000  0.500000  0.349679  1
  P  P23  1  0.000000  0.000000  0.650321  1
  P  P24  1  0.500000  0.302455  0.614123  1
  P  P25  1  0.500000  0.697545  0.614123  1
  P  P26  1  0.000000  0.197545  0.385877  1
  P  P27  1  0.000000  0.802455  0.385877  1
  P  P28  1  0.500000  0.843667  0.893914  1
  P  P29  1  0.500000  0.156333  0.893914  1
  P  P30  1  0.000000  0.656333  0.106086  1
  P  P31  1  0.000000  0.343667  0.106086  1
  Rh  Rh32  1  0.500000  0.500000  0.159881  1
  Rh  Rh33  1  0.000000  0.000000  0.840119  1
  Rh  Rh34  1  0.500000  0.500000  0.704722  1
  Rh  Rh35  1  0.000000  0.000000  0.295278  1
