# generated using pymatgen
data_La2Mn4Ni8P7
_symmetry_space_group_name_H-M   'P 1'
_cell_length_a   9.25336726
_cell_length_b   9.24298063
_cell_length_c   3.75587400
_cell_angle_alpha   90.00000000
_cell_angle_beta   90.00000000
_cell_angle_gamma   119.84198966
_symmetry_Int_Tables_number   1
_chemical_formula_structural   La2Mn4Ni8P7
_chemical_formula_sum   'La2 Mn4 Ni8 P7'
_cell_volume   278.63956276
_cell_formula_units_Z   1
loop_
 _symmetry_equiv_pos_site_id
 _symmetry_equiv_pos_as_xyz
  1  'x, y, z'
loop_
 _atom_site_type_symbol
 _atom_site_label
 _atom_site_symmetry_multiplicity
 _atom_site_fract_x
 _atom_site_fract_y
 _atom_site_fract_z
 _atom_site_occupancy
  La  La0  1  0.333621  0.667149  0.000000  1
  La  La1  1  0.999294  0.999164  0.500000  1
  Mn  Mn2  1  0.515509  0.454985  0.000000  1
  Mn  Mn3  1  0.781186  0.233838  0.500000  1
  Mn  Mn4  1  0.768568  0.550806  0.500000  1
  Mn  Mn5  1  0.447110  0.215191  0.500000  1
  Ni  Ni6  1  0.039134  0.273966  0.000000  1
  Ni  Ni7  1  0.729178  0.765691  0.000000  1
  Ni  Ni8  1  0.236808  0.964044  0.000000  1
  Ni  Ni9  1  0.542951  0.060503  0.000000  1
  Ni  Ni10  1  0.941425  0.481817  0.000000  1
  Ni  Ni11  1  0.616004  0.902088  0.500000  1
  Ni  Ni12  1  0.098352  0.715459  0.500000  1
  Ni  Ni13  1  0.285297  0.383030  0.500000  1
  P  P14  1  0.771113  0.035561  0.000000  1
  P  P15  1  0.963354  0.733794  0.000000  1
  P  P16  1  0.265288  0.230175  0.000000  1
  P  P17  1  0.373049  0.934880  0.500000  1
  P  P18  1  0.063042  0.437471  0.500000  1
  P  P19  1  0.562921  0.623940  0.500000  1
  P  P20  1  0.666800  0.336444  0.000000  1
