# generated using pymatgen
data_LiEr2Co9As7Rh2
_symmetry_space_group_name_H-M   'P 1'
_cell_length_a   9.44329381
_cell_length_b   9.41685878
_cell_length_c   3.79054200
_cell_angle_alpha   89.99535983
_cell_angle_beta   90.00155545
_cell_angle_gamma   119.87616511
_symmetry_Int_Tables_number   1
_chemical_formula_structural   LiEr2Co9As7Rh2
_chemical_formula_sum   'Li1 Er2 Co9 As7 Rh2'
_cell_volume   292.28200850
_cell_formula_units_Z   1
loop_
 _symmetry_equiv_pos_site_id
 _symmetry_equiv_pos_as_xyz
  1  'x, y, z'
loop_
 _atom_site_type_symbol
 _atom_site_label
 _atom_site_symmetry_multiplicity
 _atom_site_fract_x
 _atom_site_fract_y
 _atom_site_fract_z
 _atom_site_occupancy
  Li  Li0  1  0.782720  0.892717  0.242870  1
  Er  Er1  1  0.667296  0.327435  0.743020  1
  Er  Er2  1  0.332178  0.665403  0.243091  1
  Co  Co3  1  0.058366  0.628728  0.743040  1
  Co  Co4  1  0.373452  0.433205  0.743025  1
  Co  Co5  1  0.564867  0.943699  0.743048  1
  Co  Co6  1  0.944469  0.384317  0.243025  1
  Co  Co7  1  0.614184  0.565770  0.243051  1
  Co  Co8  1  0.435998  0.054967  0.243070  1
  Co  Co9  1  0.282929  0.124701  0.743036  1
  Co  Co10  1  0.880239  0.162323  0.743054  1
  Co  Co11  1  0.840066  0.717497  0.743028  1
  As  As12  1  0.003449  0.001967  0.743087  1
  As  As13  1  0.298708  0.886468  0.743075  1
  As  As14  1  0.114441  0.414424  0.742989  1
  As  As15  1  0.586450  0.704390  0.743041  1
  As  As16  1  0.707865  0.110152  0.242985  1
  As  As17  1  0.876177  0.587990  0.242986  1
  As  As18  1  0.412495  0.293065  0.242970  1
  Rh  Rh19  1  0.098041  0.873161  0.243104  1
  Rh  Rh20  1  0.125606  0.227624  0.243025  1
