# generated using pymatgen
data_Yb2(PdAu)3
_symmetry_space_group_name_H-M   'P 1'
_cell_length_a   4.22625000
_cell_length_b   4.15179700
_cell_length_c   8.17164100
_cell_angle_alpha   90.00000000
_cell_angle_beta   90.00000000
_cell_angle_gamma   90.00000000
_symmetry_Int_Tables_number   1
_chemical_formula_structural   Yb2(PdAu)3
_chemical_formula_sum   'Yb2 Pd3 Au3'
_cell_volume   143.38396088
_cell_formula_units_Z   1
loop_
 _symmetry_equiv_pos_site_id
 _symmetry_equiv_pos_as_xyz
  1  'x, y, z'
loop_
 _atom_site_type_symbol
 _atom_site_label
 _atom_site_symmetry_multiplicity
 _atom_site_fract_x
 _atom_site_fract_y
 _atom_site_fract_z
 _atom_site_occupancy
  Yb  Yb0  1  0.000000  0.000000  0.741483  1
  Yb  Yb1  1  0.000000  0.000000  0.258517  1
  Pd  Pd2  1  0.500000  0.000000  0.500000  1
  Pd  Pd3  1  0.000000  0.500000  0.000000  1
  Pd  Pd4  1  0.000000  0.500000  0.500000  1
  Au  Au5  1  0.500000  0.500000  0.744564  1
  Au  Au6  1  0.500000  0.500000  0.255436  1
  Au  Au7  1  0.500000  0.000000  0.000000  1
