# generated using pymatgen
data_SrYbRu4F24
_symmetry_space_group_name_H-M   'P 1'
_cell_length_a   10.28393778
_cell_length_b   10.28393704
_cell_length_c   10.28393600
_cell_angle_alpha   131.57935553
_cell_angle_beta   131.57934442
_cell_angle_gamma   70.89421645
_symmetry_Int_Tables_number   1
_chemical_formula_structural   SrYbRu4F24
_chemical_formula_sum   'Sr1 Yb1 Ru4 F24'
_cell_volume   596.02266039
_cell_formula_units_Z   1
loop_
 _symmetry_equiv_pos_site_id
 _symmetry_equiv_pos_as_xyz
  1  'x, y, z'
loop_
 _atom_site_type_symbol
 _atom_site_label
 _atom_site_symmetry_multiplicity
 _atom_site_fract_x
 _atom_site_fract_y
 _atom_site_fract_z
 _atom_site_occupancy
  Sr  Sr0  1  0.749970  0.249943  0.499918  1
  Yb  Yb1  1  0.000008  0.000078  0.000072  1
  Ru  Ru2  1  0.792357  0.792335  0.999907  1
  Ru  Ru3  1  0.207590  0.207586  0.999924  1
  Ru  Ru4  1  0.970753  0.470831  0.500162  1
  Ru  Ru5  1  0.529292  0.029241  0.500009  1
  F  F6  1  0.872253  0.758367  0.197411  1
  F  F7  1  0.560903  0.674726  0.802440  1
  F  F8  1  0.432093  0.794472  0.320878  1
  F  F9  1  0.325212  0.127709  0.886109  1
  F  F10  1  0.241607  0.439025  0.113805  1
  F  F11  1  0.205553  0.526505  0.637759  1
  F  F12  1  0.636596  0.266168  0.672161  1
  F  F13  1  0.733829  0.406072  0.370496  1
  F  F14  1  0.035608  0.363495  0.629724  1
  F  F15  1  0.083403  0.264211  0.107822  1
  F  F16  1  0.156300  0.975523  0.892047  1
  F  F17  1  0.594040  0.964364  0.327822  1
  F  F18  1  0.735765  0.843655  0.819180  1
  F  F19  1  0.024414  0.916527  0.180714  1
  F  F20  1  0.302792  0.057711  0.300132  1
  F  F21  1  0.942276  0.242463  0.245140  1
  F  F22  1  0.997391  0.697277  0.755049  1
  F  F23  1  0.427821  0.263803  0.276395  1
  F  F24  1  0.987388  0.151373  0.723519  1
  F  F25  1  0.757598  0.002615  0.699836  1
  F  F26  1  0.736133  0.012546  0.163925  1
  F  F27  1  0.848601  0.572123  0.835923  1
  F  F28  1  0.473658  0.111225  0.679165  1
  F  F29  1  0.888796  0.568034  0.362556  1
