# generated using pymatgen
data_YbSm3(B4Os)4
_symmetry_space_group_name_H-M   'P 1'
_cell_length_a   3.59225700
_cell_length_b   6.01511206
_cell_length_c   11.62971611
_cell_angle_alpha   90.01594896
_cell_angle_beta   90.00000000
_cell_angle_gamma   90.00000000
_symmetry_Int_Tables_number   1
_chemical_formula_structural   YbSm3(B4Os)4
_chemical_formula_sum   'Yb1 Sm3 B16 Os4'
_cell_volume   251.29290033
_cell_formula_units_Z   1
loop_
 _symmetry_equiv_pos_site_id
 _symmetry_equiv_pos_as_xyz
  1  'x, y, z'
loop_
 _atom_site_type_symbol
 _atom_site_label
 _atom_site_symmetry_multiplicity
 _atom_site_fract_x
 _atom_site_fract_y
 _atom_site_fract_z
 _atom_site_occupancy
  Yb  Yb0  1  0.000000  0.371549  0.149361  1
  Sm  Sm1  1  0.000000  0.126645  0.650395  1
  Sm  Sm2  1  0.000000  0.872841  0.347795  1
  Sm  Sm3  1  0.000000  0.626376  0.851103  1
  B  B4  1  0.500000  0.475675  0.690242  1
  B  B5  1  0.500000  0.523924  0.308116  1
  B  B6  1  0.500000  0.975321  0.810830  1
  B  B7  1  0.500000  0.026009  0.189668  1
  B  B8  1  0.500000  0.286155  0.816467  1
  B  B9  1  0.500000  0.711446  0.183934  1
  B  B10  1  0.500000  0.786178  0.685004  1
  B  B11  1  0.500000  0.215277  0.313670  1
  B  B12  1  0.500000  0.362066  0.971031  1
  B  B13  1  0.500000  0.637583  0.031659  1
  B  B14  1  0.500000  0.861089  0.530451  1
  B  B15  1  0.500000  0.138776  0.468887  1
  B  B16  1  0.500000  0.388450  0.545736  1
  B  B17  1  0.500000  0.610347  0.452950  1
  B  B18  1  0.500000  0.889325  0.955596  1
  B  B19  1  0.500000  0.114829  0.047529  1
  Os  Os20  1  0.000000  0.139493  0.908629  1
  Os  Os21  1  0.000000  0.861099  0.091609  1
  Os  Os22  1  0.000000  0.639201  0.592187  1
  Os  Os23  1  0.000000  0.360349  0.407152  1
