# generated using pymatgen
data_Lu2Pa(GaNi)3
_symmetry_space_group_name_H-M   'P 1'
_cell_length_a   6.99272900
_cell_length_b   6.93753502
_cell_length_c   3.71777600
_cell_angle_alpha   90.00000000
_cell_angle_beta   90.00000000
_cell_angle_gamma   120.26352339
_symmetry_Int_Tables_number   1
_chemical_formula_structural   Lu2Pa(GaNi)3
_chemical_formula_sum   'Lu2 Pa1 Ga3 Ni3'
_cell_volume   155.77808494
_cell_formula_units_Z   1
loop_
 _symmetry_equiv_pos_site_id
 _symmetry_equiv_pos_as_xyz
  1  'x, y, z'
loop_
 _atom_site_type_symbol
 _atom_site_label
 _atom_site_symmetry_multiplicity
 _atom_site_fract_x
 _atom_site_fract_y
 _atom_site_fract_z
 _atom_site_occupancy
  Lu  Lu0  1  0.998110  0.410862  0.500000  1
  Lu  Lu1  1  0.587248  0.589138  0.500000  1
  Pa  Pa2  1  0.418351  0.000000  0.500000  1
  Ga  Ga3  1  0.764100  0.000000  0.000000  1
  Ga  Ga4  1  0.989656  0.742102  0.000000  1
  Ga  Ga5  1  0.247555  0.257898  0.000000  1
  Ni  Ni6  1  0.334406  0.684853  0.000000  1
  Ni  Ni7  1  0.649554  0.315147  0.000000  1
  Ni  Ni8  1  0.011020  0.000000  0.500000  1
