# generated using pymatgen
data_Sr3(NdSn2)2
_symmetry_space_group_name_H-M   'P 1'
_cell_length_a   8.27523900
_cell_length_b   8.80459300
_cell_length_c   16.87800900
_cell_angle_alpha   90.00000000
_cell_angle_beta   90.00000000
_cell_angle_gamma   90.00000000
_symmetry_Int_Tables_number   1
_chemical_formula_structural   Sr3(NdSn2)2
_chemical_formula_sum   'Sr12 Nd8 Sn16'
_cell_volume   1229.73361549
_cell_formula_units_Z   4
loop_
 _symmetry_equiv_pos_site_id
 _symmetry_equiv_pos_as_xyz
  1  'x, y, z'
loop_
 _atom_site_type_symbol
 _atom_site_label
 _atom_site_symmetry_multiplicity
 _atom_site_fract_x
 _atom_site_fract_y
 _atom_site_fract_z
 _atom_site_occupancy
  Sr  Sr0  1  0.505699  0.682191  0.592823  1
  Sr  Sr1  1  0.005699  0.817809  0.907177  1
  Sr  Sr2  1  0.494301  0.317809  0.092823  1
  Sr  Sr3  1  0.994301  0.182191  0.407177  1
  Sr  Sr4  1  0.494301  0.317809  0.407177  1
  Sr  Sr5  1  0.994301  0.182191  0.092823  1
  Sr  Sr6  1  0.505699  0.682191  0.907177  1
  Sr  Sr7  1  0.005699  0.817809  0.592823  1
  Sr  Sr8  1  0.832640  0.515746  0.750000  1
  Sr  Sr9  1  0.332640  0.984254  0.750000  1
  Sr  Sr10  1  0.167360  0.484254  0.250000  1
  Sr  Sr11  1  0.667360  0.015746  0.250000  1
  Nd  Nd12  1  0.672723  0.170960  0.621690  1
  Nd  Nd13  1  0.172723  0.329040  0.878310  1
  Nd  Nd14  1  0.327277  0.829040  0.121690  1
  Nd  Nd15  1  0.827277  0.670960  0.378310  1
  Nd  Nd16  1  0.327277  0.829040  0.378310  1
  Nd  Nd17  1  0.827277  0.670960  0.121690  1
  Nd  Nd18  1  0.672723  0.170960  0.878310  1
  Nd  Nd19  1  0.172723  0.329040  0.621690  1
  Sn  Sn20  1  0.661360  0.959677  0.461889  1
  Sn  Sn21  1  0.161360  0.540323  0.038111  1
  Sn  Sn22  1  0.338640  0.040323  0.961889  1
  Sn  Sn23  1  0.838640  0.459677  0.538111  1
  Sn  Sn24  1  0.338640  0.040323  0.538111  1
  Sn  Sn25  1  0.838640  0.459677  0.961889  1
  Sn  Sn26  1  0.661360  0.959677  0.038111  1
  Sn  Sn27  1  0.161360  0.540323  0.461889  1
  Sn  Sn28  1  0.463941  0.370312  0.750000  1
  Sn  Sn29  1  0.963941  0.129688  0.750000  1
  Sn  Sn30  1  0.536059  0.629688  0.250000  1
  Sn  Sn31  1  0.036059  0.870312  0.250000  1
  Sn  Sn32  1  0.721198  0.887158  0.750000  1
  Sn  Sn33  1  0.221198  0.612842  0.750000  1
  Sn  Sn34  1  0.278802  0.112842  0.250000  1
  Sn  Sn35  1  0.778802  0.387158  0.250000  1
