# generated using pymatgen
data_Dy7HoTa11TiSi16
_symmetry_space_group_name_H-M   'P 1'
_cell_length_a   7.04258603
_cell_length_b   7.03885881
_cell_length_c   12.98499000
_cell_angle_alpha   89.96166833
_cell_angle_beta   90.00580854
_cell_angle_gamma   89.98741089
_symmetry_Int_Tables_number   1
_chemical_formula_structural   Dy7HoTa11TiSi16
_chemical_formula_sum   'Dy7 Ho1 Ta11 Ti1 Si16'
_cell_volume   643.68875803
_cell_formula_units_Z   1
loop_
 _symmetry_equiv_pos_site_id
 _symmetry_equiv_pos_as_xyz
  1  'x, y, z'
loop_
 _atom_site_type_symbol
 _atom_site_label
 _atom_site_symmetry_multiplicity
 _atom_site_fract_x
 _atom_site_fract_y
 _atom_site_fract_z
 _atom_site_occupancy
  Dy  Dy0  1  0.342237  0.002218  0.467686  1
  Dy  Dy1  1  0.497946  0.842138  0.717870  1
  Dy  Dy2  1  0.502205  0.158265  0.218094  1
  Dy  Dy3  1  0.841632  0.497617  0.281948  1
  Dy  Dy4  1  0.157825  0.502084  0.782360  1
  Dy  Dy5  1  0.658476  0.997081  0.967869  1
  Dy  Dy6  1  0.002874  0.341489  0.532205  1
  Ho  Ho7  1  0.997500  0.658911  0.031948  1
  Ta  Ta8  1  0.328433  0.328867  0.999819  1
  Ta  Ta9  1  0.171486  0.828090  0.249991  1
  Ta  Ta10  1  0.827146  0.172841  0.750047  1
  Ta  Ta11  1  0.671170  0.671282  0.499829  1
  Ta  Ta12  1  0.152021  0.006726  0.873735  1
  Ta  Ta13  1  0.492793  0.652506  0.124491  1
  Ta  Ta14  1  0.507373  0.347296  0.624202  1
  Ta  Ta15  1  0.652969  0.491667  0.876045  1
  Ta  Ta16  1  0.347988  0.507456  0.375629  1
  Ta  Ta17  1  0.846471  0.991946  0.373787  1
  Ta  Ta18  1  0.007795  0.152673  0.126090  1
  Ti  Ti19  1  0.992614  0.846430  0.626407  1
  Si  Si20  1  0.202317  0.132061  0.682047  1
  Si  Si21  1  0.365882  0.704006  0.931838  1
  Si  Si22  1  0.634397  0.296272  0.432442  1
  Si  Si23  1  0.703640  0.366054  0.068143  1
  Si  Si24  1  0.295720  0.635178  0.567993  1
  Si  Si25  1  0.796647  0.865572  0.181602  1
  Si  Si26  1  0.134156  0.203544  0.318376  1
  Si  Si27  1  0.865759  0.797260  0.817184  1
  Si  Si28  1  0.294139  0.953994  0.063684  1
  Si  Si29  1  0.545696  0.794346  0.313999  1
  Si  Si30  1  0.453510  0.205981  0.813677  1
  Si  Si31  1  0.795380  0.547471  0.685205  1
  Si  Si32  1  0.205632  0.454350  0.186022  1
  Si  Si33  1  0.708489  0.044954  0.564469  1
  Si  Si34  1  0.954140  0.294624  0.936116  1
  Si  Si35  1  0.045537  0.706753  0.437150  1
