# generated using pymatgen
data_YbTm2Lu(B4Ru)4
_symmetry_space_group_name_H-M   'P 1'
_cell_length_a   3.52486300
_cell_length_b   5.93069723
_cell_length_c   11.45795934
_cell_angle_alpha   89.94559443
_cell_angle_beta   90.00000000
_cell_angle_gamma   90.00000000
_symmetry_Int_Tables_number   1
_chemical_formula_structural   YbTm2Lu(B4Ru)4
_chemical_formula_sum   'Yb1 Tm2 Lu1 B16 Ru4'
_cell_volume   239.52733179
_cell_formula_units_Z   1
loop_
 _symmetry_equiv_pos_site_id
 _symmetry_equiv_pos_as_xyz
  1  'x, y, z'
loop_
 _atom_site_type_symbol
 _atom_site_label
 _atom_site_symmetry_multiplicity
 _atom_site_fract_x
 _atom_site_fract_y
 _atom_site_fract_z
 _atom_site_occupancy
  Yb  Yb0  1  0.500000  0.870089  0.649547  1
  Tm  Tm1  1  0.500000  0.628581  0.150009  1
  Tm  Tm2  1  0.500000  0.370710  0.848944  1
  Lu  Lu3  1  0.500000  0.128802  0.351079  1
  B  B4  1  0.000000  0.976599  0.192834  1
  B  B5  1  0.000000  0.024838  0.808148  1
  B  B6  1  0.000000  0.475400  0.307558  1
  B  B7  1  0.000000  0.523365  0.691852  1
  B  B8  1  0.000000  0.791170  0.314494  1
  B  B9  1  0.000000  0.210984  0.685554  1
  B  B10  1  0.000000  0.290096  0.186276  1
  B  B11  1  0.000000  0.710755  0.814286  1
  B  B12  1  0.000000  0.864643  0.469215  1
  B  B13  1  0.000000  0.135111  0.529710  1
  B  B14  1  0.000000  0.364584  0.030456  1
  B  B15  1  0.000000  0.635052  0.970244  1
  B  B16  1  0.000000  0.887205  0.047650  1
  B  B17  1  0.000000  0.112337  0.953043  1
  B  B18  1  0.000000  0.386964  0.452745  1
  B  B19  1  0.000000  0.613036  0.546702  1
  Ru  Ru20  1  0.500000  0.640243  0.406565  1
  Ru  Ru21  1  0.500000  0.359963  0.590859  1
  Ru  Ru22  1  0.500000  0.141063  0.093135  1
  Ru  Ru23  1  0.500000  0.858413  0.909095  1
