# generated using pymatgen
data_HoLuTcB8Rh
_symmetry_space_group_name_H-M   'P 1'
_cell_length_a   3.56152300
_cell_length_b   5.93280238
_cell_length_c   11.49845970
_cell_angle_alpha   90.17476748
_cell_angle_beta   90.00000000
_cell_angle_gamma   90.00000000
_symmetry_Int_Tables_number   1
_chemical_formula_structural   HoLuTcB8Rh
_chemical_formula_sum   'Ho2 Lu2 Tc2 B16 Rh2'
_cell_volume   242.95916292
_cell_formula_units_Z   2
loop_
 _symmetry_equiv_pos_site_id
 _symmetry_equiv_pos_as_xyz
  1  'x, y, z'
loop_
 _atom_site_type_symbol
 _atom_site_label
 _atom_site_symmetry_multiplicity
 _atom_site_fract_x
 _atom_site_fract_y
 _atom_site_fract_z
 _atom_site_occupancy
  Ho  Ho0  1  0.500000  0.370833  0.149231  1
  Ho  Ho1  1  0.500000  0.629167  0.850769  1
  Lu  Lu2  1  0.500000  0.129980  0.648098  1
  Lu  Lu3  1  0.500000  0.870020  0.351902  1
  Tc  Tc4  1  0.500000  0.364227  0.411092  1
  Tc  Tc5  1  0.500000  0.635773  0.588908  1
  B  B6  1  0.000000  0.112261  0.048207  1
  B  B7  1  0.000000  0.887739  0.951793  1
  B  B8  1  0.000000  0.386494  0.547067  1
  B  B9  1  0.000000  0.613506  0.452933  1
  B  B10  1  0.000000  0.134313  0.469728  1
  B  B11  1  0.000000  0.865687  0.530272  1
  B  B12  1  0.000000  0.363636  0.969691  1
  B  B13  1  0.000000  0.636364  0.030309  1
  B  B14  1  0.000000  0.021032  0.194420  1
  B  B15  1  0.000000  0.978968  0.805580  1
  B  B16  1  0.000000  0.476242  0.692352  1
  B  B17  1  0.000000  0.523758  0.307648  1
  B  B18  1  0.000000  0.208567  0.314781  1
  B  B19  1  0.000000  0.791433  0.685219  1
  B  B20  1  0.000000  0.290194  0.813004  1
  B  B21  1  0.000000  0.709806  0.186996  1
  Rh  Rh22  1  0.500000  0.140669  0.904792  1
  Rh  Rh23  1  0.500000  0.859331  0.095208  1
