# generated using pymatgen
data_CsNdZr6CBr18
_symmetry_space_group_name_H-M   'P 1'
_cell_length_a   10.24673500
_cell_length_b   10.24673541
_cell_length_c   19.14565000
_cell_angle_alpha   90.00000000
_cell_angle_beta   90.00000000
_cell_angle_gamma   120.00000191
_symmetry_Int_Tables_number   1
_chemical_formula_structural   CsNdZr6CBr18
_chemical_formula_sum   'Cs2 Nd2 Zr12 C2 Br36'
_cell_volume   1740.89174284
_cell_formula_units_Z   2
loop_
 _symmetry_equiv_pos_site_id
 _symmetry_equiv_pos_as_xyz
  1  'x, y, z'
loop_
 _atom_site_type_symbol
 _atom_site_label
 _atom_site_symmetry_multiplicity
 _atom_site_fract_x
 _atom_site_fract_y
 _atom_site_fract_z
 _atom_site_occupancy
  Cs  Cs0  1  0.333333  0.666667  0.750000  1
  Cs  Cs1  1  0.666667  0.333333  0.250000  1
  Nd  Nd2  1  0.666667  0.333333  0.750000  1
  Nd  Nd3  1  0.333333  0.666667  0.250000  1
  Zr  Zr4  1  0.837835  0.038868  0.569563  1
  Zr  Zr5  1  0.162165  0.961132  0.430437  1
  Zr  Zr6  1  0.961132  0.798967  0.569563  1
  Zr  Zr7  1  0.837835  0.798967  0.930437  1
  Zr  Zr8  1  0.038868  0.201033  0.430437  1
  Zr  Zr9  1  0.162165  0.201033  0.069563  1
  Zr  Zr10  1  0.201033  0.162165  0.569563  1
  Zr  Zr11  1  0.961132  0.162165  0.930437  1
  Zr  Zr12  1  0.798967  0.837835  0.430437  1
  Zr  Zr13  1  0.038868  0.837835  0.069563  1
  Zr  Zr14  1  0.201033  0.038868  0.930437  1
  Zr  Zr15  1  0.798967  0.961132  0.069563  1
  C  C16  1  0.000000  0.000000  0.500000  1
  C  C17  1  0.000000  0.000000  0.000000  1
  Br  Br18  1  0.274017  0.418524  0.500819  1
  Br  Br19  1  0.725983  0.581476  0.499181  1
  Br  Br20  1  0.581476  0.855493  0.500819  1
  Br  Br21  1  0.274017  0.855493  0.999181  1
  Br  Br22  1  0.418524  0.144507  0.499181  1
  Br  Br23  1  0.725983  0.144507  0.000819  1
  Br  Br24  1  0.144507  0.725983  0.500819  1
  Br  Br25  1  0.581476  0.725983  0.999181  1
  Br  Br26  1  0.855493  0.274017  0.499181  1
  Br  Br27  1  0.418524  0.274017  0.000819  1
  Br  Br28  1  0.144507  0.418524  0.999181  1
  Br  Br29  1  0.855493  0.581476  0.000819  1
  Br  Br30  1  0.044305  0.231730  0.660248  1
  Br  Br31  1  0.955695  0.768270  0.339752  1
  Br  Br32  1  0.768270  0.812575  0.660248  1
  Br  Br33  1  0.044305  0.812575  0.839752  1
  Br  Br34  1  0.231730  0.187425  0.339752  1
  Br  Br35  1  0.955695  0.187425  0.160248  1
  Br  Br36  1  0.187425  0.955695  0.660248  1
  Br  Br37  1  0.768270  0.955695  0.839752  1
  Br  Br38  1  0.812575  0.044305  0.339752  1
  Br  Br39  1  0.231730  0.044305  0.160248  1
  Br  Br40  1  0.187425  0.231730  0.839752  1
  Br  Br41  1  0.812575  0.768270  0.160248  1
  Br  Br42  1  0.633263  0.083655  0.662315  1
  Br  Br43  1  0.366737  0.916345  0.337685  1
  Br  Br44  1  0.916345  0.549608  0.662315  1
  Br  Br45  1  0.633263  0.549608  0.837685  1
  Br  Br46  1  0.083655  0.450392  0.337685  1
  Br  Br47  1  0.366737  0.450392  0.162315  1
  Br  Br48  1  0.450392  0.366737  0.662315  1
  Br  Br49  1  0.916345  0.366737  0.837685  1
  Br  Br50  1  0.549608  0.633263  0.337685  1
  Br  Br51  1  0.083655  0.633263  0.162315  1
  Br  Br52  1  0.450392  0.083655  0.837685  1
  Br  Br53  1  0.549608  0.916345  0.162315  1
