# generated using pymatgen
data_HoEr3Ga17SiIr6
_symmetry_space_group_name_H-M   'P 1'
_cell_length_a   7.56548421
_cell_length_b   7.54732730
_cell_length_c   9.46004303
_cell_angle_alpha   90.07223162
_cell_angle_beta   89.77563392
_cell_angle_gamma   119.85376678
_symmetry_Int_Tables_number   1
_chemical_formula_structural   HoEr3Ga17SiIr6
_chemical_formula_sum   'Ho1 Er3 Ga17 Si1 Ir6'
_cell_volume   468.47698247
_cell_formula_units_Z   1
loop_
 _symmetry_equiv_pos_site_id
 _symmetry_equiv_pos_as_xyz
  1  'x, y, z'
loop_
 _atom_site_type_symbol
 _atom_site_label
 _atom_site_symmetry_multiplicity
 _atom_site_fract_x
 _atom_site_fract_y
 _atom_site_fract_z
 _atom_site_occupancy
  Ho  Ho0  1  0.329068  0.001783  0.749083  1
  Er  Er1  1  0.997466  0.664414  0.248046  1
  Er  Er2  1  0.002070  0.330393  0.751395  1
  Er  Er3  1  0.675899  0.004188  0.248149  1
  Ga  Ga4  1  0.130442  0.129284  0.250792  1
  Ga  Ga5  1  0.871710  0.874054  0.750836  1
  Ga  Ga6  1  0.998549  0.670654  0.917141  1
  Ga  Ga7  1  0.000076  0.665239  0.580554  1
  Ga  Ga8  1  0.334169  0.997391  0.418460  1
  Ga  Ga9  1  0.000415  0.335075  0.420340  1
  Ga  Ga10  1  0.664937  0.000236  0.580643  1
  Ga  Ga11  1  0.657509  0.994601  0.917236  1
  Ga  Ga12  1  0.333726  0.997382  0.081848  1
  Ga  Ga13  1  0.332166  0.331315  0.565011  1
  Ga  Ga14  1  0.669627  0.670058  0.433765  1
  Ga  Ga15  1  0.668569  0.670243  0.068954  1
  Ga  Ga16  1  0.338095  0.332251  0.933413  1
  Ga  Ga17  1  0.341952  0.547921  0.251707  1
  Ga  Ga18  1  0.661090  0.451323  0.751168  1
  Ga  Ga19  1  0.547690  0.339537  0.250851  1
  Ga  Ga20  1  0.450901  0.658106  0.750553  1
  Si  Si21  1  0.999712  0.334675  0.072724  1
  Ir  Ir22  1  0.683883  0.329492  0.003574  1
  Ir  Ir23  1  0.312720  0.656496  0.001710  1
  Ir  Ir24  1  0.328141  0.671211  0.500736  1
  Ir  Ir25  1  0.671741  0.328241  0.500058  1
  Ir  Ir26  1  0.997983  0.014293  0.001393  1
  Ir  Ir27  1  0.999696  0.000143  0.499861  1
