# generated using pymatgen
data_Hf5Zr3Co2(PdN)2
_symmetry_space_group_name_H-M   'P 1'
_cell_length_a   8.66472938
_cell_length_b   8.66473066
_cell_length_c   8.66473100
_cell_angle_alpha   59.99999487
_cell_angle_beta   59.99998999
_cell_angle_gamma   60.00000262
_symmetry_Int_Tables_number   1
_chemical_formula_structural   Hf5Zr3Co2(PdN)2
_chemical_formula_sum   'Hf10 Zr6 Co4 Pd4 N4'
_cell_volume   459.99182742
_cell_formula_units_Z   2
loop_
 _symmetry_equiv_pos_site_id
 _symmetry_equiv_pos_as_xyz
  1  'x, y, z'
loop_
 _atom_site_type_symbol
 _atom_site_label
 _atom_site_symmetry_multiplicity
 _atom_site_fract_x
 _atom_site_fract_y
 _atom_site_fract_z
 _atom_site_occupancy
  Hf  Hf0  1  0.082363  0.639212  0.639212  1
  Hf  Hf1  1  0.639212  0.082363  0.639212  1
  Hf  Hf2  1  0.639212  0.639212  0.082363  1
  Hf  Hf3  1  0.639212  0.639212  0.639212  1
  Hf  Hf4  1  0.817847  0.817847  0.182153  1
  Hf  Hf5  1  0.182153  0.182153  0.817847  1
  Hf  Hf6  1  0.817847  0.182153  0.817847  1
  Hf  Hf7  1  0.182153  0.817847  0.182153  1
  Hf  Hf8  1  0.182153  0.817847  0.817847  1
  Hf  Hf9  1  0.817847  0.182153  0.182153  1
  Zr  Zr10  1  0.435222  0.435222  0.064778  1
  Zr  Zr11  1  0.064778  0.064778  0.435222  1
  Zr  Zr12  1  0.435222  0.064778  0.435222  1
  Zr  Zr13  1  0.064778  0.435222  0.064778  1
  Zr  Zr14  1  0.064778  0.435222  0.435222  1
  Zr  Zr15  1  0.435222  0.064778  0.064778  1
  Co  Co16  1  0.449436  0.850188  0.850188  1
  Co  Co17  1  0.850188  0.449436  0.850188  1
  Co  Co18  1  0.850188  0.850188  0.449436  1
  Co  Co19  1  0.850188  0.850188  0.850188  1
  Pd  Pd20  1  0.750717  0.416427  0.416427  1
  Pd  Pd21  1  0.416427  0.750717  0.416427  1
  Pd  Pd22  1  0.416427  0.416427  0.750717  1
  Pd  Pd23  1  0.416427  0.416427  0.416427  1
  N  N24  1  0.630093  0.123302  0.123302  1
  N  N25  1  0.123302  0.630093  0.123302  1
  N  N26  1  0.123302  0.123302  0.630093  1
  N  N27  1  0.123302  0.123302  0.123302  1
