# generated using pymatgen
data_Pr6Sc(MnC4)3
_symmetry_space_group_name_H-M   'P 1'
_cell_length_a   8.42125200
_cell_length_b   8.42125122
_cell_length_c   5.30325600
_cell_angle_alpha   90.00000000
_cell_angle_beta   90.00000000
_cell_angle_gamma   119.99998628
_symmetry_Int_Tables_number   1
_chemical_formula_structural   Pr6Sc(MnC4)3
_chemical_formula_sum   'Pr6 Sc1 Mn3 C12'
_cell_volume   325.70660876
_cell_formula_units_Z   1
loop_
 _symmetry_equiv_pos_site_id
 _symmetry_equiv_pos_as_xyz
  1  'x, y, z'
loop_
 _atom_site_type_symbol
 _atom_site_label
 _atom_site_symmetry_multiplicity
 _atom_site_fract_x
 _atom_site_fract_y
 _atom_site_fract_z
 _atom_site_occupancy
  Pr  Pr0  1  0.611444  0.682183  0.748833  1
  Pr  Pr1  1  0.929260  0.611444  0.251167  1
  Pr  Pr2  1  0.682183  0.070740  0.251167  1
  Pr  Pr3  1  0.317817  0.929260  0.748833  1
  Pr  Pr4  1  0.070740  0.388556  0.748833  1
  Pr  Pr5  1  0.388556  0.317817  0.251167  1
  Sc  Sc6  1  0.000000  0.000000  0.500000  1
  Mn  Mn7  1  0.000000  0.000000  0.000000  1
  Mn  Mn8  1  0.666667  0.333333  0.751123  1
  Mn  Mn9  1  0.333333  0.666667  0.248877  1
  C  C10  1  0.956087  0.758954  0.761362  1
  C  C11  1  0.197134  0.956087  0.238638  1
  C  C12  1  0.758954  0.802866  0.238638  1
  C  C13  1  0.241046  0.197134  0.761362  1
  C  C14  1  0.802866  0.043913  0.761362  1
  C  C15  1  0.043913  0.241046  0.238638  1
  C  C16  1  0.853086  0.572108  0.759182  1
  C  C17  1  0.280977  0.853086  0.240818  1
  C  C18  1  0.572108  0.719023  0.240818  1
  C  C19  1  0.427892  0.280977  0.759182  1
  C  C20  1  0.146914  0.427892  0.240818  1
  C  C21  1  0.719023  0.146914  0.759182  1
