# generated using pymatgen
data_Cs2RbMnVBr9
_symmetry_space_group_name_H-M   'P 1'
_cell_length_a   7.65706229
_cell_length_b   7.65213605
_cell_length_c   19.50098769
_cell_angle_alpha   90.01016086
_cell_angle_beta   89.96969201
_cell_angle_gamma   119.97450845
_symmetry_Int_Tables_number   1
_chemical_formula_structural   Cs2RbMnVBr9
_chemical_formula_sum   'Cs4 Rb2 Mn2 V2 Br18'
_cell_volume   989.79108867
_cell_formula_units_Z   2
loop_
 _symmetry_equiv_pos_site_id
 _symmetry_equiv_pos_as_xyz
  1  'x, y, z'
loop_
 _atom_site_type_symbol
 _atom_site_label
 _atom_site_symmetry_multiplicity
 _atom_site_fract_x
 _atom_site_fract_y
 _atom_site_fract_z
 _atom_site_occupancy
  Cs  Cs0  1  0.666715  0.333334  0.569840  1
  Cs  Cs1  1  0.333355  0.666581  0.071552  1
  Cs  Cs2  1  0.333285  0.666666  0.430160  1
  Cs  Cs3  1  0.666645  0.333419  0.928448  1
  Rb  Rb4  1  0.000069  0.999947  0.251731  1
  Rb  Rb5  1  0.999931  0.000053  0.748269  1
  Mn  Mn6  1  0.333583  0.666712  0.658965  1
  Mn  Mn7  1  0.666417  0.333288  0.341035  1
  V  V8  1  0.333388  0.666437  0.836115  1
  V  V9  1  0.666612  0.333563  0.163885  1
  Br  Br10  1  0.828988  0.657621  0.404907  1
  Br  Br11  1  0.171241  0.828771  0.595059  1
  Br  Br12  1  0.657321  0.828746  0.595092  1
  Br  Br13  1  0.828759  0.171229  0.404941  1
  Br  Br14  1  0.342679  0.171254  0.404908  1
  Br  Br15  1  0.175490  0.351161  0.905608  1
  Br  Br16  1  0.030002  0.514963  0.752730  1
  Br  Br17  1  0.648802  0.824467  0.905632  1
  Br  Br18  1  0.824510  0.648839  0.094392  1
  Br  Br19  1  0.171012  0.342379  0.595093  1
  Br  Br20  1  0.484897  0.969764  0.752703  1
  Br  Br21  1  0.515416  0.484948  0.247108  1
  Br  Br22  1  0.484584  0.515052  0.752892  1
  Br  Br23  1  0.175811  0.824362  0.905594  1
  Br  Br24  1  0.351198  0.175533  0.094368  1
  Br  Br25  1  0.969998  0.485037  0.247270  1
  Br  Br26  1  0.515103  0.030236  0.247297  1
  Br  Br27  1  0.824189  0.175638  0.094406  1
