# generated using pymatgen
data_Mg3InGa2(B2Rh5)2
_symmetry_space_group_name_H-M   'P 1'
_cell_length_a   9.47624907
_cell_length_b   9.47624907
_cell_length_c   2.94705600
_cell_angle_alpha   90.00000000
_cell_angle_beta   90.00000000
_cell_angle_gamma   90.43751987
_symmetry_Int_Tables_number   1
_chemical_formula_structural   Mg3InGa2(B2Rh5)2
_chemical_formula_sum   'Mg3 In1 Ga2 B4 Rh10'
_cell_volume   264.63583965
_cell_formula_units_Z   1
loop_
 _symmetry_equiv_pos_site_id
 _symmetry_equiv_pos_as_xyz
  1  'x, y, z'
loop_
 _atom_site_type_symbol
 _atom_site_label
 _atom_site_symmetry_multiplicity
 _atom_site_fract_x
 _atom_site_fract_y
 _atom_site_fract_z
 _atom_site_occupancy
  Mg  Mg0  1  0.824444  0.325082  0.000000  1
  Mg  Mg1  1  0.174917  0.675558  0.000000  1
  Mg  Mg2  1  0.676248  0.823754  0.000000  1
  In  In3  1  0.323268  0.176731  0.000000  1
  Ga  Ga4  1  0.998452  0.997877  0.000000  1
  Ga  Ga5  1  0.502123  0.501548  0.000000  1
  B  B6  1  0.631715  0.124636  0.000000  1
  B  B7  1  0.119344  0.380655  0.000000  1
  B  B8  1  0.872502  0.627499  0.000000  1
  B  B9  1  0.375363  0.868286  0.000000  1
  Rh  Rh10  1  0.500515  0.999485  0.499998  1
  Rh  Rh11  1  0.786004  0.072320  0.499998  1
  Rh  Rh12  1  0.070785  0.215959  0.499998  1
  Rh  Rh13  1  0.572464  0.283887  0.499998  1
  Rh  Rh14  1  0.284041  0.429217  0.499998  1
  Rh  Rh15  1  0.999043  0.500957  0.499998  1
  Rh  Rh16  1  0.715928  0.570949  0.499998  1
  Rh  Rh17  1  0.427682  0.713997  0.499998  1
  Rh  Rh18  1  0.929051  0.784073  0.499998  1
  Rh  Rh19  1  0.216113  0.927536  0.499998  1
