# generated using pymatgen
data_TbY3Fe4(Co4P3)4
_symmetry_space_group_name_H-M   'P 1'
_cell_length_a   3.66460300
_cell_length_b   10.27010600
_cell_length_c   11.78753900
_cell_angle_alpha   90.00138416
_cell_angle_beta   90.00000000
_cell_angle_gamma   90.00000000
_symmetry_Int_Tables_number   1
_chemical_formula_structural   TbY3Fe4(Co4P3)4
_chemical_formula_sum   'Tb1 Y3 Fe4 Co16 P12'
_cell_volume   443.63418231
_cell_formula_units_Z   1
loop_
 _symmetry_equiv_pos_site_id
 _symmetry_equiv_pos_as_xyz
  1  'x, y, z'
loop_
 _atom_site_type_symbol
 _atom_site_label
 _atom_site_symmetry_multiplicity
 _atom_site_fract_x
 _atom_site_fract_y
 _atom_site_fract_z
 _atom_site_occupancy
  Tb  Tb0  1  0.750000  0.081303  0.797002  1
  Y  Y1  1  0.250000  0.581476  0.703192  1
  Y  Y2  1  0.250000  0.918545  0.203015  1
  Y  Y3  1  0.750000  0.418580  0.296825  1
  Fe  Fe4  1  0.250000  0.709697  0.987486  1
  Fe  Fe5  1  0.250000  0.790280  0.487364  1
  Fe  Fe6  1  0.750000  0.290248  0.012639  1
  Fe  Fe7  1  0.750000  0.209696  0.512643  1
  Co  Co8  1  0.250000  0.405827  0.487517  1
  Co  Co9  1  0.250000  0.094084  0.987708  1
  Co  Co10  1  0.750000  0.594243  0.512442  1
  Co  Co11  1  0.750000  0.905718  0.012456  1
  Co  Co12  1  0.250000  0.221517  0.176397  1
  Co  Co13  1  0.250000  0.278636  0.676403  1
  Co  Co14  1  0.750000  0.778432  0.823662  1
  Co  Co15  1  0.750000  0.721512  0.323558  1
  Co  Co16  1  0.250000  0.881802  0.698019  1
  Co  Co17  1  0.250000  0.618058  0.198089  1
  Co  Co18  1  0.750000  0.118038  0.301840  1
  Co  Co19  1  0.750000  0.382126  0.802001  1
  Co  Co20  1  0.250000  0.466796  0.933145  1
  Co  Co21  1  0.250000  0.033376  0.432947  1
  Co  Co22  1  0.750000  0.533422  0.066941  1
  Co  Co23  1  0.750000  0.966517  0.566787  1
  P  P24  1  0.250000  0.419134  0.112858  1
  P  P25  1  0.250000  0.080861  0.612701  1
  P  P26  1  0.750000  0.580887  0.887172  1
  P  P27  1  0.750000  0.919147  0.387016  1
  P  P28  1  0.250000  0.270319  0.868406  1
  P  P29  1  0.250000  0.230016  0.368306  1
  P  P30  1  0.750000  0.730013  0.131680  1
  P  P31  1  0.750000  0.770008  0.631726  1
  P  P32  1  0.250000  0.602581  0.392449  1
  P  P33  1  0.250000  0.897176  0.892551  1
  P  P34  1  0.750000  0.397435  0.607594  1
  P  P35  1  0.750000  0.102494  0.107468  1
