# generated using pymatgen
data_Ho8Cd2NiRu
_symmetry_space_group_name_H-M   'P 1'
_cell_length_a   9.53505033
_cell_length_b   9.53505028
_cell_length_c   9.59371500
_cell_angle_alpha   59.79626972
_cell_angle_beta   59.79626991
_cell_angle_gamma   59.59384801
_symmetry_Int_Tables_number   1
_chemical_formula_structural   Ho8Cd2NiRu
_chemical_formula_sum   'Ho16 Cd4 Ni2 Ru2'
_cell_volume   612.95831451
_cell_formula_units_Z   2
loop_
 _symmetry_equiv_pos_site_id
 _symmetry_equiv_pos_as_xyz
  1  'x, y, z'
loop_
 _atom_site_type_symbol
 _atom_site_label
 _atom_site_symmetry_multiplicity
 _atom_site_fract_x
 _atom_site_fract_y
 _atom_site_fract_z
 _atom_site_occupancy
  Ho  Ho0  1  0.349309  0.349309  0.343668  1
  Ho  Ho1  1  0.349309  0.349309  0.957713  1
  Ho  Ho2  1  0.351809  0.955085  0.346552  1
  Ho  Ho3  1  0.955085  0.351809  0.346552  1
  Ho  Ho4  1  0.811192  0.186864  0.189314  1
  Ho  Ho5  1  0.186864  0.811192  0.812631  1
  Ho  Ho6  1  0.186864  0.811192  0.189314  1
  Ho  Ho7  1  0.811192  0.186864  0.812631  1
  Ho  Ho8  1  0.187855  0.187855  0.812145  1
  Ho  Ho9  1  0.810904  0.810904  0.189096  1
  Ho  Ho10  1  0.937846  0.559450  0.566114  1
  Ho  Ho11  1  0.559450  0.937846  0.936590  1
  Ho  Ho12  1  0.559450  0.937846  0.566114  1
  Ho  Ho13  1  0.937846  0.559450  0.936590  1
  Ho  Ho14  1  0.565327  0.565327  0.934673  1
  Ho  Ho15  1  0.939710  0.939710  0.560290  1
  Cd  Cd16  1  0.579523  0.579523  0.582485  1
  Cd  Cd17  1  0.579523  0.579523  0.258471  1
  Cd  Cd18  1  0.580003  0.256191  0.581903  1
  Cd  Cd19  1  0.256191  0.580003  0.581903  1
  Ni  Ni20  1  0.142593  0.575936  0.140735  1
  Ni  Ni21  1  0.575936  0.142593  0.140735  1
  Ru  Ru22  1  0.143111  0.143111  0.139578  1
  Ru  Ru23  1  0.143111  0.143111  0.574201  1
