# generated using pymatgen
data_YbFeCo3P3Ru
_symmetry_space_group_name_H-M   'P 1'
_cell_length_a   3.64003600
_cell_length_b   10.28870400
_cell_length_c   11.58139300
_cell_angle_alpha   90.00000000
_cell_angle_beta   90.00000000
_cell_angle_gamma   90.00000000
_symmetry_Int_Tables_number   1
_chemical_formula_structural   YbFeCo3P3Ru
_chemical_formula_sum   'Yb4 Fe4 Co12 P12 Ru4'
_cell_volume   433.73767880
_cell_formula_units_Z   4
loop_
 _symmetry_equiv_pos_site_id
 _symmetry_equiv_pos_as_xyz
  1  'x, y, z'
loop_
 _atom_site_type_symbol
 _atom_site_label
 _atom_site_symmetry_multiplicity
 _atom_site_fract_x
 _atom_site_fract_y
 _atom_site_fract_z
 _atom_site_occupancy
  Yb  Yb0  1  0.250000  0.584344  0.702888  1
  Yb  Yb1  1  0.250000  0.915656  0.202888  1
  Yb  Yb2  1  0.750000  0.415656  0.297112  1
  Yb  Yb3  1  0.750000  0.084344  0.797112  1
  Fe  Fe4  1  0.250000  0.405672  0.489647  1
  Fe  Fe5  1  0.250000  0.094328  0.989647  1
  Fe  Fe6  1  0.750000  0.594328  0.510353  1
  Fe  Fe7  1  0.750000  0.905672  0.010353  1
  Co  Co8  1  0.250000  0.220991  0.176445  1
  Co  Co9  1  0.250000  0.279010  0.676445  1
  Co  Co10  1  0.750000  0.779010  0.823555  1
  Co  Co11  1  0.750000  0.720990  0.323555  1
  Co  Co12  1  0.250000  0.884935  0.702567  1
  Co  Co13  1  0.250000  0.615065  0.202567  1
  Co  Co14  1  0.750000  0.115065  0.297433  1
  Co  Co15  1  0.750000  0.384935  0.797433  1
  Co  Co16  1  0.250000  0.464005  0.932200  1
  Co  Co17  1  0.250000  0.035995  0.432200  1
  Co  Co18  1  0.750000  0.535995  0.067800  1
  Co  Co19  1  0.750000  0.964005  0.567800  1
  P  P20  1  0.250000  0.421027  0.116474  1
  P  P21  1  0.250000  0.078973  0.616474  1
  P  P22  1  0.750000  0.578973  0.883526  1
  P  P23  1  0.750000  0.921027  0.383526  1
  P  P24  1  0.250000  0.267466  0.866707  1
  P  P25  1  0.250000  0.232534  0.366707  1
  P  P26  1  0.750000  0.732534  0.133293  1
  P  P27  1  0.750000  0.767466  0.633293  1
  P  P28  1  0.250000  0.593217  0.393542  1
  P  P29  1  0.250000  0.906783  0.893542  1
  P  P30  1  0.750000  0.406783  0.606458  1
  P  P31  1  0.750000  0.093217  0.106458  1
  Ru  Ru32  1  0.250000  0.709435  0.986862  1
  Ru  Ru33  1  0.250000  0.790565  0.486862  1
  Ru  Ru34  1  0.750000  0.290565  0.013138  1
  Ru  Ru35  1  0.750000  0.209435  0.513138  1
