# generated using pymatgen
data_DyY3Al12(GaIr)6
_symmetry_space_group_name_H-M   'P 1'
_cell_length_a   7.53812519
_cell_length_b   7.53828844
_cell_length_c   9.59039200
_cell_angle_alpha   90.00000000
_cell_angle_beta   90.00000000
_cell_angle_gamma   119.62194314
_symmetry_Int_Tables_number   1
_chemical_formula_structural   DyY3Al12(GaIr)6
_chemical_formula_sum   'Dy1 Y3 Al12 Ga6 Ir6'
_cell_volume   473.74537246
_cell_formula_units_Z   1
loop_
 _symmetry_equiv_pos_site_id
 _symmetry_equiv_pos_as_xyz
  1  'x, y, z'
loop_
 _atom_site_type_symbol
 _atom_site_label
 _atom_site_symmetry_multiplicity
 _atom_site_fract_x
 _atom_site_fract_y
 _atom_site_fract_z
 _atom_site_occupancy
  Dy  Dy0  1  0.330309  0.003970  0.250000  1
  Y  Y1  1  0.995989  0.669657  0.750000  1
  Y  Y2  1  0.003987  0.330328  0.250000  1
  Y  Y3  1  0.669648  0.995986  0.750000  1
  Al  Al4  1  0.001620  0.334547  0.572708  1
  Al  Al5  1  0.998441  0.665508  0.427223  1
  Al  Al6  1  0.998441  0.665508  0.072777  1
  Al  Al7  1  0.334550  0.001626  0.927345  1
  Al  Al8  1  0.001620  0.334547  0.927292  1
  Al  Al9  1  0.665408  0.998394  0.072777  1
  Al  Al10  1  0.665408  0.998394  0.427223  1
  Al  Al11  1  0.334550  0.001626  0.572655  1
  Al  Al12  1  0.333884  0.333835  0.054502  1
  Al  Al13  1  0.666111  0.666109  0.945562  1
  Al  Al14  1  0.666111  0.666109  0.554438  1
  Al  Al15  1  0.333884  0.333835  0.445498  1
  Ga  Ga16  1  0.127996  0.128001  0.750000  1
  Ga  Ga17  1  0.872119  0.872007  0.250000  1
  Ga  Ga18  1  0.338594  0.546805  0.750000  1
  Ga  Ga19  1  0.661294  0.453057  0.250000  1
  Ga  Ga20  1  0.546815  0.338590  0.750000  1
  Ga  Ga21  1  0.453169  0.661493  0.250000  1
  Ir  Ir22  1  0.671673  0.328270  0.499979  1
  Ir  Ir23  1  0.328306  0.671763  0.499967  1
  Ir  Ir24  1  0.328306  0.671763  0.000033  1
  Ir  Ir25  1  0.671673  0.328270  0.000021  1
  Ir  Ir26  1  0.000047  0.000000  0.499967  1
  Ir  Ir27  1  0.000047  0.000000  0.000033  1
