# generated using pymatgen
data_RbBC7
_symmetry_space_group_name_H-M   'P 1'
_cell_length_a   5.07063300
_cell_length_b   5.07226667
_cell_length_c   5.72131300
_cell_angle_alpha   90.00000000
_cell_angle_beta   90.00000000
_cell_angle_gamma   119.98935282
_symmetry_Int_Tables_number   1
_chemical_formula_structural   RbBC7
_chemical_formula_sum   'Rb1 B1 C7'
_cell_volume   127.44921961
_cell_formula_units_Z   1
loop_
 _symmetry_equiv_pos_site_id
 _symmetry_equiv_pos_as_xyz
  1  'x, y, z'
loop_
 _atom_site_type_symbol
 _atom_site_label
 _atom_site_symmetry_multiplicity
 _atom_site_fract_x
 _atom_site_fract_y
 _atom_site_fract_z
 _atom_site_occupancy
  Rb  Rb0  1  0.994961  0.989922  0.500000  1
  B  B1  1  0.167658  0.335317  0.000000  1
  C  C2  1  0.825810  0.164020  0.000000  1
  C  C3  1  0.338212  0.164020  0.000000  1
  C  C4  1  0.665128  0.835985  0.000000  1
  C  C5  1  0.170855  0.835985  0.000000  1
  C  C6  1  0.833681  0.667360  0.000000  1
  C  C7  1  0.338092  0.676186  0.000000  1
  C  C8  1  0.665604  0.331208  0.000000  1
