# generated using pymatgen
data_Ta5BeNb11Co3Te16
_symmetry_space_group_name_H-M   'P 1'
_cell_length_a   4.85536900
_cell_length_b   10.96237807
_cell_length_c   19.16312716
_cell_angle_alpha   89.92776971
_cell_angle_beta   89.99676271
_cell_angle_gamma   89.99851256
_symmetry_Int_Tables_number   1
_chemical_formula_structural   Ta5BeNb11Co3Te16
_chemical_formula_sum   'Ta5 Be1 Nb11 Co3 Te16'
_cell_volume   1019.98328036
_cell_formula_units_Z   1
loop_
 _symmetry_equiv_pos_site_id
 _symmetry_equiv_pos_as_xyz
  1  'x, y, z'
loop_
 _atom_site_type_symbol
 _atom_site_label
 _atom_site_symmetry_multiplicity
 _atom_site_fract_x
 _atom_site_fract_y
 _atom_site_fract_z
 _atom_site_occupancy
  Ta  Ta0  1  0.000238  0.813429  0.944542  1
  Ta  Ta1  1  0.003438  0.404727  0.395974  1
  Ta  Ta2  1  0.003454  0.595283  0.604026  1
  Ta  Ta3  1  0.999083  0.902659  0.106103  1
  Ta  Ta4  1  0.999041  0.096837  0.893755  1
  Be  Be5  1  0.251109  0.499957  0.499971  1
  Nb  Nb6  1  0.494726  0.563075  0.386379  1
  Nb  Nb7  1  0.494758  0.436823  0.613578  1
  Nb  Nb8  1  0.500475  0.064964  0.115358  1
  Nb  Nb9  1  0.500550  0.936121  0.884269  1
  Nb  Nb10  1  0.492325  0.700159  0.535296  1
  Nb  Nb11  1  0.492352  0.299795  0.464694  1
  Nb  Nb12  1  0.499889  0.203382  0.964115  1
  Nb  Nb13  1  0.499816  0.796590  0.036546  1
  Nb  Nb14  1  0.007877  0.685657  0.444310  1
  Nb  Nb15  1  0.007878  0.314271  0.555673  1
  Nb  Nb16  1  0.000196  0.189269  0.056245  1
  Co  Co17  1  0.751686  0.998798  0.999715  1
  Co  Co18  1  0.750506  0.500272  0.500129  1
  Co  Co19  1  0.248239  0.998868  0.999661  1
  Te  Te20  1  0.992236  0.843848  0.561822  1
  Te  Te21  1  0.992295  0.156164  0.438185  1
  Te  Te22  1  0.999724  0.345927  0.936923  1
  Te  Te23  1  0.999631  0.653421  0.062304  1
  Te  Te24  1  0.506748  0.333557  0.317899  1
  Te  Te25  1  0.506922  0.666375  0.682093  1
  Te  Te26  1  0.499542  0.833020  0.183470  1
  Te  Te27  1  0.499458  0.167448  0.816636  1
  Te  Te28  1  0.508864  0.820490  0.404067  1
  Te  Te29  1  0.508819  0.179459  0.595949  1
  Te  Te30  1  0.500147  0.323178  0.096029  1
  Te  Te31  1  0.500208  0.677668  0.904158  1
  Te  Te32  1  0.993684  0.606880  0.303289  1
  Te  Te33  1  0.993633  0.393141  0.696719  1
  Te  Te34  1  0.000223  0.107716  0.197578  1
  Te  Te35  1  0.000231  0.890772  0.802541  1
