# generated using pymatgen
data_Tm3In4NiPt
_symmetry_space_group_name_H-M   'P 1'
_cell_length_a   7.80675500
_cell_length_b   7.80675512
_cell_length_c   3.75414400
_cell_angle_alpha   90.00000000
_cell_angle_beta   90.00000000
_cell_angle_gamma   120.00000373
_symmetry_Int_Tables_number   1
_chemical_formula_structural   Tm3In4NiPt
_chemical_formula_sum   'Tm3 In4 Ni1 Pt1'
_cell_volume   198.14478623
_cell_formula_units_Z   1
loop_
 _symmetry_equiv_pos_site_id
 _symmetry_equiv_pos_as_xyz
  1  'x, y, z'
loop_
 _atom_site_type_symbol
 _atom_site_label
 _atom_site_symmetry_multiplicity
 _atom_site_fract_x
 _atom_site_fract_y
 _atom_site_fract_z
 _atom_site_occupancy
  Tm  Tm0  1  0.301382  0.254406  0.500000  1
  Tm  Tm1  1  0.745594  0.046974  0.500000  1
  Tm  Tm2  1  0.953026  0.698618  0.500000  1
  In  In3  1  0.082376  0.421121  0.000000  1
  In  In4  1  0.578879  0.661254  0.000000  1
  In  In5  1  0.338746  0.917624  0.000000  1
  In  In6  1  0.666667  0.333333  0.000000  1
  Ni  Ni7  1  0.333333  0.666667  0.500000  1
  Pt  Pt8  1  0.000000  0.000000  0.000000  1
