# generated using pymatgen
data_TbYCo9P6Ru
_symmetry_space_group_name_H-M   'P 1'
_cell_length_a   3.67649500
_cell_length_b   10.35300300
_cell_length_c   11.75930300
_cell_angle_alpha   90.00000000
_cell_angle_beta   90.00000000
_cell_angle_gamma   90.00000000
_symmetry_Int_Tables_number   1
_chemical_formula_structural   TbYCo9P6Ru
_chemical_formula_sum   'Tb2 Y2 Co18 P12 Ru2'
_cell_volume   447.59157212
_cell_formula_units_Z   2
loop_
 _symmetry_equiv_pos_site_id
 _symmetry_equiv_pos_as_xyz
  1  'x, y, z'
loop_
 _atom_site_type_symbol
 _atom_site_label
 _atom_site_symmetry_multiplicity
 _atom_site_fract_x
 _atom_site_fract_y
 _atom_site_fract_z
 _atom_site_occupancy
  Tb  Tb0  1  0.250000  0.582573  0.702139  1
  Tb  Tb1  1  0.250000  0.917427  0.202139  1
  Y  Y2  1  0.750000  0.413933  0.295546  1
  Y  Y3  1  0.750000  0.086067  0.795546  1
  Co  Co4  1  0.750000  0.283786  0.009108  1
  Co  Co5  1  0.750000  0.216214  0.509108  1
  Co  Co6  1  0.250000  0.406149  0.488215  1
  Co  Co7  1  0.250000  0.093851  0.988215  1
  Co  Co8  1  0.750000  0.591334  0.509829  1
  Co  Co9  1  0.750000  0.908666  0.009829  1
  Co  Co10  1  0.250000  0.220759  0.176303  1
  Co  Co11  1  0.250000  0.279241  0.676303  1
  Co  Co12  1  0.750000  0.778377  0.823281  1
  Co  Co13  1  0.750000  0.721623  0.323281  1
  Co  Co14  1  0.250000  0.886658  0.701469  1
  Co  Co15  1  0.250000  0.613342  0.201469  1
  Co  Co16  1  0.750000  0.116958  0.301414  1
  Co  Co17  1  0.750000  0.383042  0.801414  1
  Co  Co18  1  0.250000  0.464372  0.932390  1
  Co  Co19  1  0.250000  0.035628  0.432390  1
  Co  Co20  1  0.750000  0.532640  0.068737  1
  Co  Co21  1  0.750000  0.967360  0.568737  1
  P  P22  1  0.250000  0.417139  0.111930  1
  P  P23  1  0.250000  0.082861  0.611930  1
  P  P24  1  0.750000  0.578526  0.887150  1
  P  P25  1  0.750000  0.921474  0.387150  1
  P  P26  1  0.250000  0.270679  0.869239  1
  P  P27  1  0.250000  0.229321  0.369239  1
  P  P28  1  0.750000  0.727870  0.132812  1
  P  P29  1  0.750000  0.772130  0.632812  1
  P  P30  1  0.250000  0.595384  0.390442  1
  P  P31  1  0.250000  0.904616  0.890442  1
  P  P32  1  0.750000  0.396733  0.608546  1
  P  P33  1  0.750000  0.103267  0.108546  1
  Ru  Ru34  1  0.250000  0.714913  0.991452  1
  Ru  Ru35  1  0.250000  0.785087  0.491452  1
