# generated using pymatgen
data_CaNdPa(SnIr)3
_symmetry_space_group_name_H-M   'P 1'
_cell_length_a   7.68266211
_cell_length_b   7.55936005
_cell_length_c   3.97809300
_cell_angle_alpha   90.00000000
_cell_angle_beta   90.00000000
_cell_angle_gamma   120.38557140
_symmetry_Int_Tables_number   1
_chemical_formula_structural   CaNdPa(SnIr)3
_chemical_formula_sum   'Ca1 Nd1 Pa1 Sn3 Ir3'
_cell_volume   199.29749010
_cell_formula_units_Z   1
loop_
 _symmetry_equiv_pos_site_id
 _symmetry_equiv_pos_as_xyz
  1  'x, y, z'
loop_
 _atom_site_type_symbol
 _atom_site_label
 _atom_site_symmetry_multiplicity
 _atom_site_fract_x
 _atom_site_fract_y
 _atom_site_fract_z
 _atom_site_occupancy
  Ca  Ca0  1  0.001966  0.594896  0.000000  1
  Nd  Nd1  1  0.409831  0.407160  0.000000  1
  Pa  Pa2  1  0.586188  0.999339  0.000000  1
  Sn  Sn3  1  0.237972  0.993105  0.500000  1
  Sn  Sn4  1  0.008396  0.270915  0.500000  1
  Sn  Sn5  1  0.749155  0.735499  0.500000  1
  Ir  Ir6  1  0.371498  0.705080  0.500000  1
  Ir  Ir7  1  0.654176  0.290080  0.500000  1
  Ir  Ir8  1  0.980818  0.003928  0.000000  1
