# generated using pymatgen
data_Dy3In3HgIrRh
_symmetry_space_group_name_H-M   'P 1'
_cell_length_a   7.84734000
_cell_length_b   7.84734055
_cell_length_c   3.80606600
_cell_angle_alpha   90.00000000
_cell_angle_beta   90.00000000
_cell_angle_gamma   119.99998927
_symmetry_Int_Tables_number   1
_chemical_formula_structural   Dy3In3HgIrRh
_chemical_formula_sum   'Dy3 In3 Hg1 Ir1 Rh1'
_cell_volume   202.97939938
_cell_formula_units_Z   1
loop_
 _symmetry_equiv_pos_site_id
 _symmetry_equiv_pos_as_xyz
  1  'x, y, z'
loop_
 _atom_site_type_symbol
 _atom_site_label
 _atom_site_symmetry_multiplicity
 _atom_site_fract_x
 _atom_site_fract_y
 _atom_site_fract_z
 _atom_site_occupancy
  Dy  Dy0  1  0.030492  0.612488  0.500000  1
  Dy  Dy1  1  0.581997  0.969508  0.500000  1
  Dy  Dy2  1  0.387512  0.418003  0.500000  1
  In  In3  1  0.002041  0.257030  0.000000  1
  In  In4  1  0.254989  0.997959  0.000000  1
  In  In5  1  0.742970  0.745011  0.000000  1
  Hg  Hg6  1  0.666667  0.333333  0.000000  1
  Ir  Ir7  1  0.333333  0.666667  0.000000  1
  Rh  Rh8  1  0.000000  0.000000  0.500000  1
