# generated using pymatgen
data_TbY3Ru4F28
_symmetry_space_group_name_H-M   'P 1'
_cell_length_a   5.57005307
_cell_length_b   8.94465904
_cell_length_c   11.98714010
_cell_angle_alpha   63.20682617
_cell_angle_beta   90.00086229
_cell_angle_gamma   90.01612822
_symmetry_Int_Tables_number   1
_chemical_formula_structural   TbY3Ru4F28
_chemical_formula_sum   'Tb1 Y3 Ru4 F28'
_cell_volume   533.10750772
_cell_formula_units_Z   1
loop_
 _symmetry_equiv_pos_site_id
 _symmetry_equiv_pos_as_xyz
  1  'x, y, z'
loop_
 _atom_site_type_symbol
 _atom_site_label
 _atom_site_symmetry_multiplicity
 _atom_site_fract_x
 _atom_site_fract_y
 _atom_site_fract_z
 _atom_site_occupancy
  Tb  Tb0  1  0.241645  0.810524  0.768749  1
  Y  Y1  1  0.258543  0.810657  0.268699  1
  Y  Y2  1  0.741473  0.189570  0.731230  1
  Y  Y3  1  0.758489  0.189352  0.231298  1
  Ru  Ru4  1  0.754656  0.726918  0.044868  1
  Ru  Ru5  1  0.245366  0.272885  0.955363  1
  Ru  Ru6  1  0.254632  0.273012  0.455319  1
  Ru  Ru7  1  0.745522  0.726932  0.544438  1
  F  F8  1  0.948854  0.704692  0.418798  1
  F  F9  1  0.051525  0.295354  0.580938  1
  F  F10  1  0.448644  0.295217  0.081027  1
  F  F11  1  0.551446  0.704684  0.919161  1
  F  F12  1  0.468448  0.730806  0.140077  1
  F  F13  1  0.531327  0.269366  0.859959  1
  F  F14  1  0.968577  0.269286  0.359921  1
  F  F15  1  0.031225  0.730693  0.639828  1
  F  F16  1  0.955163  0.749285  0.172590  1
  F  F17  1  0.044776  0.250834  0.827496  1
  F  F18  1  0.455035  0.250787  0.327532  1
  F  F19  1  0.545299  0.748983  0.672242  1
  F  F20  1  0.766272  0.488122  0.140448  1
  F  F21  1  0.233496  0.511681  0.859558  1
  F  F22  1  0.266381  0.511858  0.359499  1
  F  F23  1  0.733530  0.488227  0.640411  1
  F  F24  1  0.953001  0.282995  0.045595  1
  F  F25  1  0.046856  0.716753  0.954718  1
  F  F26  1  0.452837  0.716965  0.454325  1
  F  F27  1  0.547024  0.283113  0.545472  1
  F  F28  1  0.745099  0.964578  0.452062  1
  F  F29  1  0.255002  0.035182  0.548164  1
  F  F30  1  0.245077  0.035239  0.047956  1
  F  F31  1  0.755106  0.964569  0.952297  1
  F  F32  1  0.577966  0.972581  0.232729  1
  F  F33  1  0.422408  0.027922  0.767272  1
  F  F34  1  0.077848  0.027517  0.267269  1
  F  F35  1  0.921454  0.972863  0.732692  1
