# generated using pymatgen
data_Sr12Si15Ge
_symmetry_space_group_name_H-M   'P 1'
_cell_length_a   8.18521275
_cell_length_b   8.18521247
_cell_length_c   11.40904893
_cell_angle_alpha   89.92505100
_cell_angle_beta   89.92504821
_cell_angle_gamma   89.96496221
_symmetry_Int_Tables_number   1
_chemical_formula_structural   Sr12Si15Ge
_chemical_formula_sum   'Sr12 Si15 Ge1'
_cell_volume   764.37865003
_cell_formula_units_Z   1
loop_
 _symmetry_equiv_pos_site_id
 _symmetry_equiv_pos_as_xyz
  1  'x, y, z'
loop_
 _atom_site_type_symbol
 _atom_site_label
 _atom_site_symmetry_multiplicity
 _atom_site_fract_x
 _atom_site_fract_y
 _atom_site_fract_z
 _atom_site_occupancy
  Sr  Sr0  1  0.498068  0.002505  0.750663  1
  Sr  Sr1  1  0.500349  0.999150  0.249656  1
  Sr  Sr2  1  0.002505  0.498068  0.750663  1
  Sr  Sr3  1  0.999150  0.500349  0.249656  1
  Sr  Sr4  1  0.002136  0.002136  0.832629  1
  Sr  Sr5  1  0.498975  0.498975  0.331003  1
  Sr  Sr6  1  0.499319  0.499319  0.668126  1
  Sr  Sr7  1  0.000049  0.000049  0.168555  1
  Sr  Sr8  1  0.666286  0.666286  0.998782  1
  Sr  Sr9  1  0.834568  0.165636  0.498441  1
  Sr  Sr10  1  0.165636  0.834568  0.498441  1
  Sr  Sr11  1  0.336836  0.336836  0.002383  1
  Si  Si12  1  0.195919  0.195919  0.646651  1
  Si  Si13  1  0.801815  0.801815  0.350618  1
  Si  Si14  1  0.301558  0.698047  0.150047  1
  Si  Si15  1  0.698047  0.301558  0.150047  1
  Si  Si16  1  0.697964  0.302954  0.851091  1
  Si  Si17  1  0.302954  0.697964  0.851091  1
  Si  Si18  1  0.198498  0.198498  0.349402  1
  Si  Si19  1  0.699356  0.090935  0.000162  1
  Si  Si20  1  0.302354  0.909231  0.000545  1
  Si  Si21  1  0.090935  0.699356  0.000162  1
  Si  Si22  1  0.588442  0.799656  0.498341  1
  Si  Si23  1  0.909231  0.302354  0.000545  1
  Si  Si24  1  0.198156  0.409410  0.499080  1
  Si  Si25  1  0.799656  0.588442  0.498341  1
  Si  Si26  1  0.409410  0.198156  0.499080  1
  Ge  Ge27  1  0.801827  0.801827  0.655801  1
