# generated using pymatgen
data_YbDy3TaOs7
_symmetry_space_group_name_H-M   'P 1'
_cell_length_a   5.44671300
_cell_length_b   5.44671067
_cell_length_c   8.60997500
_cell_angle_alpha   90.00000000
_cell_angle_beta   90.00000000
_cell_angle_gamma   119.99999593
_symmetry_Int_Tables_number   1
_chemical_formula_structural   YbDy3TaOs7
_chemical_formula_sum   'Yb1 Dy3 Ta1 Os7'
_cell_volume   221.20825909
_cell_formula_units_Z   1
loop_
 _symmetry_equiv_pos_site_id
 _symmetry_equiv_pos_as_xyz
  1  'x, y, z'
loop_
 _atom_site_type_symbol
 _atom_site_label
 _atom_site_symmetry_multiplicity
 _atom_site_fract_x
 _atom_site_fract_y
 _atom_site_fract_z
 _atom_site_occupancy
  Yb  Yb0  1  0.333333  0.666667  0.060738  1
  Dy  Dy1  1  0.333333  0.666667  0.421089  1
  Dy  Dy2  1  0.666667  0.333333  0.572279  1
  Dy  Dy3  1  0.666667  0.333333  0.942142  1
  Ta  Ta4  1  0.000000  0.000000  0.503543  1
  Os  Os5  1  0.000000  0.000000  0.998912  1
  Os  Os6  1  0.827537  0.172463  0.249972  1
  Os  Os7  1  0.827537  0.655075  0.249972  1
  Os  Os8  1  0.344925  0.172463  0.249972  1
  Os  Os9  1  0.174244  0.825756  0.750460  1
  Os  Os10  1  0.174244  0.348487  0.750460  1
  Os  Os11  1  0.651513  0.825756  0.750460  1
