# generated using pymatgen
data_TbZr2Sc(Al3Ir)6
_symmetry_space_group_name_H-M   'P 1'
_cell_length_a   7.50714811
_cell_length_b   7.49615828
_cell_length_c   9.33708900
_cell_angle_alpha   90.00000000
_cell_angle_beta   90.00000000
_cell_angle_gamma   119.72891841
_symmetry_Int_Tables_number   1
_chemical_formula_structural   TbZr2Sc(Al3Ir)6
_chemical_formula_sum   'Tb1 Zr2 Sc1 Al18 Ir6'
_cell_volume   456.28449526
_cell_formula_units_Z   1
loop_
 _symmetry_equiv_pos_site_id
 _symmetry_equiv_pos_as_xyz
  1  'x, y, z'
loop_
 _atom_site_type_symbol
 _atom_site_label
 _atom_site_symmetry_multiplicity
 _atom_site_fract_x
 _atom_site_fract_y
 _atom_site_fract_z
 _atom_site_occupancy
  Tb  Tb0  1  0.329719  0.006178  0.750000  1
  Zr  Zr1  1  0.995032  0.671509  0.250000  1
  Zr  Zr2  1  0.004395  0.327738  0.750000  1
  Sc  Sc3  1  0.671894  0.994572  0.250000  1
  Al  Al4  1  0.122760  0.122917  0.250000  1
  Al  Al5  1  0.871761  0.874972  0.750000  1
  Al  Al6  1  0.997039  0.334421  0.078713  1
  Al  Al7  1  0.999424  0.662829  0.926392  1
  Al  Al8  1  0.999424  0.662829  0.573608  1
  Al  Al9  1  0.335424  0.998379  0.418013  1
  Al  Al10  1  0.997039  0.334421  0.421287  1
  Al  Al11  1  0.667629  0.000922  0.573642  1
  Al  Al12  1  0.667629  0.000922  0.926358  1
  Al  Al13  1  0.335424  0.998379  0.081987  1
  Al  Al14  1  0.331707  0.334013  0.553837  1
  Al  Al15  1  0.668821  0.668883  0.439904  1
  Al  Al16  1  0.668821  0.668883  0.060096  1
  Al  Al17  1  0.331707  0.334013  0.946163  1
  Al  Al18  1  0.337199  0.552550  0.250000  1
  Al  Al19  1  0.665697  0.452893  0.750000  1
  Al  Al20  1  0.555520  0.342574  0.250000  1
  Al  Al21  1  0.446258  0.655794  0.750000  1
  Ir  Ir22  1  0.672433  0.327977  0.999960  1
  Ir  Ir23  1  0.327475  0.672186  0.000976  1
  Ir  Ir24  1  0.327475  0.672186  0.499024  1
  Ir  Ir25  1  0.672433  0.327977  0.500040  1
  Ir  Ir26  1  0.999931  0.999543  0.000419  1
  Ir  Ir27  1  0.999931  0.999543  0.499581  1
