# generated using pymatgen
data_AcTiP7Ru12
_symmetry_space_group_name_H-M   'P 1'
_cell_length_a   9.48461700
_cell_length_b   9.48461602
_cell_length_c   3.93043100
_cell_angle_alpha   90.00000000
_cell_angle_beta   90.00000000
_cell_angle_gamma   119.99999296
_symmetry_Int_Tables_number   1
_chemical_formula_structural   AcTiP7Ru12
_chemical_formula_sum   'Ac1 Ti1 P7 Ru12'
_cell_volume   306.20366926
_cell_formula_units_Z   1
loop_
 _symmetry_equiv_pos_site_id
 _symmetry_equiv_pos_as_xyz
  1  'x, y, z'
loop_
 _atom_site_type_symbol
 _atom_site_label
 _atom_site_symmetry_multiplicity
 _atom_site_fract_x
 _atom_site_fract_y
 _atom_site_fract_z
 _atom_site_occupancy
  Ac  Ac0  1  0.333333  0.666667  0.000000  1
  Ti  Ti1  1  0.666667  0.333333  0.500000  1
  P  P2  1  0.610527  0.718605  0.500000  1
  P  P3  1  0.000000  0.000000  0.000000  1
  P  P4  1  0.281395  0.891922  0.500000  1
  P  P5  1  0.108078  0.389473  0.500000  1
  P  P6  1  0.885760  0.567537  0.000000  1
  P  P7  1  0.432463  0.318223  0.000000  1
  P  P8  1  0.681777  0.114240  0.000000  1
  Ru  Ru9  1  0.563928  0.966470  0.500000  1
  Ru  Ru10  1  0.402544  0.436072  0.500000  1
  Ru  Ru11  1  0.913849  0.117674  0.500000  1
  Ru  Ru12  1  0.203825  0.086151  0.500000  1
  Ru  Ru13  1  0.882326  0.796175  0.500000  1
  Ru  Ru14  1  0.728185  0.890965  0.000000  1
  Ru  Ru15  1  0.109035  0.837220  0.000000  1
  Ru  Ru16  1  0.162780  0.271815  0.000000  1
  Ru  Ru17  1  0.425722  0.079428  0.000000  1
  Ru  Ru18  1  0.920572  0.346296  0.000000  1
  Ru  Ru19  1  0.653704  0.574278  0.000000  1
  Ru  Ru20  1  0.033530  0.597456  0.500000  1
