# generated using pymatgen
data_Dy19Th(FeSb2)4
_symmetry_space_group_name_H-M   'P 1'
_cell_length_a   7.87516845
_cell_length_b   8.73123250
_cell_length_c   12.17155905
_cell_angle_alpha   90.13790388
_cell_angle_beta   90.02466620
_cell_angle_gamma   89.84384733
_symmetry_Int_Tables_number   1
_chemical_formula_structural   Dy19Th(FeSb2)4
_chemical_formula_sum   'Dy19 Th1 Fe4 Sb8'
_cell_volume   836.90990095
_cell_formula_units_Z   1
loop_
 _symmetry_equiv_pos_site_id
 _symmetry_equiv_pos_as_xyz
  1  'x, y, z'
loop_
 _atom_site_type_symbol
 _atom_site_label
 _atom_site_symmetry_multiplicity
 _atom_site_fract_x
 _atom_site_fract_y
 _atom_site_fract_z
 _atom_site_occupancy
  Dy  Dy0  1  0.157868  0.751892  0.205869  1
  Dy  Dy1  1  0.345486  0.750167  0.703479  1
  Dy  Dy2  1  0.842511  0.250177  0.795467  1
  Dy  Dy3  1  0.656395  0.250162  0.295566  1
  Dy  Dy4  1  0.450050  0.748124  0.997293  1
  Dy  Dy5  1  0.050510  0.750475  0.496719  1
  Dy  Dy6  1  0.544717  0.248969  0.002994  1
  Dy  Dy7  1  0.950388  0.249425  0.503701  1
  Dy  Dy8  1  0.623852  0.747704  0.304764  1
  Dy  Dy9  1  0.877603  0.753015  0.804462  1
  Dy  Dy10  1  0.376541  0.249681  0.694223  1
  Dy  Dy11  1  0.125696  0.248582  0.196444  1
  Dy  Dy12  1  0.676548  0.964365  0.563652  1
  Dy  Dy13  1  0.176071  0.038771  0.936554  1
  Dy  Dy14  1  0.324269  0.463627  0.437119  1
  Dy  Dy15  1  0.184164  0.460127  0.931511  1
  Dy  Dy16  1  0.324099  0.035635  0.436375  1
  Dy  Dy17  1  0.821135  0.963460  0.064386  1
  Dy  Dy18  1  0.677258  0.535853  0.563076  1
  Th  Th19  1  0.828784  0.531204  0.059387  1
  Fe  Fe20  1  0.426626  0.750195  0.486674  1
  Fe  Fe21  1  0.068685  0.745955  0.989789  1
  Fe  Fe22  1  0.573538  0.249824  0.512150  1
  Fe  Fe23  1  0.918319  0.265847  0.017150  1
  Sb  Sb24  1  0.931209  0.507142  0.329018  1
  Sb  Sb25  1  0.570237  0.991719  0.827642  1
  Sb  Sb26  1  0.071734  0.008163  0.672949  1
  Sb  Sb27  1  0.424551  0.490437  0.173748  1
  Sb  Sb28  1  0.070979  0.492629  0.672393  1
  Sb  Sb29  1  0.429729  0.006539  0.172653  1
  Sb  Sb30  1  0.927902  0.991805  0.327506  1
  Sb  Sb31  1  0.572547  0.508331  0.825286  1
