# generated using pymatgen
data_Hf8Al15Os6Pt
_symmetry_space_group_name_H-M   'P 1'
_cell_length_a   8.92656516
_cell_length_b   8.90818537
_cell_length_c   8.89167600
_cell_angle_alpha   120.15797784
_cell_angle_beta   119.93377358
_cell_angle_gamma   90.04956709
_symmetry_Int_Tables_number   1
_chemical_formula_structural   Hf8Al15Os6Pt
_chemical_formula_sum   'Hf8 Al15 Os6 Pt1'
_cell_volume   499.05439047
_cell_formula_units_Z   1
loop_
 _symmetry_equiv_pos_site_id
 _symmetry_equiv_pos_as_xyz
  1  'x, y, z'
loop_
 _atom_site_type_symbol
 _atom_site_label
 _atom_site_symmetry_multiplicity
 _atom_site_fract_x
 _atom_site_fract_y
 _atom_site_fract_z
 _atom_site_occupancy
  Hf  Hf0  1  0.804726  0.288227  0.073503  1
  Hf  Hf1  1  0.218958  0.293514  0.488003  1
  Hf  Hf2  1  0.208092  0.695139  0.498633  1
  Hf  Hf3  1  0.217772  0.726053  0.925222  1
  Hf  Hf4  1  0.794691  0.721934  0.516756  1
  Hf  Hf5  1  0.768307  0.280247  0.499688  1
  Hf  Hf6  1  0.383840  0.122543  0.744609  1
  Hf  Hf7  1  0.378727  0.637493  0.258084  1
  Al  Al8  1  0.988104  0.488029  0.500548  1
  Al  Al9  1  0.163802  0.332264  0.168454  1
  Al  Al10  1  0.161544  0.985770  0.825814  1
  Al  Al11  1  0.151205  0.346679  0.808593  1
  Al  Al12  1  0.531562  0.342351  0.187158  1
  Al  Al13  1  0.840919  0.659676  0.824741  1
  Al  Al14  1  0.838353  0.024274  0.181474  1
  Al  Al15  1  0.835624  0.658675  0.178139  1
  Al  Al16  1  0.487582  0.661699  0.826121  1
  Al  Al17  1  0.376415  0.121010  0.253734  1
  Al  Al18  1  0.863887  0.122568  0.742812  1
  Al  Al19  1  0.618573  0.873335  0.252633  1
  Al  Al20  1  0.619836  0.368223  0.748952  1
  Al  Al21  1  0.618874  0.878244  0.742801  1
  Al  Al22  1  0.138675  0.877939  0.254094  1
  Os  Os23  1  0.497084  0.997233  0.001511  1
  Os  Os24  1  0.498134  0.500227  0.000539  1
  Os  Os25  1  0.498804  0.495390  0.500370  1
  Os  Os26  1  0.995140  0.496204  0.001568  1
  Os  Os27  1  0.996572  0.999328  0.996647  1
  Os  Os28  1  0.506723  0.007705  0.499641  1
  Pt  Pt29  1  0.997472  0.998024  0.499158  1
