# generated using pymatgen
data_YHo2Be2(PPd5)4
_symmetry_space_group_name_H-M   'P 1'
_cell_length_a   8.65589522
_cell_length_b   8.57993313
_cell_length_c   8.57993255
_cell_angle_alpha   60.58660396
_cell_angle_beta   59.70669429
_cell_angle_gamma   59.70669790
_symmetry_Int_Tables_number   1
_chemical_formula_structural   YHo2Be2(PPd5)4
_chemical_formula_sum   'Y1 Ho2 Be2 P4 Pd20'
_cell_volume   450.50131174
_cell_formula_units_Z   1
loop_
 _symmetry_equiv_pos_site_id
 _symmetry_equiv_pos_as_xyz
  1  'x, y, z'
loop_
 _atom_site_type_symbol
 _atom_site_label
 _atom_site_symmetry_multiplicity
 _atom_site_fract_x
 _atom_site_fract_y
 _atom_site_fract_z
 _atom_site_occupancy
  Y  Y0  1  0.250000  0.250000  0.250000  1
  Ho  Ho1  1  0.750000  0.750000  0.750000  1
  Ho  Ho2  1  0.000000  0.000000  0.000000  1
  Be  Be3  1  0.733420  0.266580  0.266580  1
  Be  Be4  1  0.266580  0.733420  0.733420  1
  P  P5  1  0.266345  0.733655  0.266345  1
  P  P6  1  0.733655  0.266345  0.733655  1
  P  P7  1  0.266345  0.266345  0.733655  1
  P  P8  1  0.733655  0.733655  0.266345  1
  Pd  Pd9  1  0.387896  0.382502  0.382502  1
  Pd  Pd10  1  0.612434  0.617821  0.617821  1
  Pd  Pd11  1  0.382502  0.387896  0.847103  1
  Pd  Pd12  1  0.382502  0.847103  0.387896  1
  Pd  Pd13  1  0.617821  0.612434  0.151922  1
  Pd  Pd14  1  0.617821  0.151922  0.612434  1
  Pd  Pd15  1  0.847103  0.382502  0.382502  1
  Pd  Pd16  1  0.151922  0.617821  0.617821  1
  Pd  Pd17  1  0.344354  0.999910  0.999910  1
  Pd  Pd18  1  0.655826  0.999910  0.999910  1
  Pd  Pd19  1  0.999910  0.344354  0.655826  1
  Pd  Pd20  1  0.999910  0.655826  0.344354  1
  Pd  Pd21  1  0.996984  0.343492  0.002905  1
  Pd  Pd22  1  0.656619  0.002905  0.343492  1
  Pd  Pd23  1  0.002905  0.656619  0.996984  1
  Pd  Pd24  1  0.343492  0.996984  0.656619  1
  Pd  Pd25  1  0.996984  0.002905  0.343492  1
  Pd  Pd26  1  0.002905  0.996984  0.656619  1
  Pd  Pd27  1  0.656619  0.343492  0.002905  1
  Pd  Pd28  1  0.343492  0.656619  0.996984  1
