# generated using pymatgen
data_Pr16In4OsRu3
_symmetry_space_group_name_H-M   'P 1'
_cell_length_a   10.01936959
_cell_length_b   10.01936966
_cell_length_c   10.01936957
_cell_angle_alpha   59.78042935
_cell_angle_beta   59.78042642
_cell_angle_gamma   59.78043206
_symmetry_Int_Tables_number   1
_chemical_formula_structural   Pr16In4OsRu3
_chemical_formula_sum   'Pr16 In4 Os1 Ru3'
_cell_volume   707.67817463
_cell_formula_units_Z   1
loop_
 _symmetry_equiv_pos_site_id
 _symmetry_equiv_pos_as_xyz
  1  'x, y, z'
loop_
 _atom_site_type_symbol
 _atom_site_label
 _atom_site_symmetry_multiplicity
 _atom_site_fract_x
 _atom_site_fract_y
 _atom_site_fract_z
 _atom_site_occupancy
  Pr  Pr0  1  0.060943  0.439820  0.439820  1
  Pr  Pr1  1  0.193556  0.807945  0.193556  1
  Pr  Pr2  1  0.653028  0.653028  0.653028  1
  Pr  Pr3  1  0.439820  0.439820  0.060943  1
  Pr  Pr4  1  0.058338  0.442351  0.058338  1
  Pr  Pr5  1  0.442351  0.058338  0.058338  1
  Pr  Pr6  1  0.058338  0.058338  0.442351  1
  Pr  Pr7  1  0.652557  0.652557  0.041088  1
  Pr  Pr8  1  0.652557  0.041088  0.652557  1
  Pr  Pr9  1  0.193873  0.806768  0.806768  1
  Pr  Pr10  1  0.439820  0.060943  0.439820  1
  Pr  Pr11  1  0.193556  0.193556  0.807945  1
  Pr  Pr12  1  0.041088  0.652557  0.652557  1
  Pr  Pr13  1  0.806768  0.806768  0.193873  1
  Pr  Pr14  1  0.807945  0.193556  0.193556  1
  Pr  Pr15  1  0.806768  0.193873  0.806768  1
  In  In16  1  0.419758  0.419758  0.419758  1
  In  In17  1  0.419692  0.741763  0.419692  1
  In  In18  1  0.741763  0.419692  0.419692  1
  In  In19  1  0.419692  0.419692  0.741763  1
  Os  Os20  1  0.862028  0.862028  0.862028  1
  Ru  Ru21  1  0.411485  0.862137  0.862137  1
  Ru  Ru22  1  0.862137  0.411485  0.862137  1
  Ru  Ru23  1  0.862137  0.862137  0.411485  1
