# generated using pymatgen
data_Nd2YHo(B6Os)2
_symmetry_space_group_name_H-M   'P 1'
_cell_length_a   3.70597100
_cell_length_b   9.23775208
_cell_length_c   11.66355310
_cell_angle_alpha   90.01533924
_cell_angle_beta   90.00000000
_cell_angle_gamma   90.00000000
_symmetry_Int_Tables_number   1
_chemical_formula_structural   Nd2YHo(B6Os)2
_chemical_formula_sum   'Nd4 Y2 Ho2 B24 Os4'
_cell_volume   399.29987550
_cell_formula_units_Z   2
loop_
 _symmetry_equiv_pos_site_id
 _symmetry_equiv_pos_as_xyz
  1  'x, y, z'
loop_
 _atom_site_type_symbol
 _atom_site_label
 _atom_site_symmetry_multiplicity
 _atom_site_fract_x
 _atom_site_fract_y
 _atom_site_fract_z
 _atom_site_occupancy
  Nd  Nd0  1  0.000000  0.322573  0.414226  1
  Nd  Nd1  1  0.000000  0.677427  0.585774  1
  Nd  Nd2  1  0.000000  0.822377  0.085657  1
  Nd  Nd3  1  0.000000  0.177623  0.914343  1
  Y  Y4  1  0.000000  0.944282  0.372481  1
  Y  Y5  1  0.000000  0.055718  0.627519  1
  Ho  Ho6  1  0.000000  0.444252  0.127593  1
  Ho  Ho7  1  0.000000  0.555748  0.872407  1
  B  B8  1  0.500000  0.556075  0.430393  1
  B  B9  1  0.500000  0.443925  0.569607  1
  B  B10  1  0.500000  0.056114  0.069571  1
  B  B11  1  0.500000  0.943886  0.930429  1
  B  B12  1  0.500000  0.749169  0.417398  1
  B  B13  1  0.500000  0.250831  0.582602  1
  B  B14  1  0.500000  0.249553  0.082630  1
  B  B15  1  0.500000  0.750447  0.917370  1
  B  B16  1  0.500000  0.790184  0.266866  1
  B  B17  1  0.500000  0.209816  0.733134  1
  B  B18  1  0.500000  0.290539  0.232956  1
  B  B19  1  0.500000  0.709461  0.767044  1
  B  B20  1  0.500000  0.630804  0.185375  1
  B  B21  1  0.500000  0.369196  0.814625  1
  B  B22  1  0.500000  0.131168  0.314448  1
  B  B23  1  0.500000  0.868832  0.685552  1
  B  B24  1  0.500000  0.985888  0.213785  1
  B  B25  1  0.500000  0.014112  0.786215  1
  B  B26  1  0.500000  0.485739  0.285929  1
  B  B27  1  0.500000  0.514261  0.714071  1
  B  B28  1  0.500000  0.603311  0.028273  1
  B  B29  1  0.500000  0.396689  0.971727  1
  B  B30  1  0.500000  0.103800  0.471600  1
  B  B31  1  0.500000  0.896200  0.528400  1
  Os  Os32  1  0.000000  0.638813  0.319536  1
  Os  Os33  1  0.000000  0.361187  0.680464  1
  Os  Os34  1  0.000000  0.139503  0.180123  1
  Os  Os35  1  0.000000  0.860497  0.819877  1
