# generated using pymatgen
data_HoLuMn5(PRh)7
_symmetry_space_group_name_H-M   'P 1'
_cell_length_a   9.42512709
_cell_length_b   9.42303090
_cell_length_c   3.78484400
_cell_angle_alpha   90.00000000
_cell_angle_beta   90.00000000
_cell_angle_gamma   120.02262208
_symmetry_Int_Tables_number   1
_chemical_formula_structural   HoLuMn5(PRh)7
_chemical_formula_sum   'Ho1 Lu1 Mn5 P7 Rh7'
_cell_volume   291.04316290
_cell_formula_units_Z   1
loop_
 _symmetry_equiv_pos_site_id
 _symmetry_equiv_pos_as_xyz
  1  'x, y, z'
loop_
 _atom_site_type_symbol
 _atom_site_label
 _atom_site_symmetry_multiplicity
 _atom_site_fract_x
 _atom_site_fract_y
 _atom_site_fract_z
 _atom_site_occupancy
  Ho  Ho0  1  0.666831  0.333937  0.000000  1
  Lu  Lu1  1  0.333688  0.666935  0.500000  1
  Mn  Mn2  1  0.270197  0.156329  0.000000  1
  Mn  Mn3  1  0.842381  0.112680  0.000000  1
  Mn  Mn4  1  0.889146  0.730484  0.000000  1
  Mn  Mn5  1  0.776267  0.878439  0.500000  1
  Mn  Mn6  1  0.122200  0.897412  0.500000  1
  P  P7  1  0.298798  0.408740  0.000000  1
  P  P8  1  0.592946  0.889791  0.000000  1
  P  P9  1  0.112218  0.702346  0.000000  1
  P  P10  1  0.397530  0.120651  0.500000  1
  P  P11  1  0.877184  0.274929  0.500000  1
  P  P12  1  0.724416  0.605755  0.500000  1
  P  P13  1  0.998005  0.999689  0.000000  1
  Rh  Rh14  1  0.066321  0.430453  0.000000  1
  Rh  Rh15  1  0.570484  0.636486  0.000000  1
  Rh  Rh16  1  0.364325  0.933122  0.000000  1
  Rh  Rh17  1  0.443813  0.389148  0.500000  1
  Rh  Rh18  1  0.611444  0.053916  0.500000  1
  Rh  Rh19  1  0.945765  0.556240  0.500000  1
  Rh  Rh20  1  0.096040  0.222521  0.500000  1
