# generated using pymatgen
data_PrCuP2Rh
_symmetry_space_group_name_H-M   'P 1'
_cell_length_a   4.21236500
_cell_length_b   4.21236500
_cell_length_c   9.53020400
_cell_angle_alpha   90.00000000
_cell_angle_beta   90.00000000
_cell_angle_gamma   90.00000000
_symmetry_Int_Tables_number   1
_chemical_formula_structural   PrCuP2Rh
_chemical_formula_sum   'Pr2 Cu2 P4 Rh2'
_cell_volume   169.10411983
_cell_formula_units_Z   2
loop_
 _symmetry_equiv_pos_site_id
 _symmetry_equiv_pos_as_xyz
  1  'x, y, z'
loop_
 _atom_site_type_symbol
 _atom_site_label
 _atom_site_symmetry_multiplicity
 _atom_site_fract_x
 _atom_site_fract_y
 _atom_site_fract_z
 _atom_site_occupancy
  Pr  Pr0  1  0.000000  0.500000  0.256378  1
  Pr  Pr1  1  0.500000  0.000000  0.743622  1
  Cu  Cu2  1  0.000000  0.000000  0.000000  1
  Cu  Cu3  1  0.500000  0.500000  0.000000  1
  P  P4  1  0.000000  0.000000  0.500000  1
  P  P5  1  0.500000  0.500000  0.500000  1
  P  P6  1  0.000000  0.500000  0.864133  1
  P  P7  1  0.500000  0.000000  0.135867  1
  Rh  Rh8  1  0.000000  0.500000  0.611841  1
  Rh  Rh9  1  0.500000  0.000000  0.388159  1
