# generated using pymatgen
data_TmAl7Cu3
_symmetry_space_group_name_H-M   'P 1'
_cell_length_a   8.15352511
_cell_length_b   8.15352496
_cell_length_c   8.15352496
_cell_angle_alpha   56.81743615
_cell_angle_beta   56.81743867
_cell_angle_gamma   56.81743102
_symmetry_Int_Tables_number   1
_chemical_formula_structural   TmAl7Cu3
_chemical_formula_sum   'Tm2 Al14 Cu6'
_cell_volume   355.13283125
_cell_formula_units_Z   2
loop_
 _symmetry_equiv_pos_site_id
 _symmetry_equiv_pos_as_xyz
  1  'x, y, z'
loop_
 _atom_site_type_symbol
 _atom_site_label
 _atom_site_symmetry_multiplicity
 _atom_site_fract_x
 _atom_site_fract_y
 _atom_site_fract_z
 _atom_site_occupancy
  Tm  Tm0  1  0.000000  0.000000  0.000000  1
  Tm  Tm1  1  0.500000  0.500000  0.500000  1
  Al  Al2  1  0.922588  0.148534  0.339266  1
  Al  Al3  1  0.339266  0.922588  0.148534  1
  Al  Al4  1  0.148534  0.339266  0.922588  1
  Al  Al5  1  0.577412  0.160734  0.351466  1
  Al  Al6  1  0.351466  0.577412  0.160734  1
  Al  Al7  1  0.160734  0.351466  0.577412  1
  Al  Al8  1  0.077412  0.851466  0.660734  1
  Al  Al9  1  0.660734  0.077412  0.851466  1
  Al  Al10  1  0.750000  0.750000  0.750000  1
  Al  Al11  1  0.250000  0.250000  0.250000  1
  Al  Al12  1  0.839266  0.648534  0.422588  1
  Al  Al13  1  0.648534  0.422588  0.839266  1
  Al  Al14  1  0.422588  0.839266  0.648534  1
  Al  Al15  1  0.851466  0.660734  0.077412  1
  Cu  Cu16  1  0.250000  0.575805  0.924195  1
  Cu  Cu17  1  0.924195  0.250000  0.575805  1
  Cu  Cu18  1  0.575805  0.924195  0.250000  1
  Cu  Cu19  1  0.750000  0.424195  0.075805  1
  Cu  Cu20  1  0.075805  0.750000  0.424195  1
  Cu  Cu21  1  0.424195  0.075805  0.750000  1
