# generated using pymatgen
data_NdY2Lu(Ni7P4)2
_symmetry_space_group_name_H-M   'P 1'
_cell_length_a   3.70834700
_cell_length_b   9.18401714
_cell_length_c   10.26913359
_cell_angle_alpha   89.94919941
_cell_angle_beta   90.00000000
_cell_angle_gamma   90.00000000
_symmetry_Int_Tables_number   1
_chemical_formula_structural   NdY2Lu(Ni7P4)2
_chemical_formula_sum   'Nd1 Y2 Lu1 Ni14 P8'
_cell_volume   349.74110990
_cell_formula_units_Z   1
loop_
 _symmetry_equiv_pos_site_id
 _symmetry_equiv_pos_as_xyz
  1  'x, y, z'
loop_
 _atom_site_type_symbol
 _atom_site_label
 _atom_site_symmetry_multiplicity
 _atom_site_fract_x
 _atom_site_fract_y
 _atom_site_fract_z
 _atom_site_occupancy
  Nd  Nd0  1  0.000000  0.561985  0.999193  1
  Y  Y1  1  0.500000  0.434338  0.498384  1
  Y  Y2  1  0.000000  0.941342  0.781618  1
  Lu  Lu3  1  0.500000  0.058044  0.283787  1
  Ni  Ni4  1  0.500000  0.301598  0.081777  1
  Ni  Ni5  1  0.500000  0.748279  0.403536  1
  Ni  Ni6  1  0.500000  0.415284  0.799450  1
  Ni  Ni7  1  0.500000  0.057223  0.979417  1
  Ni  Ni8  1  0.500000  0.686042  0.763058  1
  Ni  Ni9  1  0.000000  0.272644  0.667923  1
  Ni  Ni10  1  0.000000  0.249397  0.904945  1
  Ni  Ni11  1  0.000000  0.695630  0.572635  1
  Ni  Ni12  1  0.500000  0.096685  0.583429  1
  Ni  Ni13  1  0.000000  0.312148  0.268959  1
  Ni  Ni14  1  0.000000  0.583865  0.309665  1
  Ni  Ni15  1  0.000000  0.907367  0.087084  1
  Ni  Ni16  1  0.000000  0.945046  0.475888  1
  Ni  Ni17  1  0.500000  0.729637  0.169405  1
  P  P18  1  0.000000  0.821427  0.288316  1
  P  P19  1  0.000000  0.188967  0.462753  1
  P  P20  1  0.500000  0.179359  0.788425  1
  P  P21  1  0.000000  0.154826  0.097447  1
  P  P22  1  0.500000  0.480308  0.220190  1
  P  P23  1  0.500000  0.812548  0.963592  1
  P  P24  1  0.500000  0.846192  0.592965  1
  P  P25  1  0.000000  0.519822  0.711560  1
