# generated using pymatgen
data_La4Pr4Te3IrO24
_symmetry_space_group_name_H-M   'P 1'
_cell_length_a   5.53646876
_cell_length_b   9.51581697
_cell_length_c   10.39245175
_cell_angle_alpha   90.11945202
_cell_angle_beta   89.87547941
_cell_angle_gamma   90.04751288
_symmetry_Int_Tables_number   1
_chemical_formula_structural   La4Pr4Te3IrO24
_chemical_formula_sum   'La4 Pr4 Te3 Ir1 O24'
_cell_volume   547.51350231
_cell_formula_units_Z   1
loop_
 _symmetry_equiv_pos_site_id
 _symmetry_equiv_pos_as_xyz
  1  'x, y, z'
loop_
 _atom_site_type_symbol
 _atom_site_label
 _atom_site_symmetry_multiplicity
 _atom_site_fract_x
 _atom_site_fract_y
 _atom_site_fract_z
 _atom_site_occupancy
  La  La0  1  0.029263  0.219435  0.140098  1
  La  La1  1  0.468448  0.783794  0.638886  1
  La  La2  1  0.965899  0.719243  0.360909  1
  La  La3  1  0.531146  0.282109  0.858088  1
  Pr  Pr4  1  0.023639  0.101344  0.538634  1
  Pr  Pr5  1  0.476006  0.897893  0.044464  1
  Pr  Pr6  1  0.975899  0.604559  0.957641  1
  Pr  Pr7  1  0.523438  0.395738  0.458267  1
  Te  Te8  1  0.960624  0.995154  0.857623  1
  Te  Te9  1  0.460032  0.505907  0.142000  1
  Te  Te10  1  0.038861  0.494669  0.641550  1
  Ir  Ir11  1  0.540501  0.003284  0.359284  1
  O  O12  1  0.427151  0.149968  0.476729  1
  O  O13  1  0.077204  0.850473  0.975653  1
  O  O14  1  0.575085  0.651731  0.025014  1
  O  O15  1  0.925060  0.348289  0.524122  1
  O  O16  1  0.722702  0.391222  0.065386  1
  O  O17  1  0.775705  0.608260  0.565510  1
  O  O18  1  0.276183  0.888168  0.434342  1
  O  O19  1  0.221161  0.110902  0.934873  1
  O  O20  1  0.256169  0.417035  0.007661  1
  O  O21  1  0.242674  0.583495  0.506872  1
  O  O22  1  0.746337  0.913350  0.493636  1
  O  O23  1  0.755301  0.084180  0.992186  1
  O  O24  1  0.193999  0.637658  0.174670  1
  O  O25  1  0.306001  0.364016  0.674002  1
  O  O26  1  0.808924  0.133183  0.323756  1
  O  O27  1  0.694365  0.862641  0.827550  1
  O  O28  1  0.337107  0.056409  0.217556  1
  O  O29  1  0.165920  0.946986  0.713650  1
  O  O30  1  0.662867  0.555273  0.286282  1
  O  O31  1  0.836020  0.445679  0.786143  1
  O  O32  1  0.325108  0.363743  0.254569  1
  O  O33  1  0.174988  0.636342  0.754206  1
  O  O34  1  0.676971  0.863688  0.244705  1
  O  O35  1  0.823243  0.134180  0.743480  1
