# generated using pymatgen
data_Tm8Hf12Si15As
_symmetry_space_group_name_H-M   'P 1'
_cell_length_a   7.23821150
_cell_length_b   7.24934139
_cell_length_c   13.29439106
_cell_angle_alpha   89.75361087
_cell_angle_beta   89.95366031
_cell_angle_gamma   89.95930768
_symmetry_Int_Tables_number   1
_chemical_formula_structural   Tm8Hf12Si15As
_chemical_formula_sum   'Tm8 Hf12 Si15 As1'
_cell_volume   697.57997436
_cell_formula_units_Z   1
loop_
 _symmetry_equiv_pos_site_id
 _symmetry_equiv_pos_as_xyz
  1  'x, y, z'
loop_
 _atom_site_type_symbol
 _atom_site_label
 _atom_site_symmetry_multiplicity
 _atom_site_fract_x
 _atom_site_fract_y
 _atom_site_fract_z
 _atom_site_occupancy
  Tm  Tm0  1  0.995555  0.345613  0.214981  1
  Tm  Tm1  1  0.004706  0.655766  0.715339  1
  Tm  Tm2  1  0.152254  0.499772  0.466893  1
  Tm  Tm3  1  0.506693  0.842805  0.033695  1
  Tm  Tm4  1  0.844570  0.503377  0.964915  1
  Tm  Tm5  1  0.496450  0.154323  0.535831  1
  Tm  Tm6  1  0.345279  0.996195  0.785097  1
  Tm  Tm7  1  0.654554  0.003637  0.284083  1
  Hf  Hf8  1  0.174429  0.174888  0.000120  1
  Hf  Hf9  1  0.826311  0.826432  0.500077  1
  Hf  Hf10  1  0.325176  0.677483  0.249751  1
  Hf  Hf11  1  0.674587  0.325495  0.750059  1
  Hf  Hf12  1  0.148531  0.996415  0.373076  1
  Hf  Hf13  1  0.851724  0.002873  0.874944  1
  Hf  Hf14  1  0.502515  0.649292  0.624869  1
  Hf  Hf15  1  0.352045  0.497217  0.875277  1
  Hf  Hf16  1  0.495596  0.348932  0.125256  1
  Hf  Hf17  1  0.652327  0.505784  0.376670  1
  Hf  Hf18  1  0.997538  0.149265  0.625372  1
  Hf  Hf19  1  0.000113  0.849073  0.124151  1
  Si  Si20  1  0.639149  0.705424  0.817608  1
  Si  Si21  1  0.204118  0.861916  0.567144  1
  Si  Si22  1  0.139037  0.794476  0.931474  1
  Si  Si23  1  0.794867  0.139859  0.068056  1
  Si  Si24  1  0.861036  0.204547  0.431841  1
  Si  Si25  1  0.295538  0.360597  0.681989  1
  Si  Si26  1  0.703220  0.637379  0.182759  1
  Si  Si27  1  0.295856  0.038693  0.179867  1
  Si  Si28  1  0.703591  0.951545  0.685639  1
  Si  Si29  1  0.451857  0.797752  0.435676  1
  Si  Si30  1  0.202807  0.547543  0.064604  1
  Si  Si31  1  0.548735  0.202842  0.935747  1
  Si  Si32  1  0.796521  0.451834  0.565234  1
  Si  Si33  1  0.048821  0.297108  0.814259  1
  Si  Si34  1  0.952230  0.703231  0.314696  1
  As  As35  1  0.361665  0.300618  0.322947  1
