# generated using pymatgen
data_Pr16TlIn3(IrRh)2
_symmetry_space_group_name_H-M   'P 1'
_cell_length_a   10.10269751
_cell_length_b   10.04630584
_cell_length_c   10.05419892
_cell_angle_alpha   59.67297310
_cell_angle_beta   59.84031109
_cell_angle_gamma   59.81414682
_symmetry_Int_Tables_number   1
_chemical_formula_structural   Pr16TlIn3(IrRh)2
_chemical_formula_sum   'Pr16 Tl1 In3 Ir2 Rh2'
_cell_volume   717.88988381
_cell_formula_units_Z   1
loop_
 _symmetry_equiv_pos_site_id
 _symmetry_equiv_pos_as_xyz
  1  'x, y, z'
loop_
 _atom_site_type_symbol
 _atom_site_label
 _atom_site_symmetry_multiplicity
 _atom_site_fract_x
 _atom_site_fract_y
 _atom_site_fract_z
 _atom_site_occupancy
  Pr  Pr0  1  0.690802  0.309944  0.308453  1
  Pr  Pr1  1  0.692364  0.690564  0.308262  1
  Pr  Pr2  1  0.308810  0.690564  0.308262  1
  Pr  Pr3  1  0.939054  0.941119  0.560971  1
  Pr  Pr4  1  0.150806  0.150544  0.547844  1
  Pr  Pr5  1  0.558857  0.941119  0.560971  1
  Pr  Pr6  1  0.151441  0.151085  0.150349  1
  Pr  Pr7  1  0.307825  0.308734  0.690566  1
  Pr  Pr8  1  0.941655  0.557461  0.559230  1
  Pr  Pr9  1  0.560810  0.561069  0.939669  1
  Pr  Pr10  1  0.562764  0.937656  0.936817  1
  Pr  Pr11  1  0.938452  0.561069  0.939669  1
  Pr  Pr12  1  0.151161  0.547333  0.150344  1
  Pr  Pr13  1  0.307663  0.692677  0.691998  1
  Pr  Pr14  1  0.692875  0.308734  0.690566  1
  Pr  Pr15  1  0.547125  0.151085  0.150349  1
  Tl  Tl16  1  0.917133  0.917979  0.247755  1
  In  In17  1  0.242737  0.919536  0.919095  1
  In  In18  1  0.919306  0.241958  0.919429  1
  In  In19  1  0.918631  0.919536  0.919095  1
  Ir  Ir20  1  0.357388  0.357700  0.358080  1
  Ir  Ir21  1  0.926831  0.357700  0.358080  1
  Rh  Rh22  1  0.357900  0.359046  0.925154  1
  Rh  Rh23  1  0.357610  0.925790  0.358990  1
