# generated using pymatgen
data_TbHo7(TmIr2)2
_symmetry_space_group_name_H-M   'P 1'
_cell_length_a   6.45930402
_cell_length_b   7.18434005
_cell_length_c   8.46972254
_cell_angle_alpha   96.46423286
_cell_angle_beta   112.35564743
_cell_angle_gamma   89.93238876
_symmetry_Int_Tables_number   1
_chemical_formula_structural   TbHo7(TmIr2)2
_chemical_formula_sum   'Tb1 Ho7 Tm2 Ir4'
_cell_volume   360.82157393
_cell_formula_units_Z   1
loop_
 _symmetry_equiv_pos_site_id
 _symmetry_equiv_pos_as_xyz
  1  'x, y, z'
loop_
 _atom_site_type_symbol
 _atom_site_label
 _atom_site_symmetry_multiplicity
 _atom_site_fract_x
 _atom_site_fract_y
 _atom_site_fract_z
 _atom_site_occupancy
  Tb  Tb0  1  0.970364  0.919199  0.182174  1
  Ho  Ho1  1  0.788788  0.581183  0.817738  1
  Ho  Ho2  1  0.029395  0.081219  0.817723  1
  Ho  Ho3  1  0.211188  0.418712  0.181872  1
  Ho  Ho4  1  0.653425  0.816978  0.441288  1
  Ho  Ho5  1  0.212934  0.682389  0.559001  1
  Ho  Ho6  1  0.346605  0.183153  0.559368  1
  Ho  Ho7  1  0.787238  0.317468  0.441299  1
  Tm  Tm8  1  0.428089  0.749931  0.999861  1
  Tm  Tm9  1  0.571379  0.250159  0.999799  1
  Ir  Ir10  1  0.823452  0.572047  0.217897  1
  Ir  Ir11  1  0.605531  0.926942  0.782009  1
  Ir  Ir12  1  0.176170  0.427065  0.782269  1
  Ir  Ir13  1  0.395444  0.073554  0.217703  1
