# generated using pymatgen
data_Y4Cu(GeIr)6
_symmetry_space_group_name_H-M   'P 1'
_cell_length_a   7.27427463
_cell_length_b   7.27427519
_cell_length_c   7.27427474
_cell_angle_alpha   109.53232638
_cell_angle_beta   109.53231553
_cell_angle_gamma   109.34908298
_symmetry_Int_Tables_number   1
_chemical_formula_structural   Y4Cu(GeIr)6
_chemical_formula_sum   'Y4 Cu1 Ge6 Ir6'
_cell_volume   296.30964028
_cell_formula_units_Z   1
loop_
 _symmetry_equiv_pos_site_id
 _symmetry_equiv_pos_as_xyz
  1  'x, y, z'
loop_
 _atom_site_type_symbol
 _atom_site_label
 _atom_site_symmetry_multiplicity
 _atom_site_fract_x
 _atom_site_fract_y
 _atom_site_fract_z
 _atom_site_occupancy
  Y  Y0  1  0.001718  0.998282  0.500000  1
  Y  Y1  1  0.001718  0.501718  0.003435  1
  Y  Y2  1  0.498282  0.998282  0.996565  1
  Y  Y3  1  0.498282  0.501718  0.500000  1
  Cu  Cu4  1  0.750000  0.250000  0.500000  1
  Ge  Ge5  1  0.681402  0.681402  0.000000  1
  Ge  Ge6  1  0.315395  0.997787  0.317607  1
  Ge  Ge7  1  0.002213  0.319820  0.317607  1
  Ge  Ge8  1  0.318598  0.318598  0.000000  1
  Ge  Ge9  1  0.680180  0.997787  0.682393  1
  Ge  Ge10  1  0.002213  0.684605  0.682393  1
  Ir  Ir11  1  0.748022  0.495518  0.252504  1
  Ir  Ir12  1  0.504482  0.251978  0.747496  1
  Ir  Ir13  1  0.243013  0.495518  0.747496  1
  Ir  Ir14  1  0.250000  0.750000  0.500000  1
  Ir  Ir15  1  0.504482  0.756987  0.252504  1
  Ir  Ir16  1  0.000000  0.000000  0.000000  1
