# generated using pymatgen
data_Nd2Ho2Al13Ga5Ir6
_symmetry_space_group_name_H-M   'P 1'
_cell_length_a   7.55934418
_cell_length_b   7.56056629
_cell_length_c   9.63305100
_cell_angle_alpha   90.00000000
_cell_angle_beta   90.00000000
_cell_angle_gamma   119.51225513
_symmetry_Int_Tables_number   1
_chemical_formula_structural   Nd2Ho2Al13Ga5Ir6
_chemical_formula_sum   'Nd2 Ho2 Al13 Ga5 Ir6'
_cell_volume   479.12243952
_cell_formula_units_Z   1
loop_
 _symmetry_equiv_pos_site_id
 _symmetry_equiv_pos_as_xyz
  1  'x, y, z'
loop_
 _atom_site_type_symbol
 _atom_site_label
 _atom_site_symmetry_multiplicity
 _atom_site_fract_x
 _atom_site_fract_y
 _atom_site_fract_z
 _atom_site_occupancy
  Nd  Nd0  1  0.995409  0.669762  0.250000  1
  Nd  Nd1  1  0.669820  0.996493  0.250000  1
  Ho  Ho2  1  0.000098  0.325346  0.750000  1
  Ho  Ho3  1  0.330237  0.006764  0.750000  1
  Al  Al4  1  0.004192  0.334919  0.066910  1
  Al  Al5  1  0.999955  0.665185  0.924266  1
  Al  Al6  1  0.999955  0.665185  0.575734  1
  Al  Al7  1  0.334931  0.003849  0.433136  1
  Al  Al8  1  0.004192  0.334919  0.433090  1
  Al  Al9  1  0.664180  0.997974  0.576030  1
  Al  Al10  1  0.664180  0.997974  0.923970  1
  Al  Al11  1  0.334931  0.003849  0.066864  1
  Al  Al12  1  0.333540  0.334062  0.559826  1
  Al  Al13  1  0.665070  0.664871  0.454125  1
  Al  Al14  1  0.665070  0.664871  0.045875  1
  Al  Al15  1  0.333540  0.334062  0.940174  1
  Al  Al16  1  0.448878  0.660998  0.750000  1
  Ga  Ga17  1  0.131699  0.131722  0.250000  1
  Ga  Ga18  1  0.870423  0.869693  0.750000  1
  Ga  Ga19  1  0.338088  0.544223  0.250000  1
  Ga  Ga20  1  0.661947  0.453603  0.750000  1
  Ga  Ga21  1  0.544149  0.338737  0.250000  1
  Ir  Ir22  1  0.671711  0.328015  0.998311  1
  Ir  Ir23  1  0.329332  0.671037  0.995964  1
  Ir  Ir24  1  0.329332  0.671037  0.504036  1
  Ir  Ir25  1  0.671711  0.328015  0.501689  1
  Ir  Ir26  1  0.001714  0.001416  0.997700  1
  Ir  Ir27  1  0.001714  0.001416  0.502300  1
