# generated using pymatgen
data_Tb4Ho3FeI12
_symmetry_space_group_name_H-M   'P 1'
_cell_length_a   9.71549886
_cell_length_b   9.77744351
_cell_length_c   9.78681620
_cell_angle_alpha   106.98493340
_cell_angle_beta   107.19352237
_cell_angle_gamma   106.87127462
_symmetry_Int_Tables_number   1
_chemical_formula_structural   Tb4Ho3FeI12
_chemical_formula_sum   'Tb4 Ho3 Fe1 I12'
_cell_volume   773.88823718
_cell_formula_units_Z   1
loop_
 _symmetry_equiv_pos_site_id
 _symmetry_equiv_pos_as_xyz
  1  'x, y, z'
loop_
 _atom_site_type_symbol
 _atom_site_label
 _atom_site_symmetry_multiplicity
 _atom_site_fract_x
 _atom_site_fract_y
 _atom_site_fract_z
 _atom_site_occupancy
  Tb  Tb0  1  0.281101  0.021702  0.090249  1
  Tb  Tb1  1  0.906479  0.706754  0.977508  1
  Tb  Tb2  1  0.978072  0.906768  0.706724  1
  Tb  Tb3  1  0.719097  0.978737  0.910615  1
  Ho  Ho4  1  0.500061  0.500287  0.500208  1
  Ho  Ho5  1  0.092446  0.289902  0.022649  1
  Ho  Ho6  1  0.022079  0.093269  0.290022  1
  Fe  Fe7  1  0.000214  0.000164  0.000176  1
  I  I8  1  0.463086  0.386724  0.162563  1
  I  I9  1  0.160738  0.463113  0.386111  1
  I  I10  1  0.386584  0.162562  0.463626  1
  I  I11  1  0.534984  0.613462  0.836895  1
  I  I12  1  0.838449  0.535209  0.612512  1
  I  I13  1  0.611795  0.837729  0.536524  1
  I  I14  1  0.775066  0.319938  0.927963  1
  I  I15  1  0.928421  0.776634  0.321413  1
  I  I16  1  0.320877  0.928855  0.776670  1
  I  I17  1  0.226771  0.679512  0.072495  1
  I  I18  1  0.072474  0.226902  0.680072  1
  I  I19  1  0.681205  0.071778  0.225004  1
