# generated using pymatgen
data_Ta12Ga8BPd4C3
_symmetry_space_group_name_H-M   'P 1'
_cell_length_a   8.35274584
_cell_length_b   8.35274640
_cell_length_c   8.38336003
_cell_angle_alpha   60.12072706
_cell_angle_beta   60.12073384
_cell_angle_gamma   59.99999976
_symmetry_Int_Tables_number   1
_chemical_formula_structural   Ta12Ga8BPd4C3
_chemical_formula_sum   'Ta12 Ga8 B1 Pd4 C3'
_cell_volume   414.33516503
_cell_formula_units_Z   1
loop_
 _symmetry_equiv_pos_site_id
 _symmetry_equiv_pos_as_xyz
  1  'x, y, z'
loop_
 _atom_site_type_symbol
 _atom_site_label
 _atom_site_symmetry_multiplicity
 _atom_site_fract_x
 _atom_site_fract_y
 _atom_site_fract_z
 _atom_site_occupancy
  Ta  Ta0  1  0.567468  0.932123  0.568287  1
  Ta  Ta1  1  0.317877  0.682532  0.681713  1
  Ta  Ta2  1  0.683115  0.313558  0.320214  1
  Ta  Ta3  1  0.313558  0.683115  0.320214  1
  Ta  Ta4  1  0.683115  0.683115  0.320214  1
  Ta  Ta5  1  0.317877  0.317877  0.681713  1
  Ta  Ta6  1  0.566885  0.566885  0.929786  1
  Ta  Ta7  1  0.932123  0.567468  0.568287  1
  Ta  Ta8  1  0.566885  0.936442  0.929786  1
  Ta  Ta9  1  0.932123  0.932123  0.568287  1
  Ta  Ta10  1  0.682532  0.317877  0.681713  1
  Ta  Ta11  1  0.936442  0.566885  0.929786  1
  Ga  Ga12  1  0.913758  0.913758  0.914424  1
  Ga  Ga13  1  0.991940  0.336242  0.335576  1
  Ga  Ga14  1  0.336242  0.991940  0.335576  1
  Ga  Ga15  1  0.335816  0.335816  0.992550  1
  Ga  Ga16  1  0.913758  0.258060  0.914424  1
  Ga  Ga17  1  0.914184  0.914184  0.257450  1
  Ga  Ga18  1  0.258060  0.913758  0.914424  1
  Ga  Ga19  1  0.336242  0.336242  0.335576  1
  B  B20  1  0.625000  0.625000  0.125000  1
  Pd  Pd21  1  0.125000  0.125000  0.125000  1
  Pd  Pd22  1  0.625000  0.125000  0.125000  1
  Pd  Pd23  1  0.125000  0.625000  0.125000  1
  Pd  Pd24  1  0.125000  0.125000  0.625000  1
  C  C25  1  0.625000  0.625000  0.625000  1
  C  C26  1  0.125000  0.625000  0.625000  1
  C  C27  1  0.625000  0.125000  0.625000  1
