# generated using pymatgen
data_Yb5HoSi24Ru7Pt
_symmetry_space_group_name_H-M   'P 1'
_cell_length_a   10.16375187
_cell_length_b   10.16288921
_cell_length_c   8.14661279
_cell_angle_alpha   90.00027856
_cell_angle_beta   90.06032829
_cell_angle_gamma   132.69202951
_symmetry_Int_Tables_number   1
_chemical_formula_structural   Yb5HoSi24Ru7Pt
_chemical_formula_sum   'Yb5 Ho1 Si24 Ru7 Pt1'
_cell_volume   618.50111373
_cell_formula_units_Z   1
loop_
 _symmetry_equiv_pos_site_id
 _symmetry_equiv_pos_as_xyz
  1  'x, y, z'
loop_
 _atom_site_type_symbol
 _atom_site_label
 _atom_site_symmetry_multiplicity
 _atom_site_fract_x
 _atom_site_fract_y
 _atom_site_fract_z
 _atom_site_occupancy
  Yb  Yb0  1  0.500372  0.499037  0.499710  1
  Yb  Yb1  1  0.998963  0.000264  0.000126  1
  Yb  Yb2  1  0.500913  0.999779  0.749694  1
  Yb  Yb3  1  0.999803  0.498677  0.249914  1
  Yb  Yb4  1  0.497715  0.996311  0.248867  1
  Ho  Ho5  1  0.004222  0.501662  0.753031  1
  Si  Si6  1  0.798386  0.200379  0.499250  1
  Si  Si7  1  0.296487  0.705255  0.000760  1
  Si  Si8  1  0.206387  0.794118  0.499695  1
  Si  Si9  1  0.704973  0.292287  0.000487  1
  Si  Si10  1  0.329559  0.335435  0.833088  1
  Si  Si11  1  0.662467  0.670837  0.166960  1
  Si  Si12  1  0.165189  0.168281  0.332200  1
  Si  Si13  1  0.830195  0.834593  0.667369  1
  Si  Si14  1  0.122977  0.891436  0.731773  1
  Si  Si15  1  0.108725  0.876394  0.267838  1
  Si  Si16  1  0.613294  0.382016  0.219759  1
  Si  Si17  1  0.619975  0.388741  0.779817  1
  Si  Si18  1  0.877381  0.110273  0.269122  1
  Si  Si19  1  0.891571  0.123488  0.729938  1
  Si  Si20  1  0.392230  0.624065  0.769913  1
  Si  Si21  1  0.375413  0.608229  0.230977  1
  Si  Si22  1  0.335507  0.104299  0.501061  1
  Si  Si23  1  0.895415  0.665345  0.499258  1
  Si  Si24  1  0.384344  0.151403  0.007041  1
  Si  Si25  1  0.847702  0.615500  0.992640  1
  Si  Si26  1  0.652367  0.884220  0.495296  1
  Si  Si27  1  0.115578  0.346420  0.505254  1
  Si  Si28  1  0.613129  0.847092  0.993707  1
  Si  Si29  1  0.154906  0.387438  0.006465  1
  Ru  Ru30  1  0.169188  0.828315  0.998638  1
  Ru  Ru31  1  0.328817  0.668642  0.501703  1
  Ru  Ru32  1  0.832165  0.172158  0.998400  1
  Ru  Ru33  1  0.127020  0.125339  0.626406  1
  Ru  Ru34  1  0.873937  0.873058  0.373121  1
  Ru  Ru35  1  0.375005  0.372510  0.125898  1
  Ru  Ru36  1  0.626847  0.624915  0.874152  1
  Pt  Pt37  1  0.670874  0.331788  0.500672  1
