# generated using pymatgen
data_Dy3Ho2Tm3In3Co
_symmetry_space_group_name_H-M   'P 1'
_cell_length_a   10.26503500
_cell_length_b   10.26503381
_cell_length_c   6.98331200
_cell_angle_alpha   90.00000000
_cell_angle_beta   90.00000000
_cell_angle_gamma   120.00000060
_symmetry_Int_Tables_number   1
_chemical_formula_structural   Dy3Ho2Tm3In3Co
_chemical_formula_sum   'Dy6 Ho4 Tm6 In6 Co2'
_cell_volume   637.25447477
_cell_formula_units_Z   2
loop_
 _symmetry_equiv_pos_site_id
 _symmetry_equiv_pos_as_xyz
  1  'x, y, z'
loop_
 _atom_site_type_symbol
 _atom_site_label
 _atom_site_symmetry_multiplicity
 _atom_site_fract_x
 _atom_site_fract_y
 _atom_site_fract_z
 _atom_site_occupancy
  Dy  Dy0  1  0.534815  0.069629  0.504324  1
  Dy  Dy1  1  0.930371  0.465185  0.504324  1
  Dy  Dy2  1  0.534815  0.465185  0.504324  1
  Dy  Dy3  1  0.465185  0.930371  0.004324  1
  Dy  Dy4  1  0.069629  0.534815  0.004324  1
  Dy  Dy5  1  0.465185  0.534815  0.004324  1
  Ho  Ho6  1  0.666667  0.333333  0.896597  1
  Ho  Ho7  1  0.333333  0.666667  0.396597  1
  Ho  Ho8  1  0.000000  0.000000  0.493510  1
  Ho  Ho9  1  0.000000  0.000000  0.993510  1
  Tm  Tm10  1  0.178369  0.356736  0.711780  1
  Tm  Tm11  1  0.643264  0.821631  0.711780  1
  Tm  Tm12  1  0.178369  0.821631  0.711780  1
  Tm  Tm13  1  0.821631  0.643264  0.211780  1
  Tm  Tm14  1  0.356736  0.178369  0.211780  1
  Tm  Tm15  1  0.821631  0.178369  0.211780  1
  In  In16  1  0.837572  0.675144  0.753600  1
  In  In17  1  0.324856  0.162428  0.753600  1
  In  In18  1  0.837572  0.162428  0.753600  1
  In  In19  1  0.162428  0.324856  0.253600  1
  In  In20  1  0.675144  0.837572  0.253600  1
  In  In21  1  0.162428  0.837572  0.253600  1
  Co  Co22  1  0.666667  0.333333  0.279803  1
  Co  Co23  1  0.333333  0.666667  0.779803  1
