# generated using pymatgen
data_Ta2Mn3As
_symmetry_space_group_name_H-M   'P 1'
_cell_length_a   4.91498700
_cell_length_b   4.91498760
_cell_length_c   7.92905800
_cell_angle_alpha   90.00000000
_cell_angle_beta   90.00000000
_cell_angle_gamma   120.00000272
_symmetry_Int_Tables_number   1
_chemical_formula_structural   Ta2Mn3As
_chemical_formula_sum   'Ta4 Mn6 As2'
_cell_volume   165.88114101
_cell_formula_units_Z   2
loop_
 _symmetry_equiv_pos_site_id
 _symmetry_equiv_pos_as_xyz
  1  'x, y, z'
loop_
 _atom_site_type_symbol
 _atom_site_label
 _atom_site_symmetry_multiplicity
 _atom_site_fract_x
 _atom_site_fract_y
 _atom_site_fract_z
 _atom_site_occupancy
  Ta  Ta0  1  0.333333  0.666667  0.065470  1
  Ta  Ta1  1  0.666667  0.333333  0.565470  1
  Ta  Ta2  1  0.666667  0.333333  0.934530  1
  Ta  Ta3  1  0.333333  0.666667  0.434530  1
  Mn  Mn4  1  0.827386  0.654771  0.250000  1
  Mn  Mn5  1  0.172614  0.827386  0.750000  1
  Mn  Mn6  1  0.654771  0.827386  0.750000  1
  Mn  Mn7  1  0.345229  0.172614  0.250000  1
  Mn  Mn8  1  0.827386  0.172614  0.250000  1
  Mn  Mn9  1  0.172614  0.345229  0.750000  1
  As  As10  1  0.000000  0.000000  0.000000  1
  As  As11  1  0.000000  0.000000  0.500000  1
