# generated using pymatgen
data_Sm2HoCu5(Ni4B)2
_symmetry_space_group_name_H-M   'P 1'
_cell_length_a   5.03754021
_cell_length_b   5.03754124
_cell_length_c   10.87378300
_cell_angle_alpha   90.00000000
_cell_angle_beta   90.00000000
_cell_angle_gamma   119.75475339
_symmetry_Int_Tables_number   1
_chemical_formula_structural   Sm2HoCu5(Ni4B)2
_chemical_formula_sum   'Sm2 Ho1 Cu5 Ni8 B2'
_cell_volume   239.56115345
_cell_formula_units_Z   1
loop_
 _symmetry_equiv_pos_site_id
 _symmetry_equiv_pos_as_xyz
  1  'x, y, z'
loop_
 _atom_site_type_symbol
 _atom_site_label
 _atom_site_symmetry_multiplicity
 _atom_site_fract_x
 _atom_site_fract_y
 _atom_site_fract_z
 _atom_site_occupancy
  Sm  Sm0  1  0.000000  0.000000  0.672770  1
  Sm  Sm1  1  0.000000  0.000000  0.327230  1
  Ho  Ho2  1  0.000000  0.000000  0.000000  1
  Cu  Cu3  1  0.500000  0.500000  0.500000  1
  Cu  Cu4  1  0.668362  0.331638  0.683892  1
  Cu  Cu5  1  0.331638  0.668362  0.683892  1
  Cu  Cu6  1  0.331638  0.668362  0.316108  1
  Cu  Cu7  1  0.668362  0.331638  0.316108  1
  Ni  Ni8  1  0.500000  0.000000  0.500000  1
  Ni  Ni9  1  0.000000  0.500000  0.500000  1
  Ni  Ni10  1  0.500000  0.500000  0.871184  1
  Ni  Ni11  1  0.500000  0.000000  0.871527  1
  Ni  Ni12  1  0.000000  0.500000  0.871527  1
  Ni  Ni13  1  0.500000  0.500000  0.128816  1
  Ni  Ni14  1  0.500000  0.000000  0.128473  1
  Ni  Ni15  1  0.000000  0.500000  0.128473  1
  B  B16  1  0.666377  0.333623  0.000000  1
  B  B17  1  0.333623  0.666377  0.000000  1
