# generated using pymatgen
data_NaSb3(SO4)8
_symmetry_space_group_name_H-M   'P 1'
_cell_length_a   9.14505600
_cell_length_b   9.30986000
_cell_length_c   13.77972700
_cell_angle_alpha   90.00000000
_cell_angle_beta   90.00000000
_cell_angle_gamma   90.00000000
_symmetry_Int_Tables_number   1
_chemical_formula_structural   NaSb3(SO4)8
_chemical_formula_sum   'Na2 Sb6 S16 O64'
_cell_volume   1173.19480970
_cell_formula_units_Z   2
loop_
 _symmetry_equiv_pos_site_id
 _symmetry_equiv_pos_as_xyz
  1  'x, y, z'
loop_
 _atom_site_type_symbol
 _atom_site_label
 _atom_site_symmetry_multiplicity
 _atom_site_fract_x
 _atom_site_fract_y
 _atom_site_fract_z
 _atom_site_occupancy
  Na  Na0  1  0.895733  0.858304  0.126941  1
  Na  Na1  1  0.604267  0.858304  0.626941  1
  Sb  Sb2  1  0.390479  0.644022  0.128978  1
  Sb  Sb3  1  0.109521  0.644022  0.628978  1
  Sb  Sb4  1  0.898970  0.362741  0.369402  1
  Sb  Sb5  1  0.601030  0.362741  0.869402  1
  Sb  Sb6  1  0.393565  0.137096  0.381534  1
  Sb  Sb7  1  0.106435  0.137096  0.881534  1
  S  S8  1  0.945682  0.926806  0.721854  1
  S  S9  1  0.554318  0.926806  0.221854  1
  S  S10  1  0.073244  0.579307  0.223255  1
  S  S11  1  0.426756  0.579307  0.723255  1
  S  S12  1  0.566764  0.422658  0.280540  1
  S  S13  1  0.933236  0.422658  0.780540  1
  S  S14  1  0.428179  0.086118  0.779534  1
  S  S15  1  0.071821  0.086118  0.279534  1
  S  S16  1  0.314739  0.831167  0.478820  1
  S  S17  1  0.185261  0.831167  0.978820  1
  S  S18  1  0.813939  0.651801  0.490634  1
  S  S19  1  0.686061  0.651801  0.990634  1
  S  S20  1  0.311841  0.340099  0.016385  1
  S  S21  1  0.188159  0.340099  0.516385  1
  S  S22  1  0.803608  0.155758  0.006185  1
  S  S23  1  0.696392  0.155758  0.506185  1
  O  O24  1  0.300546  0.002487  0.478382  1
  O  O25  1  0.199454  0.002487  0.978382  1
  O  O26  1  0.027523  0.015153  0.366177  1
  O  O27  1  0.472477  0.015153  0.866177  1
  O  O28  1  0.508877  0.976663  0.327169  1
  O  O29  1  0.991123  0.976663  0.827169  1
  O  O30  1  0.789929  0.913101  0.726669  1
  O  O31  1  0.710071  0.913101  0.226669  1
  O  O32  1  0.268006  0.805210  0.079330  1
  O  O33  1  0.231994  0.805210  0.579330  1
  O  O34  1  0.035533  0.792421  0.994997  1
  O  O35  1  0.464467  0.792421  0.494997  1
  O  O36  1  0.012559  0.768836  0.727133  1
  O  O37  1  0.487441  0.768836  0.227133  1
  O  O38  1  0.237219  0.771101  0.398856  1
  O  O39  1  0.262781  0.771101  0.898856  1
  O  O40  1  0.784079  0.729820  0.404060  1
  O  O41  1  0.715921  0.729820  0.904060  1
  O  O42  1  0.035466  0.728244  0.226505  1
  O  O43  1  0.464534  0.728244  0.726505  1
  O  O44  1  0.978972  0.683791  0.515479  1
  O  O45  1  0.521028  0.683791  0.015479  1
  O  O46  1  0.769744  0.666345  0.077928  1
  O  O47  1  0.730256  0.666345  0.577928  1
  O  O48  1  0.248106  0.566929  0.227462  1
  O  O49  1  0.251894  0.566929  0.727462  1
  O  O50  1  0.462041  0.518380  0.828266  1
  O  O51  1  0.037959  0.518380  0.328266  1
  O  O52  1  0.521033  0.509673  0.359644  1
  O  O53  1  0.978967  0.509673  0.859644  1
  O  O54  1  0.808412  0.485059  0.470702  1
  O  O55  1  0.691588  0.485059  0.970702  1
  O  O56  1  0.299463  0.501849  0.028053  1
  O  O57  1  0.200537  0.501849  0.528053  1
  O  O58  1  0.482409  0.487067  0.649269  1
  O  O59  1  0.017591  0.487067  0.149269  1
  O  O60  1  0.525480  0.478472  0.179128  1
  O  O61  1  0.974520  0.478472  0.679128  1
  O  O62  1  0.733724  0.408737  0.269308  1
  O  O63  1  0.766276  0.408737  0.769308  1
  O  O64  1  0.281579  0.316713  0.425318  1
  O  O65  1  0.218421  0.316713  0.925318  1
  O  O66  1  0.466771  0.304195  0.984611  1
  O  O67  1  0.033229  0.304195  0.484611  1
  O  O68  1  0.504945  0.270201  0.281178  1
  O  O69  1  0.995055  0.270201  0.781178  1
  O  O70  1  0.270913  0.258841  0.098823  1
  O  O71  1  0.229087  0.258841  0.598823  1
  O  O72  1  0.758616  0.242259  0.086020  1
  O  O73  1  0.741384  0.242259  0.586020  1
  O  O74  1  0.495830  0.242598  0.773452  1
  O  O75  1  0.004170  0.242598  0.273452  1
  O  O76  1  0.534259  0.205297  0.482537  1
  O  O77  1  0.965741  0.205297  0.982537  1
  O  O78  1  0.776144  0.196348  0.408254  1
  O  O79  1  0.723856  0.196348  0.908254  1
  O  O80  1  0.258045  0.117871  0.778532  1
  O  O81  1  0.241955  0.117871  0.278532  1
  O  O82  1  0.453792  0.028408  0.684799  1
  O  O83  1  0.046208  0.028408  0.184799  1
  O  O84  1  0.013614  0.009608  0.647451  1
  O  O85  1  0.486386  0.009608  0.147451  1
  O  O86  1  0.795907  0.002442  0.010448  1
  O  O87  1  0.704093  0.002442  0.510448  1
