# generated using pymatgen
data_Tm7Lu3(InSb)3
_symmetry_space_group_name_H-M   'P 1'
_cell_length_a   6.40610600
_cell_length_b   8.83161385
_cell_length_c   8.83169301
_cell_angle_alpha   59.99401921
_cell_angle_beta   89.99802270
_cell_angle_gamma   89.99925544
_symmetry_Int_Tables_number   1
_chemical_formula_structural   Tm7Lu3(InSb)3
_chemical_formula_sum   'Tm7 Lu3 In3 Sb3'
_cell_volume   432.69573287
_cell_formula_units_Z   1
loop_
 _symmetry_equiv_pos_site_id
 _symmetry_equiv_pos_as_xyz
  1  'x, y, z'
loop_
 _atom_site_type_symbol
 _atom_site_label
 _atom_site_symmetry_multiplicity
 _atom_site_fract_x
 _atom_site_fract_y
 _atom_site_fract_z
 _atom_site_occupancy
  Tm  Tm0  1  0.997307  0.333345  0.333368  1
  Tm  Tm1  1  0.749916  0.237810  0.762316  1
  Tm  Tm2  1  0.749955  0.762334  0.999912  1
  Tm  Tm3  1  0.749960  0.999837  0.237812  1
  Tm  Tm4  1  0.250174  0.761641  0.238339  1
  Tm  Tm5  1  0.250125  0.238435  0.999933  1
  Tm  Tm6  1  0.250119  0.000049  0.761566  1
  Lu  Lu7  1  0.502863  0.333304  0.333298  1
  Lu  Lu8  1  0.502920  0.666704  0.666686  1
  Lu  Lu9  1  0.997046  0.666626  0.666664  1
  In  In10  1  0.749486  0.606083  0.394229  1
  In  In11  1  0.749675  0.394185  0.999707  1
  In  In12  1  0.749700  0.999688  0.606122  1
  Sb  Sb13  1  0.250301  0.396326  0.604043  1
  Sb  Sb14  1  0.250228  0.604057  0.999702  1
  Sb  Sb15  1  0.250225  0.999578  0.396303  1
