# generated using pymatgen
data_Pd3Ru(Pb2O7)2
_symmetry_space_group_name_H-M   'P 1'
_cell_length_a   7.42703658
_cell_length_b   7.42703692
_cell_length_c   7.42703743
_cell_angle_alpha   59.20568417
_cell_angle_beta   59.20568310
_cell_angle_gamma   59.20568277
_symmetry_Int_Tables_number   1
_chemical_formula_structural   Pd3Ru(Pb2O7)2
_chemical_formula_sum   'Pd3 Ru1 Pb4 O14'
_cell_volume   284.44639171
_cell_formula_units_Z   1
loop_
 _symmetry_equiv_pos_site_id
 _symmetry_equiv_pos_as_xyz
  1  'x, y, z'
loop_
 _atom_site_type_symbol
 _atom_site_label
 _atom_site_symmetry_multiplicity
 _atom_site_fract_x
 _atom_site_fract_y
 _atom_site_fract_z
 _atom_site_occupancy
  Pd  Pd0  1  0.125000  0.625000  0.625000  1
  Pd  Pd1  1  0.625000  0.125000  0.625000  1
  Pd  Pd2  1  0.625000  0.625000  0.125000  1
  Ru  Ru3  1  0.625000  0.625000  0.625000  1
  Pb  Pb4  1  0.625000  0.125000  0.125000  1
  Pb  Pb5  1  0.125000  0.625000  0.125000  1
  Pb  Pb6  1  0.125000  0.125000  0.625000  1
  Pb  Pb7  1  0.125000  0.125000  0.125000  1
  O  O8  1  0.703816  0.703816  0.301729  1
  O  O9  1  0.291745  0.291745  0.709891  1
  O  O10  1  0.703816  0.301729  0.703816  1
  O  O11  1  0.291745  0.709891  0.291745  1
  O  O12  1  0.301729  0.703816  0.703816  1
  O  O13  1  0.709891  0.291745  0.291745  1
  O  O14  1  0.546184  0.546184  0.948271  1
  O  O15  1  0.958255  0.958255  0.540109  1
  O  O16  1  0.546184  0.948271  0.546184  1
  O  O17  1  0.958255  0.540109  0.958255  1
  O  O18  1  0.948271  0.546184  0.546184  1
  O  O19  1  0.540109  0.958255  0.958255  1
  O  O20  1  0.243688  0.243688  0.243688  1
  O  O21  1  0.006312  0.006312  0.006312  1
