# generated using pymatgen
data_Pr10CdSi4Pt
_symmetry_space_group_name_H-M   'P 1'
_cell_length_a   7.74082800
_cell_length_b   9.33562529
_cell_length_c   7.74082800
_cell_angle_alpha   114.49321698
_cell_angle_beta   90.00000000
_cell_angle_gamma   114.49321698
_symmetry_Int_Tables_number   1
_chemical_formula_structural   Pr10CdSi4Pt
_chemical_formula_sum   'Pr10 Cd1 Si4 Pt1'
_cell_volume   453.15715014
_cell_formula_units_Z   1
loop_
 _symmetry_equiv_pos_site_id
 _symmetry_equiv_pos_as_xyz
  1  'x, y, z'
loop_
 _atom_site_type_symbol
 _atom_site_label
 _atom_site_symmetry_multiplicity
 _atom_site_fract_x
 _atom_site_fract_y
 _atom_site_fract_z
 _atom_site_occupancy
  Pr  Pr0  1  0.971390  0.942781  0.971390  1
  Pr  Pr1  1  0.528610  0.057219  0.528610  1
  Pr  Pr2  1  0.518060  0.720272  0.666525  1
  Pr  Pr3  1  0.202213  0.720272  0.053748  1
  Pr  Pr4  1  0.666525  0.720272  0.202213  1
  Pr  Pr5  1  0.053748  0.720272  0.518060  1
  Pr  Pr6  1  0.446252  0.279728  0.297787  1
  Pr  Pr7  1  0.833475  0.279728  0.981940  1
  Pr  Pr8  1  0.297787  0.279728  0.833475  1
  Pr  Pr9  1  0.981940  0.279728  0.446252  1
  Cd  Cd10  1  0.750000  0.500000  0.750000  1
  Si  Si11  1  0.884952  0.000000  0.615048  1
  Si  Si12  1  0.115048  0.000000  0.384952  1
  Si  Si13  1  0.615048  0.000000  0.115048  1
  Si  Si14  1  0.384952  0.000000  0.884952  1
  Pt  Pt15  1  0.250000  0.500000  0.250000  1
