# generated using pymatgen
data_Tm5LuAl16Os7
_symmetry_space_group_name_H-M   'P 1'
_cell_length_a   8.88950461
_cell_length_b   8.89373071
_cell_length_c   8.89373100
_cell_angle_alpha   59.96856588
_cell_angle_beta   60.01571746
_cell_angle_gamma   60.01571706
_symmetry_Int_Tables_number   1
_chemical_formula_structural   Tm5LuAl16Os7
_chemical_formula_sum   'Tm5 Lu1 Al16 Os7'
_cell_volume   497.19909864
_cell_formula_units_Z   1
loop_
 _symmetry_equiv_pos_site_id
 _symmetry_equiv_pos_as_xyz
  1  'x, y, z'
loop_
 _atom_site_type_symbol
 _atom_site_label
 _atom_site_symmetry_multiplicity
 _atom_site_fract_x
 _atom_site_fract_y
 _atom_site_fract_z
 _atom_site_occupancy
  Tm  Tm0  1  0.711341  0.711376  0.288659  1
  Tm  Tm1  1  0.288624  0.711376  0.288659  1
  Tm  Tm2  1  0.711615  0.288385  0.288385  1
  Tm  Tm3  1  0.288624  0.288659  0.711376  1
  Tm  Tm4  1  0.711341  0.288659  0.711376  1
  Lu  Lu5  1  0.288254  0.711746  0.711746  1
  Al  Al6  1  0.878971  0.878852  0.363206  1
  Al  Al7  1  0.878971  0.363206  0.878852  1
  Al  Al8  1  0.363127  0.878850  0.878850  1
  Al  Al9  1  0.879173  0.878850  0.878850  1
  Al  Al10  1  0.121150  0.120827  0.636873  1
  Al  Al11  1  0.121150  0.636873  0.120827  1
  Al  Al12  1  0.636794  0.121029  0.121029  1
  Al  Al13  1  0.121148  0.121029  0.121029  1
  Al  Al14  1  0.666872  0.667016  0.999242  1
  Al  Al15  1  0.666872  0.999242  0.667016  1
  Al  Al16  1  0.999505  0.666896  0.666896  1
  Al  Al17  1  0.666704  0.666896  0.666896  1
  Al  Al18  1  0.333104  0.333296  0.000495  1
  Al  Al19  1  0.333104  0.000495  0.333296  1
  Al  Al20  1  0.000758  0.333128  0.333128  1
  Al  Al21  1  0.332984  0.333128  0.333128  1
  Os  Os22  1  0.000035  0.999965  0.999965  1
  Os  Os23  1  0.000202  0.999798  0.500256  1
  Os  Os24  1  0.499744  0.999798  0.500256  1
  Os  Os25  1  0.999944  0.500056  0.500056  1
  Os  Os26  1  0.499744  0.500256  0.999798  1
  Os  Os27  1  0.000202  0.500256  0.999798  1
  Os  Os28  1  0.499944  0.000056  0.000056  1
