# generated using pymatgen
data_KTiCuP2
_symmetry_space_group_name_H-M   'P 1'
_cell_length_a   7.41429338
_cell_length_b   7.41429291
_cell_length_c   7.41429414
_cell_angle_alpha   148.84616950
_cell_angle_beta   148.84616754
_cell_angle_gamma   44.63779272
_symmetry_Int_Tables_number   1
_chemical_formula_structural   KTiCuP2
_chemical_formula_sum   'K1 Ti1 Cu1 P2'
_cell_volume   108.75318601
_cell_formula_units_Z   1
loop_
 _symmetry_equiv_pos_site_id
 _symmetry_equiv_pos_as_xyz
  1  'x, y, z'
loop_
 _atom_site_type_symbol
 _atom_site_label
 _atom_site_symmetry_multiplicity
 _atom_site_fract_x
 _atom_site_fract_y
 _atom_site_fract_z
 _atom_site_occupancy
  K  K0  1  0.000000  0.000000  0.000000  1
  Ti  Ti1  1  0.750000  0.250000  0.500000  1
  Cu  Cu2  1  0.250000  0.750000  0.500000  1
  P  P3  1  0.347368  0.347368  0.000000  1
  P  P4  1  0.652632  0.652632  0.000000  1
