# generated using pymatgen
data_Tb4Ga24(Pd2Pt)3
_symmetry_space_group_name_H-M   'P 1'
_cell_length_a   7.51074526
_cell_length_b   7.59086557
_cell_length_c   13.41833211
_cell_angle_alpha   84.85762192
_cell_angle_beta   79.71711356
_cell_angle_gamma   60.04786890
_symmetry_Int_Tables_number   1
_chemical_formula_structural   Tb4Ga24(Pd2Pt)3
_chemical_formula_sum   'Tb4 Ga24 Pd6 Pt3'
_cell_volume   652.19973577
_cell_formula_units_Z   1
loop_
 _symmetry_equiv_pos_site_id
 _symmetry_equiv_pos_as_xyz
  1  'x, y, z'
loop_
 _atom_site_type_symbol
 _atom_site_label
 _atom_site_symmetry_multiplicity
 _atom_site_fract_x
 _atom_site_fract_y
 _atom_site_fract_z
 _atom_site_occupancy
  Tb  Tb0  1  0.393350  0.169418  0.811300  1
  Tb  Tb1  1  0.607013  0.830473  0.188435  1
  Tb  Tb2  1  0.731838  0.497811  0.811366  1
  Tb  Tb3  1  0.268475  0.502292  0.188229  1
  Ga  Ga4  1  0.686260  0.834168  0.939662  1
  Ga  Ga5  1  0.313941  0.165958  0.060127  1
  Ga  Ga6  1  0.144889  0.832856  0.559617  1
  Ga  Ga7  1  0.854176  0.167215  0.440749  1
  Ga  Ga8  1  0.477937  0.166891  0.556108  1
  Ga  Ga9  1  0.522446  0.833434  0.443244  1
  Ga  Ga10  1  0.221695  0.166183  0.324080  1
  Ga  Ga11  1  0.779070  0.833985  0.675609  1
  Ga  Ga12  1  0.435587  0.503712  0.673739  1
  Ga  Ga13  1  0.564839  0.495011  0.326207  1
  Ga  Ga14  1  0.106333  0.164631  0.674386  1
  Ga  Ga15  1  0.892907  0.836553  0.325691  1
  Ga  Ga16  1  0.355781  0.499470  0.940227  1
  Ga  Ga17  1  0.644732  0.500315  0.059594  1
  Ga  Ga18  1  0.019406  0.168363  0.944715  1
  Ga  Ga19  1  0.980560  0.831716  0.055253  1
  Ga  Ga20  1  0.187190  0.499250  0.443336  1
  Ga  Ga21  1  0.813395  0.500000  0.556968  1
  Ga  Ga22  1  0.733276  0.164508  0.182207  1
  Ga  Ga23  1  0.265132  0.835954  0.818341  1
  Ga  Ga24  1  0.061669  0.629327  0.817041  1
  Ga  Ga25  1  0.938360  0.370329  0.183106  1
  Ga  Ga26  1  0.857259  0.038629  0.817241  1
  Ga  Ga27  1  0.142121  0.961721  0.182860  1
  Pd  Pd28  1  0.116605  0.496649  0.638655  1
  Pd  Pd29  1  0.883351  0.503433  0.361611  1
  Pd  Pd30  1  0.660084  0.169907  0.998671  1
  Pd  Pd31  1  0.340252  0.830089  0.001193  1
  Pd  Pd32  1  0.542108  0.167457  0.360486  1
  Pd  Pd33  1  0.000172  0.499946  0.999996  1
  Pt  Pt34  1  0.457753  0.832373  0.639601  1
  Pt  Pt35  1  0.779276  0.171161  0.637634  1
  Pt  Pt36  1  0.220762  0.828811  0.362717  1
