# generated using pymatgen
data_CeY5Pa2(ReB6)4
_symmetry_space_group_name_H-M   'P 1'
_cell_length_a   3.71055200
_cell_length_b   9.20407866
_cell_length_c   11.55717002
_cell_angle_alpha   89.71485487
_cell_angle_beta   90.00000000
_cell_angle_gamma   90.00000000
_symmetry_Int_Tables_number   1
_chemical_formula_structural   CeY5Pa2(ReB6)4
_chemical_formula_sum   'Ce1 Y5 Pa2 Re4 B24'
_cell_volume   394.69803838
_cell_formula_units_Z   1
loop_
 _symmetry_equiv_pos_site_id
 _symmetry_equiv_pos_as_xyz
  1  'x, y, z'
loop_
 _atom_site_type_symbol
 _atom_site_label
 _atom_site_symmetry_multiplicity
 _atom_site_fract_x
 _atom_site_fract_y
 _atom_site_fract_z
 _atom_site_occupancy
  Ce  Ce0  1  0.000000  0.323930  0.413953  1
  Y  Y1  1  0.000000  0.677798  0.586277  1
  Y  Y2  1  0.000000  0.445298  0.125737  1
  Y  Y3  1  0.000000  0.555220  0.873340  1
  Y  Y4  1  0.000000  0.943950  0.374768  1
  Y  Y5  1  0.000000  0.054246  0.625831  1
  Pa  Pa6  1  0.000000  0.821947  0.087341  1
  Pa  Pa7  1  0.000000  0.177670  0.912346  1
  Re  Re8  1  0.000000  0.136055  0.175319  1
  Re  Re9  1  0.000000  0.864768  0.825776  1
  Re  Re10  1  0.000000  0.640095  0.318036  1
  Re  Re11  1  0.000000  0.359229  0.681060  1
  B  B12  1  0.500000  0.052822  0.067114  1
  B  B13  1  0.500000  0.947131  0.933266  1
  B  B14  1  0.500000  0.553981  0.431604  1
  B  B15  1  0.500000  0.445996  0.568113  1
  B  B16  1  0.500000  0.246974  0.079500  1
  B  B17  1  0.500000  0.753214  0.920211  1
  B  B18  1  0.500000  0.747722  0.419987  1
  B  B19  1  0.500000  0.252537  0.580863  1
  B  B20  1  0.500000  0.290801  0.232972  1
  B  B21  1  0.500000  0.708885  0.766825  1
  B  B22  1  0.500000  0.792593  0.266208  1
  B  B23  1  0.500000  0.207505  0.734129  1
  B  B24  1  0.500000  0.131820  0.313752  1
  B  B25  1  0.500000  0.867688  0.686145  1
  B  B26  1  0.500000  0.633827  0.185570  1
  B  B27  1  0.500000  0.366664  0.813912  1
  B  B28  1  0.500000  0.484141  0.286745  1
  B  B29  1  0.500000  0.517108  0.713165  1
  B  B30  1  0.500000  0.982941  0.212902  1
  B  B31  1  0.500000  0.016569  0.787099  1
  B  B32  1  0.500000  0.108774  0.469472  1
  B  B33  1  0.500000  0.890009  0.530923  1
  B  B34  1  0.500000  0.615895  0.031769  1
  B  B35  1  0.500000  0.384196  0.967970  1
