# generated using pymatgen
data_Tb8Dy8Cd2CoHg2Ru3
_symmetry_space_group_name_H-M   'P 1'
_cell_length_a   9.65516924
_cell_length_b   9.65301586
_cell_length_c   9.59134300
_cell_angle_alpha   59.65538035
_cell_angle_beta   59.66432509
_cell_angle_gamma   59.89636129
_symmetry_Int_Tables_number   1
_chemical_formula_structural   Tb8Dy8Cd2CoHg2Ru3
_chemical_formula_sum   'Tb8 Dy8 Cd2 Co1 Hg2 Ru3'
_cell_volume   628.34398928
_cell_formula_units_Z   1
loop_
 _symmetry_equiv_pos_site_id
 _symmetry_equiv_pos_as_xyz
  1  'x, y, z'
loop_
 _atom_site_type_symbol
 _atom_site_label
 _atom_site_symmetry_multiplicity
 _atom_site_fract_x
 _atom_site_fract_y
 _atom_site_fract_z
 _atom_site_occupancy
  Tb  Tb0  1  0.810824  0.811202  0.189003  1
  Tb  Tb1  1  0.209081  0.594809  0.601777  1
  Tb  Tb2  1  0.810332  0.189244  0.190753  1
  Tb  Tb3  1  0.060148  0.439927  0.438641  1
  Tb  Tb4  1  0.189279  0.810628  0.190503  1
  Tb  Tb5  1  0.596611  0.596668  0.209642  1
  Tb  Tb6  1  0.187984  0.187704  0.810198  1
  Tb  Tb7  1  0.064707  0.438891  0.056848  1
  Dy  Dy8  1  0.438151  0.437863  0.057394  1
  Dy  Dy9  1  0.594983  0.595056  0.601985  1
  Dy  Dy10  1  0.186067  0.815502  0.809958  1
  Dy  Dy11  1  0.059725  0.059523  0.438364  1
  Dy  Dy12  1  0.439020  0.064547  0.057057  1
  Dy  Dy13  1  0.815218  0.186051  0.810043  1
  Dy  Dy14  1  0.440052  0.060061  0.438507  1
  Dy  Dy15  1  0.594744  0.209074  0.601789  1
  Cd  Cd16  1  0.510119  0.829447  0.829156  1
  Cd  Cd17  1  0.829260  0.510105  0.829254  1
  Co  Co18  1  0.390602  0.390327  0.830285  1
  Hg  Hg19  1  0.832695  0.832929  0.498451  1
  Hg  Hg20  1  0.833095  0.833347  0.833773  1
  Ru  Ru21  1  0.388229  0.387826  0.390967  1
  Ru  Ru22  1  0.830254  0.388641  0.392988  1
  Ru  Ru23  1  0.388816  0.830622  0.392665  1
