# generated using pymatgen
data_PaReH5
_symmetry_space_group_name_H-M   'P 1'
_cell_length_a   4.51432300
_cell_length_b   4.56695900
_cell_length_c   11.52342900
_cell_angle_alpha   90.00000000
_cell_angle_beta   90.00000000
_cell_angle_gamma   90.00000000
_symmetry_Int_Tables_number   1
_chemical_formula_structural   PaReH5
_chemical_formula_sum   'Pa4 Re4 H20'
_cell_volume   237.57540194
_cell_formula_units_Z   4
loop_
 _symmetry_equiv_pos_site_id
 _symmetry_equiv_pos_as_xyz
  1  'x, y, z'
loop_
 _atom_site_type_symbol
 _atom_site_label
 _atom_site_symmetry_multiplicity
 _atom_site_fract_x
 _atom_site_fract_y
 _atom_site_fract_z
 _atom_site_occupancy
  Pa  Pa0  1  0.262905  0.251544  0.642224  1
  Pa  Pa1  1  0.762905  0.248456  0.357776  1
  Pa  Pa2  1  0.237095  0.748456  0.142224  1
  Pa  Pa3  1  0.737095  0.751544  0.857776  1
  Re  Re4  1  0.296325  0.252471  0.906744  1
  Re  Re5  1  0.796325  0.247529  0.093256  1
  Re  Re6  1  0.203675  0.747529  0.406744  1
  Re  Re7  1  0.703675  0.752471  0.593256  1
  H  H8  1  0.501531  0.504625  0.496306  1
  H  H9  1  0.001531  0.995375  0.503694  1
  H  H10  1  0.998469  0.495375  0.996306  1
  H  H11  1  0.498469  0.004625  0.003694  1
  H  H12  1  0.179713  0.980871  0.808966  1
  H  H13  1  0.679713  0.519129  0.191034  1
  H  H14  1  0.320287  0.019129  0.308966  1
  H  H15  1  0.820287  0.480871  0.691034  1
  H  H16  1  0.183367  0.525729  0.809212  1
  H  H17  1  0.683367  0.974271  0.190788  1
  H  H18  1  0.316633  0.474271  0.309212  1
  H  H19  1  0.816633  0.025729  0.690788  1
  H  H20  1  0.604564  0.251517  0.818313  1
  H  H21  1  0.104564  0.248483  0.181687  1
  H  H22  1  0.895436  0.748483  0.318313  1
  H  H23  1  0.395436  0.751517  0.681687  1
  H  H24  1  0.000416  0.002958  0.996414  1
  H  H25  1  0.500416  0.497042  0.003586  1
  H  H26  1  0.499584  0.997042  0.496414  1
  H  H27  1  0.999584  0.502958  0.503586  1
