# generated using pymatgen
data_BeSi(PPd6)2
_symmetry_space_group_name_H-M   'P 1'
_cell_length_a   5.18994559
_cell_length_b   5.92182620
_cell_length_c   7.58745000
_cell_angle_alpha   90.00000000
_cell_angle_beta   90.00000000
_cell_angle_gamma   90.22156664
_symmetry_Int_Tables_number   1
_chemical_formula_structural   BeSi(PPd6)2
_chemical_formula_sum   'Be1 Si1 P2 Pd12'
_cell_volume   233.19060901
_cell_formula_units_Z   1
loop_
 _symmetry_equiv_pos_site_id
 _symmetry_equiv_pos_as_xyz
  1  'x, y, z'
loop_
 _atom_site_type_symbol
 _atom_site_label
 _atom_site_symmetry_multiplicity
 _atom_site_fract_x
 _atom_site_fract_y
 _atom_site_fract_z
 _atom_site_occupancy
  Be  Be0  1  0.950780  0.612060  0.750000  1
  Si  Si1  1  0.456107  0.886121  0.250000  1
  P  P2  1  0.044138  0.388292  0.250000  1
  P  P3  1  0.545660  0.116899  0.750000  1
  Pd  Pd4  1  0.890418  0.015962  0.250000  1
  Pd  Pd5  1  0.378928  0.483894  0.750000  1
  Pd  Pd6  1  0.622499  0.515322  0.250000  1
  Pd  Pd7  1  0.123630  0.973902  0.750000  1
  Pd  Pd8  1  0.331116  0.181856  0.057560  1
  Pd  Pd9  1  0.833322  0.322989  0.938192  1
  Pd  Pd10  1  0.163557  0.675342  0.444457  1
  Pd  Pd11  1  0.665925  0.823587  0.559837  1
  Pd  Pd12  1  0.665925  0.823587  0.940163  1
  Pd  Pd13  1  0.163557  0.675342  0.055543  1
  Pd  Pd14  1  0.833322  0.322989  0.561808  1
  Pd  Pd15  1  0.331116  0.181856  0.442440  1
