# generated using pymatgen
data_Tb14Nd2Cd4IrPt3
_symmetry_space_group_name_H-M   'P 1'
_cell_length_a   9.75722679
_cell_length_b   9.73350567
_cell_length_c   9.71647100
_cell_angle_alpha   60.05787958
_cell_angle_beta   60.13808100
_cell_angle_gamma   60.07977072
_symmetry_Int_Tables_number   1
_chemical_formula_structural   Tb14Nd2Cd4IrPt3
_chemical_formula_sum   'Tb14 Nd2 Cd4 Ir1 Pt3'
_cell_volume   653.87137669
_cell_formula_units_Z   1
loop_
 _symmetry_equiv_pos_site_id
 _symmetry_equiv_pos_as_xyz
  1  'x, y, z'
loop_
 _atom_site_type_symbol
 _atom_site_label
 _atom_site_symmetry_multiplicity
 _atom_site_fract_x
 _atom_site_fract_y
 _atom_site_fract_z
 _atom_site_occupancy
  Tb  Tb0  1  0.353592  0.349541  0.346672  1
  Tb  Tb1  1  0.353592  0.349541  0.950195  1
  Tb  Tb2  1  0.354681  0.944281  0.350519  1
  Tb  Tb3  1  0.938325  0.354275  0.353700  1
  Tb  Tb4  1  0.808386  0.189055  0.188814  1
  Tb  Tb5  1  0.190646  0.810956  0.809076  1
  Tb  Tb6  1  0.190646  0.810956  0.189323  1
  Tb  Tb7  1  0.808386  0.189055  0.813745  1
  Tb  Tb8  1  0.192039  0.189682  0.809140  1
  Tb  Tb9  1  0.808177  0.814311  0.188756  1
  Tb  Tb10  1  0.940695  0.559970  0.561390  1
  Tb  Tb11  1  0.562248  0.940188  0.938594  1
  Tb  Tb12  1  0.562248  0.940188  0.558971  1
  Tb  Tb13  1  0.940695  0.559970  0.937946  1
  Nd  Nd14  1  0.568351  0.565814  0.932918  1
  Nd  Nd15  1  0.935293  0.934955  0.564876  1
  Cd  Cd16  1  0.581165  0.581875  0.579429  1
  Cd  Cd17  1  0.581165  0.581875  0.257530  1
  Cd  Cd18  1  0.577545  0.255806  0.583324  1
  Cd  Cd19  1  0.257228  0.577741  0.582514  1
  Ir  Ir20  1  0.572406  0.138407  0.144593  1
  Pt  Pt21  1  0.142294  0.144953  0.143579  1
  Pt  Pt22  1  0.142294  0.144953  0.569172  1
  Pt  Pt23  1  0.137905  0.571651  0.145221  1
