# generated using pymatgen
data_Mg4CoAs6(Ir2Ru)2
_symmetry_space_group_name_H-M   'P 1'
_cell_length_a   7.01806693
_cell_length_b   7.02516873
_cell_length_c   7.02539493
_cell_angle_alpha   109.12844012
_cell_angle_beta   109.23698409
_cell_angle_gamma   110.08678234
_symmetry_Int_Tables_number   1
_chemical_formula_structural   Mg4CoAs6(Ir2Ru)2
_chemical_formula_sum   'Mg4 Co1 As6 Ir4 Ru2'
_cell_volume   266.49494059
_cell_formula_units_Z   1
loop_
 _symmetry_equiv_pos_site_id
 _symmetry_equiv_pos_as_xyz
  1  'x, y, z'
loop_
 _atom_site_type_symbol
 _atom_site_label
 _atom_site_symmetry_multiplicity
 _atom_site_fract_x
 _atom_site_fract_y
 _atom_site_fract_z
 _atom_site_occupancy
  Mg  Mg0  1  0.001923  0.997476  0.499207  1
  Mg  Mg1  1  0.498023  0.998375  0.996255  1
  Mg  Mg2  1  0.001906  0.502704  0.004472  1
  Mg  Mg3  1  0.498022  0.501738  0.499646  1
  Co  Co4  1  0.748159  0.248942  0.499130  1
  As  As5  1  0.685042  0.689715  0.995274  1
  As  As6  1  0.306005  0.310047  0.996002  1
  As  As7  1  0.995814  0.678804  0.690140  1
  As  As8  1  0.995950  0.305747  0.317098  1
  As  As9  1  0.696496  0.008285  0.688155  1
  As  As10  1  0.320515  0.008129  0.312469  1
  Ir  Ir11  1  0.508278  0.255390  0.749557  1
  Ir  Ir12  1  0.508290  0.758769  0.252855  1
  Ir  Ir13  1  0.743119  0.491777  0.251351  1
  Ir  Ir14  1  0.249840  0.750590  0.499193  1
  Ru  Ru15  1  0.000264  0.000017  0.000256  1
  Ru  Ru16  1  0.242356  0.493496  0.748939  1
