# generated using pymatgen
data_Sc12Cu3Si12Pt
_symmetry_space_group_name_H-M   'P 1'
_cell_length_a   4.02621304
_cell_length_b   10.21285863
_cell_length_c   11.71611411
_cell_angle_alpha   89.79346644
_cell_angle_beta   89.98496783
_cell_angle_gamma   89.99241423
_symmetry_Int_Tables_number   1
_chemical_formula_structural   Sc12Cu3Si12Pt
_chemical_formula_sum   'Sc12 Cu3 Si12 Pt1'
_cell_volume   481.75343978
_cell_formula_units_Z   1
loop_
 _symmetry_equiv_pos_site_id
 _symmetry_equiv_pos_as_xyz
  1  'x, y, z'
loop_
 _atom_site_type_symbol
 _atom_site_label
 _atom_site_symmetry_multiplicity
 _atom_site_fract_x
 _atom_site_fract_y
 _atom_site_fract_z
 _atom_site_occupancy
  Sc  Sc0  1  0.250060  0.877017  0.024672  1
  Sc  Sc1  1  0.250114  0.623226  0.524706  1
  Sc  Sc2  1  0.750070  0.125036  0.976046  1
  Sc  Sc3  1  0.749953  0.375269  0.474199  1
  Sc  Sc4  1  0.250072  0.920091  0.599964  1
  Sc  Sc5  1  0.250089  0.579673  0.098710  1
  Sc  Sc6  1  0.750126  0.078472  0.402155  1
  Sc  Sc7  1  0.750050  0.421893  0.902854  1
  Sc  Sc8  1  0.250161  0.660174  0.801512  1
  Sc  Sc9  1  0.249976  0.837672  0.301780  1
  Sc  Sc10  1  0.750009  0.338444  0.197684  1
  Sc  Sc11  1  0.750136  0.161026  0.698313  1
  Cu  Cu12  1  0.249179  0.386105  0.676701  1
  Cu  Cu13  1  0.248908  0.113503  0.177366  1
  Cu  Cu14  1  0.750214  0.613195  0.321971  1
  Si  Si15  1  0.250252  0.018291  0.826846  1
  Si  Si16  1  0.249760  0.484689  0.325920  1
  Si  Si17  1  0.749821  0.985186  0.175622  1
  Si  Si18  1  0.749960  0.513319  0.673654  1
  Si  Si19  1  0.250143  0.250677  0.842890  1
  Si  Si20  1  0.250052  0.249380  0.342748  1
  Si  Si21  1  0.750086  0.750467  0.157072  1
  Si  Si22  1  0.750151  0.746761  0.655964  1
  Si  Si23  1  0.250132  0.186473  0.541090  1
  Si  Si24  1  0.250059  0.313996  0.040765  1
  Si  Si25  1  0.750079  0.812912  0.459272  1
  Si  Si26  1  0.750151  0.690237  0.958349  1
  Pt  Pt27  1  0.750237  0.886819  0.821175  1
