# generated using pymatgen
data_Hf4TiNbZn7
_symmetry_space_group_name_H-M   'P 1'
_cell_length_a   5.19887439
_cell_length_b   5.19887622
_cell_length_c   9.83508428
_cell_angle_alpha   74.67449269
_cell_angle_beta   74.67448909
_cell_angle_gamma   60.00000265
_symmetry_Int_Tables_number   1
_chemical_formula_structural   Hf4TiNbZn7
_chemical_formula_sum   'Hf4 Ti1 Nb1 Zn7'
_cell_volume   219.22869649
_cell_formula_units_Z   1
loop_
 _symmetry_equiv_pos_site_id
 _symmetry_equiv_pos_as_xyz
  1  'x, y, z'
loop_
 _atom_site_type_symbol
 _atom_site_label
 _atom_site_symmetry_multiplicity
 _atom_site_fract_x
 _atom_site_fract_y
 _atom_site_fract_z
 _atom_site_occupancy
  Hf  Hf0  1  0.833355  0.833355  0.499936  1
  Hf  Hf1  1  0.165901  0.165901  0.502295  1
  Hf  Hf2  1  0.647382  0.647382  0.057852  1
  Hf  Hf3  1  0.354095  0.354095  0.937717  1
  Ti  Ti4  1  0.542007  0.542007  0.373979  1
  Nb  Nb5  1  0.457125  0.457125  0.628627  1
  Zn  Zn6  1  0.000062  0.000062  0.999815  1
  Zn  Zn7  1  0.905903  0.905903  0.774488  1
  Zn  Zn8  1  0.413704  0.905903  0.774488  1
  Zn  Zn9  1  0.905903  0.413704  0.774488  1
  Zn  Zn10  1  0.094195  0.094195  0.225439  1
  Zn  Zn11  1  0.586173  0.094195  0.225439  1
  Zn  Zn12  1  0.094195  0.586173  0.225439  1
