# generated using pymatgen
data_Er15Tm5Ir11Ru
_symmetry_space_group_name_H-M   'P 1'
_cell_length_a   10.76342701
_cell_length_b   10.76302501
_cell_length_c   6.35070900
_cell_angle_alpha   89.99681842
_cell_angle_beta   89.99741197
_cell_angle_gamma   90.00481754
_symmetry_Int_Tables_number   1
_chemical_formula_structural   Er15Tm5Ir11Ru
_chemical_formula_sum   'Er15 Tm5 Ir11 Ru1'
_cell_volume   735.71079849
_cell_formula_units_Z   1
loop_
 _symmetry_equiv_pos_site_id
 _symmetry_equiv_pos_as_xyz
  1  'x, y, z'
loop_
 _atom_site_type_symbol
 _atom_site_label
 _atom_site_symmetry_multiplicity
 _atom_site_fract_x
 _atom_site_fract_y
 _atom_site_fract_z
 _atom_site_occupancy
  Er  Er0  1  0.292760  0.913229  0.880665  1
  Er  Er1  1  0.706984  0.086903  0.880574  1
  Er  Er2  1  0.707786  0.913551  0.377366  1
  Er  Er3  1  0.586773  0.792984  0.880671  1
  Er  Er4  1  0.586266  0.207864  0.377451  1
  Er  Er5  1  0.413313  0.792369  0.377459  1
  Er  Er6  1  0.412837  0.207099  0.880572  1
  Er  Er7  1  0.209152  0.411720  0.621743  1
  Er  Er8  1  0.209180  0.587894  0.121367  1
  Er  Er9  1  0.790784  0.412087  0.121267  1
  Er  Er10  1  0.790746  0.588262  0.621848  1
  Er  Er11  1  0.912112  0.709237  0.121243  1
  Er  Er12  1  0.911700  0.290773  0.621902  1
  Er  Er13  1  0.088218  0.709252  0.621573  1
  Er  Er14  1  0.088118  0.290535  0.121457  1
  Tm  Tm15  1  0.292439  0.086410  0.377924  1
  Tm  Tm16  1  0.000311  0.000185  0.498007  1
  Tm  Tm17  1  0.000060  0.000090  0.998133  1
  Tm  Tm18  1  0.499938  0.499850  0.998446  1
  Tm  Tm19  1  0.499882  0.499989  0.498266  1
  Ir  Ir20  1  0.847687  0.153367  0.249280  1
  Ir  Ir21  1  0.847498  0.847399  0.749056  1
  Ir  Ir22  1  0.152759  0.152598  0.748664  1
  Ir  Ir23  1  0.152660  0.847131  0.249631  1
  Ir  Ir24  1  0.652628  0.347435  0.749225  1
  Ir  Ir25  1  0.653361  0.652305  0.249395  1
  Ir  Ir26  1  0.346778  0.347066  0.249885  1
  Ir  Ir27  1  0.347313  0.652533  0.749386  1
  Ir  Ir28  1  0.499665  0.000141  0.625786  1
  Ir  Ir29  1  0.000091  0.499944  0.876653  1
  Ir  Ir30  1  0.000049  0.500041  0.376968  1
  Ru  Ru31  1  0.500153  0.999760  0.128139  1
