# generated using pymatgen
data_As3(Pd2Rh)2
_symmetry_space_group_name_H-M   'P 1'
_cell_length_a   3.66632500
_cell_length_b   6.61521814
_cell_length_c   6.64537401
_cell_angle_alpha   120.15419034
_cell_angle_beta   90.00000000
_cell_angle_gamma   90.00000000
_symmetry_Int_Tables_number   1
_chemical_formula_structural   As3(Pd2Rh)2
_chemical_formula_sum   'As3 Pd4 Rh2'
_cell_volume   139.36326670
_cell_formula_units_Z   1
loop_
 _symmetry_equiv_pos_site_id
 _symmetry_equiv_pos_as_xyz
  1  'x, y, z'
loop_
 _atom_site_type_symbol
 _atom_site_label
 _atom_site_symmetry_multiplicity
 _atom_site_fract_x
 _atom_site_fract_y
 _atom_site_fract_z
 _atom_site_occupancy
  As  As0  1  0.500000  0.999999  0.987062  1
  As  As1  1  0.000000  0.340553  0.676531  1
  As  As2  1  0.000000  0.659419  0.335937  1
  Pd  Pd3  1  0.000000  0.000082  0.265610  1
  Pd  Pd4  1  0.500000  0.612895  0.007018  1
  Pd  Pd5  1  0.500000  0.387015  0.394122  1
  Pd  Pd6  1  0.500000  0.999922  0.599707  1
  Rh  Rh7  1  0.000000  0.266510  0.000298  1
  Rh  Rh8  1  0.000000  0.733505  0.733714  1
