# generated using pymatgen
data_ZrCdPd8Se
_symmetry_space_group_name_H-M   'P 1'
_cell_length_a   4.06742800
_cell_length_b   4.06742800
_cell_length_c   11.21021100
_cell_angle_alpha   90.00000000
_cell_angle_beta   90.00000000
_cell_angle_gamma   90.00000000
_symmetry_Int_Tables_number   1
_chemical_formula_structural   ZrCdPd8Se
_chemical_formula_sum   'Zr1 Cd1 Pd8 Se1'
_cell_volume   185.46140048
_cell_formula_units_Z   1
loop_
 _symmetry_equiv_pos_site_id
 _symmetry_equiv_pos_as_xyz
  1  'x, y, z'
loop_
 _atom_site_type_symbol
 _atom_site_label
 _atom_site_symmetry_multiplicity
 _atom_site_fract_x
 _atom_site_fract_y
 _atom_site_fract_z
 _atom_site_occupancy
  Zr  Zr0  1  0.500000  0.500000  0.827398  1
  Cd  Cd1  1  0.500000  0.500000  0.179757  1
  Pd  Pd2  1  0.500000  0.000000  0.995505  1
  Pd  Pd3  1  0.000000  0.500000  0.995505  1
  Pd  Pd4  1  0.500000  0.000000  0.643877  1
  Pd  Pd5  1  0.000000  0.500000  0.643877  1
  Pd  Pd6  1  0.500000  0.000000  0.359881  1
  Pd  Pd7  1  0.000000  0.500000  0.359881  1
  Pd  Pd8  1  0.000000  0.000000  0.819666  1
  Pd  Pd9  1  0.000000  0.000000  0.177760  1
  Se  Se10  1  0.000000  0.000000  0.496893  1
