# generated using pymatgen
data_Tb3In3Co2Hg
_symmetry_space_group_name_H-M   'P 1'
_cell_length_a   7.79772000
_cell_length_b   7.79771947
_cell_length_c   3.67048300
_cell_angle_alpha   90.00000000
_cell_angle_beta   90.00000000
_cell_angle_gamma   120.00000225
_symmetry_Int_Tables_number   1
_chemical_formula_structural   Tb3In3Co2Hg
_chemical_formula_sum   'Tb3 In3 Co2 Hg1'
_cell_volume   193.28096370
_cell_formula_units_Z   1
loop_
 _symmetry_equiv_pos_site_id
 _symmetry_equiv_pos_as_xyz
  1  'x, y, z'
loop_
 _atom_site_type_symbol
 _atom_site_label
 _atom_site_symmetry_multiplicity
 _atom_site_fract_x
 _atom_site_fract_y
 _atom_site_fract_z
 _atom_site_occupancy
  Tb  Tb0  1  0.964934  0.576627  0.500000  1
  Tb  Tb1  1  0.423373  0.388306  0.500000  1
  Tb  Tb2  1  0.611694  0.035066  0.500000  1
  In  In3  1  0.253885  0.003155  0.000000  1
  In  In4  1  0.749270  0.746115  0.000000  1
  In  In5  1  0.996845  0.250730  0.000000  1
  Co  Co6  1  0.000000  0.000000  0.500000  1
  Co  Co7  1  0.666667  0.333333  0.000000  1
  Hg  Hg8  1  0.333333  0.666667  0.000000  1
