# generated using pymatgen
data_GaSn4(BIr3)2
_symmetry_space_group_name_H-M   'P 1'
_cell_length_a   6.65535429
_cell_length_b   6.57956710
_cell_length_c   5.62891300
_cell_angle_alpha   90.00000000
_cell_angle_beta   90.00000000
_cell_angle_gamma   119.62402203
_symmetry_Int_Tables_number   1
_chemical_formula_structural   GaSn4(BIr3)2
_chemical_formula_sum   'Ga1 Sn4 B2 Ir6'
_cell_volume   214.26764780
_cell_formula_units_Z   1
loop_
 _symmetry_equiv_pos_site_id
 _symmetry_equiv_pos_as_xyz
  1  'x, y, z'
loop_
 _atom_site_type_symbol
 _atom_site_label
 _atom_site_symmetry_multiplicity
 _atom_site_fract_x
 _atom_site_fract_y
 _atom_site_fract_z
 _atom_site_occupancy
  Ga  Ga0  1  0.000000  0.598205  0.000000  1
  Sn  Sn1  1  0.668749  0.334152  0.500000  1
  Sn  Sn2  1  0.402580  0.404456  0.000000  1
  Sn  Sn3  1  0.597420  0.001877  0.000000  1
  Sn  Sn4  1  0.331251  0.665403  0.500000  1
  B  B5  1  0.000000  0.002273  0.500000  1
  B  B6  1  0.000000  0.995533  0.000000  1
  Ir  Ir7  1  0.000000  0.259576  0.746726  1
  Ir  Ir8  1  0.000000  0.259576  0.253274  1
  Ir  Ir9  1  0.748565  0.744020  0.254417  1
  Ir  Ir10  1  0.251435  0.995455  0.745583  1
  Ir  Ir11  1  0.251435  0.995455  0.254417  1
  Ir  Ir12  1  0.748565  0.744020  0.745583  1
