# generated using pymatgen
data_DyEr11In20
_symmetry_space_group_name_H-M   'P 1'
_cell_length_a   6.46444275
_cell_length_b   10.40496221
_cell_length_c   12.23394104
_cell_angle_alpha   89.98422068
_cell_angle_beta   89.97332909
_cell_angle_gamma   89.99630729
_symmetry_Int_Tables_number   1
_chemical_formula_structural   DyEr11In20
_chemical_formula_sum   'Dy1 Er11 In20'
_cell_volume   822.88267719
_cell_formula_units_Z   1
loop_
 _symmetry_equiv_pos_site_id
 _symmetry_equiv_pos_as_xyz
  1  'x, y, z'
loop_
 _atom_site_type_symbol
 _atom_site_label
 _atom_site_symmetry_multiplicity
 _atom_site_fract_x
 _atom_site_fract_y
 _atom_site_fract_z
 _atom_site_occupancy
  Dy  Dy0  1  0.608775  0.494881  0.642325  1
  Er  Er1  1  0.348203  0.750046  0.056103  1
  Er  Er2  1  0.151294  0.749938  0.556007  1
  Er  Er3  1  0.651687  0.250090  0.943905  1
  Er  Er4  1  0.848401  0.249754  0.443797  1
  Er  Er5  1  0.891609  0.494845  0.142077  1
  Er  Er6  1  0.608389  0.005109  0.642021  1
  Er  Er7  1  0.108423  0.994852  0.857950  1
  Er  Er8  1  0.391347  0.505143  0.357557  1
  Er  Er9  1  0.108481  0.505123  0.858023  1
  Er  Er10  1  0.391526  0.994939  0.357887  1
  Er  Er11  1  0.891556  0.005204  0.142078  1
  In  In12  1  0.616716  0.750575  0.504612  1
  In  In13  1  0.883260  0.750101  0.005302  1
  In  In14  1  0.382994  0.249903  0.494732  1
  In  In15  1  0.116791  0.249974  0.994778  1
  In  In16  1  0.649383  0.750043  0.246184  1
  In  In17  1  0.851108  0.750384  0.746633  1
  In  In18  1  0.350384  0.249675  0.753885  1
  In  In19  1  0.149473  0.249924  0.253667  1
  In  In20  1  0.128869  0.750034  0.286046  1
  In  In21  1  0.371108  0.750034  0.786019  1
  In  In22  1  0.871863  0.249491  0.714186  1
  In  In23  1  0.628812  0.249958  0.213991  1
  In  In24  1  0.875798  0.543472  0.401269  1
  In  In25  1  0.624150  0.956591  0.901444  1
  In  In26  1  0.124134  0.043387  0.598532  1
  In  In27  1  0.375810  0.456531  0.098606  1
  In  In28  1  0.123725  0.456416  0.598424  1
  In  In29  1  0.375823  0.043425  0.098610  1
  In  In30  1  0.875968  0.956562  0.401354  1
  In  In31  1  0.624141  0.543598  0.901996  1
