# generated using pymatgen
data_Dy3Ho(ReB2)6
_symmetry_space_group_name_H-M   'P 1'
_cell_length_a   6.22290837
_cell_length_b   6.22246344
_cell_length_c   7.50959158
_cell_angle_alpha   90.58756073
_cell_angle_beta   90.56119529
_cell_angle_gamma   113.73860048
_symmetry_Int_Tables_number   1
_chemical_formula_structural   Dy3Ho(ReB2)6
_chemical_formula_sum   'Dy3 Ho1 Re6 B12'
_cell_volume   266.13740370
_cell_formula_units_Z   1
loop_
 _symmetry_equiv_pos_site_id
 _symmetry_equiv_pos_as_xyz
  1  'x, y, z'
loop_
 _atom_site_type_symbol
 _atom_site_label
 _atom_site_symmetry_multiplicity
 _atom_site_fract_x
 _atom_site_fract_y
 _atom_site_fract_z
 _atom_site_occupancy
  Dy  Dy0  1  0.100766  0.443269  0.321993  1
  Dy  Dy1  1  0.556721  0.899237  0.177993  1
  Dy  Dy2  1  0.899192  0.556683  0.678027  1
  Ho  Ho3  1  0.443307  0.100984  0.821775  1
  Re  Re4  1  0.588670  0.411314  0.250026  1
  Re  Re5  1  0.411333  0.588751  0.750048  1
  Re  Re6  1  0.990733  0.807271  0.088645  1
  Re  Re7  1  0.192750  0.009316  0.411323  1
  Re  Re8  1  0.009387  0.192683  0.911244  1
  Re  Re9  1  0.807162  0.990723  0.588779  1
  B  B10  1  0.249845  0.151494  0.129822  1
  B  B11  1  0.848493  0.750262  0.370055  1
  B  B12  1  0.750217  0.848531  0.870059  1
  B  B13  1  0.151577  0.249690  0.629994  1
  B  B14  1  0.587639  0.159970  0.479780  1
  B  B15  1  0.839923  0.412262  0.020291  1
  B  B16  1  0.412326  0.840073  0.520415  1
  B  B17  1  0.160014  0.587650  0.979677  1
  B  B18  1  0.443557  0.350189  0.535972  1
  B  B19  1  0.649686  0.556349  0.964097  1
  B  B20  1  0.556441  0.649746  0.464117  1
  B  B21  1  0.350262  0.443555  0.035869  1
