# generated using pymatgen
data_Ca3Ga2GeRh6
_symmetry_space_group_name_H-M   'P 1'
_cell_length_a   5.64825200
_cell_length_b   5.64825188
_cell_length_c   15.56978800
_cell_angle_alpha   90.00000000
_cell_angle_beta   90.00000000
_cell_angle_gamma   120.00001243
_symmetry_Int_Tables_number   1
_chemical_formula_structural   Ca3Ga2GeRh6
_chemical_formula_sum   'Ca6 Ga4 Ge2 Rh12'
_cell_volume   430.17126502
_cell_formula_units_Z   2
loop_
 _symmetry_equiv_pos_site_id
 _symmetry_equiv_pos_as_xyz
  1  'x, y, z'
loop_
 _atom_site_type_symbol
 _atom_site_label
 _atom_site_symmetry_multiplicity
 _atom_site_fract_x
 _atom_site_fract_y
 _atom_site_fract_z
 _atom_site_occupancy
  Ca  Ca0  1  0.333333  0.666667  0.540387  1
  Ca  Ca1  1  0.666667  0.333333  0.459613  1
  Ca  Ca2  1  0.666667  0.333333  0.040387  1
  Ca  Ca3  1  0.333333  0.666667  0.959613  1
  Ca  Ca4  1  0.333333  0.666667  0.750000  1
  Ca  Ca5  1  0.666667  0.333333  0.250000  1
  Ga  Ga6  1  0.000000  0.000000  0.250000  1
  Ga  Ga7  1  0.000000  0.000000  0.750000  1
  Ga  Ga8  1  0.000000  0.000000  0.000000  1
  Ga  Ga9  1  0.000000  0.000000  0.500000  1
  Ge  Ge10  1  0.333333  0.666667  0.250000  1
  Ge  Ge11  1  0.666667  0.333333  0.750000  1
  Rh  Rh12  1  0.167756  0.335512  0.128275  1
  Rh  Rh13  1  0.832244  0.664488  0.871725  1
  Rh  Rh14  1  0.664488  0.832244  0.128275  1
  Rh  Rh15  1  0.832244  0.664488  0.628275  1
  Rh  Rh16  1  0.335512  0.167756  0.871725  1
  Rh  Rh17  1  0.167756  0.335512  0.371725  1
  Rh  Rh18  1  0.167756  0.832244  0.128275  1
  Rh  Rh19  1  0.335512  0.167756  0.628275  1
  Rh  Rh20  1  0.832244  0.167756  0.871725  1
  Rh  Rh21  1  0.664488  0.832244  0.371725  1
  Rh  Rh22  1  0.832244  0.167756  0.628275  1
  Rh  Rh23  1  0.167756  0.832244  0.371725  1
