# generated using pymatgen
data_Tm3Lu(Sc4Bi3)4
_symmetry_space_group_name_H-M   'P 1'
_cell_length_a   7.86880509
_cell_length_b   9.05611800
_cell_length_c   11.53366913
_cell_angle_alpha   90.00000000
_cell_angle_beta   90.01747584
_cell_angle_gamma   90.00000000
_symmetry_Int_Tables_number   1
_chemical_formula_structural   Tm3Lu(Sc4Bi3)4
_chemical_formula_sum   'Tm3 Lu1 Sc16 Bi12'
_cell_volume   821.89876754
_cell_formula_units_Z   1
loop_
 _symmetry_equiv_pos_site_id
 _symmetry_equiv_pos_as_xyz
  1  'x, y, z'
loop_
 _atom_site_type_symbol
 _atom_site_label
 _atom_site_symmetry_multiplicity
 _atom_site_fract_x
 _atom_site_fract_y
 _atom_site_fract_z
 _atom_site_occupancy
  Tm  Tm0  1  0.815177  0.750000  0.218267  1
  Tm  Tm1  1  0.315210  0.750000  0.281734  1
  Tm  Tm2  1  0.684850  0.250000  0.718275  1
  Lu  Lu3  1  0.184961  0.250000  0.781968  1
  Sc  Sc4  1  0.019599  0.250000  0.511640  1
  Sc  Sc5  1  0.980565  0.750000  0.488574  1
  Sc  Sc6  1  0.480526  0.750000  0.011428  1
  Sc  Sc7  1  0.519315  0.250000  0.988403  1
  Sc  Sc8  1  0.351240  0.250000  0.280306  1
  Sc  Sc9  1  0.648674  0.750000  0.719735  1
  Sc  Sc10  1  0.148605  0.750000  0.780261  1
  Sc  Sc11  1  0.851323  0.250000  0.219708  1
  Sc  Sc12  1  0.193850  0.067659  0.061920  1
  Sc  Sc13  1  0.806125  0.932314  0.937999  1
  Sc  Sc14  1  0.306198  0.932373  0.562078  1
  Sc  Sc15  1  0.806125  0.567686  0.937999  1
  Sc  Sc16  1  0.693790  0.067638  0.437988  1
  Sc  Sc17  1  0.193850  0.432341  0.061920  1
  Sc  Sc18  1  0.693790  0.432362  0.437988  1
  Sc  Sc19  1  0.306198  0.567627  0.562078  1
  Bi  Bi20  1  0.403051  0.250000  0.534862  1
  Bi  Bi21  1  0.596814  0.750000  0.465278  1
  Bi  Bi22  1  0.096757  0.750000  0.034730  1
  Bi  Bi23  1  0.903632  0.250000  0.964892  1
  Bi  Bi24  1  0.064805  0.008726  0.327678  1
  Bi  Bi25  1  0.935471  0.991512  0.672435  1
  Bi  Bi26  1  0.434739  0.991625  0.827613  1
  Bi  Bi27  1  0.935471  0.508488  0.672435  1
  Bi  Bi28  1  0.564873  0.008766  0.172260  1
  Bi  Bi29  1  0.064805  0.491274  0.327678  1
  Bi  Bi30  1  0.564873  0.491234  0.172260  1
  Bi  Bi31  1  0.434739  0.508375  0.827613  1
