# generated using pymatgen
data_Ti6SiAs
_symmetry_space_group_name_H-M   'P 1'
_cell_length_a   10.15743000
_cell_length_b   10.15743000
_cell_length_c   5.10364500
_cell_angle_alpha   90.00000000
_cell_angle_beta   90.00000000
_cell_angle_gamma   90.00000000
_symmetry_Int_Tables_number   1
_chemical_formula_structural   Ti6SiAs
_chemical_formula_sum   'Ti24 Si4 As4'
_cell_volume   526.56032643
_cell_formula_units_Z   4
loop_
 _symmetry_equiv_pos_site_id
 _symmetry_equiv_pos_as_xyz
  1  'x, y, z'
loop_
 _atom_site_type_symbol
 _atom_site_label
 _atom_site_symmetry_multiplicity
 _atom_site_fract_x
 _atom_site_fract_y
 _atom_site_fract_z
 _atom_site_occupancy
  Ti  Ti0  1  0.433001  0.967615  0.247186  1
  Ti  Ti1  1  0.066999  0.532386  0.247186  1
  Ti  Ti2  1  0.032385  0.933000  0.747187  1
  Ti  Ti3  1  0.467614  0.567000  0.747187  1
  Ti  Ti4  1  0.568582  0.035596  0.751909  1
  Ti  Ti5  1  0.931418  0.464403  0.751909  1
  Ti  Ti6  1  0.964404  0.068581  0.251907  1
  Ti  Ti7  1  0.535597  0.431419  0.251907  1
  Ti  Ti8  1  0.277361  0.390226  0.966679  1
  Ti  Ti9  1  0.222639  0.109774  0.966679  1
  Ti  Ti10  1  0.609774  0.777361  0.466681  1
  Ti  Ti11  1  0.890226  0.722638  0.466681  1
  Ti  Ti12  1  0.721613  0.605939  0.034176  1
  Ti  Ti13  1  0.778386  0.894061  0.034176  1
  Ti  Ti14  1  0.394061  0.221614  0.534176  1
  Ti  Ti15  1  0.105939  0.278386  0.534176  1
  Ti  Ti16  1  0.330826  0.855390  0.716613  1
  Ti  Ti17  1  0.169174  0.644611  0.716613  1
  Ti  Ti18  1  0.144611  0.830826  0.216611  1
  Ti  Ti19  1  0.355388  0.669175  0.216611  1
  Ti  Ti20  1  0.668344  0.143194  0.283486  1
  Ti  Ti21  1  0.831657  0.356805  0.283486  1
  Ti  Ti22  1  0.856807  0.168343  0.783486  1
  Ti  Ti23  1  0.643194  0.331657  0.783486  1
  Si  Si24  1  0.707950  0.544018  0.537826  1
  Si  Si25  1  0.792050  0.955983  0.537826  1
  Si  Si26  1  0.455982  0.207950  0.037827  1
  Si  Si27  1  0.044018  0.292050  0.037827  1
  As  As28  1  0.292010  0.455810  0.462125  1
  As  As29  1  0.207990  0.044190  0.462125  1
  As  As30  1  0.544190  0.792010  0.962125  1
  As  As31  1  0.955811  0.707990  0.962125  1
