# generated using pymatgen
data_Tb2YLu7Cd3Ru
_symmetry_space_group_name_H-M   'P 1'
_cell_length_a   9.47186000
_cell_length_b   9.47186079
_cell_length_c   9.67943800
_cell_angle_alpha   90.00000000
_cell_angle_beta   90.00000000
_cell_angle_gamma   120.00067825
_symmetry_Int_Tables_number   1
_chemical_formula_structural   Tb2YLu7Cd3Ru
_chemical_formula_sum   'Tb4 Y2 Lu14 Cd6 Ru2'
_cell_volume   752.05288652
_cell_formula_units_Z   2
loop_
 _symmetry_equiv_pos_site_id
 _symmetry_equiv_pos_as_xyz
  1  'x, y, z'
loop_
 _atom_site_type_symbol
 _atom_site_label
 _atom_site_symmetry_multiplicity
 _atom_site_fract_x
 _atom_site_fract_y
 _atom_site_fract_z
 _atom_site_occupancy
  Tb  Tb0  1  0.539643  0.460357  0.250000  1
  Tb  Tb1  1  0.539776  0.079338  0.250000  1
  Tb  Tb2  1  0.920662  0.460224  0.250000  1
  Tb  Tb3  1  0.460591  0.539409  0.750000  1
  Y  Y4  1  0.460233  0.920485  0.750000  1
  Y  Y5  1  0.079515  0.539767  0.750000  1
  Lu  Lu6  1  0.999976  0.000024  0.500131  1
  Lu  Lu7  1  0.999976  0.000024  0.999869  1
  Lu  Lu8  1  0.210165  0.789835  0.440307  1
  Lu  Lu9  1  0.210183  0.420361  0.440591  1
  Lu  Lu10  1  0.579639  0.789817  0.440591  1
  Lu  Lu11  1  0.789658  0.210342  0.559673  1
  Lu  Lu12  1  0.789879  0.579741  0.559590  1
  Lu  Lu13  1  0.420259  0.210121  0.559590  1
  Lu  Lu14  1  0.789658  0.210342  0.940327  1
  Lu  Lu15  1  0.789879  0.579741  0.940410  1
  Lu  Lu16  1  0.420259  0.210121  0.940410  1
  Lu  Lu17  1  0.210165  0.789835  0.059693  1
  Lu  Lu18  1  0.210183  0.420361  0.059409  1
  Lu  Lu19  1  0.579639  0.789817  0.059409  1
  Cd  Cd20  1  0.886821  0.113179  0.250000  1
  Cd  Cd21  1  0.886944  0.773001  0.250000  1
  Cd  Cd22  1  0.226999  0.113056  0.250000  1
  Cd  Cd23  1  0.113432  0.886568  0.750000  1
  Cd  Cd24  1  0.113414  0.227276  0.750000  1
  Cd  Cd25  1  0.772724  0.886586  0.750000  1
  Ru  Ru26  1  0.333402  0.666598  0.250000  1
  Ru  Ru27  1  0.666326  0.333674  0.750000  1
