# generated using pymatgen
data_Sm3Y2Tl2InBr
_symmetry_space_group_name_H-M   'P 1'
_cell_length_a   9.32214123
_cell_length_b   9.32214213
_cell_length_c   6.81963900
_cell_angle_alpha   90.00000000
_cell_angle_beta   90.00000000
_cell_angle_gamma   119.72485903
_symmetry_Int_Tables_number   1
_chemical_formula_structural   Sm3Y2Tl2InBr
_chemical_formula_sum   'Sm6 Y4 Tl4 In2 Br2'
_cell_volume   514.66049598
_cell_formula_units_Z   2
loop_
 _symmetry_equiv_pos_site_id
 _symmetry_equiv_pos_as_xyz
  1  'x, y, z'
loop_
 _atom_site_type_symbol
 _atom_site_label
 _atom_site_symmetry_multiplicity
 _atom_site_fract_x
 _atom_site_fract_y
 _atom_site_fract_z
 _atom_site_occupancy
  Sm  Sm0  1  0.733760  0.733760  0.250000  1
  Sm  Sm1  1  0.998934  0.732229  0.750000  1
  Sm  Sm2  1  0.732229  0.998934  0.750000  1
  Sm  Sm3  1  0.266240  0.266240  0.750000  1
  Sm  Sm4  1  0.001066  0.267771  0.250000  1
  Sm  Sm5  1  0.267771  0.001066  0.250000  1
  Y  Y6  1  0.334861  0.665139  0.500000  1
  Y  Y7  1  0.665139  0.334861  0.500000  1
  Y  Y8  1  0.334861  0.665139  0.000000  1
  Y  Y9  1  0.665139  0.334861  0.000000  1
  Tl  Tl10  1  0.393729  0.000169  0.750000  1
  Tl  Tl11  1  0.999831  0.606271  0.250000  1
  Tl  Tl12  1  0.606271  0.999831  0.250000  1
  Tl  Tl13  1  0.000169  0.393729  0.750000  1
  In  In14  1  0.393696  0.393696  0.250000  1
  In  In15  1  0.606304  0.606304  0.750000  1
  Br  Br16  1  0.000000  0.000000  0.500000  1
  Br  Br17  1  0.000000  0.000000  0.000000  1
