# generated using pymatgen
data_Er3Fe4Ni5P6
_symmetry_space_group_name_H-M   'P 1'
_cell_length_a   3.70534800
_cell_length_b   10.44651500
_cell_length_c   12.21352200
_cell_angle_alpha   90.00000000
_cell_angle_beta   90.00000000
_cell_angle_gamma   90.00000000
_symmetry_Int_Tables_number   1
_chemical_formula_structural   Er3Fe4Ni5P6
_chemical_formula_sum   'Er6 Fe8 Ni10 P12'
_cell_volume   472.76068546
_cell_formula_units_Z   2
loop_
 _symmetry_equiv_pos_site_id
 _symmetry_equiv_pos_as_xyz
  1  'x, y, z'
loop_
 _atom_site_type_symbol
 _atom_site_label
 _atom_site_symmetry_multiplicity
 _atom_site_fract_x
 _atom_site_fract_y
 _atom_site_fract_z
 _atom_site_occupancy
  Er  Er0  1  0.000000  0.500000  0.522483  1
  Er  Er1  1  0.500000  0.000000  0.477517  1
  Er  Er2  1  0.500000  0.816887  0.206409  1
  Er  Er3  1  0.500000  0.183113  0.206409  1
  Er  Er4  1  0.000000  0.683113  0.793591  1
  Er  Er5  1  0.000000  0.316887  0.793591  1
  Fe  Fe6  1  0.000000  0.500000  0.986776  1
  Fe  Fe7  1  0.500000  0.000000  0.013224  1
  Fe  Fe8  1  0.500000  0.296650  0.428560  1
  Fe  Fe9  1  0.500000  0.703350  0.428560  1
  Fe  Fe10  1  0.000000  0.203350  0.571440  1
  Fe  Fe11  1  0.000000  0.796650  0.571440  1
  Fe  Fe12  1  0.500000  0.500000  0.160136  1
  Fe  Fe13  1  0.000000  0.000000  0.839864  1
  Ni  Ni14  1  0.500000  0.878883  0.706809  1
  Ni  Ni15  1  0.500000  0.121117  0.706809  1
  Ni  Ni16  1  0.000000  0.621117  0.293191  1
  Ni  Ni17  1  0.000000  0.378883  0.293191  1
  Ni  Ni18  1  0.500000  0.330485  0.994141  1
  Ni  Ni19  1  0.500000  0.669515  0.994141  1
  Ni  Ni20  1  0.000000  0.169515  0.005859  1
  Ni  Ni21  1  0.000000  0.830485  0.005859  1
  Ni  Ni22  1  0.500000  0.500000  0.702445  1
  Ni  Ni23  1  0.000000  0.000000  0.297555  1
  P  P24  1  0.500000  0.312239  0.610744  1
  P  P25  1  0.500000  0.687761  0.610744  1
  P  P26  1  0.000000  0.187761  0.389256  1
  P  P27  1  0.000000  0.812239  0.389256  1
  P  P28  1  0.500000  0.500000  0.881925  1
  P  P29  1  0.000000  0.000000  0.118075  1
  P  P30  1  0.500000  0.851356  0.889370  1
  P  P31  1  0.500000  0.148644  0.889370  1
  P  P32  1  0.000000  0.648644  0.110630  1
  P  P33  1  0.000000  0.351356  0.110630  1
  P  P34  1  0.500000  0.500000  0.350317  1
  P  P35  1  0.000000  0.000000  0.649683  1
