# generated using pymatgen
data_PrDy(CrN3)2
_symmetry_space_group_name_H-M   'P 1'
_cell_length_a   7.05214147
_cell_length_b   7.05214150
_cell_length_c   5.90688953
_cell_angle_alpha   77.71415673
_cell_angle_beta   77.71415920
_cell_angle_gamma   86.87361017
_symmetry_Int_Tables_number   1
_chemical_formula_structural   PrDy(CrN3)2
_chemical_formula_sum   'Pr2 Dy2 Cr4 N12'
_cell_volume   280.45091978
_cell_formula_units_Z   2
loop_
 _symmetry_equiv_pos_site_id
 _symmetry_equiv_pos_as_xyz
  1  'x, y, z'
loop_
 _atom_site_type_symbol
 _atom_site_label
 _atom_site_symmetry_multiplicity
 _atom_site_fract_x
 _atom_site_fract_y
 _atom_site_fract_z
 _atom_site_occupancy
  Pr  Pr0  1  0.330362  0.669638  0.750000  1
  Pr  Pr1  1  0.669638  0.330362  0.250000  1
  Dy  Dy2  1  0.090861  0.909139  0.250000  1
  Dy  Dy3  1  0.909139  0.090861  0.750000  1
  Cr  Cr4  1  0.375193  0.198030  0.761637  1
  Cr  Cr5  1  0.624807  0.801970  0.238363  1
  Cr  Cr6  1  0.801970  0.624807  0.738363  1
  Cr  Cr7  1  0.198030  0.375193  0.261637  1
  N  N8  1  0.994056  0.780220  0.650533  1
  N  N9  1  0.875284  0.400851  0.831549  1
  N  N10  1  0.780220  0.994056  0.150533  1
  N  N11  1  0.124716  0.599149  0.168451  1
  N  N12  1  0.005944  0.219780  0.349467  1
  N  N13  1  0.219780  0.005944  0.849467  1
  N  N14  1  0.599149  0.124716  0.668451  1
  N  N15  1  0.630005  0.675307  0.993596  1
  N  N16  1  0.369995  0.324693  0.006404  1
  N  N17  1  0.400851  0.875284  0.331549  1
  N  N18  1  0.675307  0.630005  0.493596  1
  N  N19  1  0.324693  0.369995  0.506404  1
