# generated using pymatgen
data_TbY11(Tm2Bi3)4
_symmetry_space_group_name_H-M   'P 1'
_cell_length_a   8.23067207
_cell_length_b   9.47467002
_cell_length_c   12.04985712
_cell_angle_alpha   90.00622891
_cell_angle_beta   89.98537761
_cell_angle_gamma   90.00183847
_symmetry_Int_Tables_number   1
_chemical_formula_structural   TbY11(Tm2Bi3)4
_chemical_formula_sum   'Tb1 Y11 Tm8 Bi12'
_cell_volume   939.68278812
_cell_formula_units_Z   1
loop_
 _symmetry_equiv_pos_site_id
 _symmetry_equiv_pos_as_xyz
  1  'x, y, z'
loop_
 _atom_site_type_symbol
 _atom_site_label
 _atom_site_symmetry_multiplicity
 _atom_site_fract_x
 _atom_site_fract_y
 _atom_site_fract_z
 _atom_site_occupancy
  Tb  Tb0  1  0.186309  0.749661  0.718713  1
  Y  Y1  1  0.686264  0.750334  0.781343  1
  Y  Y2  1  0.813653  0.249672  0.281362  1
  Y  Y3  1  0.313706  0.250326  0.218656  1
  Y  Y4  1  0.693206  0.562620  0.059782  1
  Y  Y5  1  0.193182  0.937366  0.440388  1
  Y  Y6  1  0.306851  0.062585  0.940252  1
  Y  Y7  1  0.806917  0.437479  0.559738  1
  Y  Y8  1  0.354380  0.750156  0.215777  1
  Y  Y9  1  0.854257  0.749850  0.284243  1
  Y  Y10  1  0.645603  0.250168  0.784197  1
  Y  Y11  1  0.145831  0.249826  0.715784  1
  Tm  Tm12  1  0.025396  0.750223  0.988645  1
  Tm  Tm13  1  0.524967  0.749750  0.511152  1
  Tm  Tm14  1  0.974776  0.250203  0.011189  1
  Tm  Tm15  1  0.474729  0.249798  0.488812  1
  Tm  Tm16  1  0.307300  0.433643  0.940404  1
  Tm  Tm17  1  0.807288  0.066247  0.559605  1
  Tm  Tm18  1  0.692796  0.933689  0.059682  1
  Tm  Tm19  1  0.192784  0.566367  0.440519  1
  Bi  Bi20  1  0.434443  0.003918  0.672491  1
  Bi  Bi21  1  0.934014  0.496128  0.827532  1
  Bi  Bi22  1  0.565760  0.503723  0.327496  1
  Bi  Bi23  1  0.065805  0.996255  0.172417  1
  Bi  Bi24  1  0.566592  0.995914  0.327693  1
  Bi  Bi25  1  0.066651  0.504108  0.172216  1
  Bi  Bi26  1  0.433602  0.495705  0.672295  1
  Bi  Bi27  1  0.933168  0.004258  0.827751  1
  Bi  Bi28  1  0.407394  0.747561  0.957747  1
  Bi  Bi29  1  0.906606  0.752459  0.542087  1
  Bi  Bi30  1  0.592843  0.247583  0.042280  1
  Bi  Bi31  1  0.092927  0.252424  0.457752  1
