# generated using pymatgen
data_BaSi2Au5
_symmetry_space_group_name_H-M   'P 1'
_cell_length_a   7.12310900
_cell_length_b   9.06902700
_cell_length_c   10.31305700
_cell_angle_alpha   90.00000000
_cell_angle_beta   90.00000000
_cell_angle_gamma   90.00000000
_symmetry_Int_Tables_number   1
_chemical_formula_structural   BaSi2Au5
_chemical_formula_sum   'Ba4 Si8 Au20'
_cell_volume   666.22005667
_cell_formula_units_Z   4
loop_
 _symmetry_equiv_pos_site_id
 _symmetry_equiv_pos_as_xyz
  1  'x, y, z'
loop_
 _atom_site_type_symbol
 _atom_site_label
 _atom_site_symmetry_multiplicity
 _atom_site_fract_x
 _atom_site_fract_y
 _atom_site_fract_z
 _atom_site_occupancy
  Ba  Ba0  1  0.250000  0.243655  0.118215  1
  Ba  Ba1  1  0.250000  0.743655  0.381785  1
  Ba  Ba2  1  0.750000  0.756345  0.881785  1
  Ba  Ba3  1  0.750000  0.256345  0.618215  1
  Si  Si4  1  0.250000  0.042839  0.628320  1
  Si  Si5  1  0.250000  0.542839  0.871680  1
  Si  Si6  1  0.750000  0.957161  0.371680  1
  Si  Si7  1  0.750000  0.457161  0.128320  1
  Si  Si8  1  0.250000  0.332128  0.457087  1
  Si  Si9  1  0.250000  0.832128  0.042913  1
  Si  Si10  1  0.750000  0.667872  0.542913  1
  Si  Si11  1  0.750000  0.167872  0.957087  1
  Au  Au12  1  0.047713  0.099281  0.394355  1
  Au  Au13  1  0.452287  0.599281  0.105645  1
  Au  Au14  1  0.547713  0.900719  0.605645  1
  Au  Au15  1  0.952287  0.400719  0.894355  1
  Au  Au16  1  0.952287  0.900719  0.605645  1
  Au  Au17  1  0.547713  0.400719  0.894355  1
  Au  Au18  1  0.452287  0.099281  0.394355  1
  Au  Au19  1  0.047713  0.599281  0.105645  1
  Au  Au20  1  0.034648  0.072804  0.854325  1
  Au  Au21  1  0.465352  0.572804  0.645675  1
  Au  Au22  1  0.534648  0.927196  0.145675  1
  Au  Au23  1  0.965352  0.427196  0.354325  1
  Au  Au24  1  0.965352  0.927196  0.145675  1
  Au  Au25  1  0.534648  0.427196  0.354325  1
  Au  Au26  1  0.465352  0.072804  0.854325  1
  Au  Au27  1  0.034648  0.572804  0.645675  1
  Au  Au28  1  0.250000  0.305488  0.695129  1
  Au  Au29  1  0.250000  0.805488  0.804871  1
  Au  Au30  1  0.750000  0.694512  0.304871  1
  Au  Au31  1  0.750000  0.194512  0.195129  1
