# generated using pymatgen
data_Hf18Ta6CoW2S
_symmetry_space_group_name_H-M   'P 1'
_cell_length_a   8.79598300
_cell_length_b   8.79598348
_cell_length_c   8.61644600
_cell_angle_alpha   90.00000000
_cell_angle_beta   90.00000000
_cell_angle_gamma   120.00000194
_symmetry_Int_Tables_number   1
_chemical_formula_structural   Hf18Ta6CoW2S
_chemical_formula_sum   'Hf18 Ta6 Co1 W2 S1'
_cell_volume   577.33459280
_cell_formula_units_Z   1
loop_
 _symmetry_equiv_pos_site_id
 _symmetry_equiv_pos_as_xyz
  1  'x, y, z'
loop_
 _atom_site_type_symbol
 _atom_site_label
 _atom_site_symmetry_multiplicity
 _atom_site_fract_x
 _atom_site_fract_y
 _atom_site_fract_z
 _atom_site_occupancy
  Hf  Hf0  1  0.197812  0.802188  0.446828  1
  Hf  Hf1  1  0.197812  0.395626  0.446828  1
  Hf  Hf2  1  0.604374  0.802188  0.446828  1
  Hf  Hf3  1  0.797306  0.202694  0.560758  1
  Hf  Hf4  1  0.797306  0.594612  0.560758  1
  Hf  Hf5  1  0.405388  0.202694  0.560758  1
  Hf  Hf6  1  0.797306  0.202694  0.939242  1
  Hf  Hf7  1  0.797306  0.594612  0.939242  1
  Hf  Hf8  1  0.405388  0.202694  0.939242  1
  Hf  Hf9  1  0.197812  0.802188  0.053172  1
  Hf  Hf10  1  0.197812  0.395626  0.053172  1
  Hf  Hf11  1  0.604374  0.802188  0.053172  1
  Hf  Hf12  1  0.547926  0.452074  0.250000  1
  Hf  Hf13  1  0.547926  0.095852  0.250000  1
  Hf  Hf14  1  0.904148  0.452074  0.250000  1
  Hf  Hf15  1  0.459067  0.540933  0.750000  1
  Hf  Hf16  1  0.459067  0.918136  0.750000  1
  Hf  Hf17  1  0.081864  0.540933  0.750000  1
  Ta  Ta18  1  0.887952  0.112048  0.250000  1
  Ta  Ta19  1  0.887952  0.775906  0.250000  1
  Ta  Ta20  1  0.224094  0.112048  0.250000  1
  Ta  Ta21  1  0.113033  0.886967  0.750000  1
  Ta  Ta22  1  0.113033  0.226066  0.750000  1
  Ta  Ta23  1  0.773934  0.886967  0.750000  1
  Co  Co24  1  0.666667  0.333333  0.750000  1
  W  W25  1  0.000000  0.000000  0.500682  1
  W  W26  1  0.000000  0.000000  0.999318  1
  S  S27  1  0.333333  0.666667  0.250000  1
