# generated using pymatgen
data_Pr3HoZn2Ir3
_symmetry_space_group_name_H-M   'P 1'
_cell_length_a   7.48296500
_cell_length_b   7.49995374
_cell_length_c   4.13291600
_cell_angle_alpha   90.00000000
_cell_angle_beta   90.00000000
_cell_angle_gamma   119.92510114
_symmetry_Int_Tables_number   1
_chemical_formula_structural   Pr3HoZn2Ir3
_chemical_formula_sum   'Pr3 Ho1 Zn2 Ir3'
_cell_volume   201.02348109
_cell_formula_units_Z   1
loop_
 _symmetry_equiv_pos_site_id
 _symmetry_equiv_pos_as_xyz
  1  'x, y, z'
loop_
 _atom_site_type_symbol
 _atom_site_label
 _atom_site_symmetry_multiplicity
 _atom_site_fract_x
 _atom_site_fract_y
 _atom_site_fract_z
 _atom_site_occupancy
  Pr  Pr0  1  0.387649  0.000000  0.499999  1
  Pr  Pr1  1  0.018117  0.440214  0.499999  1
  Pr  Pr2  1  0.577903  0.559785  0.499999  1
  Ho  Ho3  1  0.762220  0.000000  0.000000  1
  Zn  Zn4  1  0.242188  0.245528  0.000000  1
  Zn  Zn5  1  0.996660  0.754472  0.000000  1
  Ir  Ir6  1  0.669322  0.329599  0.000000  1
  Ir  Ir7  1  0.339724  0.670401  0.000000  1
  Ir  Ir8  1  0.006217  0.000000  0.499999  1
