# generated using pymatgen
data_Ta3MnAl2B
_symmetry_space_group_name_H-M   'P 1'
_cell_length_a   8.31096627
_cell_length_b   8.31096649
_cell_length_c   8.31096500
_cell_angle_alpha   60.00000194
_cell_angle_beta   60.00000108
_cell_angle_gamma   60.00000387
_symmetry_Int_Tables_number   1
_chemical_formula_structural   Ta3MnAl2B
_chemical_formula_sum   'Ta12 Mn4 Al8 B4'
_cell_volume   405.91913933
_cell_formula_units_Z   4
loop_
 _symmetry_equiv_pos_site_id
 _symmetry_equiv_pos_as_xyz
  1  'x, y, z'
loop_
 _atom_site_type_symbol
 _atom_site_label
 _atom_site_symmetry_multiplicity
 _atom_site_fract_x
 _atom_site_fract_y
 _atom_site_fract_z
 _atom_site_occupancy
  Ta  Ta0  1  0.549034  0.950966  0.549034  1
  Ta  Ta1  1  0.299034  0.700966  0.700966  1
  Ta  Ta2  1  0.700966  0.299034  0.299034  1
  Ta  Ta3  1  0.299034  0.700966  0.299034  1
  Ta  Ta4  1  0.700966  0.700966  0.299034  1
  Ta  Ta5  1  0.299034  0.299034  0.700966  1
  Ta  Ta6  1  0.549034  0.549034  0.950966  1
  Ta  Ta7  1  0.950966  0.549034  0.549034  1
  Ta  Ta8  1  0.549034  0.950966  0.950966  1
  Ta  Ta9  1  0.950966  0.950966  0.549034  1
  Ta  Ta10  1  0.700966  0.299034  0.700966  1
  Ta  Ta11  1  0.950966  0.549034  0.950966  1
  Mn  Mn12  1  0.125000  0.125000  0.125000  1
  Mn  Mn13  1  0.625000  0.125000  0.125000  1
  Mn  Mn14  1  0.125000  0.625000  0.125000  1
  Mn  Mn15  1  0.125000  0.125000  0.625000  1
  Al  Al16  1  0.916116  0.916116  0.916116  1
  Al  Al17  1  0.998346  0.333884  0.333884  1
  Al  Al18  1  0.333884  0.998346  0.333884  1
  Al  Al19  1  0.333884  0.333884  0.998346  1
  Al  Al20  1  0.916116  0.251654  0.916116  1
  Al  Al21  1  0.916116  0.916116  0.251654  1
  Al  Al22  1  0.251654  0.916116  0.916116  1
  Al  Al23  1  0.333884  0.333884  0.333884  1
  B  B24  1  0.625000  0.625000  0.625000  1
  B  B25  1  0.125000  0.625000  0.625000  1
  B  B26  1  0.625000  0.125000  0.625000  1
  B  B27  1  0.625000  0.625000  0.125000  1
