# generated using pymatgen
data_AlV3ZnN
_symmetry_space_group_name_H-M   'P 1'
_cell_length_a   6.60363800
_cell_length_b   6.60363800
_cell_length_c   6.60363800
_cell_angle_alpha   90.00000000
_cell_angle_beta   90.00000000
_cell_angle_gamma   90.00000000
_symmetry_Int_Tables_number   1
_chemical_formula_structural   AlV3ZnN
_chemical_formula_sum   'Al4 V12 Zn4 N4'
_cell_volume   287.97167594
_cell_formula_units_Z   4
loop_
 _symmetry_equiv_pos_site_id
 _symmetry_equiv_pos_as_xyz
  1  'x, y, z'
loop_
 _atom_site_type_symbol
 _atom_site_label
 _atom_site_symmetry_multiplicity
 _atom_site_fract_x
 _atom_site_fract_y
 _atom_site_fract_z
 _atom_site_occupancy
  Al  Al0  1  0.176868  0.823132  0.323132  1
  Al  Al1  1  0.323132  0.176868  0.823132  1
  Al  Al2  1  0.823132  0.323132  0.176868  1
  Al  Al3  1  0.676868  0.676868  0.676868  1
  V  V4  1  0.790249  0.961189  0.375910  1
  V  V5  1  0.709751  0.038811  0.875910  1
  V  V6  1  0.209751  0.461189  0.124090  1
  V  V7  1  0.290249  0.538811  0.624090  1
  V  V8  1  0.961189  0.375910  0.790249  1
  V  V9  1  0.038811  0.875910  0.709751  1
  V  V10  1  0.461189  0.124090  0.209751  1
  V  V11  1  0.538811  0.624090  0.290249  1
  V  V12  1  0.375910  0.790249  0.961189  1
  V  V13  1  0.875910  0.709751  0.038811  1
  V  V14  1  0.124090  0.209751  0.461189  1
  V  V15  1  0.624090  0.290249  0.538811  1
  Zn  Zn16  1  0.571721  0.428279  0.928279  1
  Zn  Zn17  1  0.428279  0.928279  0.571721  1
  Zn  Zn18  1  0.928279  0.571721  0.428279  1
  Zn  Zn19  1  0.071721  0.071721  0.071721  1
  N  N20  1  0.873609  0.126391  0.626391  1
  N  N21  1  0.626391  0.873609  0.126391  1
  N  N22  1  0.126391  0.626391  0.873609  1
  N  N23  1  0.373609  0.373609  0.373609  1
