# generated using pymatgen
data_NdZr3(Al3Ir)6
_symmetry_space_group_name_H-M   'P 1'
_cell_length_a   7.51848339
_cell_length_b   7.50675654
_cell_length_c   9.36378200
_cell_angle_alpha   90.00000000
_cell_angle_beta   90.00000000
_cell_angle_gamma   119.76322736
_symmetry_Int_Tables_number   1
_chemical_formula_structural   NdZr3(Al3Ir)6
_chemical_formula_sum   'Nd1 Zr3 Al18 Ir6'
_cell_volume   458.77076942
_cell_formula_units_Z   1
loop_
 _symmetry_equiv_pos_site_id
 _symmetry_equiv_pos_as_xyz
  1  'x, y, z'
loop_
 _atom_site_type_symbol
 _atom_site_label
 _atom_site_symmetry_multiplicity
 _atom_site_fract_x
 _atom_site_fract_y
 _atom_site_fract_z
 _atom_site_occupancy
  Nd  Nd0  1  0.329831  0.005787  0.750000  1
  Zr  Zr1  1  0.993804  0.670810  0.250000  1
  Zr  Zr2  1  0.005445  0.329963  0.750000  1
  Zr  Zr3  1  0.671774  0.994538  0.250000  1
  Al  Al4  1  0.121882  0.123591  0.250000  1
  Al  Al5  1  0.869940  0.875587  0.750000  1
  Al  Al6  1  0.997554  0.334386  0.076706  1
  Al  Al7  1  0.998598  0.661542  0.928245  1
  Al  Al8  1  0.998598  0.661542  0.571755  1
  Al  Al9  1  0.334794  0.997973  0.418358  1
  Al  Al10  1  0.997554  0.334386  0.423294  1
  Al  Al11  1  0.669448  0.002274  0.571837  1
  Al  Al12  1  0.669448  0.002274  0.928163  1
  Al  Al13  1  0.334794  0.997973  0.081642  1
  Al  Al14  1  0.331226  0.334729  0.552454  1
  Al  Al15  1  0.668218  0.668183  0.440861  1
  Al  Al16  1  0.668218  0.668183  0.059139  1
  Al  Al17  1  0.331226  0.334729  0.947546  1
  Al  Al18  1  0.338533  0.552917  0.250000  1
  Al  Al19  1  0.668660  0.455049  0.750000  1
  Al  Al20  1  0.554196  0.340218  0.250000  1
  Al  Al21  1  0.447088  0.654372  0.750000  1
  Ir  Ir22  1  0.672623  0.328597  0.002074  1
  Ir  Ir23  1  0.328566  0.672644  0.002240  1
  Ir  Ir24  1  0.328566  0.672644  0.497760  1
  Ir  Ir25  1  0.672623  0.328597  0.497926  1
  Ir  Ir26  1  0.998396  0.998256  0.002341  1
  Ir  Ir27  1  0.998396  0.998256  0.497659  1
