# generated using pymatgen
data_Th8Ru5Pt3
_symmetry_space_group_name_H-M   'P 1'
_cell_length_a   4.14581400
_cell_length_b   6.04520413
_cell_length_c   15.03121116
_cell_angle_alpha   90.28552421
_cell_angle_beta   90.00000000
_cell_angle_gamma   90.00000000
_symmetry_Int_Tables_number   1
_chemical_formula_structural   Th8Ru5Pt3
_chemical_formula_sum   'Th8 Ru5 Pt3'
_cell_volume   376.71192405
_cell_formula_units_Z   1
loop_
 _symmetry_equiv_pos_site_id
 _symmetry_equiv_pos_as_xyz
  1  'x, y, z'
loop_
 _atom_site_type_symbol
 _atom_site_label
 _atom_site_symmetry_multiplicity
 _atom_site_fract_x
 _atom_site_fract_y
 _atom_site_fract_z
 _atom_site_occupancy
  Th  Th0  1  0.250000  0.550837  0.286965  1
  Th  Th1  1  0.750000  0.460612  0.717530  1
  Th  Th2  1  0.250000  0.957994  0.779695  1
  Th  Th3  1  0.250000  0.756824  0.533149  1
  Th  Th4  1  0.250000  0.740439  0.041554  1
  Th  Th5  1  0.750000  0.260704  0.959114  1
  Th  Th6  1  0.750000  0.043151  0.220447  1
  Th  Th7  1  0.750000  0.247391  0.458737  1
  Ru  Ru8  1  0.250000  0.062672  0.350452  1
  Ru  Ru9  1  0.750000  0.574319  0.150036  1
  Ru  Ru10  1  0.750000  0.717270  0.404197  1
  Ru  Ru11  1  0.250000  0.426617  0.849393  1
  Ru  Ru12  1  0.750000  0.932218  0.649129  1
  Pt  Pt13  1  0.750000  0.772725  0.901182  1
  Pt  Pt14  1  0.250000  0.228255  0.099361  1
  Pt  Pt15  1  0.250000  0.267972  0.599059  1
