# generated using pymatgen
data_Y5Nb3(Co4As3)4
_symmetry_space_group_name_H-M   'P 1'
_cell_length_a   12.63404100
_cell_length_b   12.63404222
_cell_length_c   3.83362100
_cell_angle_alpha   90.00000000
_cell_angle_beta   90.00000000
_cell_angle_gamma   120.00000466
_symmetry_Int_Tables_number   1
_chemical_formula_structural   Y5Nb3(Co4As3)4
_chemical_formula_sum   'Y5 Nb3 Co16 As12'
_cell_volume   529.93718253
_cell_formula_units_Z   1
loop_
 _symmetry_equiv_pos_site_id
 _symmetry_equiv_pos_as_xyz
  1  'x, y, z'
loop_
 _atom_site_type_symbol
 _atom_site_label
 _atom_site_symmetry_multiplicity
 _atom_site_fract_x
 _atom_site_fract_y
 _atom_site_fract_z
 _atom_site_occupancy
  Y  Y0  1  0.184362  0.184362  0.500000  1
  Y  Y1  1  0.815638  0.000000  0.500000  1
  Y  Y2  1  0.000000  0.815638  0.500000  1
  Y  Y3  1  0.333333  0.666667  0.000000  1
  Y  Y4  1  0.666667  0.333333  0.000000  1
  Nb  Nb5  1  0.559248  0.559248  0.000000  1
  Nb  Nb6  1  0.440752  0.000000  0.000000  1
  Nb  Nb7  1  0.000000  0.440752  0.000000  1
  Co  Co8  1  0.718537  0.718537  0.500000  1
  Co  Co9  1  0.281463  0.000000  0.500000  1
  Co  Co10  1  0.000000  0.281463  0.500000  1
  Co  Co11  1  0.176694  0.374829  0.000000  1
  Co  Co12  1  0.625171  0.801864  0.000000  1
  Co  Co13  1  0.198136  0.823306  0.000000  1
  Co  Co14  1  0.801864  0.625171  0.000000  1
  Co  Co15  1  0.823306  0.198136  0.000000  1
  Co  Co16  1  0.374829  0.176694  0.000000  1
  Co  Co17  1  0.355681  0.480250  0.500000  1
  Co  Co18  1  0.519750  0.875430  0.500000  1
  Co  Co19  1  0.124570  0.644319  0.500000  1
  Co  Co20  1  0.875430  0.519750  0.500000  1
  Co  Co21  1  0.644319  0.124570  0.500000  1
  Co  Co22  1  0.480250  0.355681  0.500000  1
  Co  Co23  1  0.000000  0.000000  0.000000  1
  As  As24  1  0.822278  0.822278  0.000000  1
  As  As25  1  0.177722  0.000000  0.000000  1
  As  As26  1  0.000000  0.177722  0.000000  1
  As  As27  1  0.169437  0.481929  0.500000  1
  As  As28  1  0.518071  0.687509  0.500000  1
  As  As29  1  0.312491  0.830563  0.500000  1
  As  As30  1  0.687509  0.518071  0.500000  1
  As  As31  1  0.830563  0.312491  0.500000  1
  As  As32  1  0.481929  0.169437  0.500000  1
  As  As33  1  0.356739  0.356739  0.000000  1
  As  As34  1  0.643261  0.000000  0.000000  1
  As  As35  1  0.000000  0.643261  0.000000  1
