# generated using pymatgen
data_Sr2Ga5GeAu2
_symmetry_space_group_name_H-M   'P 1'
_cell_length_a   6.36401985
_cell_length_b   6.36402052
_cell_length_c   6.25559900
_cell_angle_alpha   90.00000000
_cell_angle_beta   90.00000000
_cell_angle_gamma   119.93267116
_symmetry_Int_Tables_number   1
_chemical_formula_structural   Sr2Ga5GeAu2
_chemical_formula_sum   'Sr2 Ga5 Ge1 Au2'
_cell_volume   219.56184836
_cell_formula_units_Z   1
loop_
 _symmetry_equiv_pos_site_id
 _symmetry_equiv_pos_as_xyz
  1  'x, y, z'
loop_
 _atom_site_type_symbol
 _atom_site_label
 _atom_site_symmetry_multiplicity
 _atom_site_fract_x
 _atom_site_fract_y
 _atom_site_fract_z
 _atom_site_occupancy
  Sr  Sr0  1  0.243091  0.756909  0.750000  1
  Sr  Sr1  1  0.756458  0.243542  0.250000  1
  Ga  Ga2  1  0.357966  0.642034  0.250000  1
  Ga  Ga3  1  0.736423  0.737045  0.999620  1
  Ga  Ga4  1  0.736423  0.737045  0.500380  1
  Ga  Ga5  1  0.262955  0.263577  0.999620  1
  Ga  Ga6  1  0.262955  0.263577  0.500380  1
  Ge  Ge7  1  0.641638  0.358362  0.750000  1
  Au  Au8  1  0.878422  0.121578  0.750000  1
  Au  Au9  1  0.123669  0.876331  0.250000  1
