# generated using pymatgen
data_Sc5Nb3(P3Ir4)4
_symmetry_space_group_name_H-M   'P 1'
_cell_length_a   12.68312400
_cell_length_b   12.68312436
_cell_length_c   3.93123400
_cell_angle_alpha   90.00000000
_cell_angle_beta   90.00000000
_cell_angle_gamma   119.99999906
_symmetry_Int_Tables_number   1
_chemical_formula_structural   Sc5Nb3(P3Ir4)4
_chemical_formula_sum   'Sc5 Nb3 P12 Ir16'
_cell_volume   547.66125884
_cell_formula_units_Z   1
loop_
 _symmetry_equiv_pos_site_id
 _symmetry_equiv_pos_as_xyz
  1  'x, y, z'
loop_
 _atom_site_type_symbol
 _atom_site_label
 _atom_site_symmetry_multiplicity
 _atom_site_fract_x
 _atom_site_fract_y
 _atom_site_fract_z
 _atom_site_occupancy
  Sc  Sc0  1  0.333333  0.666667  0.000000  1
  Sc  Sc1  1  0.666667  0.333333  0.000000  1
  Sc  Sc2  1  0.815776  0.000000  0.500000  1
  Sc  Sc3  1  0.000000  0.815776  0.500000  1
  Sc  Sc4  1  0.184224  0.184224  0.500000  1
  Nb  Nb5  1  0.452926  0.000000  0.000000  1
  Nb  Nb6  1  0.000000  0.452926  0.000000  1
  Nb  Nb7  1  0.547074  0.547074  0.000000  1
  P  P8  1  0.174840  0.000000  0.000000  1
  P  P9  1  0.000000  0.174840  0.000000  1
  P  P10  1  0.825160  0.825160  0.000000  1
  P  P11  1  0.168535  0.483628  0.500000  1
  P  P12  1  0.516372  0.684906  0.500000  1
  P  P13  1  0.315094  0.831465  0.500000  1
  P  P14  1  0.684906  0.516372  0.500000  1
  P  P15  1  0.831465  0.315094  0.500000  1
  P  P16  1  0.483628  0.168535  0.500000  1
  P  P17  1  0.645066  0.000000  0.000000  1
  P  P18  1  0.000000  0.645066  0.000000  1
  P  P19  1  0.354934  0.354934  0.000000  1
  Ir  Ir20  1  0.355864  0.494332  0.500000  1
  Ir  Ir21  1  0.505668  0.861532  0.500000  1
  Ir  Ir22  1  0.138468  0.644136  0.500000  1
  Ir  Ir23  1  0.861532  0.505668  0.500000  1
  Ir  Ir24  1  0.644136  0.138468  0.500000  1
  Ir  Ir25  1  0.494332  0.355864  0.500000  1
  Ir  Ir26  1  0.178462  0.369776  0.000000  1
  Ir  Ir27  1  0.630224  0.808687  0.000000  1
  Ir  Ir28  1  0.191313  0.821538  0.000000  1
  Ir  Ir29  1  0.808687  0.630224  0.000000  1
  Ir  Ir30  1  0.821538  0.191313  0.000000  1
  Ir  Ir31  1  0.369776  0.178462  0.000000  1
  Ir  Ir32  1  0.281028  0.000000  0.500000  1
  Ir  Ir33  1  0.000000  0.281028  0.500000  1
  Ir  Ir34  1  0.718972  0.718972  0.500000  1
  Ir  Ir35  1  0.000000  0.000000  0.000000  1
