# generated using pymatgen
data_Nd10Co2Sn3Sb
_symmetry_space_group_name_H-M   'P 1'
_cell_length_a   8.23424000
_cell_length_b   9.13507166
_cell_length_c   12.61190606
_cell_angle_alpha   90.12852047
_cell_angle_beta   90.00000000
_cell_angle_gamma   90.00000000
_symmetry_Int_Tables_number   1
_chemical_formula_structural   Nd10Co2Sn3Sb
_chemical_formula_sum   'Nd20 Co4 Sn6 Sb2'
_cell_volume   948.66988403
_cell_formula_units_Z   2
loop_
 _symmetry_equiv_pos_site_id
 _symmetry_equiv_pos_as_xyz
  1  'x, y, z'
loop_
 _atom_site_type_symbol
 _atom_site_label
 _atom_site_symmetry_multiplicity
 _atom_site_fract_x
 _atom_site_fract_y
 _atom_site_fract_z
 _atom_site_occupancy
  Nd  Nd0  1  0.152283  0.749700  0.205020  1
  Nd  Nd1  1  0.652283  0.250300  0.294980  1
  Nd  Nd2  1  0.845681  0.249307  0.792990  1
  Nd  Nd3  1  0.345681  0.750693  0.707010  1
  Nd  Nd4  1  0.449772  0.750850  0.997280  1
  Nd  Nd5  1  0.949772  0.249150  0.502720  1
  Nd  Nd6  1  0.551859  0.250140  0.002389  1
  Nd  Nd7  1  0.051859  0.749860  0.497611  1
  Nd  Nd8  1  0.625426  0.750123  0.304501  1
  Nd  Nd9  1  0.125426  0.249877  0.195499  1
  Nd  Nd10  1  0.377853  0.250275  0.693950  1
  Nd  Nd11  1  0.877853  0.749725  0.806050  1
  Nd  Nd12  1  0.819878  0.969887  0.069901  1
  Nd  Nd13  1  0.319878  0.030113  0.430099  1
  Nd  Nd14  1  0.177699  0.469338  0.930351  1
  Nd  Nd15  1  0.677699  0.530662  0.569649  1
  Nd  Nd16  1  0.179255  0.030421  0.930306  1
  Nd  Nd17  1  0.679255  0.969579  0.569694  1
  Nd  Nd18  1  0.820814  0.529875  0.066428  1
  Nd  Nd19  1  0.320814  0.470125  0.433572  1
  Co  Co20  1  0.424877  0.748501  0.489609  1
  Co  Co21  1  0.924877  0.251499  0.010391  1
  Co  Co22  1  0.575301  0.252026  0.508134  1
  Co  Co23  1  0.075301  0.747974  0.991866  1
  Sn  Sn24  1  0.928960  0.994219  0.328099  1
  Sn  Sn25  1  0.428960  0.005781  0.171901  1
  Sn  Sn26  1  0.071734  0.493933  0.670787  1
  Sn  Sn27  1  0.571734  0.506067  0.829213  1
  Sn  Sn28  1  0.070709  0.005567  0.671283  1
  Sn  Sn29  1  0.570709  0.994433  0.828717  1
  Sb  Sb30  1  0.927900  0.505639  0.327111  1
  Sb  Sb31  1  0.427900  0.494361  0.172889  1
