# generated using pymatgen
data_NaSc(B2Rh3)2
_symmetry_space_group_name_H-M   'P 1'
_cell_length_a   2.88220400
_cell_length_b   5.61179700
_cell_length_c   9.64877300
_cell_angle_alpha   90.00000000
_cell_angle_beta   90.00000000
_cell_angle_gamma   90.00000000
_symmetry_Int_Tables_number   1
_chemical_formula_structural   NaSc(B2Rh3)2
_chemical_formula_sum   'Na1 Sc1 B4 Rh6'
_cell_volume   156.06257137
_cell_formula_units_Z   1
loop_
 _symmetry_equiv_pos_site_id
 _symmetry_equiv_pos_as_xyz
  1  'x, y, z'
loop_
 _atom_site_type_symbol
 _atom_site_label
 _atom_site_symmetry_multiplicity
 _atom_site_fract_x
 _atom_site_fract_y
 _atom_site_fract_z
 _atom_site_occupancy
  Na  Na0  1  0.000000  0.500177  0.500000  1
  Sc  Sc1  1  0.000000  0.999608  0.000000  1
  B  B2  1  0.000000  0.999992  0.334792  1
  B  B3  1  0.000000  0.499948  0.830871  1
  B  B4  1  0.000000  0.499948  0.169129  1
  B  B5  1  0.000000  0.999992  0.665208  1
  Rh  Rh6  1  0.500000  0.000262  0.500000  1
  Rh  Rh7  1  0.500000  0.500323  0.000000  1
  Rh  Rh8  1  0.500000  0.242263  0.239775  1
  Rh  Rh9  1  0.500000  0.757512  0.759974  1
  Rh  Rh10  1  0.500000  0.757512  0.240026  1
  Rh  Rh11  1  0.500000  0.242263  0.760226  1
