# generated using pymatgen
data_HoCo3MoP3Ir
_symmetry_space_group_name_H-M   'P 1'
_cell_length_a   3.77111000
_cell_length_b   10.46802400
_cell_length_c   12.01762900
_cell_angle_alpha   90.00000000
_cell_angle_beta   90.00000000
_cell_angle_gamma   90.00000000
_symmetry_Int_Tables_number   1
_chemical_formula_structural   HoCo3MoP3Ir
_chemical_formula_sum   'Ho4 Co12 Mo4 P12 Ir4'
_cell_volume   474.40876348
_cell_formula_units_Z   4
loop_
 _symmetry_equiv_pos_site_id
 _symmetry_equiv_pos_as_xyz
  1  'x, y, z'
loop_
 _atom_site_type_symbol
 _atom_site_label
 _atom_site_symmetry_multiplicity
 _atom_site_fract_x
 _atom_site_fract_y
 _atom_site_fract_z
 _atom_site_occupancy
  Ho  Ho0  1  0.250000  0.583582  0.709826  1
  Ho  Ho1  1  0.250000  0.916418  0.209826  1
  Ho  Ho2  1  0.750000  0.416418  0.290174  1
  Ho  Ho3  1  0.750000  0.083582  0.790174  1
  Co  Co4  1  0.250000  0.224093  0.179027  1
  Co  Co5  1  0.250000  0.275907  0.679027  1
  Co  Co6  1  0.750000  0.775907  0.820973  1
  Co  Co7  1  0.750000  0.724093  0.320973  1
  Co  Co8  1  0.250000  0.884187  0.697236  1
  Co  Co9  1  0.250000  0.615813  0.197236  1
  Co  Co10  1  0.750000  0.115813  0.302764  1
  Co  Co11  1  0.750000  0.384187  0.802764  1
  Co  Co12  1  0.250000  0.464372  0.934297  1
  Co  Co13  1  0.250000  0.035628  0.434297  1
  Co  Co14  1  0.750000  0.535628  0.065703  1
  Co  Co15  1  0.750000  0.964372  0.565703  1
  Mo  Mo16  1  0.250000  0.705823  0.984358  1
  Mo  Mo17  1  0.250000  0.794177  0.484358  1
  Mo  Mo18  1  0.750000  0.294177  0.015642  1
  Mo  Mo19  1  0.750000  0.205823  0.515642  1
  P  P20  1  0.250000  0.421931  0.114201  1
  P  P21  1  0.250000  0.078069  0.614201  1
  P  P22  1  0.750000  0.578069  0.885799  1
  P  P23  1  0.750000  0.921931  0.385799  1
  P  P24  1  0.250000  0.273736  0.861985  1
  P  P25  1  0.250000  0.226264  0.361985  1
  P  P26  1  0.750000  0.726264  0.138015  1
  P  P27  1  0.750000  0.773736  0.638015  1
  P  P28  1  0.250000  0.602489  0.381422  1
  P  P29  1  0.250000  0.897511  0.881422  1
  P  P30  1  0.750000  0.397511  0.618578  1
  P  P31  1  0.750000  0.102489  0.118578  1
  Ir  Ir32  1  0.250000  0.403405  0.481679  1
  Ir  Ir33  1  0.250000  0.096595  0.981679  1
  Ir  Ir34  1  0.750000  0.596595  0.518321  1
  Ir  Ir35  1  0.750000  0.903405  0.018321  1
