# generated using pymatgen
data_Mn3Nb4Si4Ir
_symmetry_space_group_name_H-M   'P 1'
_cell_length_a   3.65886000
_cell_length_b   6.37869402
_cell_length_c   7.45156003
_cell_angle_alpha   89.86157649
_cell_angle_beta   90.00000000
_cell_angle_gamma   90.00000000
_symmetry_Int_Tables_number   1
_chemical_formula_structural   Mn3Nb4Si4Ir
_chemical_formula_sum   'Mn3 Nb4 Si4 Ir1'
_cell_volume   173.90957708
_cell_formula_units_Z   1
loop_
 _symmetry_equiv_pos_site_id
 _symmetry_equiv_pos_as_xyz
  1  'x, y, z'
loop_
 _atom_site_type_symbol
 _atom_site_label
 _atom_site_symmetry_multiplicity
 _atom_site_fract_x
 _atom_site_fract_y
 _atom_site_fract_z
 _atom_site_occupancy
  Mn  Mn0  1  0.250000  0.853726  0.937221  1
  Mn  Mn1  1  0.250000  0.360403  0.558961  1
  Mn  Mn2  1  0.750000  0.636326  0.440517  1
  Nb  Nb3  1  0.750000  0.535160  0.826309  1
  Nb  Nb4  1  0.250000  0.966490  0.330149  1
  Nb  Nb5  1  0.750000  0.029177  0.672621  1
  Nb  Nb6  1  0.250000  0.475464  0.177490  1
  Si  Si7  1  0.250000  0.237538  0.867960  1
  Si  Si8  1  0.250000  0.732429  0.627324  1
  Si  Si9  1  0.750000  0.765992  0.133106  1
  Si  Si10  1  0.750000  0.266923  0.371534  1
  Ir  Ir11  1  0.750000  0.140372  0.056809  1
