# generated using pymatgen
data_Tb10Pr6MgIn3Ir4
_symmetry_space_group_name_H-M   'P 1'
_cell_length_a   9.83882164
_cell_length_b   9.84469957
_cell_length_c   9.84470000
_cell_angle_alpha   60.00000527
_cell_angle_beta   59.98024074
_cell_angle_gamma   59.98024963
_symmetry_Int_Tables_number   1
_chemical_formula_structural   Tb10Pr6MgIn3Ir4
_chemical_formula_sum   'Tb10 Pr6 Mg1 In3 Ir4'
_cell_volume   674.06739178
_cell_formula_units_Z   1
loop_
 _symmetry_equiv_pos_site_id
 _symmetry_equiv_pos_as_xyz
  1  'x, y, z'
loop_
 _atom_site_type_symbol
 _atom_site_label
 _atom_site_symmetry_multiplicity
 _atom_site_fract_x
 _atom_site_fract_y
 _atom_site_fract_z
 _atom_site_occupancy
  Tb  Tb0  1  0.347184  0.345934  0.345934  1
  Tb  Tb1  1  0.347184  0.345934  0.960949  1
  Tb  Tb2  1  0.347184  0.960949  0.345934  1
  Tb  Tb3  1  0.958466  0.347179  0.347179  1
  Tb  Tb4  1  0.809510  0.190331  0.190331  1
  Tb  Tb5  1  0.186933  0.812407  0.812407  1
  Tb  Tb6  1  0.186933  0.812407  0.188252  1
  Tb  Tb7  1  0.809510  0.190331  0.809830  1
  Tb  Tb8  1  0.186933  0.188252  0.812407  1
  Tb  Tb9  1  0.809510  0.809830  0.190331  1
  Pr  Pr10  1  0.939459  0.560214  0.560214  1
  Pr  Pr11  1  0.559271  0.941583  0.941583  1
  Pr  Pr12  1  0.559271  0.941583  0.557562  1
  Pr  Pr13  1  0.939459  0.560214  0.940113  1
  Pr  Pr14  1  0.559271  0.557562  0.941583  1
  Pr  Pr15  1  0.939459  0.940113  0.560214  1
  Mg  Mg16  1  0.273062  0.575646  0.575646  1
  In  In17  1  0.579957  0.580306  0.580306  1
  In  In18  1  0.579957  0.580306  0.259433  1
  In  In19  1  0.579957  0.259433  0.580306  1
  Ir  Ir20  1  0.140950  0.140440  0.140440  1
  Ir  Ir21  1  0.140950  0.140440  0.578169  1
  Ir  Ir22  1  0.140950  0.578169  0.140440  1
  Ir  Ir23  1  0.578687  0.140438  0.140438  1
