# generated using pymatgen
data_La5Pr5(Cd2Ru3)2
_symmetry_space_group_name_H-M   'P 1'
_cell_length_a   8.76496076
_cell_length_b   8.76496051
_cell_length_c   8.71035427
_cell_angle_alpha   109.63342696
_cell_angle_beta   109.50173536
_cell_angle_gamma   109.53220226
_symmetry_Int_Tables_number   1
_chemical_formula_structural   La5Pr5(Cd2Ru3)2
_chemical_formula_sum   'La5 Pr5 Cd4 Ru6'
_cell_volume   513.50670514
_cell_formula_units_Z   1
loop_
 _symmetry_equiv_pos_site_id
 _symmetry_equiv_pos_as_xyz
  1  'x, y, z'
loop_
 _atom_site_type_symbol
 _atom_site_label
 _atom_site_symmetry_multiplicity
 _atom_site_fract_x
 _atom_site_fract_y
 _atom_site_fract_z
 _atom_site_occupancy
  La  La0  1  0.813172  0.063172  0.750000  1
  La  La1  1  0.209949  0.209629  0.209044  1
  La  La2  1  0.500586  0.000905  0.290956  1
  La  La3  1  0.289763  0.499871  0.000041  1
  La  La4  1  0.999829  0.289722  0.499960  1
  Pr  Pr5  1  0.249794  0.683251  0.433489  1
  Pr  Pr6  1  0.749763  0.816306  0.066512  1
  Pr  Pr7  1  0.432816  0.249951  0.683552  1
  Pr  Pr8  1  0.683581  0.433582  0.250000  1
  Pr  Pr9  1  0.066399  0.749263  0.816448  1
  Cd  Cd10  1  0.498632  0.999227  0.909793  1
  Cd  Cd11  1  0.589434  0.588838  0.590207  1
  Cd  Cd12  1  0.909314  0.501402  0.000415  1
  Cd  Cd13  1  0.000986  0.908899  0.499586  1
  Ru  Ru14  1  0.252831  0.143860  0.894497  1
  Ru  Ru15  1  0.749363  0.358332  0.605502  1
  Ru  Ru16  1  0.891730  0.247051  0.135283  1
  Ru  Ru17  1  0.143085  0.893085  0.250001  1
  Ru  Ru18  1  0.611766  0.756447  0.364716  1
  Ru  Ru19  1  0.357209  0.607209  0.750000  1
