# generated using pymatgen
data_Cs2P2IrRu
_symmetry_space_group_name_H-M   'P 1'
_cell_length_a   4.04636300
_cell_length_b   4.04636300
_cell_length_c   11.83834100
_cell_angle_alpha   90.00000000
_cell_angle_beta   90.00000000
_cell_angle_gamma   90.00000000
_symmetry_Int_Tables_number   1
_chemical_formula_structural   Cs2P2IrRu
_chemical_formula_sum   'Cs2 P2 Ir1 Ru1'
_cell_volume   193.82979087
_cell_formula_units_Z   1
loop_
 _symmetry_equiv_pos_site_id
 _symmetry_equiv_pos_as_xyz
  1  'x, y, z'
loop_
 _atom_site_type_symbol
 _atom_site_label
 _atom_site_symmetry_multiplicity
 _atom_site_fract_x
 _atom_site_fract_y
 _atom_site_fract_z
 _atom_site_occupancy
  Cs  Cs0  1  0.500000  0.000000  0.716499  1
  Cs  Cs1  1  0.000000  0.500000  0.283501  1
  P  P2  1  0.500000  0.000000  0.101067  1
  P  P3  1  0.000000  0.500000  0.898933  1
  Ir  Ir4  1  0.000000  0.000000  0.000000  1
  Ru  Ru5  1  0.500000  0.500000  0.000000  1
