# generated using pymatgen
data_DyYFe8Ni4P7
_symmetry_space_group_name_H-M   'P 1'
_cell_length_a   9.05370316
_cell_length_b   9.07509963
_cell_length_c   3.64723400
_cell_angle_alpha   90.00000000
_cell_angle_beta   90.00000000
_cell_angle_gamma   120.42080858
_symmetry_Int_Tables_number   1
_chemical_formula_structural   DyYFe8Ni4P7
_chemical_formula_sum   'Dy1 Y1 Fe8 Ni4 P7'
_cell_volume   258.41319833
_cell_formula_units_Z   1
loop_
 _symmetry_equiv_pos_site_id
 _symmetry_equiv_pos_as_xyz
  1  'x, y, z'
loop_
 _atom_site_type_symbol
 _atom_site_label
 _atom_site_symmetry_multiplicity
 _atom_site_fract_x
 _atom_site_fract_y
 _atom_site_fract_z
 _atom_site_occupancy
  Dy  Dy0  1  0.998057  0.000171  0.500000  1
  Y  Y1  1  0.334909  0.666050  0.000000  1
  Fe  Fe2  1  0.943740  0.492331  0.000000  1
  Fe  Fe3  1  0.512069  0.449412  0.000000  1
  Fe  Fe4  1  0.548512  0.061252  0.000000  1
  Fe  Fe5  1  0.278922  0.378503  0.500000  1
  Fe  Fe6  1  0.618175  0.898376  0.500000  1
  Fe  Fe7  1  0.763174  0.554142  0.500000  1
  Fe  Fe8  1  0.453911  0.215333  0.500000  1
  Fe  Fe9  1  0.787799  0.237422  0.500000  1
  Ni  Ni10  1  0.726029  0.762885  0.000000  1
  Ni  Ni11  1  0.233463  0.963567  0.000000  1
  Ni  Ni12  1  0.032254  0.269024  0.000000  1
  Ni  Ni13  1  0.104474  0.722540  0.500000  1
  P  P14  1  0.959704  0.739047  0.000000  1
  P  P15  1  0.258532  0.225507  0.000000  1
  P  P16  1  0.771709  0.031510  0.000000  1
  P  P17  1  0.067888  0.445039  0.500000  1
  P  P18  1  0.547393  0.615522  0.500000  1
  P  P19  1  0.389328  0.936869  0.500000  1
  P  P20  1  0.669961  0.335497  0.000000  1
