# generated using pymatgen
data_Er(Al5Os)2
_symmetry_space_group_name_H-M   'P 1'
_cell_length_a   6.84173789
_cell_length_b   6.84173806
_cell_length_c   9.13850000
_cell_angle_alpha   90.00000000
_cell_angle_beta   90.00000000
_cell_angle_gamma   96.45807356
_symmetry_Int_Tables_number   1
_chemical_formula_structural   Er(Al5Os)2
_chemical_formula_sum   'Er2 Al20 Os4'
_cell_volume   425.05307573
_cell_formula_units_Z   2
loop_
 _symmetry_equiv_pos_site_id
 _symmetry_equiv_pos_as_xyz
  1  'x, y, z'
loop_
 _atom_site_type_symbol
 _atom_site_label
 _atom_site_symmetry_multiplicity
 _atom_site_fract_x
 _atom_site_fract_y
 _atom_site_fract_z
 _atom_site_occupancy
  Er  Er0  1  0.870292  0.129708  0.750000  1
  Er  Er1  1  0.129708  0.870292  0.250000  1
  Al  Al2  1  0.518857  0.782782  0.750000  1
  Al  Al3  1  0.782782  0.518857  0.250000  1
  Al  Al4  1  0.481143  0.217218  0.250000  1
  Al  Al5  1  0.217218  0.481143  0.750000  1
  Al  Al6  1  0.623764  0.376236  0.954347  1
  Al  Al7  1  0.376236  0.623764  0.045653  1
  Al  Al8  1  0.623764  0.376236  0.545653  1
  Al  Al9  1  0.376236  0.623764  0.454347  1
  Al  Al10  1  0.416498  0.147907  0.750000  1
  Al  Al11  1  0.147907  0.416498  0.250000  1
  Al  Al12  1  0.583502  0.852093  0.250000  1
  Al  Al13  1  0.852093  0.583502  0.750000  1
  Al  Al14  1  0.844895  0.155105  0.399257  1
  Al  Al15  1  0.155105  0.844895  0.600743  1
  Al  Al16  1  0.844895  0.155105  0.100743  1
  Al  Al17  1  0.155105  0.844895  0.899257  1
  Al  Al18  1  0.775913  0.775913  0.000000  1
  Al  Al19  1  0.775913  0.775913  0.500000  1
  Al  Al20  1  0.224087  0.224087  0.000000  1
  Al  Al21  1  0.224087  0.224087  0.500000  1
  Os  Os22  1  0.500000  0.000000  0.000000  1
  Os  Os23  1  0.000000  0.500000  0.000000  1
  Os  Os24  1  0.500000  0.000000  0.500000  1
  Os  Os25  1  0.000000  0.500000  0.500000  1
