# generated using pymatgen
data_Sm3ErSe3O4
_symmetry_space_group_name_H-M   'P 1'
_cell_length_a   6.65708355
_cell_length_b   6.65708392
_cell_length_c   8.40935000
_cell_angle_alpha   90.00000000
_cell_angle_beta   90.00000000
_cell_angle_gamma   145.57262273
_symmetry_Int_Tables_number   1
_chemical_formula_structural   Sm3ErSe3O4
_chemical_formula_sum   'Sm3 Er1 Se3 O4'
_cell_volume   210.69608515
_cell_formula_units_Z   1
loop_
 _symmetry_equiv_pos_site_id
 _symmetry_equiv_pos_as_xyz
  1  'x, y, z'
loop_
 _atom_site_type_symbol
 _atom_site_label
 _atom_site_symmetry_multiplicity
 _atom_site_fract_x
 _atom_site_fract_y
 _atom_site_fract_z
 _atom_site_occupancy
  Sm  Sm0  1  0.318841  0.681159  0.239246  1
  Sm  Sm1  1  0.318841  0.681159  0.760754  1
  Sm  Sm2  1  0.987306  0.012694  0.500000  1
  Er  Er3  1  0.990699  0.009301  0.000000  1
  Se  Se4  1  0.674651  0.325349  0.000000  1
  Se  Se5  1  0.648333  0.351667  0.652451  1
  Se  Se6  1  0.648333  0.351667  0.347549  1
  O  O7  1  0.387861  0.612139  0.500000  1
  O  O8  1  0.916268  0.083732  0.759301  1
  O  O9  1  0.410029  0.589971  0.000000  1
  O  O10  1  0.916268  0.083732  0.240699  1
