# generated using pymatgen
data_Tb3UCo3B16W
_symmetry_space_group_name_H-M   'P 1'
_cell_length_a   3.42496800
_cell_length_b   5.95850077
_cell_length_c   11.53156051
_cell_angle_alpha   90.11374609
_cell_angle_beta   90.00000000
_cell_angle_gamma   90.00000000
_symmetry_Int_Tables_number   1
_chemical_formula_structural   Tb3UCo3B16W
_chemical_formula_sum   'Tb3 U1 Co3 B16 W1'
_cell_volume   235.33186911
_cell_formula_units_Z   1
loop_
 _symmetry_equiv_pos_site_id
 _symmetry_equiv_pos_as_xyz
  1  'x, y, z'
loop_
 _atom_site_type_symbol
 _atom_site_label
 _atom_site_symmetry_multiplicity
 _atom_site_fract_x
 _atom_site_fract_y
 _atom_site_fract_z
 _atom_site_occupancy
  Tb  Tb0  1  0.000000  0.626330  0.354780  1
  Tb  Tb1  1  0.000000  0.372666  0.648586  1
  Tb  Tb2  1  0.000000  0.129267  0.153163  1
  U  U3  1  0.000000  0.872728  0.846336  1
  Co  Co4  1  0.000000  0.360014  0.907262  1
  Co  Co5  1  0.000000  0.132508  0.413294  1
  Co  Co6  1  0.000000  0.866894  0.591987  1
  B  B7  1  0.500000  0.790028  0.191731  1
  B  B8  1  0.500000  0.216985  0.812937  1
  B  B9  1  0.500000  0.280856  0.318913  1
  B  B10  1  0.500000  0.718334  0.684779  1
  B  B11  1  0.500000  0.870843  0.026146  1
  B  B12  1  0.500000  0.136967  0.962840  1
  B  B13  1  0.500000  0.360002  0.469487  1
  B  B14  1  0.500000  0.640743  0.533425  1
  B  B15  1  0.500000  0.889076  0.455989  1
  B  B16  1  0.500000  0.111616  0.546381  1
  B  B17  1  0.500000  0.381715  0.044151  1
  B  B18  1  0.500000  0.614077  0.948508  1
  B  B19  1  0.500000  0.979565  0.312958  1
  B  B20  1  0.500000  0.022734  0.690878  1
  B  B21  1  0.500000  0.466143  0.194901  1
  B  B22  1  0.500000  0.526317  0.805431  1
  W  W23  1  0.000000  0.633592  0.085135  1
