# generated using pymatgen
data_PrSm5RhBr10
_symmetry_space_group_name_H-M   'P 1'
_cell_length_a   7.57743365
_cell_length_b   9.42547872
_cell_length_c   9.52719940
_cell_angle_alpha   108.63184102
_cell_angle_beta   96.80111736
_cell_angle_gamma   105.84037933
_symmetry_Int_Tables_number   1
_chemical_formula_structural   PrSm5RhBr10
_chemical_formula_sum   'Pr1 Sm5 Rh1 Br10'
_cell_volume   604.30865121
_cell_formula_units_Z   1
loop_
 _symmetry_equiv_pos_site_id
 _symmetry_equiv_pos_as_xyz
  1  'x, y, z'
loop_
 _atom_site_type_symbol
 _atom_site_label
 _atom_site_symmetry_multiplicity
 _atom_site_fract_x
 _atom_site_fract_y
 _atom_site_fract_z
 _atom_site_occupancy
  Pr  Pr0  1  0.971255  0.298601  0.094890  1
  Sm  Sm1  1  0.128239  0.049602  0.752520  1
  Sm  Sm2  1  0.633431  0.858142  0.814529  1
  Sm  Sm3  1  0.870227  0.950466  0.246895  1
  Sm  Sm4  1  0.029383  0.707170  0.907038  1
  Sm  Sm5  1  0.366248  0.139124  0.184800  1
  Rh  Rh6  1  0.999446  0.000134  0.999812  1
  Br  Br7  1  0.207855  0.744962  0.652483  1
  Br  Br8  1  0.647052  0.543048  0.728085  1
  Br  Br9  1  0.247124  0.081090  0.453461  1
  Br  Br10  1  0.786819  0.251842  0.351305  1
  Br  Br11  1  0.545875  0.171672  0.916600  1
  Br  Br12  1  0.751326  0.917332  0.546213  1
  Br  Br13  1  0.910977  0.633587  0.169163  1
  Br  Br14  1  0.364364  0.457427  0.275170  1
  Br  Br15  1  0.091196  0.371611  0.826773  1
  Br  Br16  1  0.449184  0.824190  0.080261  1
