# generated using pymatgen
data_TbY4Hf3Pt4
_symmetry_space_group_name_H-M   'P 1'
_cell_length_a   4.71167300
_cell_length_b   7.15194962
_cell_length_c   8.33599658
_cell_angle_alpha   90.35818525
_cell_angle_beta   90.00000000
_cell_angle_gamma   90.00000000
_symmetry_Int_Tables_number   1
_chemical_formula_structural   TbY4Hf3Pt4
_chemical_formula_sum   'Tb1 Y4 Hf3 Pt4'
_cell_volume   280.89798869
_cell_formula_units_Z   1
loop_
 _symmetry_equiv_pos_site_id
 _symmetry_equiv_pos_as_xyz
  1  'x, y, z'
loop_
 _atom_site_type_symbol
 _atom_site_label
 _atom_site_symmetry_multiplicity
 _atom_site_fract_x
 _atom_site_fract_y
 _atom_site_fract_z
 _atom_site_occupancy
  Tb  Tb0  1  0.750000  0.144216  0.081827  1
  Y  Y1  1  0.250000  0.978133  0.329823  1
  Y  Y2  1  0.250000  0.489584  0.174337  1
  Y  Y3  1  0.750000  0.021257  0.680105  1
  Y  Y4  1  0.750000  0.519937  0.816812  1
  Hf  Hf5  1  0.250000  0.361126  0.573388  1
  Hf  Hf6  1  0.250000  0.851274  0.922126  1
  Hf  Hf7  1  0.750000  0.648592  0.424441  1
  Pt  Pt8  1  0.250000  0.225845  0.883865  1
  Pt  Pt9  1  0.250000  0.729027  0.598338  1
  Pt  Pt10  1  0.750000  0.752468  0.095540  1
  Pt  Pt11  1  0.750000  0.278542  0.419398  1
