# generated using pymatgen
data_La14Pr6(Ir3Ru)3
_symmetry_space_group_name_H-M   'P 1'
_cell_length_a   11.37233600
_cell_length_b   11.39020710
_cell_length_c   6.64331606
_cell_angle_alpha   90.01531541
_cell_angle_beta   89.99831850
_cell_angle_gamma   89.99930539
_symmetry_Int_Tables_number   1
_chemical_formula_structural   La14Pr6(Ir3Ru)3
_chemical_formula_sum   'La14 Pr6 Ir9 Ru3'
_cell_volume   860.53037050
_cell_formula_units_Z   1
loop_
 _symmetry_equiv_pos_site_id
 _symmetry_equiv_pos_as_xyz
  1  'x, y, z'
loop_
 _atom_site_type_symbol
 _atom_site_label
 _atom_site_symmetry_multiplicity
 _atom_site_fract_x
 _atom_site_fract_y
 _atom_site_fract_z
 _atom_site_occupancy
  La  La0  1  0.292912  0.088749  0.383481  1
  La  La1  1  0.292964  0.911768  0.883941  1
  La  La2  1  0.706768  0.088049  0.884636  1
  La  La3  1  0.706834  0.911447  0.384199  1
  La  La4  1  0.588333  0.793243  0.883954  1
  La  La5  1  0.588795  0.206848  0.383603  1
  La  La6  1  0.410910  0.792989  0.383953  1
  La  La7  1  0.411328  0.206881  0.884420  1
  La  La8  1  0.207625  0.410521  0.617714  1
  La  La9  1  0.207422  0.589523  0.114311  1
  La  La10  1  0.792275  0.410107  0.114474  1
  La  La11  1  0.792070  0.589790  0.617845  1
  La  La12  1  0.910936  0.708125  0.115023  1
  La  La13  1  0.911029  0.291660  0.618264  1
  Pr  Pr14  1  0.089493  0.709170  0.619096  1
  Pr  Pr15  1  0.089579  0.291062  0.116362  1
  Pr  Pr16  1  0.000236  0.999729  0.498921  1
  Pr  Pr17  1  0.000233  0.000258  0.999165  1
  Pr  Pr18  1  0.500037  0.499835  0.999546  1
  Pr  Pr19  1  0.500036  0.500158  0.499276  1
  Ir  Ir20  1  0.846521  0.154360  0.249759  1
  Ir  Ir21  1  0.846272  0.845564  0.749415  1
  Ir  Ir22  1  0.154102  0.153618  0.748181  1
  Ir  Ir23  1  0.153835  0.846320  0.248568  1
  Ir  Ir24  1  0.654383  0.346147  0.749644  1
  Ir  Ir25  1  0.654519  0.653553  0.250041  1
  Ir  Ir26  1  0.345640  0.346640  0.250296  1
  Ir  Ir27  1  0.345715  0.653644  0.750048  1
  Ir  Ir28  1  0.999759  0.500435  0.383939  1
  Ru  Ru29  1  0.499955  0.000090  0.115520  1
  Ru  Ru30  1  0.499961  0.999896  0.615090  1
  Ru  Ru31  1  0.999525  0.499819  0.887315  1
