# generated using pymatgen
data_Sc2Sn2PtRh
_symmetry_space_group_name_H-M   'P 1'
_cell_length_a   7.59996300
_cell_length_b   7.59996323
_cell_length_c   6.96806200
_cell_angle_alpha   90.00000000
_cell_angle_beta   90.00000000
_cell_angle_gamma   120.00000336
_symmetry_Int_Tables_number   1
_chemical_formula_structural   Sc2Sn2PtRh
_chemical_formula_sum   'Sc6 Sn6 Pt3 Rh3'
_cell_volume   348.55040535
_cell_formula_units_Z   3
loop_
 _symmetry_equiv_pos_site_id
 _symmetry_equiv_pos_as_xyz
  1  'x, y, z'
loop_
 _atom_site_type_symbol
 _atom_site_label
 _atom_site_symmetry_multiplicity
 _atom_site_fract_x
 _atom_site_fract_y
 _atom_site_fract_z
 _atom_site_occupancy
  Sc  Sc0  1  0.400598  0.011080  0.247296  1
  Sc  Sc1  1  0.610482  0.599402  0.247296  1
  Sc  Sc2  1  0.988920  0.389518  0.247296  1
  Sc  Sc3  1  0.392503  0.995264  0.752820  1
  Sc  Sc4  1  0.602760  0.607497  0.752820  1
  Sc  Sc5  1  0.004736  0.397240  0.752820  1
  Sn  Sn6  1  0.276631  0.273317  0.999655  1
  Sn  Sn7  1  0.996685  0.723369  0.999655  1
  Sn  Sn8  1  0.001269  0.729251  0.499804  1
  Sn  Sn9  1  0.727982  0.998731  0.499804  1
  Sn  Sn10  1  0.270749  0.272018  0.499804  1
  Sn  Sn11  1  0.726683  0.003315  0.999655  1
  Pt  Pt12  1  0.333333  0.666667  0.485069  1
  Pt  Pt13  1  0.333333  0.666667  0.014709  1
  Pt  Pt14  1  0.666667  0.333333  0.515763  1
  Rh  Rh15  1  0.000000  0.000000  0.752867  1
  Rh  Rh16  1  0.000000  0.000000  0.246525  1
  Rh  Rh17  1  0.666667  0.333333  0.986341  1
