# generated using pymatgen
data_Ho3Mg2AlSi2Pt
_symmetry_space_group_name_H-M   'P 1'
_cell_length_a   7.06019616
_cell_length_b   6.98993091
_cell_length_c   4.29927200
_cell_angle_alpha   90.00000000
_cell_angle_beta   90.00000000
_cell_angle_gamma   119.67132327
_symmetry_Int_Tables_number   1
_chemical_formula_structural   Ho3Mg2AlSi2Pt
_chemical_formula_sum   'Ho3 Mg2 Al1 Si2 Pt1'
_cell_volume   184.35039227
_cell_formula_units_Z   1
loop_
 _symmetry_equiv_pos_site_id
 _symmetry_equiv_pos_as_xyz
  1  'x, y, z'
loop_
 _atom_site_type_symbol
 _atom_site_label
 _atom_site_symmetry_multiplicity
 _atom_site_fract_x
 _atom_site_fract_y
 _atom_site_fract_z
 _atom_site_occupancy
  Ho  Ho0  1  0.414660  0.000056  0.000000  1
  Ho  Ho1  1  0.000000  0.418177  0.000000  1
  Ho  Ho2  1  0.585339  0.585397  0.000000  1
  Mg  Mg3  1  0.761138  0.999570  0.500001  1
  Mg  Mg4  1  0.238863  0.238433  0.500001  1
  Al  Al5  1  0.000000  0.759921  0.500001  1
  Si  Si6  1  0.674327  0.343546  0.500001  1
  Si  Si7  1  0.325673  0.669219  0.500001  1
  Pt  Pt8  1  0.000000  0.985686  0.000000  1
