# generated using pymatgen
data_Li6NdNp2N6
_symmetry_space_group_name_H-M   'P 1'
_cell_length_a   6.10087700
_cell_length_b   6.10087771
_cell_length_c   5.49588300
_cell_angle_alpha   90.00000000
_cell_angle_beta   90.00000000
_cell_angle_gamma   120.00000157
_symmetry_Int_Tables_number   1
_chemical_formula_structural   Li6NdNp2N6
_chemical_formula_sum   'Li6 Nd1 Np2 N6'
_cell_volume   177.15470560
_cell_formula_units_Z   1
loop_
 _symmetry_equiv_pos_site_id
 _symmetry_equiv_pos_as_xyz
  1  'x, y, z'
loop_
 _atom_site_type_symbol
 _atom_site_label
 _atom_site_symmetry_multiplicity
 _atom_site_fract_x
 _atom_site_fract_y
 _atom_site_fract_z
 _atom_site_occupancy
  Li  Li0  1  0.985438  0.656101  0.605117  1
  Li  Li1  1  0.343899  0.329338  0.605117  1
  Li  Li2  1  0.670662  0.014562  0.605117  1
  Li  Li3  1  0.014562  0.343899  0.394883  1
  Li  Li4  1  0.656101  0.670662  0.394883  1
  Li  Li5  1  0.329338  0.985438  0.394883  1
  Nd  Nd6  1  0.000000  0.000000  0.000000  1
  Np  Np7  1  0.333333  0.666667  0.994891  1
  Np  Np8  1  0.666667  0.333333  0.005109  1
  N  N9  1  0.001627  0.643916  0.225356  1
  N  N10  1  0.356084  0.357711  0.225356  1
  N  N11  1  0.642289  0.998373  0.225356  1
  N  N12  1  0.998373  0.356084  0.774644  1
  N  N13  1  0.643916  0.642289  0.774644  1
  N  N14  1  0.357711  0.001627  0.774644  1
