# generated using pymatgen
data_Tb6ScCo16MoP12
_symmetry_space_group_name_H-M   'P 1'
_cell_length_a   3.72368600
_cell_length_b   10.61092200
_cell_length_c   12.32400300
_cell_angle_alpha   90.00000000
_cell_angle_beta   90.00000000
_cell_angle_gamma   90.00000000
_symmetry_Int_Tables_number   1
_chemical_formula_structural   Tb6ScCo16MoP12
_chemical_formula_sum   'Tb6 Sc1 Co16 Mo1 P12'
_cell_volume   486.94282323
_cell_formula_units_Z   1
loop_
 _symmetry_equiv_pos_site_id
 _symmetry_equiv_pos_as_xyz
  1  'x, y, z'
loop_
 _atom_site_type_symbol
 _atom_site_label
 _atom_site_symmetry_multiplicity
 _atom_site_fract_x
 _atom_site_fract_y
 _atom_site_fract_z
 _atom_site_occupancy
  Tb  Tb0  1  0.000000  0.500000  0.524157  1
  Tb  Tb1  1  0.500000  0.000000  0.473211  1
  Tb  Tb2  1  0.500000  0.818890  0.204743  1
  Tb  Tb3  1  0.500000  0.181110  0.204743  1
  Tb  Tb4  1  0.000000  0.678740  0.794385  1
  Tb  Tb5  1  0.000000  0.321260  0.794385  1
  Sc  Sc6  1  0.000000  0.000000  0.846891  1
  Co  Co7  1  0.500000  0.500000  0.702344  1
  Co  Co8  1  0.000000  0.000000  0.297330  1
  Co  Co9  1  0.000000  0.500000  0.988428  1
  Co  Co10  1  0.500000  0.000000  0.015493  1
  Co  Co11  1  0.500000  0.335457  0.994098  1
  Co  Co12  1  0.500000  0.664543  0.994098  1
  Co  Co13  1  0.000000  0.171781  0.009051  1
  Co  Co14  1  0.000000  0.828219  0.009051  1
  Co  Co15  1  0.500000  0.296368  0.430558  1
  Co  Co16  1  0.500000  0.703632  0.430558  1
  Co  Co17  1  0.000000  0.205348  0.566519  1
  Co  Co18  1  0.000000  0.794652  0.566519  1
  Co  Co19  1  0.500000  0.877459  0.703730  1
  Co  Co20  1  0.500000  0.122541  0.703730  1
  Co  Co21  1  0.000000  0.620674  0.293963  1
  Co  Co22  1  0.000000  0.379326  0.293963  1
  Mo  Mo23  1  0.500000  0.500000  0.157948  1
  P  P24  1  0.500000  0.500000  0.882761  1
  P  P25  1  0.000000  0.000000  0.116491  1
  P  P26  1  0.500000  0.500000  0.350039  1
  P  P27  1  0.000000  0.000000  0.642951  1
  P  P28  1  0.500000  0.310258  0.614547  1
  P  P29  1  0.500000  0.689742  0.614547  1
  P  P30  1  0.000000  0.190555  0.383567  1
  P  P31  1  0.000000  0.809445  0.383567  1
  P  P32  1  0.500000  0.838933  0.896272  1
  P  P33  1  0.500000  0.161067  0.896272  1
  P  P34  1  0.000000  0.654261  0.109544  1
  P  P35  1  0.000000  0.345739  0.109544  1
