# generated using pymatgen
data_NaNbP7Ru12
_symmetry_space_group_name_H-M   'P 1'
_cell_length_a   9.39333700
_cell_length_b   9.39333621
_cell_length_c   3.90901100
_cell_angle_alpha   90.00000000
_cell_angle_beta   90.00000000
_cell_angle_gamma   119.99999737
_symmetry_Int_Tables_number   1
_chemical_formula_structural   NaNbP7Ru12
_chemical_formula_sum   'Na1 Nb1 P7 Ru12'
_cell_volume   298.70143320
_cell_formula_units_Z   1
loop_
 _symmetry_equiv_pos_site_id
 _symmetry_equiv_pos_as_xyz
  1  'x, y, z'
loop_
 _atom_site_type_symbol
 _atom_site_label
 _atom_site_symmetry_multiplicity
 _atom_site_fract_x
 _atom_site_fract_y
 _atom_site_fract_z
 _atom_site_occupancy
  Na  Na0  1  0.333333  0.666667  0.000000  1
  Nb  Nb1  1  0.666667  0.333333  0.500000  1
  P  P2  1  0.601756  0.721068  0.500000  1
  P  P3  1  0.000000  0.000000  0.000000  1
  P  P4  1  0.278932  0.880689  0.500000  1
  P  P5  1  0.119311  0.398244  0.500000  1
  P  P6  1  0.889273  0.570249  0.000000  1
  P  P7  1  0.429751  0.319026  0.000000  1
  P  P8  1  0.680974  0.110727  0.000000  1
  Ru  Ru9  1  0.560067  0.964816  0.500000  1
  Ru  Ru10  1  0.404751  0.439933  0.500000  1
  Ru  Ru11  1  0.915289  0.120265  0.500000  1
  Ru  Ru12  1  0.204976  0.084711  0.500000  1
  Ru  Ru13  1  0.879735  0.795024  0.500000  1
  Ru  Ru14  1  0.725308  0.887428  0.000000  1
  Ru  Ru15  1  0.112572  0.837881  0.000000  1
  Ru  Ru16  1  0.162119  0.274692  0.000000  1
  Ru  Ru17  1  0.425908  0.080604  0.000000  1
  Ru  Ru18  1  0.919396  0.345306  0.000000  1
  Ru  Ru19  1  0.654694  0.574092  0.000000  1
  Ru  Ru20  1  0.035184  0.595249  0.500000  1
