# generated using pymatgen
data_Eu2Co10Tc2P7
_symmetry_space_group_name_H-M   'P 1'
_cell_length_a   9.29469700
_cell_length_b   9.28871466
_cell_length_c   3.72377600
_cell_angle_alpha   90.00000000
_cell_angle_beta   90.00000000
_cell_angle_gamma   119.99746918
_symmetry_Int_Tables_number   1
_chemical_formula_structural   Eu2Co10Tc2P7
_chemical_formula_sum   'Eu2 Co10 Tc2 P7'
_cell_volume   278.43005531
_cell_formula_units_Z   1
loop_
 _symmetry_equiv_pos_site_id
 _symmetry_equiv_pos_as_xyz
  1  'x, y, z'
loop_
 _atom_site_type_symbol
 _atom_site_label
 _atom_site_symmetry_multiplicity
 _atom_site_fract_x
 _atom_site_fract_y
 _atom_site_fract_z
 _atom_site_occupancy
  Eu  Eu0  1  0.999853  0.997994  0.000000  1
  Eu  Eu1  1  0.333333  0.666371  0.500000  1
  Co  Co2  1  0.096119  0.704451  0.000000  1
  Co  Co3  1  0.294750  0.388581  0.000000  1
  Co  Co4  1  0.611434  0.905197  0.000000  1
  Co  Co5  1  0.824108  0.217603  0.000000  1
  Co  Co6  1  0.786398  0.606673  0.000000  1
  Co  Co7  1  0.390925  0.177103  0.000000  1
  Co  Co8  1  0.050645  0.287783  0.500000  1
  Co  Co9  1  0.715846  0.765429  0.500000  1
  Co  Co10  1  0.233844  0.950075  0.500000  1
  Co  Co11  1  0.882233  0.458208  0.500000  1
  Tc  Tc12  1  0.544285  0.425648  0.500000  1
  Tc  Tc13  1  0.569296  0.118397  0.500000  1
  P  P14  1  0.074640  0.441575  0.000000  1
  P  P15  1  0.560560  0.633782  0.000000  1
  P  P16  1  0.365571  0.924768  0.000000  1
  P  P17  1  0.778214  0.043072  0.500000  1
  P  P18  1  0.957764  0.732297  0.500000  1
  P  P19  1  0.261931  0.221480  0.500000  1
  P  P20  1  0.668254  0.333507  0.000000  1
