# generated using pymatgen
data_Li8TbY7Sn5Sb3
_symmetry_space_group_name_H-M   'P 1'
_cell_length_a   9.37830820
_cell_length_b   9.37830938
_cell_length_c   7.26020203
_cell_angle_alpha   90.14529032
_cell_angle_beta   89.85471310
_cell_angle_gamma   119.99795786
_symmetry_Int_Tables_number   1
_chemical_formula_structural   Li8TbY7Sn5Sb3
_chemical_formula_sum   'Li8 Tb1 Y7 Sn5 Sb3'
_cell_volume   553.01316337
_cell_formula_units_Z   1
loop_
 _symmetry_equiv_pos_site_id
 _symmetry_equiv_pos_as_xyz
  1  'x, y, z'
loop_
 _atom_site_type_symbol
 _atom_site_label
 _atom_site_symmetry_multiplicity
 _atom_site_fract_x
 _atom_site_fract_y
 _atom_site_fract_z
 _atom_site_occupancy
  Li  Li0  1  0.167063  0.832937  0.196478  1
  Li  Li1  1  0.333881  0.167515  0.697427  1
  Li  Li2  1  0.832485  0.666119  0.697427  1
  Li  Li3  1  0.166398  0.333825  0.197684  1
  Li  Li4  1  0.666175  0.833602  0.197684  1
  Li  Li5  1  0.833299  0.166701  0.699083  1
  Li  Li6  1  0.333602  0.666398  0.809975  1
  Li  Li7  1  0.666913  0.333087  0.311354  1
  Tb  Tb8  1  0.510758  0.489242  0.990076  1
  Y  Y9  1  0.023875  0.508977  0.492258  1
  Y  Y10  1  0.491023  0.976125  0.492258  1
  Y  Y11  1  0.515115  0.024245  0.991502  1
  Y  Y12  1  0.975755  0.484885  0.991502  1
  Y  Y13  1  0.487009  0.512991  0.492964  1
  Y  Y14  1  0.998290  0.001710  0.982745  1
  Y  Y15  1  0.998125  0.001875  0.484394  1
  Sn  Sn16  1  0.166844  0.333316  0.753412  1
  Sn  Sn17  1  0.666684  0.833156  0.753412  1
  Sn  Sn18  1  0.833343  0.166657  0.253169  1
  Sn  Sn19  1  0.333066  0.666934  0.223914  1
  Sn  Sn20  1  0.666591  0.333409  0.724065  1
  Sb  Sb21  1  0.166690  0.833310  0.752349  1
  Sb  Sb22  1  0.333310  0.166295  0.252436  1
  Sb  Sb23  1  0.833705  0.666690  0.252436  1
