# generated using pymatgen
data_Y3CoMoP6Rh7
_symmetry_space_group_name_H-M   'P 1'
_cell_length_a   3.88634700
_cell_length_b   11.10273000
_cell_length_c   12.78205500
_cell_angle_alpha   90.00000000
_cell_angle_beta   90.00000000
_cell_angle_gamma   90.00000000
_symmetry_Int_Tables_number   1
_chemical_formula_structural   Y3CoMoP6Rh7
_chemical_formula_sum   'Y6 Co2 Mo2 P12 Rh14'
_cell_volume   551.53367636
_cell_formula_units_Z   2
loop_
 _symmetry_equiv_pos_site_id
 _symmetry_equiv_pos_as_xyz
  1  'x, y, z'
loop_
 _atom_site_type_symbol
 _atom_site_label
 _atom_site_symmetry_multiplicity
 _atom_site_fract_x
 _atom_site_fract_y
 _atom_site_fract_z
 _atom_site_occupancy
  Y  Y0  1  0.000000  0.500000  0.521835  1
  Y  Y1  1  0.500000  0.000000  0.478165  1
  Y  Y2  1  0.500000  0.816600  0.200779  1
  Y  Y3  1  0.500000  0.183400  0.200779  1
  Y  Y4  1  0.000000  0.683400  0.799221  1
  Y  Y5  1  0.000000  0.316600  0.799221  1
  Co  Co6  1  0.000000  0.500000  0.990638  1
  Co  Co7  1  0.500000  0.000000  0.009362  1
  Mo  Mo8  1  0.500000  0.500000  0.155328  1
  Mo  Mo9  1  0.000000  0.000000  0.844672  1
  P  P10  1  0.500000  0.500000  0.880147  1
  P  P11  1  0.000000  0.000000  0.119853  1
  P  P12  1  0.500000  0.500000  0.344487  1
  P  P13  1  0.000000  0.000000  0.655513  1
  P  P14  1  0.500000  0.315003  0.618831  1
  P  P15  1  0.500000  0.684997  0.618831  1
  P  P16  1  0.000000  0.184997  0.381169  1
  P  P17  1  0.000000  0.815003  0.381169  1
  P  P18  1  0.500000  0.851574  0.892168  1
  P  P19  1  0.500000  0.148426  0.892168  1
  P  P20  1  0.000000  0.648426  0.107832  1
  P  P21  1  0.000000  0.351574  0.107832  1
  Rh  Rh22  1  0.500000  0.500000  0.701629  1
  Rh  Rh23  1  0.000000  0.000000  0.298371  1
  Rh  Rh24  1  0.500000  0.334112  0.986902  1
  Rh  Rh25  1  0.500000  0.665888  0.986902  1
  Rh  Rh26  1  0.000000  0.165888  0.013098  1
  Rh  Rh27  1  0.000000  0.834112  0.013098  1
  Rh  Rh28  1  0.500000  0.294762  0.431456  1
  Rh  Rh29  1  0.500000  0.705238  0.431456  1
  Rh  Rh30  1  0.000000  0.205238  0.568544  1
  Rh  Rh31  1  0.000000  0.794762  0.568544  1
  Rh  Rh32  1  0.500000  0.875012  0.710359  1
  Rh  Rh33  1  0.500000  0.124988  0.710359  1
  Rh  Rh34  1  0.000000  0.624988  0.289641  1
  Rh  Rh35  1  0.000000  0.375012  0.289641  1
