# generated using pymatgen
data_LiHoInPt3
_symmetry_space_group_name_H-M   'P 1'
_cell_length_a   5.14506489
_cell_length_b   5.14506499
_cell_length_c   5.14506407
_cell_angle_alpha   64.36757646
_cell_angle_beta   64.36757072
_cell_angle_gamma   64.36757590
_symmetry_Int_Tables_number   1
_chemical_formula_structural   LiHoInPt3
_chemical_formula_sum   'Li1 Ho1 In1 Pt3'
_cell_volume   105.54232148
_cell_formula_units_Z   1
loop_
 _symmetry_equiv_pos_site_id
 _symmetry_equiv_pos_as_xyz
  1  'x, y, z'
loop_
 _atom_site_type_symbol
 _atom_site_label
 _atom_site_symmetry_multiplicity
 _atom_site_fract_x
 _atom_site_fract_y
 _atom_site_fract_z
 _atom_site_occupancy
  Li  Li0  1  0.628021  0.628021  0.628021  1
  Ho  Ho1  1  0.246088  0.246088  0.246088  1
  In  In2  1  0.995712  0.995712  0.995712  1
  Pt  Pt3  1  0.626255  0.626255  0.127669  1
  Pt  Pt4  1  0.626255  0.127669  0.626255  1
  Pt  Pt5  1  0.127669  0.626255  0.626255  1
