# generated using pymatgen
data_Mg3Zr6ScAl12Pt7
_symmetry_space_group_name_H-M   'P 1'
_cell_length_a   8.90881602
_cell_length_b   8.90881708
_cell_length_c   8.91167223
_cell_angle_alpha   60.01060393
_cell_angle_beta   60.01059585
_cell_angle_gamma   60.00000182
_symmetry_Int_Tables_number   1
_chemical_formula_structural   Mg3Zr6ScAl12Pt7
_chemical_formula_sum   'Mg3 Zr6 Sc1 Al12 Pt7'
_cell_volume   500.21165635
_cell_formula_units_Z   1
loop_
 _symmetry_equiv_pos_site_id
 _symmetry_equiv_pos_as_xyz
  1  'x, y, z'
loop_
 _atom_site_type_symbol
 _atom_site_label
 _atom_site_symmetry_multiplicity
 _atom_site_fract_x
 _atom_site_fract_y
 _atom_site_fract_z
 _atom_site_occupancy
  Mg  Mg0  1  0.881244  0.356361  0.881150  1
  Mg  Mg1  1  0.356361  0.881244  0.881150  1
  Mg  Mg2  1  0.881244  0.881244  0.881150  1
  Zr  Zr3  1  0.681504  0.681504  0.317371  1
  Zr  Zr4  1  0.319621  0.681504  0.317371  1
  Zr  Zr5  1  0.681504  0.319621  0.317371  1
  Zr  Zr6  1  0.316841  0.316841  0.682436  1
  Zr  Zr7  1  0.683882  0.316841  0.682436  1
  Zr  Zr8  1  0.316841  0.683882  0.682436  1
  Sc  Sc9  1  0.880313  0.880313  0.359061  1
  Al  Al10  1  0.120188  0.120188  0.639436  1
  Al  Al11  1  0.121871  0.638874  0.117384  1
  Al  Al12  1  0.638874  0.121871  0.117384  1
  Al  Al13  1  0.121871  0.121871  0.117384  1
  Al  Al14  1  0.664337  0.664337  0.006988  1
  Al  Al15  1  0.661620  0.009886  0.666875  1
  Al  Al16  1  0.009886  0.661620  0.666875  1
  Al  Al17  1  0.661620  0.661620  0.666875  1
  Al  Al18  1  0.337356  0.337356  0.987930  1
  Al  Al19  1  0.336340  0.989660  0.337657  1
  Al  Al20  1  0.989660  0.336340  0.337657  1
  Al  Al21  1  0.336340  0.336340  0.337657  1
  Pt  Pt22  1  0.999399  0.999399  0.001804  1
  Pt  Pt23  1  0.001690  0.001690  0.495599  1
  Pt  Pt24  1  0.501022  0.001690  0.495599  1
  Pt  Pt25  1  0.001690  0.501022  0.495599  1
  Pt  Pt26  1  0.497421  0.497421  0.003121  1
  Pt  Pt27  1  0.002037  0.497421  0.003121  1
  Pt  Pt28  1  0.497421  0.002037  0.003121  1
