# generated using pymatgen
data_CaTb(PaRh2)2
_symmetry_space_group_name_H-M   'P 1'
_cell_length_a   3.68587500
_cell_length_b   4.49079300
_cell_length_c   10.41038200
_cell_angle_alpha   90.00000000
_cell_angle_beta   90.00000000
_cell_angle_gamma   90.00000000
_symmetry_Int_Tables_number   1
_chemical_formula_structural   CaTb(PaRh2)2
_chemical_formula_sum   'Ca1 Tb1 Pa2 Rh4'
_cell_volume   172.31786522
_cell_formula_units_Z   1
loop_
 _symmetry_equiv_pos_site_id
 _symmetry_equiv_pos_as_xyz
  1  'x, y, z'
loop_
 _atom_site_type_symbol
 _atom_site_label
 _atom_site_symmetry_multiplicity
 _atom_site_fract_x
 _atom_site_fract_y
 _atom_site_fract_z
 _atom_site_occupancy
  Ca  Ca0  1  0.500000  0.750000  0.357879  1
  Tb  Tb1  1  0.000000  0.250000  0.139699  1
  Pa  Pa2  1  0.000000  0.750000  0.866901  1
  Pa  Pa3  1  0.500000  0.250000  0.630665  1
  Rh  Rh4  1  0.500000  0.750000  0.065215  1
  Rh  Rh5  1  0.000000  0.750000  0.612149  1
  Rh  Rh6  1  0.000000  0.250000  0.438985  1
  Rh  Rh7  1  0.500000  0.250000  0.888506  1
