# generated using pymatgen
data_Y7Tm3Si5Bi
_symmetry_space_group_name_H-M   'P 1'
_cell_length_a   8.55383497
_cell_length_b   8.55202739
_cell_length_c   6.35385101
_cell_angle_alpha   90.00707448
_cell_angle_beta   89.99580901
_cell_angle_gamma   120.36379424
_symmetry_Int_Tables_number   1
_chemical_formula_structural   Y7Tm3Si5Bi
_chemical_formula_sum   'Y7 Tm3 Si5 Bi1'
_cell_volume   401.04569094
_cell_formula_units_Z   1
loop_
 _symmetry_equiv_pos_site_id
 _symmetry_equiv_pos_as_xyz
  1  'x, y, z'
loop_
 _atom_site_type_symbol
 _atom_site_label
 _atom_site_symmetry_multiplicity
 _atom_site_fract_x
 _atom_site_fract_y
 _atom_site_fract_z
 _atom_site_occupancy
  Y  Y0  1  0.676214  0.330634  0.504548  1
  Y  Y1  1  0.766116  0.766308  0.249669  1
  Y  Y2  1  0.241322  0.985356  0.249611  1
  Y  Y3  1  0.985611  0.241234  0.249429  1
  Y  Y4  1  0.241598  0.241754  0.750184  1
  Y  Y5  1  0.753411  0.997746  0.750483  1
  Y  Y6  1  0.998355  0.753652  0.750633  1
  Tm  Tm7  1  0.330312  0.677176  0.504770  1
  Tm  Tm8  1  0.330613  0.676970  0.995283  1
  Tm  Tm9  1  0.677120  0.330469  0.995252  1
  Si  Si10  1  0.602688  0.997094  0.248433  1
  Si  Si11  1  0.999822  0.603914  0.248349  1
  Si  Si12  1  0.605749  0.606894  0.751054  1
  Si  Si13  1  0.393168  0.001369  0.751533  1
  Si  Si14  1  0.004168  0.394560  0.751816  1
  Bi  Bi15  1  0.393734  0.394873  0.248953  1
