# generated using pymatgen
data_Na8Hf3NbBr24
_symmetry_space_group_name_H-M   'P 1'
_cell_length_a   7.17417700
_cell_length_b   7.17417715
_cell_length_c   26.66783500
_cell_angle_alpha   90.00000000
_cell_angle_beta   90.00000000
_cell_angle_gamma   119.99999468
_symmetry_Int_Tables_number   1
_chemical_formula_structural   Na8Hf3NbBr24
_chemical_formula_sum   'Na8 Hf3 Nb1 Br24'
_cell_volume   1188.67354807
_cell_formula_units_Z   1
loop_
 _symmetry_equiv_pos_site_id
 _symmetry_equiv_pos_as_xyz
  1  'x, y, z'
loop_
 _atom_site_type_symbol
 _atom_site_label
 _atom_site_symmetry_multiplicity
 _atom_site_fract_x
 _atom_site_fract_y
 _atom_site_fract_z
 _atom_site_occupancy
  Na  Na0  1  0.000000  0.000000  0.250224  1
  Na  Na1  1  0.000000  0.000000  0.749776  1
  Na  Na2  1  0.333333  0.666667  0.000362  1
  Na  Na3  1  0.333333  0.666667  0.499588  1
  Na  Na4  1  0.333333  0.666667  0.250088  1
  Na  Na5  1  0.666667  0.333333  0.749912  1
  Na  Na6  1  0.666667  0.333333  0.999638  1
  Na  Na7  1  0.666667  0.333333  0.500412  1
  Hf  Hf8  1  0.000000  0.000000  0.500000  1
  Hf  Hf9  1  0.333333  0.666667  0.749799  1
  Hf  Hf10  1  0.666667  0.333333  0.250201  1
  Nb  Nb11  1  0.000000  0.000000  0.000000  1
  Br  Br12  1  0.369278  0.035445  0.308063  1
  Br  Br13  1  0.333427  0.964305  0.807668  1
  Br  Br14  1  0.999570  0.294389  0.056853  1
  Br  Br15  1  0.000628  0.297856  0.557878  1
  Br  Br16  1  0.964555  0.333834  0.308063  1
  Br  Br17  1  0.035695  0.369121  0.807668  1
  Br  Br18  1  0.369121  0.333427  0.192332  1
  Br  Br19  1  0.333834  0.369278  0.691937  1
  Br  Br20  1  0.297856  0.297227  0.442122  1
  Br  Br21  1  0.294389  0.294819  0.943147  1
  Br  Br22  1  0.702773  0.000628  0.442122  1
  Br  Br23  1  0.294819  0.000430  0.056853  1
  Br  Br24  1  0.297227  0.999372  0.557878  1
  Br  Br25  1  0.705611  0.705181  0.056853  1
  Br  Br26  1  0.702144  0.702773  0.557878  1
  Br  Br27  1  0.666166  0.630722  0.308063  1
  Br  Br28  1  0.630879  0.666573  0.807668  1
  Br  Br29  1  0.964305  0.630879  0.192332  1
  Br  Br30  1  0.035445  0.666166  0.691937  1
  Br  Br31  1  0.999372  0.702144  0.442122  1
  Br  Br32  1  0.000430  0.705611  0.943147  1
  Br  Br33  1  0.705181  0.999570  0.943147  1
  Br  Br34  1  0.666573  0.035695  0.192332  1
  Br  Br35  1  0.630722  0.964555  0.691937  1
