# generated using pymatgen
data_Nd6AlZn3Pt13
_symmetry_space_group_name_H-M   'P 1'
_cell_length_a   8.38148499
_cell_length_b   8.38148505
_cell_length_c   8.38148513
_cell_angle_alpha   109.35858978
_cell_angle_beta   109.35858880
_cell_angle_gamma   109.35859835
_symmetry_Int_Tables_number   1
_chemical_formula_structural   Nd6AlZn3Pt13
_chemical_formula_sum   'Nd6 Al1 Zn3 Pt13'
_cell_volume   455.13359582
_cell_formula_units_Z   1
loop_
 _symmetry_equiv_pos_site_id
 _symmetry_equiv_pos_as_xyz
  1  'x, y, z'
loop_
 _atom_site_type_symbol
 _atom_site_label
 _atom_site_symmetry_multiplicity
 _atom_site_fract_x
 _atom_site_fract_y
 _atom_site_fract_z
 _atom_site_occupancy
  Nd  Nd0  1  0.699800  0.699800  0.001887  1
  Nd  Nd1  1  0.300200  0.998113  0.300200  1
  Nd  Nd2  1  0.998113  0.300200  0.300200  1
  Nd  Nd3  1  0.300200  0.300200  0.998113  1
  Nd  Nd4  1  0.699800  0.001887  0.699800  1
  Nd  Nd5  1  0.001887  0.699800  0.699800  1
  Al  Al6  1  0.500000  0.500000  0.500000  1
  Zn  Zn7  1  0.000000  0.000000  0.500000  1
  Zn  Zn8  1  0.000000  0.500000  0.000000  1
  Zn  Zn9  1  0.500000  0.000000  0.000000  1
  Pt  Pt10  1  0.326934  0.326934  0.649925  1
  Pt  Pt11  1  0.670820  0.000000  0.329180  1
  Pt  Pt12  1  0.000000  0.670820  0.329180  1
  Pt  Pt13  1  0.670820  0.329180  0.000000  1
  Pt  Pt14  1  0.326934  0.649925  0.326934  1
  Pt  Pt15  1  0.000000  0.329180  0.670820  1
  Pt  Pt16  1  0.329180  0.670820  0.000000  1
  Pt  Pt17  1  0.329180  0.000000  0.670820  1
  Pt  Pt18  1  0.649925  0.326934  0.326934  1
  Pt  Pt19  1  0.673066  0.673066  0.350075  1
  Pt  Pt20  1  0.673066  0.350075  0.673066  1
  Pt  Pt21  1  0.350075  0.673066  0.673066  1
  Pt  Pt22  1  0.000000  0.000000  0.000000  1
