# generated using pymatgen
data_SrScClO2
_symmetry_space_group_name_H-M   'P 1'
_cell_length_a   5.76412187
_cell_length_b   5.76412129
_cell_length_c   9.30334187
_cell_angle_alpha   76.74664765
_cell_angle_beta   76.74665117
_cell_angle_gamma   40.98174140
_symmetry_Int_Tables_number   1
_chemical_formula_structural   SrScClO2
_chemical_formula_sum   'Sr2 Sc2 Cl2 O4'
_cell_volume   196.55141067
_cell_formula_units_Z   2
loop_
 _symmetry_equiv_pos_site_id
 _symmetry_equiv_pos_as_xyz
  1  'x, y, z'
loop_
 _atom_site_type_symbol
 _atom_site_label
 _atom_site_symmetry_multiplicity
 _atom_site_fract_x
 _atom_site_fract_y
 _atom_site_fract_z
 _atom_site_occupancy
  Sr  Sr0  1  0.393564  0.393564  0.794372  1
  Sr  Sr1  1  0.606436  0.606436  0.205628  1
  Sc  Sc2  1  0.860871  0.860871  0.501060  1
  Sc  Sc3  1  0.139129  0.139129  0.498940  1
  Cl  Cl4  1  0.666204  0.666204  0.872914  1
  Cl  Cl5  1  0.333796  0.333796  0.127086  1
  O  O6  1  0.314385  0.314385  0.556106  1
  O  O7  1  0.975696  0.975696  0.655748  1
  O  O8  1  0.024304  0.024304  0.344252  1
  O  O9  1  0.685615  0.685615  0.443894  1
