# generated using pymatgen
data_Ca2(YbAu2)3
_symmetry_space_group_name_H-M   'P 1'
_cell_length_a   15.72708500
_cell_length_b   15.72708527
_cell_length_c   3.90437500
_cell_angle_alpha   90.00000000
_cell_angle_beta   90.00000000
_cell_angle_gamma   163.99742736
_symmetry_Int_Tables_number   1
_chemical_formula_structural   Ca2(YbAu2)3
_chemical_formula_sum   'Ca2 Yb3 Au6'
_cell_volume   266.22821084
_cell_formula_units_Z   1
loop_
 _symmetry_equiv_pos_site_id
 _symmetry_equiv_pos_as_xyz
  1  'x, y, z'
loop_
 _atom_site_type_symbol
 _atom_site_label
 _atom_site_symmetry_multiplicity
 _atom_site_fract_x
 _atom_site_fract_y
 _atom_site_fract_z
 _atom_site_occupancy
  Ca  Ca0  1  0.000634  0.999366  0.000000  1
  Ca  Ca1  1  0.801771  0.198227  0.500001  1
  Yb  Yb2  1  0.618274  0.381724  0.000000  1
  Yb  Yb3  1  0.381794  0.618204  0.000000  1
  Yb  Yb4  1  0.199782  0.800216  0.500001  1
  Au  Au5  1  0.715251  0.284747  0.000000  1
  Au  Au6  1  0.280334  0.719664  0.000000  1
  Au  Au7  1  0.898397  0.101602  0.500001  1
  Au  Au8  1  0.544316  0.455682  0.500001  1
  Au  Au9  1  0.456469  0.543529  0.500001  1
  Au  Au10  1  0.102968  0.897031  0.500001  1
