# generated using pymatgen
data_Mg(Nb3N4)3
_symmetry_space_group_name_H-M   'P 1'
_cell_length_a   5.27336100
_cell_length_b   5.27336074
_cell_length_c   10.40496400
_cell_angle_alpha   90.00000000
_cell_angle_beta   90.00000000
_cell_angle_gamma   120.00000791
_symmetry_Int_Tables_number   1
_chemical_formula_structural   Mg(Nb3N4)3
_chemical_formula_sum   'Mg1 Nb9 N12'
_cell_volume   250.57986074
_cell_formula_units_Z   1
loop_
 _symmetry_equiv_pos_site_id
 _symmetry_equiv_pos_as_xyz
  1  'x, y, z'
loop_
 _atom_site_type_symbol
 _atom_site_label
 _atom_site_symmetry_multiplicity
 _atom_site_fract_x
 _atom_site_fract_y
 _atom_site_fract_z
 _atom_site_occupancy
  Mg  Mg0  1  0.333333  0.666667  0.500000  1
  Nb  Nb1  1  0.666667  0.333333  0.000000  1
  Nb  Nb2  1  0.666667  0.333333  0.500000  1
  Nb  Nb3  1  0.333333  0.666667  0.000000  1
  Nb  Nb4  1  0.676444  0.997997  0.750514  1
  Nb  Nb5  1  0.676444  0.678447  0.249486  1
  Nb  Nb6  1  0.002003  0.323556  0.249486  1
  Nb  Nb7  1  0.002003  0.678447  0.750514  1
  Nb  Nb8  1  0.321553  0.323556  0.750514  1
  Nb  Nb9  1  0.321553  0.997997  0.249486  1
  N  N10  1  0.349680  0.344147  0.374363  1
  N  N11  1  0.655853  0.005533  0.374363  1
  N  N12  1  0.994467  0.650320  0.374363  1
  N  N13  1  0.999502  0.339369  0.878867  1
  N  N14  1  0.660631  0.000498  0.121133  1
  N  N15  1  0.660631  0.660133  0.878867  1
  N  N16  1  0.339867  0.000498  0.878867  1
  N  N17  1  0.655853  0.650320  0.625637  1
  N  N18  1  0.994467  0.344147  0.625637  1
  N  N19  1  0.999502  0.660133  0.121133  1
  N  N20  1  0.349680  0.005533  0.625637  1
  N  N21  1  0.339867  0.339369  0.121133  1
