# generated using pymatgen
data_Lu5GaCoSb
_symmetry_space_group_name_H-M   'P 1'
_cell_length_a   8.34446246
_cell_length_b   8.34446287
_cell_length_c   8.51836118
_cell_angle_alpha   125.49569384
_cell_angle_beta   125.49570625
_cell_angle_gamma   79.31060154
_symmetry_Int_Tables_number   1
_chemical_formula_structural   Lu5GaCoSb
_chemical_formula_sum   'Lu10 Ga2 Co2 Sb2'
_cell_volume   382.73276374
_cell_formula_units_Z   2
loop_
 _symmetry_equiv_pos_site_id
 _symmetry_equiv_pos_as_xyz
  1  'x, y, z'
loop_
 _atom_site_type_symbol
 _atom_site_label
 _atom_site_symmetry_multiplicity
 _atom_site_fract_x
 _atom_site_fract_y
 _atom_site_fract_z
 _atom_site_occupancy
  Lu  Lu0  1  0.000000  0.000000  0.000000  1
  Lu  Lu1  1  0.500000  0.500000  0.000000  1
  Lu  Lu2  1  0.781664  0.281664  0.790368  1
  Lu  Lu3  1  0.218336  0.718336  0.209632  1
  Lu  Lu4  1  0.491296  0.991296  0.209632  1
  Lu  Lu5  1  0.313049  0.456100  0.500000  1
  Lu  Lu6  1  0.043900  0.186951  0.500000  1
  Lu  Lu7  1  0.508704  0.008704  0.790368  1
  Lu  Lu8  1  0.686951  0.543900  0.500000  1
  Lu  Lu9  1  0.956100  0.813049  0.500000  1
  Ga  Ga10  1  0.133989  0.633989  0.767977  1
  Ga  Ga11  1  0.866011  0.366011  0.232023  1
  Co  Co12  1  0.631827  0.868173  0.500000  1
  Co  Co13  1  0.368173  0.131827  0.500000  1
  Sb  Sb14  1  0.250000  0.250000  0.000000  1
  Sb  Sb15  1  0.750000  0.750000  0.000000  1
