# generated using pymatgen
data_Hf2Co(SnIr)2
_symmetry_space_group_name_H-M   'P 1'
_cell_length_a   7.80801450
_cell_length_b   7.80801446
_cell_length_c   7.80801423
_cell_angle_alpha   33.60946197
_cell_angle_beta   33.60946384
_cell_angle_gamma   33.60945861
_symmetry_Int_Tables_number   1
_chemical_formula_structural   Hf2Co(SnIr)2
_chemical_formula_sum   'Hf2 Co1 Sn2 Ir2'
_cell_volume   129.92206425
_cell_formula_units_Z   1
loop_
 _symmetry_equiv_pos_site_id
 _symmetry_equiv_pos_as_xyz
  1  'x, y, z'
loop_
 _atom_site_type_symbol
 _atom_site_label
 _atom_site_symmetry_multiplicity
 _atom_site_fract_x
 _atom_site_fract_y
 _atom_site_fract_z
 _atom_site_occupancy
  Hf  Hf0  1  0.752359  0.752359  0.752359  1
  Hf  Hf1  1  0.248127  0.248127  0.248127  1
  Co  Co2  1  0.374990  0.374990  0.374990  1
  Sn  Sn3  1  0.997964  0.997964  0.997964  1
  Sn  Sn4  1  0.501644  0.501644  0.501644  1
  Ir  Ir5  1  0.123521  0.123521  0.123521  1
  Ir  Ir6  1  0.626395  0.626395  0.626395  1
