# generated using pymatgen
data_Ba2LiAg3Bi4
_symmetry_space_group_name_H-M   'P 1'
_cell_length_a   4.91152000
_cell_length_b   4.91152000
_cell_length_c   12.47953900
_cell_angle_alpha   90.00000000
_cell_angle_beta   90.00000000
_cell_angle_gamma   90.00000000
_symmetry_Int_Tables_number   1
_chemical_formula_structural   Ba2LiAg3Bi4
_chemical_formula_sum   'Ba2 Li1 Ag3 Bi4'
_cell_volume   301.04427759
_cell_formula_units_Z   1
loop_
 _symmetry_equiv_pos_site_id
 _symmetry_equiv_pos_as_xyz
  1  'x, y, z'
loop_
 _atom_site_type_symbol
 _atom_site_label
 _atom_site_symmetry_multiplicity
 _atom_site_fract_x
 _atom_site_fract_y
 _atom_site_fract_z
 _atom_site_occupancy
  Ba  Ba0  1  0.000000  0.500000  0.758858  1
  Ba  Ba1  1  0.500000  0.000000  0.241142  1
  Li  Li2  1  0.000000  0.000000  0.000000  1
  Ag  Ag3  1  0.500000  0.500000  0.000000  1
  Ag  Ag4  1  0.000000  0.500000  0.358034  1
  Ag  Ag5  1  0.500000  0.000000  0.641966  1
  Bi  Bi6  1  0.000000  0.000000  0.500000  1
  Bi  Bi7  1  0.500000  0.500000  0.500000  1
  Bi  Bi8  1  0.000000  0.500000  0.130198  1
  Bi  Bi9  1  0.500000  0.000000  0.869802  1
