# generated using pymatgen
data_Dy3Th5(AlRh)8
_symmetry_space_group_name_H-M   'P 1'
_cell_length_a   4.20876900
_cell_length_b   7.15789665
_cell_length_c   16.12459062
_cell_angle_alpha   89.72308719
_cell_angle_beta   90.00000000
_cell_angle_gamma   90.00000000
_symmetry_Int_Tables_number   1
_chemical_formula_structural   Dy3Th5(AlRh)8
_chemical_formula_sum   'Dy3 Th5 Al8 Rh8'
_cell_volume   485.76267132
_cell_formula_units_Z   1
loop_
 _symmetry_equiv_pos_site_id
 _symmetry_equiv_pos_as_xyz
  1  'x, y, z'
loop_
 _atom_site_type_symbol
 _atom_site_label
 _atom_site_symmetry_multiplicity
 _atom_site_fract_x
 _atom_site_fract_y
 _atom_site_fract_z
 _atom_site_occupancy
  Dy  Dy0  1  0.250000  0.157529  0.558906  1
  Dy  Dy1  1  0.750000  0.844649  0.441873  1
  Dy  Dy2  1  0.250000  0.659350  0.937612  1
  Th  Th3  1  0.750000  0.344305  0.059118  1
  Th  Th4  1  0.250000  0.031223  0.779265  1
  Th  Th5  1  0.750000  0.969810  0.221874  1
  Th  Th6  1  0.250000  0.530903  0.719155  1
  Th  Th7  1  0.750000  0.471434  0.281617  1
  Al  Al8  1  0.250000  0.138987  0.356715  1
  Al  Al9  1  0.750000  0.861813  0.644060  1
  Al  Al10  1  0.250000  0.644149  0.147864  1
  Al  Al11  1  0.750000  0.360360  0.853467  1
  Al  Al12  1  0.250000  0.995326  0.060847  1
  Al  Al13  1  0.750000  0.990161  0.938886  1
  Al  Al14  1  0.250000  0.508060  0.440791  1
  Al  Al15  1  0.750000  0.492752  0.559120  1
  Rh  Rh16  1  0.750000  0.274669  0.429229  1
  Rh  Rh17  1  0.250000  0.726708  0.569972  1
  Rh  Rh18  1  0.750000  0.769741  0.070313  1
  Rh  Rh19  1  0.250000  0.224190  0.930845  1
  Rh  Rh20  1  0.750000  0.741779  0.815697  1
  Rh  Rh21  1  0.250000  0.258556  0.181244  1
  Rh  Rh22  1  0.750000  0.242280  0.684513  1
  Rh  Rh23  1  0.250000  0.761264  0.317018  1
