# generated using pymatgen
data_Lu6VCo17(Si2P)4
_symmetry_space_group_name_H-M   'P 1'
_cell_length_a   3.70898900
_cell_length_b   10.59607600
_cell_length_c   12.21473900
_cell_angle_alpha   90.00000000
_cell_angle_beta   90.00000000
_cell_angle_gamma   90.00000000
_symmetry_Int_Tables_number   1
_chemical_formula_structural   Lu6VCo17(Si2P)4
_chemical_formula_sum   'Lu6 V1 Co17 Si8 P4'
_cell_volume   480.04815124
_cell_formula_units_Z   1
loop_
 _symmetry_equiv_pos_site_id
 _symmetry_equiv_pos_as_xyz
  1  'x, y, z'
loop_
 _atom_site_type_symbol
 _atom_site_label
 _atom_site_symmetry_multiplicity
 _atom_site_fract_x
 _atom_site_fract_y
 _atom_site_fract_z
 _atom_site_occupancy
  Lu  Lu0  1  0.000000  0.500000  0.526707  1
  Lu  Lu1  1  0.500000  0.000000  0.472436  1
  Lu  Lu2  1  0.500000  0.818586  0.207397  1
  Lu  Lu3  1  0.500000  0.181414  0.207397  1
  Lu  Lu4  1  0.000000  0.680171  0.795524  1
  Lu  Lu5  1  0.000000  0.319829  0.795524  1
  V  V6  1  0.500000  0.500000  0.146773  1
  Co  Co7  1  0.000000  0.000000  0.846610  1
  Co  Co8  1  0.500000  0.500000  0.699737  1
  Co  Co9  1  0.000000  0.000000  0.304166  1
  Co  Co10  1  0.000000  0.500000  0.991041  1
  Co  Co11  1  0.500000  0.000000  0.017564  1
  Co  Co12  1  0.500000  0.329472  0.997645  1
  Co  Co13  1  0.500000  0.670528  0.997645  1
  Co  Co14  1  0.000000  0.168873  0.007205  1
  Co  Co15  1  0.000000  0.831127  0.007205  1
  Co  Co16  1  0.500000  0.293563  0.428306  1
  Co  Co17  1  0.500000  0.706437  0.428306  1
  Co  Co18  1  0.000000  0.198739  0.565468  1
  Co  Co19  1  0.000000  0.801261  0.565468  1
  Co  Co20  1  0.500000  0.881583  0.705451  1
  Co  Co21  1  0.500000  0.118417  0.705451  1
  Co  Co22  1  0.000000  0.622973  0.290734  1
  Co  Co23  1  0.000000  0.377027  0.290734  1
  Si  Si24  1  0.500000  0.500000  0.884408  1
  Si  Si25  1  0.000000  0.000000  0.119621  1
  Si  Si26  1  0.500000  0.500000  0.346787  1
  Si  Si27  1  0.000000  0.000000  0.656730  1
  Si  Si28  1  0.500000  0.307958  0.615459  1
  Si  Si29  1  0.500000  0.692042  0.615459  1
  Si  Si30  1  0.500000  0.852282  0.890445  1
  Si  Si31  1  0.500000  0.147718  0.890445  1
  P  P32  1  0.000000  0.190990  0.382998  1
  P  P33  1  0.000000  0.809010  0.382998  1
  P  P34  1  0.000000  0.656576  0.107079  1
  P  P35  1  0.000000  0.343424  0.107079  1
