# generated using pymatgen
data_Tb6InTcNi
_symmetry_space_group_name_H-M   'P 1'
_cell_length_a   8.51134884
_cell_length_b   8.51134829
_cell_length_c   8.51134879
_cell_angle_alpha   113.47458327
_cell_angle_beta   110.79271773
_cell_angle_gamma   104.28052960
_symmetry_Int_Tables_number   1
_chemical_formula_structural   Tb6InTcNi
_chemical_formula_sum   'Tb12 In2 Tc2 Ni2'
_cell_volume   471.47804468
_cell_formula_units_Z   2
loop_
 _symmetry_equiv_pos_site_id
 _symmetry_equiv_pos_as_xyz
  1  'x, y, z'
loop_
 _atom_site_type_symbol
 _atom_site_label
 _atom_site_symmetry_multiplicity
 _atom_site_fract_x
 _atom_site_fract_y
 _atom_site_fract_z
 _atom_site_occupancy
  Tb  Tb0  1  0.438603  0.241552  0.197051  1
  Tb  Tb1  1  0.561397  0.758448  0.802949  1
  Tb  Tb2  1  0.044500  0.241552  0.802949  1
  Tb  Tb3  1  0.955500  0.758448  0.197051  1
  Tb  Tb4  1  0.183787  0.284789  0.468576  1
  Tb  Tb5  1  0.816213  0.715211  0.531424  1
  Tb  Tb6  1  0.183787  0.715211  0.898998  1
  Tb  Tb7  1  0.816213  0.284789  0.101002  1
  Tb  Tb8  1  0.331239  0.648743  0.317504  1
  Tb  Tb9  1  0.668761  0.351257  0.682496  1
  Tb  Tb10  1  0.331239  0.013736  0.682496  1
  Tb  Tb11  1  0.668761  0.986264  0.317504  1
  In  In12  1  0.500000  0.500000  0.000000  1
  In  In13  1  0.000000  0.000000  0.000000  1
  Tc  Tc14  1  0.323149  0.000000  0.323149  1
  Tc  Tc15  1  0.676851  0.000000  0.676851  1
  Ni  Ni16  1  0.114611  0.614611  0.500000  1
  Ni  Ni17  1  0.885389  0.385389  0.500000  1
