# generated using pymatgen
data_Lu16In3HgIrRh3
_symmetry_space_group_name_H-M   'P 1'
_cell_length_a   9.44351918
_cell_length_b   9.44351867
_cell_length_c   9.44351969
_cell_angle_alpha   59.98193141
_cell_angle_beta   59.98193251
_cell_angle_gamma   59.98192919
_symmetry_Int_Tables_number   1
_chemical_formula_structural   Lu16In3HgIrRh3
_chemical_formula_sum   'Lu16 In3 Hg1 Ir1 Rh3'
_cell_volume   595.26264379
_cell_formula_units_Z   1
loop_
 _symmetry_equiv_pos_site_id
 _symmetry_equiv_pos_as_xyz
  1  'x, y, z'
loop_
 _atom_site_type_symbol
 _atom_site_label
 _atom_site_symmetry_multiplicity
 _atom_site_fract_x
 _atom_site_fract_y
 _atom_site_fract_z
 _atom_site_occupancy
  Lu  Lu0  1  0.598246  0.598246  0.598246  1
  Lu  Lu1  1  0.601521  0.601521  0.197765  1
  Lu  Lu2  1  0.601521  0.197765  0.601521  1
  Lu  Lu3  1  0.197765  0.601521  0.601521  1
  Lu  Lu4  1  0.059820  0.439790  0.439790  1
  Lu  Lu5  1  0.438228  0.060845  0.060845  1
  Lu  Lu6  1  0.439790  0.059820  0.439790  1
  Lu  Lu7  1  0.060845  0.438228  0.060845  1
  Lu  Lu8  1  0.439790  0.439790  0.059820  1
  Lu  Lu9  1  0.060845  0.060845  0.438228  1
  Lu  Lu10  1  0.185056  0.812979  0.812979  1
  Lu  Lu11  1  0.810835  0.188934  0.188934  1
  Lu  Lu12  1  0.812979  0.185056  0.812979  1
  Lu  Lu13  1  0.188934  0.810835  0.188934  1
  Lu  Lu14  1  0.812979  0.812979  0.185056  1
  Lu  Lu15  1  0.188934  0.188934  0.810835  1
  In  In16  1  0.833017  0.833017  0.500911  1
  In  In17  1  0.833017  0.500911  0.833017  1
  In  In18  1  0.500911  0.833017  0.833017  1
  Hg  Hg19  1  0.837124  0.837124  0.837124  1
  Ir  Ir20  1  0.392860  0.392860  0.392860  1
  Rh  Rh21  1  0.390889  0.390889  0.823205  1
  Rh  Rh22  1  0.390889  0.823205  0.390889  1
  Rh  Rh23  1  0.823205  0.390889  0.390889  1
