# generated using pymatgen
data_LiCeNd7Rh6
_symmetry_space_group_name_H-M   'P 1'
_cell_length_a   7.64904111
_cell_length_b   7.64904201
_cell_length_c   7.64904170
_cell_angle_alpha   69.03363141
_cell_angle_beta   69.03362277
_cell_angle_gamma   69.03361912
_symmetry_Int_Tables_number   1
_chemical_formula_structural   LiCeNd7Rh6
_chemical_formula_sum   'Li1 Ce1 Nd7 Rh6'
_cell_volume   376.43580316
_cell_formula_units_Z   1
loop_
 _symmetry_equiv_pos_site_id
 _symmetry_equiv_pos_as_xyz
  1  'x, y, z'
loop_
 _atom_site_type_symbol
 _atom_site_label
 _atom_site_symmetry_multiplicity
 _atom_site_fract_x
 _atom_site_fract_y
 _atom_site_fract_z
 _atom_site_occupancy
  Li  Li0  1  0.998058  0.998058  0.998058  1
  Ce  Ce1  1  0.812825  0.812825  0.812825  1
  Nd  Nd2  1  0.188678  0.188678  0.188678  1
  Nd  Nd3  1  0.149383  0.380376  0.677114  1
  Nd  Nd4  1  0.677114  0.149383  0.380376  1
  Nd  Nd5  1  0.380376  0.677114  0.149383  1
  Nd  Nd6  1  0.852182  0.614060  0.327160  1
  Nd  Nd7  1  0.327160  0.852182  0.614060  1
  Nd  Nd8  1  0.614060  0.327160  0.852182  1
  Rh  Rh9  1  0.948946  0.169084  0.582342  1
  Rh  Rh10  1  0.582342  0.948946  0.169084  1
  Rh  Rh11  1  0.169084  0.582342  0.948946  1
  Rh  Rh12  1  0.042336  0.810914  0.446542  1
  Rh  Rh13  1  0.446542  0.042336  0.810914  1
  Rh  Rh14  1  0.810914  0.446542  0.042336  1
