# generated using pymatgen
data_RbGdMnS3
_symmetry_space_group_name_H-M   'P 1'
_cell_length_a   4.02736300
_cell_length_b   7.88590706
_cell_length_c   10.60721100
_cell_angle_alpha   90.00000000
_cell_angle_beta   90.00000000
_cell_angle_gamma   75.20556477
_symmetry_Int_Tables_number   1
_chemical_formula_structural   RbGdMnS3
_chemical_formula_sum   'Rb2 Gd2 Mn2 S6'
_cell_volume   325.71062698
_cell_formula_units_Z   2
loop_
 _symmetry_equiv_pos_site_id
 _symmetry_equiv_pos_as_xyz
  1  'x, y, z'
loop_
 _atom_site_type_symbol
 _atom_site_label
 _atom_site_symmetry_multiplicity
 _atom_site_fract_x
 _atom_site_fract_y
 _atom_site_fract_z
 _atom_site_occupancy
  Rb  Rb0  1  0.740287  0.519427  0.250000  1
  Rb  Rb1  1  0.259712  0.480574  0.750000  1
  Gd  Gd2  1  0.000000  0.000000  0.000000  1
  Gd  Gd3  1  0.000000  0.000000  0.500000  1
  Mn  Mn4  1  0.460018  0.079962  0.250000  1
  Mn  Mn5  1  0.539982  0.920037  0.750000  1
  S  S6  1  0.381649  0.236700  0.058500  1
  S  S7  1  0.052761  0.894476  0.250000  1
  S  S8  1  0.381649  0.236700  0.441500  1
  S  S9  1  0.618351  0.763299  0.558501  1
  S  S10  1  0.947238  0.105525  0.750000  1
  S  S11  1  0.618351  0.763299  0.941500  1
