# generated using pymatgen
data_PrBPt2RhAu
_symmetry_space_group_name_H-M   'P 1'
_cell_length_a   5.54379384
_cell_length_b   5.54379482
_cell_length_c   7.68117800
_cell_angle_alpha   90.00000000
_cell_angle_beta   90.00000000
_cell_angle_gamma   119.65008876
_symmetry_Int_Tables_number   1
_chemical_formula_structural   PrBPt2RhAu
_chemical_formula_sum   'Pr2 B2 Pt4 Rh2 Au2'
_cell_volume   205.16024234
_cell_formula_units_Z   2
loop_
 _symmetry_equiv_pos_site_id
 _symmetry_equiv_pos_as_xyz
  1  'x, y, z'
loop_
 _atom_site_type_symbol
 _atom_site_label
 _atom_site_symmetry_multiplicity
 _atom_site_fract_x
 _atom_site_fract_y
 _atom_site_fract_z
 _atom_site_occupancy
  Pr  Pr0  1  0.000000  0.000000  0.500000  1
  Pr  Pr1  1  0.000000  0.000000  0.000000  1
  B  B2  1  0.669616  0.330384  0.500000  1
  B  B3  1  0.330384  0.669616  0.500000  1
  Pt  Pt4  1  0.500000  0.500000  0.304481  1
  Pt  Pt5  1  0.500000  0.000000  0.695458  1
  Pt  Pt6  1  0.500000  0.500000  0.695519  1
  Pt  Pt7  1  0.000000  0.500000  0.304542  1
  Rh  Rh8  1  0.500000  0.000000  0.310105  1
  Rh  Rh9  1  0.000000  0.500000  0.689895  1
  Au  Au10  1  0.668740  0.331260  0.000000  1
  Au  Au11  1  0.331260  0.668740  0.000000  1
