# generated using pymatgen
data_HgGe3(PN2)6
_symmetry_space_group_name_H-M   'P 1'
_cell_length_a   7.27662516
_cell_length_b   7.27662531
_cell_length_c   7.27662500
_cell_angle_alpha   109.57326934
_cell_angle_beta   109.57326976
_cell_angle_gamma   109.57324545
_symmetry_Int_Tables_number   1
_chemical_formula_structural   HgGe3(PN2)6
_chemical_formula_sum   'Hg1 Ge3 P6 N12'
_cell_volume   295.47208533
_cell_formula_units_Z   1
loop_
 _symmetry_equiv_pos_site_id
 _symmetry_equiv_pos_as_xyz
  1  'x, y, z'
loop_
 _atom_site_type_symbol
 _atom_site_label
 _atom_site_symmetry_multiplicity
 _atom_site_fract_x
 _atom_site_fract_y
 _atom_site_fract_z
 _atom_site_occupancy
  Hg  Hg0  1  0.830660  0.830660  0.830660  1
  Ge  Ge1  1  0.011103  0.338447  0.011103  1
  Ge  Ge2  1  0.011103  0.011103  0.338447  1
  Ge  Ge3  1  0.338447  0.011103  0.011103  1
  P  P4  1  0.508825  0.263300  0.760214  1
  P  P5  1  0.263300  0.760214  0.508825  1
  P  P6  1  0.760214  0.508825  0.263300  1
  P  P7  1  0.760214  0.263300  0.508825  1
  P  P8  1  0.508825  0.760214  0.263300  1
  P  P9  1  0.263300  0.508825  0.760214  1
  N  N10  1  0.440470  0.724806  0.440470  1
  N  N11  1  0.724806  0.440470  0.440470  1
  N  N12  1  0.440470  0.440470  0.724806  1
  N  N13  1  0.733573  0.292723  0.733573  1
  N  N14  1  0.009431  0.578385  0.281377  1
  N  N15  1  0.281377  0.578385  0.009431  1
  N  N16  1  0.281377  0.009431  0.578385  1
  N  N17  1  0.009431  0.281377  0.578385  1
  N  N18  1  0.733573  0.733573  0.292723  1
  N  N19  1  0.578385  0.009431  0.281377  1
  N  N20  1  0.292723  0.733573  0.733573  1
  N  N21  1  0.578385  0.281377  0.009431  1
