# generated using pymatgen
data_Lu12InFe3Au
_symmetry_space_group_name_H-M   'P 1'
_cell_length_a   8.09854683
_cell_length_b   8.09854571
_cell_length_c   8.09854722
_cell_angle_alpha   110.25234053
_cell_angle_beta   107.00834657
_cell_angle_gamma   111.18212070
_symmetry_Int_Tables_number   1
_chemical_formula_structural   Lu12InFe3Au
_chemical_formula_sum   'Lu12 In1 Fe3 Au1'
_cell_volume   408.29155716
_cell_formula_units_Z   1
loop_
 _symmetry_equiv_pos_site_id
 _symmetry_equiv_pos_as_xyz
  1  'x, y, z'
loop_
 _atom_site_type_symbol
 _atom_site_label
 _atom_site_symmetry_multiplicity
 _atom_site_fract_x
 _atom_site_fract_y
 _atom_site_fract_z
 _atom_site_occupancy
  Lu  Lu0  1  0.307682  0.309748  0.617430  1
  Lu  Lu1  1  0.692318  0.690252  0.382570  1
  Lu  Lu2  1  0.692318  0.309748  0.002066  1
  Lu  Lu3  1  0.307682  0.690252  0.997934  1
  Lu  Lu4  1  0.192933  0.447548  0.254615  1
  Lu  Lu5  1  0.807067  0.552452  0.745385  1
  Lu  Lu6  1  0.192933  0.938318  0.745385  1
  Lu  Lu7  1  0.962036  0.187887  0.774151  1
  Lu  Lu8  1  0.807067  0.061682  0.254615  1
  Lu  Lu9  1  0.037964  0.812113  0.225849  1
  Lu  Lu10  1  0.413736  0.187887  0.225849  1
  Lu  Lu11  1  0.586264  0.812113  0.774151  1
  In  In12  1  0.500000  0.000000  0.500000  1
  Fe  Fe13  1  0.380669  0.380669  0.000000  1
  Fe  Fe14  1  0.619331  0.619331  0.000000  1
  Fe  Fe15  1  0.000000  0.000000  0.000000  1
  Au  Au16  1  0.000000  0.500000  0.500000  1
