# generated using pymatgen
data_Cs2K3InPb8
_symmetry_space_group_name_H-M   'P 1'
_cell_length_a   13.60010917
_cell_length_b   13.60010960
_cell_length_c   13.60010996
_cell_angle_alpha   29.92075502
_cell_angle_beta   29.92075255
_cell_angle_gamma   29.92075283
_symmetry_Int_Tables_number   1
_chemical_formula_structural   Cs2K3InPb8
_chemical_formula_sum   'Cs2 K3 In1 Pb8'
_cell_volume   554.31798476
_cell_formula_units_Z   1
loop_
 _symmetry_equiv_pos_site_id
 _symmetry_equiv_pos_as_xyz
  1  'x, y, z'
loop_
 _atom_site_type_symbol
 _atom_site_label
 _atom_site_symmetry_multiplicity
 _atom_site_fract_x
 _atom_site_fract_y
 _atom_site_fract_z
 _atom_site_occupancy
  Cs  Cs0  1  0.318004  0.318004  0.318004  1
  Cs  Cs1  1  0.500017  0.500017  0.500017  1
  K  K2  1  0.779347  0.779347  0.779347  1
  K  K3  1  0.682109  0.682109  0.682109  1
  K  K4  1  0.220484  0.220484  0.220484  1
  In  In5  1  0.999667  0.999667  0.999667  1
  Pb  Pb6  1  0.767229  0.767229  0.266057  1
  Pb  Pb7  1  0.873157  0.873157  0.873157  1
  Pb  Pb8  1  0.230503  0.738383  0.230503  1
  Pb  Pb9  1  0.266057  0.767229  0.767229  1
  Pb  Pb10  1  0.127311  0.127311  0.127311  1
  Pb  Pb11  1  0.767229  0.266057  0.767229  1
  Pb  Pb12  1  0.738382  0.230503  0.230503  1
  Pb  Pb13  1  0.230503  0.230503  0.738383  1
