# generated using pymatgen
data_Dy(Cr3S4)2
_symmetry_space_group_name_H-M   'P 1'
_cell_length_a   6.18915922
_cell_length_b   6.18915952
_cell_length_c   6.18916010
_cell_angle_alpha   89.13668475
_cell_angle_beta   89.13669149
_cell_angle_gamma   89.13669371
_symmetry_Int_Tables_number   1
_chemical_formula_structural   Dy(Cr3S4)2
_chemical_formula_sum   'Dy1 Cr6 S8'
_cell_volume   237.00013718
_cell_formula_units_Z   1
loop_
 _symmetry_equiv_pos_site_id
 _symmetry_equiv_pos_as_xyz
  1  'x, y, z'
loop_
 _atom_site_type_symbol
 _atom_site_label
 _atom_site_symmetry_multiplicity
 _atom_site_fract_x
 _atom_site_fract_y
 _atom_site_fract_z
 _atom_site_occupancy
  Dy  Dy0  1  0.000000  0.000000  0.000000  1
  Cr  Cr1  1  0.769401  0.580446  0.438214  1
  Cr  Cr2  1  0.438214  0.769401  0.580446  1
  Cr  Cr3  1  0.580446  0.438214  0.769401  1
  Cr  Cr4  1  0.230599  0.419554  0.561786  1
  Cr  Cr5  1  0.561786  0.230599  0.419554  1
  Cr  Cr6  1  0.419554  0.561786  0.230599  1
  S  S7  1  0.753938  0.753938  0.753938  1
  S  S8  1  0.246062  0.246062  0.246062  1
  S  S9  1  0.255330  0.620771  0.872846  1
  S  S10  1  0.872846  0.255330  0.620771  1
  S  S11  1  0.620771  0.872846  0.255330  1
  S  S12  1  0.744670  0.379229  0.127154  1
  S  S13  1  0.127154  0.744670  0.379229  1
  S  S14  1  0.379229  0.127154  0.744670  1
