# generated using pymatgen
data_LaHg3(Rh2O7)2
_symmetry_space_group_name_H-M   'P 1'
_cell_length_a   7.38434863
_cell_length_b   7.38434871
_cell_length_c   7.38434910
_cell_angle_alpha   59.13592208
_cell_angle_beta   59.13592001
_cell_angle_gamma   59.13592083
_symmetry_Int_Tables_number   1
_chemical_formula_structural   LaHg3(Rh2O7)2
_chemical_formula_sum   'La1 Hg3 Rh4 O14'
_cell_volume   279.11496730
_cell_formula_units_Z   1
loop_
 _symmetry_equiv_pos_site_id
 _symmetry_equiv_pos_as_xyz
  1  'x, y, z'
loop_
 _atom_site_type_symbol
 _atom_site_label
 _atom_site_symmetry_multiplicity
 _atom_site_fract_x
 _atom_site_fract_y
 _atom_site_fract_z
 _atom_site_occupancy
  La  La0  1  0.125000  0.125000  0.125000  1
  Hg  Hg1  1  0.125000  0.625000  0.125000  1
  Hg  Hg2  1  0.625000  0.125000  0.125000  1
  Hg  Hg3  1  0.125000  0.125000  0.625000  1
  Rh  Rh4  1  0.625000  0.625000  0.625000  1
  Rh  Rh5  1  0.625000  0.625000  0.125000  1
  Rh  Rh6  1  0.125000  0.625000  0.625000  1
  Rh  Rh7  1  0.625000  0.125000  0.625000  1
  O  O8  1  0.259242  0.259242  0.259242  1
  O  O9  1  0.297674  0.704575  0.297674  1
  O  O10  1  0.952326  0.952326  0.545425  1
  O  O11  1  0.553535  0.947600  0.553535  1
  O  O12  1  0.696465  0.696465  0.302400  1
  O  O13  1  0.947600  0.553535  0.553535  1
  O  O14  1  0.696465  0.302400  0.696465  1
  O  O15  1  0.297674  0.297674  0.704575  1
  O  O16  1  0.704575  0.297674  0.297674  1
  O  O17  1  0.302400  0.696465  0.696465  1
  O  O18  1  0.952326  0.545425  0.952326  1
  O  O19  1  0.553535  0.553535  0.947600  1
  O  O20  1  0.990758  0.990758  0.990758  1
  O  O21  1  0.545425  0.952326  0.952326  1
