# generated using pymatgen
data_HgBClF4
_symmetry_space_group_name_H-M   'P 1'
_cell_length_a   7.09274200
_cell_length_b   7.09274200
_cell_length_c   4.89358600
_cell_angle_alpha   90.00000000
_cell_angle_beta   90.00000000
_cell_angle_gamma   90.00000000
_symmetry_Int_Tables_number   1
_chemical_formula_structural   HgBClF4
_chemical_formula_sum   'Hg2 B2 Cl2 F8'
_cell_volume   246.18157746
_cell_formula_units_Z   2
loop_
 _symmetry_equiv_pos_site_id
 _symmetry_equiv_pos_as_xyz
  1  'x, y, z'
loop_
 _atom_site_type_symbol
 _atom_site_label
 _atom_site_symmetry_multiplicity
 _atom_site_fract_x
 _atom_site_fract_y
 _atom_site_fract_z
 _atom_site_occupancy
  Hg  Hg0  1  0.000000  0.500000  0.645766  1
  Hg  Hg1  1  0.500000  0.000000  0.354234  1
  B  B2  1  0.500000  0.500000  0.500000  1
  B  B3  1  0.000000  0.000000  0.500000  1
  Cl  Cl4  1  0.000000  0.500000  0.145077  1
  Cl  Cl5  1  0.500000  0.000000  0.854923  1
  F  F6  1  0.063001  0.150665  0.667335  1
  F  F7  1  0.936999  0.849335  0.667335  1
  F  F8  1  0.563001  0.650665  0.332665  1
  F  F9  1  0.436999  0.349335  0.332665  1
  F  F10  1  0.150665  0.936999  0.332665  1
  F  F11  1  0.849335  0.063001  0.332665  1
  F  F12  1  0.650665  0.436999  0.667335  1
  F  F13  1  0.349335  0.563001  0.667335  1
