# generated using pymatgen
data_Lu2Nb3Ni9P7
_symmetry_space_group_name_H-M   'P 1'
_cell_length_a   3.68126100
_cell_length_b   9.29559836
_cell_length_c   9.29559800
_cell_angle_alpha   119.99999162
_cell_angle_beta   90.00000000
_cell_angle_gamma   90.00000000
_symmetry_Int_Tables_number   1
_chemical_formula_structural   Lu2Nb3Ni9P7
_chemical_formula_sum   'Lu2 Nb3 Ni9 P7'
_cell_volume   275.47485462
_cell_formula_units_Z   1
loop_
 _symmetry_equiv_pos_site_id
 _symmetry_equiv_pos_as_xyz
  1  'x, y, z'
loop_
 _atom_site_type_symbol
 _atom_site_label
 _atom_site_symmetry_multiplicity
 _atom_site_fract_x
 _atom_site_fract_y
 _atom_site_fract_z
 _atom_site_occupancy
  Lu  Lu0  1  0.000000  0.666667  0.333333  1
  Lu  Lu1  1  0.500000  0.333333  0.666667  1
  Nb  Nb2  1  0.500000  0.774268  0.894653  1
  Nb  Nb3  1  0.500000  0.120384  0.225732  1
  Nb  Nb4  1  0.500000  0.105347  0.879616  1
  Ni  Ni5  1  0.000000  0.563997  0.934416  1
  Ni  Ni6  1  0.000000  0.370419  0.436003  1
  Ni  Ni7  1  0.000000  0.065584  0.629581  1
  Ni  Ni8  1  0.500000  0.940328  0.387023  1
  Ni  Ni9  1  0.500000  0.446694  0.059672  1
  Ni  Ni10  1  0.500000  0.612977  0.553306  1
  Ni  Ni11  1  0.000000  0.870057  0.158680  1
  Ni  Ni12  1  0.000000  0.288623  0.129943  1
  Ni  Ni13  1  0.000000  0.841320  0.711377  1
  P  P14  1  0.500000  0.710125  0.122951  1
  P  P15  1  0.500000  0.412826  0.289875  1
  P  P16  1  0.500000  0.877049  0.587174  1
  P  P17  1  0.000000  0.000000  0.000000  1
  P  P18  1  0.000000  0.582286  0.696131  1
  P  P19  1  0.000000  0.113845  0.417714  1
  P  P20  1  0.000000  0.303869  0.886155  1
