# generated using pymatgen
data_Tl2ZnCoS2(ClO4)2
_symmetry_space_group_name_H-M   'P 1'
_cell_length_a   9.79796700
_cell_length_b   7.35868170
_cell_length_c   8.36612000
_cell_angle_alpha   85.40004965
_cell_angle_beta   90.00000000
_cell_angle_gamma   90.00000000
_symmetry_Int_Tables_number   1
_chemical_formula_structural   Tl2ZnCoS2(ClO4)2
_chemical_formula_sum   'Tl4 Zn2 Co2 S4 Cl4 O16'
_cell_volume   601.25532653
_cell_formula_units_Z   2
loop_
 _symmetry_equiv_pos_site_id
 _symmetry_equiv_pos_as_xyz
  1  'x, y, z'
loop_
 _atom_site_type_symbol
 _atom_site_label
 _atom_site_symmetry_multiplicity
 _atom_site_fract_x
 _atom_site_fract_y
 _atom_site_fract_z
 _atom_site_occupancy
  Tl  Tl0  1  0.586770  0.377865  0.292879  1
  Tl  Tl1  1  0.086469  0.621981  0.207882  1
  Tl  Tl2  1  0.413230  0.622135  0.707121  1
  Tl  Tl3  1  0.913531  0.378019  0.792118  1
  Zn  Zn4  1  0.696638  0.904775  0.043085  1
  Zn  Zn5  1  0.303362  0.095225  0.956915  1
  Co  Co6  1  0.804003  0.908336  0.545093  1
  Co  Co7  1  0.195997  0.091664  0.454907  1
  S  S8  1  0.567588  0.106083  0.731831  1
  S  S9  1  0.432412  0.893917  0.268169  1
  S  S10  1  0.068162  0.893492  0.769015  1
  S  S11  1  0.931838  0.106508  0.230985  1
  Cl  Cl12  1  0.680469  0.625593  0.963407  1
  Cl  Cl13  1  0.819564  0.624294  0.463110  1
  Cl  Cl14  1  0.319531  0.374407  0.036593  1
  Cl  Cl15  1  0.180436  0.375706  0.536890  1
  O  O16  1  0.075930  0.048414  0.270950  1
  O  O17  1  0.576101  0.953012  0.228530  1
  O  O18  1  0.924070  0.951586  0.729050  1
  O  O19  1  0.423899  0.046988  0.771470  1
  O  O20  1  0.926773  0.287030  0.144371  1
  O  O21  1  0.426883  0.713458  0.355277  1
  O  O22  1  0.073227  0.712970  0.855629  1
  O  O23  1  0.573117  0.286542  0.644723  1
  O  O24  1  0.877497  0.960106  0.133578  1
  O  O25  1  0.649065  0.111796  0.884663  1
  O  O26  1  0.122503  0.039894  0.866422  1
  O  O27  1  0.622383  0.959857  0.634171  1
  O  O28  1  0.850531  0.110914  0.383669  1
  O  O29  1  0.350935  0.888204  0.115337  1
  O  O30  1  0.149469  0.889086  0.616331  1
  O  O31  1  0.377617  0.040143  0.365829  1
