# generated using pymatgen
data_BaMo2F12
_symmetry_space_group_name_H-M   'P 1'
_cell_length_a   5.46465757
_cell_length_b   5.80838088
_cell_length_c   9.98963271
_cell_angle_alpha   90.58069462
_cell_angle_beta   106.19156587
_cell_angle_gamma   117.67914884
_symmetry_Int_Tables_number   1
_chemical_formula_structural   BaMo2F12
_chemical_formula_sum   'Ba1 Mo2 F12'
_cell_volume   265.99435095
_cell_formula_units_Z   1
loop_
 _symmetry_equiv_pos_site_id
 _symmetry_equiv_pos_as_xyz
  1  'x, y, z'
loop_
 _atom_site_type_symbol
 _atom_site_label
 _atom_site_symmetry_multiplicity
 _atom_site_fract_x
 _atom_site_fract_y
 _atom_site_fract_z
 _atom_site_occupancy
  Ba  Ba0  1  0.041425  0.984611  0.899274  1
  Mo  Mo1  1  0.149728  0.506937  0.580870  1
  Mo  Mo2  1  0.448353  0.683888  0.148031  1
  F  F3  1  0.106630  0.526648  0.973628  1
  F  F4  1  0.507107  0.650590  0.751841  1
  F  F5  1  0.957225  0.245704  0.694495  1
  F  F6  1  0.053252  0.735367  0.676984  1
  F  F7  1  0.258904  0.268540  0.526969  1
  F  F8  1  0.342124  0.791887  0.493607  1
  F  F9  1  0.807987  0.367422  0.421881  1
  F  F10  1  0.768442  0.830245  0.310383  1
  F  F11  1  0.230083  0.420382  0.240054  1
  F  F12  1  0.288644  0.913838  0.168608  1
  F  F13  1  0.640215  0.935639  0.029428  1
  F  F14  1  0.547875  0.448295  0.061947  1
