# generated using pymatgen
data_HoEr3ZnPt3
_symmetry_space_group_name_H-M   'P 1'
_cell_length_a   4.53649400
_cell_length_b   5.53654287
_cell_length_c   7.01271416
_cell_angle_alpha   90.17010594
_cell_angle_beta   90.00000000
_cell_angle_gamma   90.00000000
_symmetry_Int_Tables_number   1
_chemical_formula_structural   HoEr3ZnPt3
_chemical_formula_sum   'Ho1 Er3 Zn1 Pt3'
_cell_volume   176.13401329
_cell_formula_units_Z   1
loop_
 _symmetry_equiv_pos_site_id
 _symmetry_equiv_pos_as_xyz
  1  'x, y, z'
loop_
 _atom_site_type_symbol
 _atom_site_label
 _atom_site_symmetry_multiplicity
 _atom_site_fract_x
 _atom_site_fract_y
 _atom_site_fract_z
 _atom_site_occupancy
  Ho  Ho0  1  0.250000  0.641313  0.186447  1
  Er  Er1  1  0.750000  0.368063  0.807658  1
  Er  Er2  1  0.750000  0.139898  0.328192  1
  Er  Er3  1  0.250000  0.850312  0.678182  1
  Zn  Zn4  1  0.250000  0.137738  0.033112  1
  Pt  Pt5  1  0.750000  0.870356  0.968080  1
  Pt  Pt6  1  0.750000  0.656698  0.454971  1
  Pt  Pt7  1  0.250000  0.335622  0.543359  1
