# generated using pymatgen
data_Tb2Ce(InPd)3
_symmetry_space_group_name_H-M   'P 1'
_cell_length_a   7.83128000
_cell_length_b   7.81633730
_cell_length_c   3.80266600
_cell_angle_alpha   90.00000000
_cell_angle_beta   90.00000000
_cell_angle_gamma   120.06326805
_symmetry_Int_Tables_number   1
_chemical_formula_structural   Tb2Ce(InPd)3
_chemical_formula_sum   'Tb2 Ce1 In3 Pd3'
_cell_volume   201.45480404
_cell_formula_units_Z   1
loop_
 _symmetry_equiv_pos_site_id
 _symmetry_equiv_pos_as_xyz
  1  'x, y, z'
loop_
 _atom_site_type_symbol
 _atom_site_label
 _atom_site_symmetry_multiplicity
 _atom_site_fract_x
 _atom_site_fract_y
 _atom_site_fract_z
 _atom_site_occupancy
  Tb  Tb0  1  0.407655  0.407057  0.500000  1
  Tb  Tb1  1  0.000598  0.592943  0.500000  1
  Ce  Ce2  1  0.590833  0.000000  0.500000  1
  In  In3  1  0.739630  0.735707  0.000000  1
  In  In4  1  0.257152  0.000000  0.000000  1
  In  In5  1  0.003923  0.264293  0.000000  1
  Pd  Pd6  1  0.999085  0.000000  0.500000  1
  Pd  Pd7  1  0.666355  0.331585  0.000000  1
  Pd  Pd8  1  0.334769  0.668415  0.000000  1
