# generated using pymatgen
data_Tb10In8Pd2PtRh
_symmetry_space_group_name_H-M   'P 1'
_cell_length_a   8.17057717
_cell_length_b   18.35511099
_cell_length_c   3.65763800
_cell_angle_alpha   90.00000000
_cell_angle_beta   90.00000000
_cell_angle_gamma   90.03059738
_symmetry_Int_Tables_number   1
_chemical_formula_structural   Tb10In8Pd2PtRh
_chemical_formula_sum   'Tb10 In8 Pd2 Pt1 Rh1'
_cell_volume   548.54266237
_cell_formula_units_Z   1
loop_
 _symmetry_equiv_pos_site_id
 _symmetry_equiv_pos_as_xyz
  1  'x, y, z'
loop_
 _atom_site_type_symbol
 _atom_site_label
 _atom_site_symmetry_multiplicity
 _atom_site_fract_x
 _atom_site_fract_y
 _atom_site_fract_z
 _atom_site_occupancy
  Tb  Tb0  1  0.500091  0.500158  0.000000  1
  Tb  Tb1  1  0.999967  0.999693  0.000000  1
  Tb  Tb2  1  0.737454  0.279776  0.000000  1
  Tb  Tb3  1  0.266450  0.721538  0.000000  1
  Tb  Tb4  1  0.745455  0.779975  0.000000  1
  Tb  Tb5  1  0.247153  0.220190  0.000000  1
  Tb  Tb6  1  0.617458  0.084262  0.000000  1
  Tb  Tb7  1  0.385025  0.913003  0.000000  1
  Tb  Tb8  1  0.882395  0.584622  0.000000  1
  Tb  Tb9  1  0.117361  0.416266  0.000000  1
  In  In10  1  0.707732  0.931143  0.500000  1
  In  In11  1  0.291551  0.066871  0.500000  1
  In  In12  1  0.792772  0.432378  0.500000  1
  In  In13  1  0.208021  0.568161  0.500000  1
  In  In14  1  0.575163  0.649358  0.500000  1
  In  In15  1  0.421721  0.351744  0.500000  1
  In  In16  1  0.925042  0.150129  0.500000  1
  In  In17  1  0.075546  0.849610  0.500000  1
  Pd  Pd18  1  0.978000  0.696367  0.500000  1
  Pd  Pd19  1  0.023321  0.304036  0.500000  1
  Pt  Pt20  1  0.524579  0.196161  0.500000  1
  Rh  Rh21  1  0.477743  0.804560  0.500000  1
