# generated using pymatgen
data_Y10Al3FeTe4
_symmetry_space_group_name_H-M   'P 1'
_cell_length_a   8.72371443
_cell_length_b   8.72371467
_cell_length_c   7.96384300
_cell_angle_alpha   90.49641511
_cell_angle_beta   90.49641512
_cell_angle_gamma   125.69831005
_symmetry_Int_Tables_number   1
_chemical_formula_structural   Y10Al3FeTe4
_chemical_formula_sum   'Y10 Al3 Fe1 Te4'
_cell_volume   492.10434445
_cell_formula_units_Z   1
loop_
 _symmetry_equiv_pos_site_id
 _symmetry_equiv_pos_as_xyz
  1  'x, y, z'
loop_
 _atom_site_type_symbol
 _atom_site_label
 _atom_site_symmetry_multiplicity
 _atom_site_fract_x
 _atom_site_fract_y
 _atom_site_fract_z
 _atom_site_occupancy
  Y  Y0  1  0.995923  0.995923  0.006681  1
  Y  Y1  1  0.508996  0.508996  0.493661  1
  Y  Y2  1  0.818348  0.567460  0.188581  1
  Y  Y3  1  0.465386  0.205238  0.832381  1
  Y  Y4  1  0.955028  0.707081  0.650354  1
  Y  Y5  1  0.268052  0.024856  0.337376  1
  Y  Y6  1  0.205238  0.465386  0.832381  1
  Y  Y7  1  0.567460  0.818348  0.188581  1
  Y  Y8  1  0.024856  0.268052  0.337376  1
  Y  Y9  1  0.707081  0.955028  0.650354  1
  Al  Al10  1  0.122588  0.122588  0.625732  1
  Al  Al11  1  0.621943  0.621943  0.878666  1
  Al  Al12  1  0.377195  0.377195  0.118083  1
  Fe  Fe13  1  0.872663  0.872663  0.379484  1
  Te  Te14  1  0.216152  0.802702  0.994676  1
  Te  Te15  1  0.689861  0.280532  0.495479  1
  Te  Te16  1  0.802702  0.216152  0.994676  1
  Te  Te17  1  0.280532  0.689861  0.495479  1
