# generated using pymatgen
data_CaLu5IO12
_symmetry_space_group_name_H-M   'P 1'
_cell_length_a   6.38406128
_cell_length_b   6.36127684
_cell_length_c   6.37725900
_cell_angle_alpha   98.24169718
_cell_angle_beta   98.94567284
_cell_angle_gamma   98.22418838
_symmetry_Int_Tables_number   1
_chemical_formula_structural   CaLu5IO12
_chemical_formula_sum   'Ca1 Lu5 I1 O12'
_cell_volume   249.54588784
_cell_formula_units_Z   1
loop_
 _symmetry_equiv_pos_site_id
 _symmetry_equiv_pos_as_xyz
  1  'x, y, z'
loop_
 _atom_site_type_symbol
 _atom_site_label
 _atom_site_symmetry_multiplicity
 _atom_site_fract_x
 _atom_site_fract_y
 _atom_site_fract_z
 _atom_site_occupancy
  Ca  Ca0  1  0.321437  0.146963  0.606216  1
  Lu  Lu1  1  0.391673  0.675550  0.848990  1
  Lu  Lu2  1  0.850832  0.388344  0.672586  1
  Lu  Lu3  1  0.674262  0.851782  0.389395  1
  Lu  Lu4  1  0.609816  0.324656  0.144577  1
  Lu  Lu5  1  0.149720  0.610569  0.328029  1
  I  I6  1  0.997799  0.997599  0.001763  1
  O  O7  1  0.172492  0.442423  0.600715  1
  O  O8  1  0.614480  0.177005  0.424426  1
  O  O9  1  0.426209  0.592930  0.174816  1
  O  O10  1  0.822311  0.570078  0.399283  1
  O  O11  1  0.412774  0.814257  0.565605  1
  O  O12  1  0.582882  0.421292  0.828896  1
  O  O13  1  0.919152  0.030632  0.707756  1
  O  O14  1  0.967630  0.294952  0.075859  1
  O  O15  1  0.293952  0.071169  0.981459  1
  O  O16  1  0.061809  0.958050  0.294530  1
  O  O17  1  0.030980  0.703364  0.925273  1
  O  O18  1  0.699789  0.928388  0.029824  1
