# generated using pymatgen
data_Dy9Ho(SnSb)4
_symmetry_space_group_name_H-M   'P 1'
_cell_length_a   8.72333278
_cell_length_b   8.72333286
_cell_length_c   8.14627000
_cell_angle_alpha   90.00028583
_cell_angle_beta   90.00029237
_cell_angle_gamma   124.68447914
_symmetry_Int_Tables_number   1
_chemical_formula_structural   Dy9Ho(SnSb)4
_chemical_formula_sum   'Dy9 Ho1 Sn4 Sb4'
_cell_volume   509.74507279
_cell_formula_units_Z   1
loop_
 _symmetry_equiv_pos_site_id
 _symmetry_equiv_pos_as_xyz
  1  'x, y, z'
loop_
 _atom_site_type_symbol
 _atom_site_label
 _atom_site_symmetry_multiplicity
 _atom_site_fract_x
 _atom_site_fract_y
 _atom_site_fract_z
 _atom_site_occupancy
  Dy  Dy0  1  0.030065  0.301719  0.335886  1
  Dy  Dy1  1  0.969935  0.698281  0.664114  1
  Dy  Dy2  1  0.469883  0.198214  0.835922  1
  Dy  Dy3  1  0.801786  0.530117  0.164078  1
  Dy  Dy4  1  0.530117  0.801786  0.164078  1
  Dy  Dy5  1  0.198214  0.469883  0.835922  1
  Dy  Dy6  1  0.698281  0.969935  0.664114  1
  Dy  Dy7  1  0.301719  0.030065  0.335886  1
  Dy  Dy8  1  0.500000  0.500000  0.500000  1
  Ho  Ho9  1  0.000000  0.000000  0.000000  1
  Sn  Sn10  1  0.363745  0.363745  0.135839  1
  Sn  Sn11  1  0.636255  0.636255  0.864161  1
  Sn  Sn12  1  0.136051  0.136051  0.636046  1
  Sn  Sn13  1  0.863949  0.863949  0.363954  1
  Sb  Sb14  1  0.797665  0.202335  0.000000  1
  Sb  Sb15  1  0.202335  0.797665  0.000000  1
  Sb  Sb16  1  0.702463  0.297537  0.500000  1
  Sb  Sb17  1  0.297537  0.702463  0.500000  1
