# generated using pymatgen
data_Nd5Bi2PbCl
_symmetry_space_group_name_H-M   'P 1'
_cell_length_a   9.58795323
_cell_length_b   9.54553715
_cell_length_c   6.70395800
_cell_angle_alpha   90.00000000
_cell_angle_beta   90.00000000
_cell_angle_gamma   119.85376182
_symmetry_Int_Tables_number   1
_chemical_formula_structural   Nd5Bi2PbCl
_chemical_formula_sum   'Nd10 Bi4 Pb2 Cl2'
_cell_volume   532.14046480
_cell_formula_units_Z   2
loop_
 _symmetry_equiv_pos_site_id
 _symmetry_equiv_pos_as_xyz
  1  'x, y, z'
loop_
 _atom_site_type_symbol
 _atom_site_label
 _atom_site_symmetry_multiplicity
 _atom_site_fract_x
 _atom_site_fract_y
 _atom_site_fract_z
 _atom_site_occupancy
  Nd  Nd0  1  0.665944  0.332594  0.000754  1
  Nd  Nd1  1  0.334056  0.666651  0.000754  1
  Nd  Nd2  1  0.334056  0.666651  0.499246  1
  Nd  Nd3  1  0.665944  0.332594  0.499246  1
  Nd  Nd4  1  0.734556  0.736950  0.750000  1
  Nd  Nd5  1  0.265444  0.002394  0.750000  1
  Nd  Nd6  1  0.000000  0.263485  0.750000  1
  Nd  Nd7  1  0.264534  0.264169  0.250000  1
  Nd  Nd8  1  0.735466  0.999635  0.250000  1
  Nd  Nd9  1  0.000000  0.737009  0.250000  1
  Bi  Bi10  1  0.000000  0.613933  0.750000  1
  Bi  Bi11  1  0.613338  0.613659  0.250000  1
  Bi  Bi12  1  0.386662  0.000321  0.250000  1
  Bi  Bi13  1  0.000000  0.385296  0.250000  1
  Pb  Pb14  1  0.386105  0.386211  0.750000  1
  Pb  Pb15  1  0.613895  0.000107  0.750000  1
  Cl  Cl16  1  0.000000  0.999170  0.001004  1
  Cl  Cl17  1  0.000000  0.999170  0.498996  1
