# generated using pymatgen
data_Hf2Pa2Nb2Zn7
_symmetry_space_group_name_H-M   'P 1'
_cell_length_a   5.18200451
_cell_length_b   5.18200639
_cell_length_c   10.35485774
_cell_angle_alpha   75.50942043
_cell_angle_beta   75.50941497
_cell_angle_gamma   60.00000321
_symmetry_Int_Tables_number   1
_chemical_formula_structural   Hf2Pa2Nb2Zn7
_chemical_formula_sum   'Hf2 Pa2 Nb2 Zn7'
_cell_volume   230.53736957
_cell_formula_units_Z   1
loop_
 _symmetry_equiv_pos_site_id
 _symmetry_equiv_pos_as_xyz
  1  'x, y, z'
loop_
 _atom_site_type_symbol
 _atom_site_label
 _atom_site_symmetry_multiplicity
 _atom_site_fract_x
 _atom_site_fract_y
 _atom_site_fract_z
 _atom_site_occupancy
  Hf  Hf0  1  0.645992  0.645992  0.062023  1
  Hf  Hf1  1  0.354008  0.354008  0.937977  1
  Pa  Pa2  1  0.833298  0.833298  0.500107  1
  Pa  Pa3  1  0.166702  0.166702  0.499893  1
  Nb  Nb4  1  0.544485  0.544485  0.366543  1
  Nb  Nb5  1  0.455515  0.455515  0.633457  1
  Zn  Zn6  1  0.000000  0.000000  0.000000  1
  Zn  Zn7  1  0.902831  0.902831  0.784303  1
  Zn  Zn8  1  0.410033  0.902831  0.784303  1
  Zn  Zn9  1  0.902831  0.410033  0.784303  1
  Zn  Zn10  1  0.097169  0.097169  0.215697  1
  Zn  Zn11  1  0.589967  0.097169  0.215697  1
  Zn  Zn12  1  0.097169  0.589967  0.215697  1
