# generated using pymatgen
data_Dy4Zn8InHg3
_symmetry_space_group_name_H-M   'P 1'
_cell_length_a   4.46485800
_cell_length_b   7.09403665
_cell_length_c   10.22923543
_cell_angle_alpha   90.07794799
_cell_angle_beta   90.00000000
_cell_angle_gamma   90.00000000
_symmetry_Int_Tables_number   1
_chemical_formula_structural   Dy4Zn8InHg3
_chemical_formula_sum   'Dy4 Zn8 In1 Hg3'
_cell_volume   323.99913518
_cell_formula_units_Z   1
loop_
 _symmetry_equiv_pos_site_id
 _symmetry_equiv_pos_as_xyz
  1  'x, y, z'
loop_
 _atom_site_type_symbol
 _atom_site_label
 _atom_site_symmetry_multiplicity
 _atom_site_fract_x
 _atom_site_fract_y
 _atom_site_fract_z
 _atom_site_occupancy
  Dy  Dy0  1  0.250000  0.296878  0.671068  1
  Dy  Dy1  1  0.750000  0.704784  0.326592  1
  Dy  Dy2  1  0.250000  0.791845  0.835104  1
  Dy  Dy3  1  0.750000  0.206668  0.167234  1
  Zn  Zn4  1  0.750000  0.310954  0.459599  1
  Zn  Zn5  1  0.250000  0.692521  0.541167  1
  Zn  Zn6  1  0.750000  0.811468  0.039034  1
  Zn  Zn7  1  0.250000  0.189307  0.960950  1
  Zn  Zn8  1  0.750000  0.579777  0.640244  1
  Zn  Zn9  1  0.250000  0.419805  0.360614  1
  Zn  Zn10  1  0.750000  0.079660  0.858196  1
  Zn  Zn11  1  0.250000  0.918312  0.142048  1
  In  In12  1  0.750000  0.967537  0.602414  1
  Hg  Hg13  1  0.250000  0.530851  0.106285  1
  Hg  Hg14  1  0.750000  0.466569  0.894479  1
  Hg  Hg15  1  0.250000  0.033064  0.394972  1
