# generated using pymatgen
data_Tb12Co5Hg
_symmetry_space_group_name_H-M   'P 1'
_cell_length_a   8.29036813
_cell_length_b   8.29036930
_cell_length_c   8.29036917
_cell_angle_alpha   110.83567328
_cell_angle_beta   109.95566583
_cell_angle_gamma   107.63897287
_symmetry_Int_Tables_number   1
_chemical_formula_structural   Tb12Co5Hg
_chemical_formula_sum   'Tb12 Co5 Hg1'
_cell_volume   438.26949466
_cell_formula_units_Z   1
loop_
 _symmetry_equiv_pos_site_id
 _symmetry_equiv_pos_as_xyz
  1  'x, y, z'
loop_
 _atom_site_type_symbol
 _atom_site_label
 _atom_site_symmetry_multiplicity
 _atom_site_fract_x
 _atom_site_fract_y
 _atom_site_fract_z
 _atom_site_occupancy
  Tb  Tb0  1  0.815942  0.708278  0.524220  1
  Tb  Tb1  1  0.184058  0.291722  0.475780  1
  Tb  Tb2  1  0.184058  0.708278  0.892338  1
  Tb  Tb3  1  0.815942  0.291722  0.107662  1
  Tb  Tb4  1  0.683333  0.379039  0.695706  1
  Tb  Tb5  1  0.316667  0.620961  0.304294  1
  Tb  Tb6  1  0.683333  0.987627  0.304294  1
  Tb  Tb7  1  0.316667  0.012373  0.695706  1
  Tb  Tb8  1  0.599287  0.791310  0.807978  1
  Tb  Tb9  1  0.400713  0.208690  0.192022  1
  Tb  Tb10  1  0.983332  0.791310  0.192022  1
  Tb  Tb11  1  0.016668  0.208690  0.807978  1
  Co  Co12  1  0.623896  0.000000  0.623896  1
  Co  Co13  1  0.376104  0.000000  0.376104  1
  Co  Co14  1  0.113440  0.613440  0.500000  1
  Co  Co15  1  0.886560  0.386560  0.500000  1
  Co  Co16  1  0.000000  0.000000  0.000000  1
  Hg  Hg17  1  0.500000  0.500000  0.000000  1
