# generated using pymatgen
data_Er2Cu2BRh4
_symmetry_space_group_name_H-M   'P 1'
_cell_length_a   5.78106682
_cell_length_b   5.78106557
_cell_length_c   5.64482800
_cell_angle_alpha   60.77653681
_cell_angle_beta   60.77654375
_cell_angle_gamma   60.00407878
_symmetry_Int_Tables_number   1
_chemical_formula_structural   Er2Cu2BRh4
_chemical_formula_sum   'Er2 Cu2 B1 Rh4'
_cell_volume   134.94732621
_cell_formula_units_Z   1
loop_
 _symmetry_equiv_pos_site_id
 _symmetry_equiv_pos_as_xyz
  1  'x, y, z'
loop_
 _atom_site_type_symbol
 _atom_site_label
 _atom_site_symmetry_multiplicity
 _atom_site_fract_x
 _atom_site_fract_y
 _atom_site_fract_z
 _atom_site_occupancy
  Er  Er0  1  0.251321  0.251321  0.247837  1
  Er  Er1  1  0.748679  0.748679  0.750479  1
  Cu  Cu2  1  0.762578  0.237421  0.240442  1
  Cu  Cu3  1  0.237421  0.762578  0.240442  1
  B  B4  1  0.499999  0.499999  0.506939  1
  Rh  Rh5  1  0.753787  0.753787  0.245288  1
  Rh  Rh6  1  0.246212  0.246212  0.752864  1
  Rh  Rh7  1  0.758717  0.241282  0.757852  1
  Rh  Rh8  1  0.241282  0.758717  0.757852  1
