# generated using pymatgen
data_Nb3Tc2B3Ru
_symmetry_space_group_name_H-M   'P 1'
_cell_length_a   3.15550100
_cell_length_b   9.06401200
_cell_length_c   15.68851800
_cell_angle_alpha   90.00000000
_cell_angle_beta   90.00000000
_cell_angle_gamma   90.00000000
_symmetry_Int_Tables_number   1
_chemical_formula_structural   Nb3Tc2B3Ru
_chemical_formula_sum   'Nb12 Tc8 B12 Ru4'
_cell_volume   448.71513079
_cell_formula_units_Z   4
loop_
 _symmetry_equiv_pos_site_id
 _symmetry_equiv_pos_as_xyz
  1  'x, y, z'
loop_
 _atom_site_type_symbol
 _atom_site_label
 _atom_site_symmetry_multiplicity
 _atom_site_fract_x
 _atom_site_fract_y
 _atom_site_fract_z
 _atom_site_occupancy
  Nb  Nb0  1  0.000000  0.804583  0.493405  1
  Nb  Nb1  1  0.000000  0.195417  0.506595  1
  Nb  Nb2  1  0.000000  0.304583  0.006595  1
  Nb  Nb3  1  0.000000  0.695417  0.993405  1
  Nb  Nb4  1  0.000000  0.515371  0.595563  1
  Nb  Nb5  1  0.000000  0.484629  0.404437  1
  Nb  Nb6  1  0.000000  0.015371  0.904437  1
  Nb  Nb7  1  0.000000  0.984629  0.095563  1
  Nb  Nb8  1  0.000000  0.681766  0.205312  1
  Nb  Nb9  1  0.000000  0.318234  0.794688  1
  Nb  Nb10  1  0.000000  0.181766  0.294688  1
  Nb  Nb11  1  0.000000  0.818234  0.705312  1
  Tc  Tc12  1  0.500000  0.717576  0.356678  1
  Tc  Tc13  1  0.500000  0.282424  0.643322  1
  Tc  Tc14  1  0.500000  0.217576  0.143322  1
  Tc  Tc15  1  0.500000  0.782424  0.856678  1
  Tc  Tc16  1  0.500000  0.518429  0.096106  1
  Tc  Tc17  1  0.500000  0.481571  0.903894  1
  Tc  Tc18  1  0.500000  0.018429  0.403894  1
  Tc  Tc19  1  0.500000  0.981571  0.596106  1
  B  B20  1  0.500000  0.605058  0.495178  1
  B  B21  1  0.500000  0.394942  0.504822  1
  B  B22  1  0.500000  0.105058  0.004822  1
  B  B23  1  0.500000  0.894942  0.995178  1
  B  B24  1  0.000000  0.610378  0.833700  1
  B  B25  1  0.000000  0.389622  0.166300  1
  B  B26  1  0.000000  0.110378  0.666300  1
  B  B27  1  0.000000  0.889622  0.333700  1
  B  B28  1  0.500000  0.716578  0.600840  1
  B  B29  1  0.500000  0.283422  0.399160  1
  B  B30  1  0.500000  0.216578  0.899160  1
  B  B31  1  0.500000  0.783422  0.100840  1
  Ru  Ru32  1  0.500000  0.568425  0.732797  1
  Ru  Ru33  1  0.500000  0.431575  0.267203  1
  Ru  Ru34  1  0.500000  0.068425  0.767203  1
  Ru  Ru35  1  0.500000  0.931575  0.232797  1
