# generated using pymatgen
data_Ba4TbDyU2O12
_symmetry_space_group_name_H-M   'P 1'
_cell_length_a   6.20403652
_cell_length_b   6.22251845
_cell_length_c   8.74942549
_cell_angle_alpha   90.12148643
_cell_angle_beta   89.94374840
_cell_angle_gamma   89.98449279
_symmetry_Int_Tables_number   1
_chemical_formula_structural   Ba4TbDyU2O12
_chemical_formula_sum   'Ba4 Tb1 Dy1 U2 O12'
_cell_volume   337.76828941
_cell_formula_units_Z   1
loop_
 _symmetry_equiv_pos_site_id
 _symmetry_equiv_pos_as_xyz
  1  'x, y, z'
loop_
 _atom_site_type_symbol
 _atom_site_label
 _atom_site_symmetry_multiplicity
 _atom_site_fract_x
 _atom_site_fract_y
 _atom_site_fract_z
 _atom_site_occupancy
  Ba  Ba0  1  0.013516  0.994018  0.750637  1
  Ba  Ba1  1  0.485987  0.493346  0.249463  1
  Ba  Ba2  1  0.514013  0.506654  0.750537  1
  Ba  Ba3  1  0.986485  0.005982  0.249363  1
  Tb  Tb4  1  0.500000  0.000000  0.500000  1
  Dy  Dy5  1  0.000000  0.500000  0.000000  1
  U  U6  1  0.000000  0.500000  0.500000  1
  U  U7  1  0.500000  0.000000  0.000000  1
  O  O8  1  0.239877  0.227579  0.037639  1
  O  O9  1  0.509322  0.931040  0.242469  1
  O  O10  1  0.738859  0.274915  0.461379  1
  O  O11  1  0.728261  0.258563  0.036230  1
  O  O12  1  0.774199  0.759636  0.537507  1
  O  O13  1  0.009558  0.569808  0.256971  1
  O  O14  1  0.225801  0.240364  0.462493  1
  O  O15  1  0.271739  0.741437  0.963770  1
  O  O16  1  0.261141  0.725085  0.538621  1
  O  O17  1  0.490678  0.068960  0.757531  1
  O  O18  1  0.760123  0.772421  0.962361  1
  O  O19  1  0.990442  0.430192  0.743029  1
