# generated using pymatgen
data_Sc10ReHg3
_symmetry_space_group_name_H-M   'P 1'
_cell_length_a   8.94448100
_cell_length_b   8.94448095
_cell_length_c   9.19128700
_cell_angle_alpha   90.00000000
_cell_angle_beta   90.00000000
_cell_angle_gamma   119.99999649
_symmetry_Int_Tables_number   1
_chemical_formula_structural   Sc10ReHg3
_chemical_formula_sum   'Sc20 Re2 Hg6'
_cell_volume   636.82083462
_cell_formula_units_Z   2
loop_
 _symmetry_equiv_pos_site_id
 _symmetry_equiv_pos_as_xyz
  1  'x, y, z'
loop_
 _atom_site_type_symbol
 _atom_site_label
 _atom_site_symmetry_multiplicity
 _atom_site_fract_x
 _atom_site_fract_y
 _atom_site_fract_z
 _atom_site_occupancy
  Sc  Sc0  1  0.000000  0.000000  0.500000  1
  Sc  Sc1  1  0.000000  0.000000  0.000000  1
  Sc  Sc2  1  0.209445  0.790555  0.443778  1
  Sc  Sc3  1  0.209445  0.418892  0.443778  1
  Sc  Sc4  1  0.581108  0.790555  0.443778  1
  Sc  Sc5  1  0.790555  0.209445  0.556222  1
  Sc  Sc6  1  0.790555  0.581108  0.556222  1
  Sc  Sc7  1  0.418892  0.209445  0.556222  1
  Sc  Sc8  1  0.790555  0.209445  0.943778  1
  Sc  Sc9  1  0.790555  0.581108  0.943778  1
  Sc  Sc10  1  0.418892  0.209445  0.943778  1
  Sc  Sc11  1  0.209445  0.790555  0.056222  1
  Sc  Sc12  1  0.209445  0.418892  0.056222  1
  Sc  Sc13  1  0.581108  0.790555  0.056222  1
  Sc  Sc14  1  0.537592  0.462408  0.250000  1
  Sc  Sc15  1  0.537592  0.075184  0.250000  1
  Sc  Sc16  1  0.924816  0.462408  0.250000  1
  Sc  Sc17  1  0.462408  0.537592  0.750000  1
  Sc  Sc18  1  0.462408  0.924816  0.750000  1
  Sc  Sc19  1  0.075184  0.537592  0.750000  1
  Re  Re20  1  0.333333  0.666667  0.250000  1
  Re  Re21  1  0.666667  0.333333  0.750000  1
  Hg  Hg22  1  0.881958  0.118042  0.250000  1
  Hg  Hg23  1  0.881958  0.763916  0.250000  1
  Hg  Hg24  1  0.236084  0.118042  0.250000  1
  Hg  Hg25  1  0.118042  0.881958  0.750000  1
  Hg  Hg26  1  0.118042  0.236084  0.750000  1
  Hg  Hg27  1  0.763916  0.881958  0.750000  1
