# generated using pymatgen
data_Zr20Si15Sb
_symmetry_space_group_name_H-M   'P 1'
_cell_length_a   7.20925846
_cell_length_b   7.19278393
_cell_length_c   13.14646064
_cell_angle_alpha   90.02209916
_cell_angle_beta   89.79340320
_cell_angle_gamma   90.08058101
_symmetry_Int_Tables_number   1
_chemical_formula_structural   Zr20Si15Sb
_chemical_formula_sum   'Zr20 Si15 Sb1'
_cell_volume   681.69980743
_cell_formula_units_Z   1
loop_
 _symmetry_equiv_pos_site_id
 _symmetry_equiv_pos_as_xyz
  1  'x, y, z'
loop_
 _atom_site_type_symbol
 _atom_site_label
 _atom_site_symmetry_multiplicity
 _atom_site_fract_x
 _atom_site_fract_y
 _atom_site_fract_z
 _atom_site_occupancy
  Zr  Zr0  1  0.362041  0.496734  0.375300  1
  Zr  Zr1  1  0.846420  0.009300  0.368273  1
  Zr  Zr2  1  0.001565  0.146007  0.126038  1
  Zr  Zr3  1  0.000589  0.856546  0.632113  1
  Zr  Zr4  1  0.645009  0.498373  0.877302  1
  Zr  Zr5  1  0.503773  0.351933  0.624361  1
  Zr  Zr6  1  0.498651  0.645598  0.122258  1
  Zr  Zr7  1  0.145352  0.000792  0.873178  1
  Zr  Zr8  1  0.998117  0.648243  0.035455  1
  Zr  Zr9  1  0.999857  0.338861  0.538763  1
  Zr  Zr10  1  0.648720  0.999271  0.963663  1
  Zr  Zr11  1  0.149329  0.501993  0.785955  1
  Zr  Zr12  1  0.839288  0.489853  0.277385  1
  Zr  Zr13  1  0.500765  0.149454  0.212668  1
  Zr  Zr14  1  0.501391  0.853613  0.716331  1
  Zr  Zr15  1  0.356671  0.005890  0.465417  1
  Zr  Zr16  1  0.667078  0.678425  0.501779  1
  Zr  Zr17  1  0.823686  0.176679  0.750995  1
  Zr  Zr18  1  0.179139  0.826692  0.245143  1
  Zr  Zr19  1  0.323188  0.324157  0.999490  1
  Si  Si20  1  0.947793  0.300176  0.937681  1
  Si  Si21  1  0.703113  0.051268  0.562904  1
  Si  Si22  1  0.199511  0.448912  0.187030  1
  Si  Si23  1  0.799904  0.552176  0.688135  1
  Si  Si24  1  0.448025  0.200799  0.813309  1
  Si  Si25  1  0.550771  0.800298  0.311365  1
  Si  Si26  1  0.301071  0.949335  0.060409  1
  Si  Si27  1  0.852842  0.794338  0.824168  1
  Si  Si28  1  0.148602  0.204161  0.321505  1
  Si  Si29  1  0.795037  0.852780  0.175775  1
  Si  Si30  1  0.302981  0.645639  0.582110  1
  Si  Si31  1  0.705022  0.353450  0.072060  1
  Si  Si32  1  0.648208  0.297883  0.429963  1
  Si  Si33  1  0.353270  0.705290  0.927263  1
  Si  Si34  1  0.207200  0.147405  0.679333  1
  Sb  Sb35  1  0.046022  0.697675  0.435121  1
