# generated using pymatgen
data_Pr4Nd3SiBr12
_symmetry_space_group_name_H-M   'P 1'
_cell_length_a   9.51170240
_cell_length_b   9.54969765
_cell_length_c   9.54957156
_cell_angle_alpha   107.90516154
_cell_angle_beta   107.81362782
_cell_angle_gamma   107.86136266
_symmetry_Int_Tables_number   1
_chemical_formula_structural   Pr4Nd3SiBr12
_chemical_formula_sum   'Pr4 Nd3 Si1 Br12'
_cell_volume   704.76425131
_cell_formula_units_Z   1
loop_
 _symmetry_equiv_pos_site_id
 _symmetry_equiv_pos_as_xyz
  1  'x, y, z'
loop_
 _atom_site_type_symbol
 _atom_site_label
 _atom_site_symmetry_multiplicity
 _atom_site_fract_x
 _atom_site_fract_y
 _atom_site_fract_z
 _atom_site_occupancy
  Pr  Pr0  1  0.111563  0.323902  0.032306  1
  Pr  Pr1  1  0.325779  0.034385  0.110186  1
  Pr  Pr2  1  0.888437  0.676098  0.967694  1
  Pr  Pr3  1  0.674221  0.965615  0.889814  1
  Nd  Nd4  1  0.963864  0.890871  0.677164  1
  Nd  Nd5  1  0.036136  0.109129  0.322836  1
  Nd  Nd6  1  0.500000  0.500000  0.500000  1
  Si  Si7  1  0.000000  0.000000  0.000000  1
  Br  Br8  1  0.523894  0.608898  0.834768  1
  Br  Br9  1  0.476106  0.391102  0.165232  1
  Br  Br10  1  0.306614  0.922089  0.771406  1
  Br  Br11  1  0.391502  0.163573  0.471665  1
  Br  Br12  1  0.927501  0.777946  0.315886  1
  Br  Br13  1  0.693386  0.077911  0.228594  1
  Br  Br14  1  0.072499  0.222054  0.684114  1
  Br  Br15  1  0.773291  0.310941  0.925676  1
  Br  Br16  1  0.226709  0.689059  0.074324  1
  Br  Br17  1  0.840600  0.532405  0.611507  1
  Br  Br18  1  0.159400  0.467595  0.388493  1
  Br  Br19  1  0.608498  0.836427  0.528335  1
