# generated using pymatgen
data_BaSn2(Sb5Pd2)2
_symmetry_space_group_name_H-M   'P 1'
_cell_length_a   8.35216893
_cell_length_b   8.32759196
_cell_length_c   8.35216946
_cell_angle_alpha   109.34640313
_cell_angle_beta   109.97165368
_cell_angle_gamma   109.21472615
_symmetry_Int_Tables_number   1
_chemical_formula_structural   BaSn2(Sb5Pd2)2
_chemical_formula_sum   'Ba1 Sn2 Sb10 Pd4'
_cell_volume   446.51881013
_cell_formula_units_Z   1
loop_
 _symmetry_equiv_pos_site_id
 _symmetry_equiv_pos_as_xyz
  1  'x, y, z'
loop_
 _atom_site_type_symbol
 _atom_site_label
 _atom_site_symmetry_multiplicity
 _atom_site_fract_x
 _atom_site_fract_y
 _atom_site_fract_z
 _atom_site_occupancy
  Ba  Ba0  1  0.000000  0.000000  0.000000  1
  Sn  Sn1  1  0.348709  0.191536  0.842826  1
  Sn  Sn2  1  0.651291  0.808464  0.157174  1
  Sb  Sb3  1  0.651826  0.495844  0.844020  1
  Sb  Sb4  1  0.348174  0.504156  0.155980  1
  Sb  Sb5  1  0.188272  0.841848  0.348809  1
  Sb  Sb6  1  0.811728  0.158152  0.651191  1
  Sb  Sb7  1  0.493038  0.841848  0.653575  1
  Sb  Sb8  1  0.506962  0.158152  0.346425  1
  Sb  Sb9  1  0.841090  0.346586  0.189556  1
  Sb  Sb10  1  0.158910  0.653414  0.810444  1
  Sb  Sb11  1  0.842971  0.653414  0.494503  1
  Sb  Sb12  1  0.157029  0.346586  0.505497  1
  Pd  Pd13  1  0.000000  0.000000  0.500000  1
  Pd  Pd14  1  0.500000  0.000000  0.000000  1
  Pd  Pd15  1  0.000000  0.500000  0.000000  1
  Pd  Pd16  1  0.500000  0.500000  0.500000  1
