# generated using pymatgen
data_Ce(YSi2)2
_symmetry_space_group_name_H-M   'P 1'
_cell_length_a   3.92655686
_cell_length_b   4.26174650
_cell_length_c   9.23151139
_cell_angle_alpha   76.65453625
_cell_angle_beta   77.71922525
_cell_angle_gamma   90.00088124
_symmetry_Int_Tables_number   1
_chemical_formula_structural   Ce(YSi2)2
_chemical_formula_sum   'Ce1 Y2 Si4'
_cell_volume   146.67285060
_cell_formula_units_Z   1
loop_
 _symmetry_equiv_pos_site_id
 _symmetry_equiv_pos_as_xyz
  1  'x, y, z'
loop_
 _atom_site_type_symbol
 _atom_site_label
 _atom_site_symmetry_multiplicity
 _atom_site_fract_x
 _atom_site_fract_y
 _atom_site_fract_z
 _atom_site_occupancy
  Ce  Ce0  1  0.999966  0.999998  0.000000  1
  Y  Y1  1  0.683667  0.183645  0.632735  1
  Y  Y2  1  0.316355  0.816359  0.367263  1
  Si  Si3  1  0.852381  0.352488  0.295109  1
  Si  Si4  1  0.147637  0.647515  0.704892  1
  Si  Si5  1  0.566519  0.566519  0.867090  1
  Si  Si6  1  0.433476  0.433477  0.132911  1
