# generated using pymatgen
data_Nb4CrCo3P4
_symmetry_space_group_name_H-M   'P 1'
_cell_length_a   3.58707100
_cell_length_b   6.18159419
_cell_length_c   7.06213291
_cell_angle_alpha   89.92230322
_cell_angle_beta   90.00000000
_cell_angle_gamma   90.00000000
_symmetry_Int_Tables_number   1
_chemical_formula_structural   Nb4CrCo3P4
_chemical_formula_sum   'Nb4 Cr1 Co3 P4'
_cell_volume   156.59430060
_cell_formula_units_Z   1
loop_
 _symmetry_equiv_pos_site_id
 _symmetry_equiv_pos_as_xyz
  1  'x, y, z'
loop_
 _atom_site_type_symbol
 _atom_site_label
 _atom_site_symmetry_multiplicity
 _atom_site_fract_x
 _atom_site_fract_y
 _atom_site_fract_z
 _atom_site_occupancy
  Nb  Nb0  1  0.250000  0.023495  0.823903  1
  Nb  Nb1  1  0.250000  0.528751  0.673021  1
  Nb  Nb2  1  0.750000  0.471039  0.330688  1
  Nb  Nb3  1  0.750000  0.978910  0.174237  1
  Cr  Cr4  1  0.250000  0.140541  0.436892  1
  Co  Co5  1  0.750000  0.857425  0.561129  1
  Co  Co6  1  0.250000  0.639975  0.060397  1
  Co  Co7  1  0.750000  0.357540  0.938902  1
  P  P8  1  0.250000  0.773529  0.376170  1
  P  P9  1  0.250000  0.277161  0.119524  1
  P  P10  1  0.750000  0.227410  0.626847  1
  P  P11  1  0.750000  0.724224  0.878288  1
