# generated using pymatgen
data_Ho6Fe3Co11(P3Ru)4
_symmetry_space_group_name_H-M   'P 1'
_cell_length_a   3.74225200
_cell_length_b   10.57972267
_cell_length_c   12.23016227
_cell_angle_alpha   89.85237587
_cell_angle_beta   90.00000000
_cell_angle_gamma   90.00000000
_symmetry_Int_Tables_number   1
_chemical_formula_structural   Ho6Fe3Co11(P3Ru)4
_chemical_formula_sum   'Ho6 Fe3 Co11 P12 Ru4'
_cell_volume   484.21483475
_cell_formula_units_Z   1
loop_
 _symmetry_equiv_pos_site_id
 _symmetry_equiv_pos_as_xyz
  1  'x, y, z'
loop_
 _atom_site_type_symbol
 _atom_site_label
 _atom_site_symmetry_multiplicity
 _atom_site_fract_x
 _atom_site_fract_y
 _atom_site_fract_z
 _atom_site_occupancy
  Ho  Ho0  1  0.000000  0.499662  0.528110  1
  Ho  Ho1  1  0.500000  0.000008  0.476914  1
  Ho  Ho2  1  0.500000  0.818948  0.201075  1
  Ho  Ho3  1  0.500000  0.180326  0.201175  1
  Ho  Ho4  1  0.000000  0.682677  0.797917  1
  Ho  Ho5  1  0.000000  0.318877  0.797875  1
  Fe  Fe6  1  0.000000  0.500072  0.986318  1
  Fe  Fe7  1  0.500000  0.999718  0.012550  1
  Fe  Fe8  1  0.500000  0.881367  0.710410  1
  Co  Co9  1  0.000000  0.198984  0.574424  1
  Co  Co10  1  0.000000  0.798600  0.572140  1
  Co  Co11  1  0.500000  0.120932  0.712417  1
  Co  Co12  1  0.000000  0.620242  0.285720  1
  Co  Co13  1  0.000000  0.379048  0.286141  1
  Co  Co14  1  0.500000  0.332044  0.990282  1
  Co  Co15  1  0.500000  0.669226  0.989748  1
  Co  Co16  1  0.000000  0.168429  0.008807  1
  Co  Co17  1  0.000000  0.832158  0.008429  1
  Co  Co18  1  0.500000  0.499975  0.701410  1
  Co  Co19  1  0.000000  0.999573  0.298567  1
  P  P20  1  0.500000  0.308600  0.622216  1
  P  P21  1  0.500000  0.692571  0.622605  1
  P  P22  1  0.000000  0.184246  0.381780  1
  P  P23  1  0.000000  0.814426  0.381249  1
  P  P24  1  0.500000  0.500882  0.881800  1
  P  P25  1  0.000000  0.999646  0.117023  1
  P  P26  1  0.500000  0.848069  0.893214  1
  P  P27  1  0.500000  0.153791  0.895845  1
  P  P28  1  0.000000  0.653772  0.102884  1
  P  P29  1  0.000000  0.346706  0.103639  1
  P  P30  1  0.500000  0.499647  0.343933  1
  P  P31  1  0.000000  0.996394  0.654167  1
  Ru  Ru32  1  0.500000  0.295324  0.430531  1
  Ru  Ru33  1  0.500000  0.703187  0.429965  1
  Ru  Ru34  1  0.500000  0.500198  0.153915  1
  Ru  Ru35  1  0.000000  0.001676  0.844806  1
