# generated using pymatgen
data_Sm2Be2Cd(SiO5)2
_symmetry_space_group_name_H-M   'P 1'
_cell_length_a   7.67186400
_cell_length_b   4.91954648
_cell_length_c   10.26910704
_cell_angle_alpha   89.34945081
_cell_angle_beta   90.00000000
_cell_angle_gamma   90.00000000
_symmetry_Int_Tables_number   1
_chemical_formula_structural   Sm2Be2Cd(SiO5)2
_chemical_formula_sum   'Sm4 Be4 Cd2 Si4 O20'
_cell_volume   387.55259501
_cell_formula_units_Z   2
loop_
 _symmetry_equiv_pos_site_id
 _symmetry_equiv_pos_as_xyz
  1  'x, y, z'
loop_
 _atom_site_type_symbol
 _atom_site_label
 _atom_site_symmetry_multiplicity
 _atom_site_fract_x
 _atom_site_fract_y
 _atom_site_fract_z
 _atom_site_occupancy
  Sm  Sm0  1  0.603838  0.004229  0.829079  1
  Sm  Sm1  1  0.103838  0.995771  0.670921  1
  Sm  Sm2  1  0.396162  0.995771  0.170921  1
  Sm  Sm3  1  0.896162  0.004229  0.329079  1
  Be  Be4  1  0.908786  0.527900  0.830120  1
  Be  Be5  1  0.408786  0.472100  0.669880  1
  Be  Be6  1  0.091214  0.472100  0.169880  1
  Be  Be7  1  0.591214  0.527900  0.330120  1
  Cd  Cd8  1  0.000000  0.000000  0.000000  1
  Cd  Cd9  1  0.500000  0.000000  0.500000  1
  Si  Si10  1  0.777409  0.478281  0.577391  1
  Si  Si11  1  0.277409  0.521719  0.922609  1
  Si  Si12  1  0.222591  0.521719  0.422609  1
  Si  Si13  1  0.722591  0.478281  0.077391  1
  O  O14  1  0.602830  0.332631  0.644591  1
  O  O15  1  0.102830  0.667369  0.855409  1
  O  O16  1  0.397170  0.667369  0.355409  1
  O  O17  1  0.897170  0.332631  0.144591  1
  O  O18  1  0.404275  0.794995  0.678936  1
  O  O19  1  0.904275  0.205005  0.821064  1
  O  O20  1  0.595725  0.205005  0.321064  1
  O  O21  1  0.219269  0.341114  0.053159  1
  O  O22  1  0.594117  0.233448  0.031027  1
  O  O23  1  0.094117  0.766552  0.468973  1
  O  O24  1  0.849110  0.684355  0.691530  1
  O  O25  1  0.905883  0.233448  0.531027  1
  O  O26  1  0.719269  0.658886  0.446841  1
  O  O27  1  0.405883  0.766552  0.968973  1
  O  O28  1  0.280731  0.341114  0.553159  1
  O  O29  1  0.780731  0.658886  0.946841  1
  O  O30  1  0.650890  0.684355  0.191530  1
  O  O31  1  0.150890  0.315645  0.308470  1
  O  O32  1  0.349110  0.315645  0.808470  1
  O  O33  1  0.095725  0.794995  0.178936  1
