# generated using pymatgen
data_La2MgNi5(BIr)2
_symmetry_space_group_name_H-M   'P 1'
_cell_length_a   5.34382551
_cell_length_b   5.34382544
_cell_length_c   7.17510000
_cell_angle_alpha   90.00000000
_cell_angle_beta   90.00000000
_cell_angle_gamma   122.18497581
_symmetry_Int_Tables_number   1
_chemical_formula_structural   La2MgNi5(BIr)2
_chemical_formula_sum   'La2 Mg1 Ni5 B2 Ir2'
_cell_volume   173.40982408
_cell_formula_units_Z   1
loop_
 _symmetry_equiv_pos_site_id
 _symmetry_equiv_pos_as_xyz
  1  'x, y, z'
loop_
 _atom_site_type_symbol
 _atom_site_label
 _atom_site_symmetry_multiplicity
 _atom_site_fract_x
 _atom_site_fract_y
 _atom_site_fract_z
 _atom_site_occupancy
  La  La0  1  0.002101  0.997899  0.500000  1
  La  La1  1  0.991277  0.008723  0.000000  1
  Mg  Mg2  1  0.316871  0.683129  0.000000  1
  Ni  Ni3  1  0.670557  0.329443  0.000000  1
  Ni  Ni4  1  0.504799  0.001643  0.304739  1
  Ni  Ni5  1  0.998357  0.495201  0.304739  1
  Ni  Ni6  1  0.504799  0.001643  0.695261  1
  Ni  Ni7  1  0.998357  0.495201  0.695261  1
  B  B8  1  0.669356  0.330644  0.500000  1
  B  B9  1  0.334544  0.665456  0.500000  1
  Ir  Ir10  1  0.504491  0.495509  0.289756  1
  Ir  Ir11  1  0.504491  0.495509  0.710244  1
