# generated using pymatgen
data_Ho20AgRh11
_symmetry_space_group_name_H-M   'P 1'
_cell_length_a   10.94506204
_cell_length_b   10.94506104
_cell_length_c   6.31504942
_cell_angle_alpha   90.07277281
_cell_angle_beta   90.07277689
_cell_angle_gamma   89.75231473
_symmetry_Int_Tables_number   1
_chemical_formula_structural   Ho20AgRh11
_chemical_formula_sum   'Ho20 Ag1 Rh11'
_cell_volume   756.49909560
_cell_formula_units_Z   1
loop_
 _symmetry_equiv_pos_site_id
 _symmetry_equiv_pos_as_xyz
  1  'x, y, z'
loop_
 _atom_site_type_symbol
 _atom_site_label
 _atom_site_symmetry_multiplicity
 _atom_site_fract_x
 _atom_site_fract_y
 _atom_site_fract_z
 _atom_site_occupancy
  Ho  Ho0  1  0.290972  0.090301  0.379212  1
  Ho  Ho1  1  0.289651  0.919947  0.879662  1
  Ho  Ho2  1  0.709111  0.089658  0.878401  1
  Ho  Ho3  1  0.709401  0.911000  0.379357  1
  Ho  Ho4  1  0.595392  0.793698  0.880873  1
  Ho  Ho5  1  0.589595  0.207791  0.376764  1
  Ho  Ho6  1  0.414801  0.796068  0.364210  1
  Ho  Ho7  1  0.410458  0.210171  0.876919  1
  Ho  Ho8  1  0.206302  0.404608  0.619127  1
  Ho  Ho9  1  0.203932  0.585199  0.135790  1
  Ho  Ho10  1  0.792209  0.410405  0.123236  1
  Ho  Ho11  1  0.789829  0.589542  0.623081  1
  Ho  Ho12  1  0.909699  0.709028  0.120788  1
  Ho  Ho13  1  0.910342  0.290889  0.621599  1
  Ho  Ho14  1  0.080053  0.710349  0.620338  1
  Ho  Ho15  1  0.089000  0.290599  0.120643  1
  Ho  Ho16  1  0.000157  0.000762  0.499069  1
  Ho  Ho17  1  0.999238  0.999843  0.000931  1
  Ho  Ho18  1  0.504936  0.495597  0.001882  1
  Ho  Ho19  1  0.504403  0.495064  0.498118  1
  Ag  Ag20  1  0.344061  0.655939  0.750000  1
  Rh  Rh21  1  0.845587  0.154413  0.250000  1
  Rh  Rh22  1  0.846406  0.845737  0.748992  1
  Rh  Rh23  1  0.154263  0.153594  0.751008  1
  Rh  Rh24  1  0.155488  0.844512  0.250000  1
  Rh  Rh25  1  0.655479  0.344521  0.750000  1
  Rh  Rh26  1  0.653328  0.654143  0.249269  1
  Rh  Rh27  1  0.345857  0.346672  0.250731  1
  Rh  Rh28  1  0.499301  0.999923  0.122786  1
  Rh  Rh29  1  0.499840  0.999165  0.625383  1
  Rh  Rh30  1  0.000835  0.500160  0.874617  1
  Rh  Rh31  1  0.000077  0.500699  0.377214  1
