# generated using pymatgen
data_K5(ZnAu)3
_symmetry_space_group_name_H-M   'P 1'
_cell_length_a   16.62797779
_cell_length_b   16.62797668
_cell_length_c   5.18068000
_cell_angle_alpha   90.00000000
_cell_angle_beta   90.00000000
_cell_angle_gamma   164.89380391
_symmetry_Int_Tables_number   1
_chemical_formula_structural   K5(ZnAu)3
_chemical_formula_sum   'K5 Zn3 Au3'
_cell_volume   373.29732608
_cell_formula_units_Z   1
loop_
 _symmetry_equiv_pos_site_id
 _symmetry_equiv_pos_as_xyz
  1  'x, y, z'
loop_
 _atom_site_type_symbol
 _atom_site_label
 _atom_site_symmetry_multiplicity
 _atom_site_fract_x
 _atom_site_fract_y
 _atom_site_fract_z
 _atom_site_occupancy
  K  K0  1  0.000576  0.999424  0.000000  1
  K  K1  1  0.615049  0.384951  0.000000  1
  K  K2  1  0.383583  0.616417  0.000000  1
  K  K3  1  0.804474  0.195525  0.500000  1
  K  K4  1  0.194485  0.805514  0.500000  1
  Zn  Zn5  1  0.731176  0.268824  0.000000  1
  Zn  Zn6  1  0.919067  0.080933  0.500000  1
  Zn  Zn7  1  0.541370  0.458629  0.500000  1
  Au  Au8  1  0.269639  0.730361  0.000000  1
  Au  Au9  1  0.458773  0.541226  0.500000  1
  Au  Au10  1  0.081807  0.918193  0.500000  1
