# generated using pymatgen
data_Gd6GaNi2
_symmetry_space_group_name_H-M   'P 1'
_cell_length_a   8.40278205
_cell_length_b   8.40278235
_cell_length_c   8.40278180
_cell_angle_alpha   113.13983264
_cell_angle_beta   109.49569877
_cell_angle_gamma   105.85998176
_symmetry_Int_Tables_number   1
_chemical_formula_structural   Gd6GaNi2
_chemical_formula_sum   'Gd12 Ga2 Ni4'
_cell_volume   454.87444015
_cell_formula_units_Z   2
loop_
 _symmetry_equiv_pos_site_id
 _symmetry_equiv_pos_as_xyz
  1  'x, y, z'
loop_
 _atom_site_type_symbol
 _atom_site_label
 _atom_site_symmetry_multiplicity
 _atom_site_fract_x
 _atom_site_fract_y
 _atom_site_fract_z
 _atom_site_occupancy
  Gd  Gd0  1  0.429737  0.236199  0.193538  1
  Gd  Gd1  1  0.570263  0.763801  0.806462  1
  Gd  Gd2  1  0.042661  0.236199  0.806462  1
  Gd  Gd3  1  0.957339  0.763801  0.193538  1
  Gd  Gd4  1  0.180119  0.285964  0.466083  1
  Gd  Gd5  1  0.819881  0.714036  0.533917  1
  Gd  Gd6  1  0.180119  0.714036  0.894155  1
  Gd  Gd7  1  0.819881  0.285964  0.105845  1
  Gd  Gd8  1  0.326715  0.634188  0.307474  1
  Gd  Gd9  1  0.673285  0.365812  0.692526  1
  Gd  Gd10  1  0.326715  0.019241  0.692526  1
  Gd  Gd11  1  0.673285  0.980759  0.307474  1
  Ga  Ga12  1  0.500000  0.500000  0.000000  1
  Ga  Ga13  1  0.000000  0.000000  0.000000  1
  Ni  Ni14  1  0.351301  0.000000  0.351301  1
  Ni  Ni15  1  0.648699  0.000000  0.648699  1
  Ni  Ni16  1  0.121746  0.621746  0.500000  1
  Ni  Ni17  1  0.878254  0.378254  0.500000  1
