# generated using pymatgen
data_Tm2LuBC3
_symmetry_space_group_name_H-M   'P 1'
_cell_length_a   3.55923554
_cell_length_b   3.55923649
_cell_length_c   15.74922400
_cell_angle_alpha   90.00000000
_cell_angle_beta   90.00000000
_cell_angle_gamma   90.44008438
_symmetry_Int_Tables_number   1
_chemical_formula_structural   Tm2LuBC3
_chemical_formula_sum   'Tm4 Lu2 B2 C6'
_cell_volume   199.50782008
_cell_formula_units_Z   2
loop_
 _symmetry_equiv_pos_site_id
 _symmetry_equiv_pos_as_xyz
  1  'x, y, z'
loop_
 _atom_site_type_symbol
 _atom_site_label
 _atom_site_symmetry_multiplicity
 _atom_site_fract_x
 _atom_site_fract_y
 _atom_site_fract_z
 _atom_site_occupancy
  Tm  Tm0  1  0.584220  0.415780  0.396922  1
  Tm  Tm1  1  0.415780  0.584220  0.896922  1
  Tm  Tm2  1  0.415780  0.584220  0.603078  1
  Tm  Tm3  1  0.584220  0.415780  0.103078  1
  Lu  Lu4  1  0.910220  0.089780  0.750000  1
  Lu  Lu5  1  0.089780  0.910220  0.250000  1
  B  B6  1  0.000000  0.000000  0.500000  1
  B  B7  1  0.000000  0.000000  0.000000  1
  C  C8  1  0.095799  0.904201  0.412627  1
  C  C9  1  0.904201  0.095799  0.912627  1
  C  C10  1  0.904201  0.095799  0.587373  1
  C  C11  1  0.095799  0.904201  0.087373  1
  C  C12  1  0.595600  0.404400  0.250000  1
  C  C13  1  0.404400  0.595600  0.750000  1
