# generated using pymatgen
data_EuEr(Ga2Ag)2
_symmetry_space_group_name_H-M   'P 1'
_cell_length_a   4.41225100
_cell_length_b   7.05039871
_cell_length_c   10.39110187
_cell_angle_alpha   90.95880991
_cell_angle_beta   90.00000000
_cell_angle_gamma   90.00000000
_symmetry_Int_Tables_number   1
_chemical_formula_structural   EuEr(Ga2Ag)2
_chemical_formula_sum   'Eu2 Er2 Ga8 Ag4'
_cell_volume   323.20247495
_cell_formula_units_Z   2
loop_
 _symmetry_equiv_pos_site_id
 _symmetry_equiv_pos_as_xyz
  1  'x, y, z'
loop_
 _atom_site_type_symbol
 _atom_site_label
 _atom_site_symmetry_multiplicity
 _atom_site_fract_x
 _atom_site_fract_y
 _atom_site_fract_z
 _atom_site_occupancy
  Eu  Eu0  1  0.750000  0.716311  0.326695  1
  Eu  Eu1  1  0.250000  0.283689  0.673305  1
  Er  Er2  1  0.250000  0.782084  0.832490  1
  Er  Er3  1  0.750000  0.217916  0.167510  1
  Ga  Ga4  1  0.250000  0.707875  0.539163  1
  Ga  Ga5  1  0.750000  0.292125  0.460837  1
  Ga  Ga6  1  0.750000  0.802481  0.034034  1
  Ga  Ga7  1  0.250000  0.197519  0.965966  1
  Ga  Ga8  1  0.250000  0.926508  0.150166  1
  Ga  Ga9  1  0.750000  0.073492  0.849834  1
  Ga  Ga10  1  0.750000  0.583416  0.654552  1
  Ga  Ga11  1  0.250000  0.416584  0.345448  1
  Ag  Ag12  1  0.250000  0.540718  0.094588  1
  Ag  Ag13  1  0.750000  0.459282  0.905412  1
  Ag  Ag14  1  0.750000  0.958985  0.600493  1
  Ag  Ag15  1  0.250000  0.041015  0.399507  1
