# generated using pymatgen
data_LuPa5(Sb4Pt3)2
_symmetry_space_group_name_H-M   'P 1'
_cell_length_a   8.45879590
_cell_length_b   8.45879551
_cell_length_c   8.45879600
_cell_angle_alpha   109.62655804
_cell_angle_beta   109.16100743
_cell_angle_gamma   109.62654800
_symmetry_Int_Tables_number   1
_chemical_formula_structural   LuPa5(Sb4Pt3)2
_chemical_formula_sum   'Lu1 Pa5 Sb8 Pt6'
_cell_volume   465.90154763
_cell_formula_units_Z   1
loop_
 _symmetry_equiv_pos_site_id
 _symmetry_equiv_pos_as_xyz
  1  'x, y, z'
loop_
 _atom_site_type_symbol
 _atom_site_label
 _atom_site_symmetry_multiplicity
 _atom_site_fract_x
 _atom_site_fract_y
 _atom_site_fract_z
 _atom_site_occupancy
  Lu  Lu0  1  0.875000  0.250000  0.125000  1
  Pa  Pa1  1  0.625000  0.750000  0.375000  1
  Pa  Pa2  1  0.250301  0.125328  0.876091  1
  Pa  Pa3  1  0.750763  0.374672  0.624974  1
  Pa  Pa4  1  0.123909  0.874211  0.249237  1
  Pa  Pa5  1  0.375026  0.625789  0.749699  1
  Sb  Sb6  1  0.680056  0.501460  0.001210  1
  Sb  Sb7  1  0.499750  0.998540  0.678596  1
  Sb  Sb8  1  0.998478  0.676291  0.497299  1
  Sb  Sb9  1  0.821008  0.823709  0.822188  1
  Sb  Sb10  1  0.502701  0.001180  0.178992  1
  Sb  Sb11  1  0.177812  0.498820  0.001522  1
  Sb  Sb12  1  0.998790  0.178846  0.500250  1
  Sb  Sb13  1  0.321404  0.321154  0.319944  1
  Pt  Pt14  1  0.375000  0.250000  0.625000  1
  Pt  Pt15  1  0.125000  0.750000  0.875000  1
  Pt  Pt16  1  0.249948  0.624372  0.374988  1
  Pt  Pt17  1  0.750616  0.875628  0.125575  1
  Pt  Pt18  1  0.625012  0.374959  0.249384  1
  Pt  Pt19  1  0.874425  0.125041  0.750052  1
