# generated using pymatgen
data_Dy15HoCd4NiIr3
_symmetry_space_group_name_H-M   'P 1'
_cell_length_a   9.57554981
_cell_length_b   9.57555024
_cell_length_c   9.57555004
_cell_angle_alpha   60.35663154
_cell_angle_beta   60.35662925
_cell_angle_gamma   60.35662689
_symmetry_Int_Tables_number   1
_chemical_formula_structural   Dy15HoCd4NiIr3
_chemical_formula_sum   'Dy15 Ho1 Cd4 Ni1 Ir3'
_cell_volume   625.84345624
_cell_formula_units_Z   1
loop_
 _symmetry_equiv_pos_site_id
 _symmetry_equiv_pos_as_xyz
  1  'x, y, z'
loop_
 _atom_site_type_symbol
 _atom_site_label
 _atom_site_symmetry_multiplicity
 _atom_site_fract_x
 _atom_site_fract_y
 _atom_site_fract_z
 _atom_site_occupancy
  Dy  Dy0  1  0.597417  0.597417  0.203509  1
  Dy  Dy1  1  0.597417  0.203509  0.597417  1
  Dy  Dy2  1  0.203509  0.597417  0.597417  1
  Dy  Dy3  1  0.062210  0.439571  0.439571  1
  Dy  Dy4  1  0.440031  0.060379  0.060379  1
  Dy  Dy5  1  0.439571  0.062210  0.439571  1
  Dy  Dy6  1  0.060379  0.440031  0.060379  1
  Dy  Dy7  1  0.439571  0.439571  0.062210  1
  Dy  Dy8  1  0.060379  0.060379  0.440031  1
  Dy  Dy9  1  0.187920  0.811885  0.811885  1
  Dy  Dy10  1  0.815590  0.186369  0.186369  1
  Dy  Dy11  1  0.811885  0.187920  0.811885  1
  Dy  Dy12  1  0.186369  0.815590  0.186369  1
  Dy  Dy13  1  0.811885  0.811885  0.187920  1
  Dy  Dy14  1  0.186369  0.186369  0.815590  1
  Ho  Ho15  1  0.599088  0.599088  0.599088  1
  Cd  Cd16  1  0.831050  0.831050  0.831050  1
  Cd  Cd17  1  0.831264  0.831264  0.506703  1
  Cd  Cd18  1  0.831264  0.506703  0.831264  1
  Cd  Cd19  1  0.506703  0.831264  0.831264  1
  Ni  Ni20  1  0.391841  0.391841  0.391841  1
  Ir  Ir21  1  0.392446  0.392446  0.823397  1
  Ir  Ir22  1  0.392446  0.823397  0.392446  1
  Ir  Ir23  1  0.823397  0.392446  0.392446  1
