# generated using pymatgen
data_Ho16CdIn3Ir4
_symmetry_space_group_name_H-M   'P 1'
_cell_length_a   9.61829037
_cell_length_b   9.63153292
_cell_length_c   9.63153400
_cell_angle_alpha   60.00000315
_cell_angle_beta   59.95444821
_cell_angle_gamma   59.95444867
_symmetry_Int_Tables_number   1
_chemical_formula_structural   Ho16CdIn3Ir4
_chemical_formula_sum   'Ho16 Cd1 In3 Ir4'
_cell_volume   630.48449604
_cell_formula_units_Z   1
loop_
 _symmetry_equiv_pos_site_id
 _symmetry_equiv_pos_as_xyz
  1  'x, y, z'
loop_
 _atom_site_type_symbol
 _atom_site_label
 _atom_site_symmetry_multiplicity
 _atom_site_fract_x
 _atom_site_fract_y
 _atom_site_fract_z
 _atom_site_occupancy
  Ho  Ho0  1  0.599631  0.599240  0.599240  1
  Ho  Ho1  1  0.599631  0.599240  0.201890  1
  Ho  Ho2  1  0.599631  0.201890  0.599240  1
  Ho  Ho3  1  0.201365  0.599545  0.599545  1
  Ho  Ho4  1  0.057560  0.442154  0.442154  1
  Ho  Ho5  1  0.440819  0.059156  0.059156  1
  Ho  Ho6  1  0.440819  0.059156  0.440870  1
  Ho  Ho7  1  0.057560  0.442154  0.058131  1
  Ho  Ho8  1  0.440819  0.440870  0.059156  1
  Ho  Ho9  1  0.057560  0.058131  0.442154  1
  Ho  Ho10  1  0.190733  0.811127  0.811127  1
  Ho  Ho11  1  0.811777  0.188639  0.188639  1
  Ho  Ho12  1  0.811777  0.188639  0.810945  1
  Ho  Ho13  1  0.190733  0.811127  0.187014  1
  Ho  Ho14  1  0.811777  0.810945  0.188639  1
  Ho  Ho15  1  0.190733  0.187014  0.811127  1
  Cd  Cd16  1  0.502283  0.832572  0.832572  1
  In  In17  1  0.831856  0.833037  0.833037  1
  In  In18  1  0.831856  0.833037  0.502070  1
  In  In19  1  0.831856  0.502070  0.833037  1
  Ir  Ir20  1  0.391157  0.391280  0.391280  1
  Ir  Ir21  1  0.391157  0.391280  0.826285  1
  Ir  Ir22  1  0.391157  0.826285  0.391280  1
  Ir  Ir23  1  0.825754  0.391416  0.391416  1
