# generated using pymatgen
data_Hf2Co5P6Ru5
_symmetry_space_group_name_H-M   'P 1'
_cell_length_a   3.72182200
_cell_length_b   10.46670600
_cell_length_c   11.87248100
_cell_angle_alpha   90.00000000
_cell_angle_beta   90.00000000
_cell_angle_gamma   90.00000000
_symmetry_Int_Tables_number   1
_chemical_formula_structural   Hf2Co5P6Ru5
_chemical_formula_sum   'Hf4 Co10 P12 Ru10'
_cell_volume   462.49506963
_cell_formula_units_Z   2
loop_
 _symmetry_equiv_pos_site_id
 _symmetry_equiv_pos_as_xyz
  1  'x, y, z'
loop_
 _atom_site_type_symbol
 _atom_site_label
 _atom_site_symmetry_multiplicity
 _atom_site_fract_x
 _atom_site_fract_y
 _atom_site_fract_z
 _atom_site_occupancy
  Hf  Hf0  1  0.250000  0.586427  0.709585  1
  Hf  Hf1  1  0.250000  0.913573  0.209585  1
  Hf  Hf2  1  0.750000  0.418598  0.293218  1
  Hf  Hf3  1  0.750000  0.081402  0.793218  1
  Co  Co4  1  0.750000  0.772480  0.820510  1
  Co  Co5  1  0.750000  0.727520  0.320510  1
  Co  Co6  1  0.250000  0.879919  0.701096  1
  Co  Co7  1  0.250000  0.620081  0.201096  1
  Co  Co8  1  0.750000  0.105169  0.298732  1
  Co  Co9  1  0.750000  0.394831  0.798732  1
  Co  Co10  1  0.250000  0.463683  0.930519  1
  Co  Co11  1  0.250000  0.036317  0.430519  1
  Co  Co12  1  0.750000  0.538514  0.069381  1
  Co  Co13  1  0.750000  0.961486  0.569381  1
  P  P14  1  0.250000  0.430568  0.114878  1
  P  P15  1  0.250000  0.069432  0.614878  1
  P  P16  1  0.750000  0.578975  0.886408  1
  P  P17  1  0.750000  0.921025  0.386408  1
  P  P18  1  0.250000  0.268959  0.870792  1
  P  P19  1  0.250000  0.231041  0.370792  1
  P  P20  1  0.750000  0.730563  0.136716  1
  P  P21  1  0.750000  0.769437  0.636716  1
  P  P22  1  0.250000  0.600603  0.383008  1
  P  P23  1  0.250000  0.899397  0.883008  1
  P  P24  1  0.750000  0.404043  0.614444  1
  P  P25  1  0.750000  0.095957  0.114444  1
  Ru  Ru26  1  0.250000  0.708216  0.981964  1
  Ru  Ru27  1  0.250000  0.791784  0.481964  1
  Ru  Ru28  1  0.750000  0.288991  0.008031  1
  Ru  Ru29  1  0.750000  0.211009  0.508031  1
  Ru  Ru30  1  0.250000  0.409239  0.481387  1
  Ru  Ru31  1  0.250000  0.090761  0.981387  1
  Ru  Ru32  1  0.750000  0.598067  0.518699  1
  Ru  Ru33  1  0.750000  0.901933  0.018699  1
  Ru  Ru34  1  0.250000  0.228248  0.180634  1
  Ru  Ru35  1  0.250000  0.271752  0.680634  1
