# generated using pymatgen
data_Er2Tm2UP12Ru19
_symmetry_space_group_name_H-M   'P 1'
_cell_length_a   12.53806905
_cell_length_b   12.53807137
_cell_length_c   3.96228500
_cell_angle_alpha   90.00000000
_cell_angle_beta   90.00000000
_cell_angle_gamma   120.21588440
_symmetry_Int_Tables_number   1
_chemical_formula_structural   Er2Tm2UP12Ru19
_chemical_formula_sum   'Er2 Tm2 U1 P12 Ru19'
_cell_volume   538.25597399
_cell_formula_units_Z   1
loop_
 _symmetry_equiv_pos_site_id
 _symmetry_equiv_pos_as_xyz
  1  'x, y, z'
loop_
 _atom_site_type_symbol
 _atom_site_label
 _atom_site_symmetry_multiplicity
 _atom_site_fract_x
 _atom_site_fract_y
 _atom_site_fract_z
 _atom_site_occupancy
  Er  Er0  1  0.810977  0.999455  0.500000  1
  Er  Er1  1  0.999455  0.810977  0.500000  1
  Tm  Tm2  1  0.333773  0.664783  0.000000  1
  Tm  Tm3  1  0.664783  0.333773  0.000000  1
  U  U4  1  0.177706  0.177706  0.500000  1
  P  P5  1  0.817860  0.817860  0.000000  1
  P  P6  1  0.181936  0.993566  0.000000  1
  P  P7  1  0.993566  0.181936  0.000000  1
  P  P8  1  0.172279  0.478642  0.500000  1
  P  P9  1  0.522538  0.694819  0.500000  1
  P  P10  1  0.308183  0.828232  0.500000  1
  P  P11  1  0.694819  0.522538  0.500000  1
  P  P12  1  0.828232  0.308183  0.500000  1
  P  P13  1  0.478642  0.172279  0.500000  1
  P  P14  1  0.373822  0.373822  0.000000  1
  P  P15  1  0.627116  0.000678  0.000000  1
  P  P16  1  0.000678  0.627116  0.000000  1
  Ru  Ru17  1  0.555273  0.555273  0.000000  1
  Ru  Ru18  1  0.446439  0.004575  0.000000  1
  Ru  Ru19  1  0.004575  0.446439  0.000000  1
  Ru  Ru20  1  0.719076  0.719076  0.500000  1
  Ru  Ru21  1  0.282849  0.001206  0.500000  1
  Ru  Ru22  1  0.001206  0.282849  0.500000  1
  Ru  Ru23  1  0.183839  0.368805  0.000000  1
  Ru  Ru24  1  0.622655  0.807802  0.000000  1
  Ru  Ru25  1  0.194098  0.814571  0.000000  1
  Ru  Ru26  1  0.807802  0.622655  0.000000  1
  Ru  Ru27  1  0.814571  0.194098  0.000000  1
  Ru  Ru28  1  0.368805  0.183839  0.000000  1
  Ru  Ru29  1  0.365280  0.491975  0.500000  1
  Ru  Ru30  1  0.509374  0.876193  0.500000  1
  Ru  Ru31  1  0.128912  0.634844  0.500000  1
  Ru  Ru32  1  0.876193  0.509374  0.500000  1
  Ru  Ru33  1  0.634844  0.128912  0.500000  1
  Ru  Ru34  1  0.491975  0.365280  0.500000  1
  Ru  Ru35  1  0.005871  0.005871  0.000000  1
