# generated using pymatgen
data_LaYB5
_symmetry_space_group_name_H-M   'P 1'
_cell_length_a   7.25539300
_cell_length_b   7.23863404
_cell_length_c   7.25942961
_cell_angle_alpha   77.03754104
_cell_angle_beta   90.00000000
_cell_angle_gamma   90.00000000
_symmetry_Int_Tables_number   1
_chemical_formula_structural   LaYB5
_chemical_formula_sum   'La4 Y4 B20'
_cell_volume   371.54343418
_cell_formula_units_Z   4
loop_
 _symmetry_equiv_pos_site_id
 _symmetry_equiv_pos_as_xyz
  1  'x, y, z'
loop_
 _atom_site_type_symbol
 _atom_site_label
 _atom_site_symmetry_multiplicity
 _atom_site_fract_x
 _atom_site_fract_y
 _atom_site_fract_z
 _atom_site_occupancy
  La  La0  1  0.688409  0.780589  0.623720  1
  La  La1  1  0.188409  0.219411  0.876280  1
  La  La2  1  0.311591  0.219411  0.376280  1
  La  La3  1  0.811591  0.780589  0.123720  1
  Y  Y4  1  0.316057  0.747583  0.255443  1
  Y  Y5  1  0.816057  0.252417  0.244557  1
  Y  Y6  1  0.683943  0.252417  0.744557  1
  Y  Y7  1  0.183943  0.747583  0.755443  1
  B  B8  1  0.504885  0.315678  0.038348  1
  B  B9  1  0.004885  0.684322  0.461652  1
  B  B10  1  0.495115  0.684322  0.961652  1
  B  B11  1  0.995115  0.315678  0.538348  1
  B  B12  1  0.483033  0.923371  0.930180  1
  B  B13  1  0.983033  0.076629  0.569820  1
  B  B14  1  0.516967  0.076629  0.069820  1
  B  B15  1  0.016967  0.923371  0.430180  1
  B  B16  1  0.327877  0.495058  0.040489  1
  B  B17  1  0.827877  0.504942  0.459511  1
  B  B18  1  0.672123  0.504942  0.959511  1
  B  B19  1  0.172123  0.495058  0.540489  1
  B  B20  1  0.909137  0.499003  0.909612  1
  B  B21  1  0.409137  0.500997  0.590388  1
  B  B22  1  0.090863  0.500997  0.090388  1
  B  B23  1  0.590863  0.499003  0.409612  1
  B  B24  1  0.960637  0.496654  0.672511  1
  B  B25  1  0.460637  0.503346  0.827489  1
  B  B26  1  0.039363  0.503346  0.327489  1
  B  B27  1  0.539363  0.496654  0.172511  1
