# generated using pymatgen
data_Lu4CdRh
_symmetry_space_group_name_H-M   'P 1'
_cell_length_a   9.43892713
_cell_length_b   9.43892691
_cell_length_c   9.43892700
_cell_angle_alpha   60.00000318
_cell_angle_beta   60.00000394
_cell_angle_gamma   60.00000591
_symmetry_Int_Tables_number   1
_chemical_formula_structural   Lu4CdRh
_chemical_formula_sum   'Lu16 Cd4 Rh4'
_cell_volume   594.63836865
_cell_formula_units_Z   4
loop_
 _symmetry_equiv_pos_site_id
 _symmetry_equiv_pos_as_xyz
  1  'x, y, z'
loop_
 _atom_site_type_symbol
 _atom_site_label
 _atom_site_symmetry_multiplicity
 _atom_site_fract_x
 _atom_site_fract_y
 _atom_site_fract_z
 _atom_site_occupancy
  Lu  Lu0  1  0.563915  0.563915  0.936085  1
  Lu  Lu1  1  0.150338  0.548988  0.150338  1
  Lu  Lu2  1  0.689122  0.310878  0.310878  1
  Lu  Lu3  1  0.936085  0.563915  0.563915  1
  Lu  Lu4  1  0.936085  0.563915  0.936085  1
  Lu  Lu5  1  0.689122  0.689122  0.310878  1
  Lu  Lu6  1  0.563915  0.936085  0.936085  1
  Lu  Lu7  1  0.150338  0.150338  0.150338  1
  Lu  Lu8  1  0.310878  0.689122  0.310878  1
  Lu  Lu9  1  0.548988  0.150338  0.150338  1
  Lu  Lu10  1  0.310878  0.310878  0.689122  1
  Lu  Lu11  1  0.310878  0.689122  0.689122  1
  Lu  Lu12  1  0.150338  0.150338  0.548988  1
  Lu  Lu13  1  0.689122  0.310878  0.689122  1
  Lu  Lu14  1  0.936085  0.936085  0.563915  1
  Lu  Lu15  1  0.563915  0.936085  0.563915  1
  Cd  Cd16  1  0.918956  0.918956  0.918956  1
  Cd  Cd17  1  0.243131  0.918956  0.918956  1
  Cd  Cd18  1  0.918956  0.918956  0.243131  1
  Cd  Cd19  1  0.918956  0.243131  0.918956  1
  Rh  Rh20  1  0.357396  0.357396  0.927811  1
  Rh  Rh21  1  0.357396  0.357396  0.357396  1
  Rh  Rh22  1  0.927811  0.357396  0.357396  1
  Rh  Rh23  1  0.357396  0.927811  0.357396  1
