# generated using pymatgen
data_Li3Pa5(Co4P3)4
_symmetry_space_group_name_H-M   'P 1'
_cell_length_a   12.04074800
_cell_length_b   12.04074830
_cell_length_c   3.75579400
_cell_angle_alpha   90.00000000
_cell_angle_beta   90.00000000
_cell_angle_gamma   119.99999916
_symmetry_Int_Tables_number   1
_chemical_formula_structural   Li3Pa5(Co4P3)4
_chemical_formula_sum   'Li3 Pa5 Co16 P12'
_cell_volume   471.56259015
_cell_formula_units_Z   1
loop_
 _symmetry_equiv_pos_site_id
 _symmetry_equiv_pos_as_xyz
  1  'x, y, z'
loop_
 _atom_site_type_symbol
 _atom_site_label
 _atom_site_symmetry_multiplicity
 _atom_site_fract_x
 _atom_site_fract_y
 _atom_site_fract_z
 _atom_site_occupancy
  Li  Li0  1  0.433955  0.433955  0.000000  1
  Li  Li1  1  0.566045  0.000000  0.000000  1
  Li  Li2  1  0.000000  0.566045  0.000000  1
  Pa  Pa3  1  0.666667  0.333333  0.000000  1
  Pa  Pa4  1  0.333333  0.666667  0.000000  1
  Pa  Pa5  1  0.811764  0.811764  0.500000  1
  Pa  Pa6  1  0.188236  0.000000  0.500000  1
  Pa  Pa7  1  0.000000  0.188236  0.500000  1
  Co  Co8  1  0.195604  0.377093  0.000000  1
  Co  Co9  1  0.181489  0.804396  0.000000  1
  Co  Co10  1  0.818511  0.622907  0.000000  1
  Co  Co11  1  0.804396  0.181489  0.000000  1
  Co  Co12  1  0.377093  0.195604  0.000000  1
  Co  Co13  1  0.128828  0.482401  0.500000  1
  Co  Co14  1  0.353572  0.871172  0.500000  1
  Co  Co15  1  0.517599  0.646428  0.500000  1
  Co  Co16  1  0.646428  0.517599  0.500000  1
  Co  Co17  1  0.871172  0.353572  0.500000  1
  Co  Co18  1  0.482401  0.128828  0.500000  1
  Co  Co19  1  0.000000  0.000000  0.000000  1
  Co  Co20  1  0.720585  0.000000  0.500000  1
  Co  Co21  1  0.000000  0.720585  0.500000  1
  Co  Co22  1  0.622907  0.818511  0.000000  1
  Co  Co23  1  0.279415  0.279415  0.500000  1
  P  P24  1  0.628696  0.628696  0.000000  1
  P  P25  1  0.371304  0.000000  0.000000  1
  P  P26  1  0.000000  0.371304  0.000000  1
  P  P27  1  0.477082  0.313618  0.500000  1
  P  P28  1  0.686382  0.163464  0.500000  1
  P  P29  1  0.836536  0.522918  0.500000  1
  P  P30  1  0.522918  0.836536  0.500000  1
  P  P31  1  0.163464  0.686382  0.500000  1
  P  P32  1  0.818319  0.000000  0.000000  1
  P  P33  1  0.000000  0.818319  0.000000  1
  P  P34  1  0.313618  0.477082  0.500000  1
  P  P35  1  0.181681  0.181681  0.000000  1
