# generated using pymatgen
data_Y6Sc4Al12Rh7
_symmetry_space_group_name_H-M   'P 1'
_cell_length_a   9.12711709
_cell_length_b   9.12711718
_cell_length_c   9.12711600
_cell_angle_alpha   59.99999704
_cell_angle_beta   59.99999670
_cell_angle_gamma   60.00000232
_symmetry_Int_Tables_number   1
_chemical_formula_structural   Y6Sc4Al12Rh7
_chemical_formula_sum   'Y6 Sc4 Al12 Rh7'
_cell_volume   537.63286383
_cell_formula_units_Z   1
loop_
 _symmetry_equiv_pos_site_id
 _symmetry_equiv_pos_as_xyz
  1  'x, y, z'
loop_
 _atom_site_type_symbol
 _atom_site_label
 _atom_site_symmetry_multiplicity
 _atom_site_fract_x
 _atom_site_fract_y
 _atom_site_fract_z
 _atom_site_occupancy
  Y  Y0  1  0.701545  0.701545  0.298455  1
  Y  Y1  1  0.298455  0.701545  0.298455  1
  Y  Y2  1  0.701545  0.298455  0.298455  1
  Y  Y3  1  0.298455  0.298455  0.701545  1
  Y  Y4  1  0.701545  0.298455  0.701545  1
  Y  Y5  1  0.298455  0.701545  0.701545  1
  Sc  Sc6  1  0.881582  0.881582  0.355253  1
  Sc  Sc7  1  0.881582  0.355253  0.881582  1
  Sc  Sc8  1  0.355253  0.881582  0.881582  1
  Sc  Sc9  1  0.881582  0.881582  0.881582  1
  Al  Al10  1  0.120728  0.120728  0.637816  1
  Al  Al11  1  0.120728  0.637816  0.120728  1
  Al  Al12  1  0.637816  0.120728  0.120728  1
  Al  Al13  1  0.120728  0.120728  0.120728  1
  Al  Al14  1  0.669927  0.669927  0.990220  1
  Al  Al15  1  0.669927  0.990220  0.669927  1
  Al  Al16  1  0.990220  0.669927  0.669927  1
  Al  Al17  1  0.669927  0.669927  0.669927  1
  Al  Al18  1  0.328547  0.328547  0.014359  1
  Al  Al19  1  0.328547  0.014359  0.328547  1
  Al  Al20  1  0.014359  0.328547  0.328547  1
  Al  Al21  1  0.328547  0.328547  0.328547  1
  Rh  Rh22  1  0.000000  0.000000  0.000000  1
  Rh  Rh23  1  0.001221  0.001221  0.498779  1
  Rh  Rh24  1  0.498779  0.001221  0.498779  1
  Rh  Rh25  1  0.001221  0.498779  0.498779  1
  Rh  Rh26  1  0.498779  0.498779  0.001221  1
  Rh  Rh27  1  0.001221  0.498779  0.001221  1
  Rh  Rh28  1  0.498779  0.001221  0.001221  1
