# generated using pymatgen
data_HoPa3Ge6Os7
_symmetry_space_group_name_H-M   'P 1'
_cell_length_a   7.27996354
_cell_length_b   7.27996473
_cell_length_c   7.27996376
_cell_angle_alpha   109.52489117
_cell_angle_beta   109.52489879
_cell_angle_gamma   109.52488163
_symmetry_Int_Tables_number   1
_chemical_formula_structural   HoPa3Ge6Os7
_chemical_formula_sum   'Ho1 Pa3 Ge6 Os7'
_cell_volume   296.41475604
_cell_formula_units_Z   1
loop_
 _symmetry_equiv_pos_site_id
 _symmetry_equiv_pos_as_xyz
  1  'x, y, z'
loop_
 _atom_site_type_symbol
 _atom_site_label
 _atom_site_symmetry_multiplicity
 _atom_site_fract_x
 _atom_site_fract_y
 _atom_site_fract_z
 _atom_site_occupancy
  Ho  Ho0  1  0.500000  0.500000  0.500000  1
  Pa  Pa1  1  0.000000  0.000000  0.500000  1
  Pa  Pa2  1  0.000000  0.500000  0.000000  1
  Pa  Pa3  1  0.500000  0.000000  0.000000  1
  Ge  Ge4  1  0.685847  0.685847  0.995474  1
  Ge  Ge5  1  0.314153  0.004526  0.314153  1
  Ge  Ge6  1  0.004526  0.314153  0.314153  1
  Ge  Ge7  1  0.314153  0.314153  0.004526  1
  Ge  Ge8  1  0.685847  0.995474  0.685847  1
  Ge  Ge9  1  0.995474  0.685847  0.685847  1
  Os  Os10  1  0.752544  0.247456  0.500000  1
  Os  Os11  1  0.752544  0.500000  0.247456  1
  Os  Os12  1  0.500000  0.247456  0.752544  1
  Os  Os13  1  0.247456  0.500000  0.752544  1
  Os  Os14  1  0.247456  0.752544  0.500000  1
  Os  Os15  1  0.500000  0.752544  0.247456  1
  Os  Os16  1  0.000000  0.000000  0.000000  1
