# generated using pymatgen
data_Pr2Al4CuPtAu2
_symmetry_space_group_name_H-M   'P 1'
_cell_length_a   4.40507700
_cell_length_b   4.41843400
_cell_length_c   10.25984400
_cell_angle_alpha   90.00000000
_cell_angle_beta   90.00000000
_cell_angle_gamma   90.00000000
_symmetry_Int_Tables_number   1
_chemical_formula_structural   Pr2Al4CuPtAu2
_chemical_formula_sum   'Pr2 Al4 Cu1 Pt1 Au2'
_cell_volume   199.69290450
_cell_formula_units_Z   1
loop_
 _symmetry_equiv_pos_site_id
 _symmetry_equiv_pos_as_xyz
  1  'x, y, z'
loop_
 _atom_site_type_symbol
 _atom_site_label
 _atom_site_symmetry_multiplicity
 _atom_site_fract_x
 _atom_site_fract_y
 _atom_site_fract_z
 _atom_site_occupancy
  Pr  Pr0  1  0.000000  0.500000  0.247437  1
  Pr  Pr1  1  0.500000  0.000000  0.753615  1
  Al  Al2  1  0.000000  0.000000  0.507078  1
  Al  Al3  1  0.500000  0.500000  0.506034  1
  Al  Al4  1  0.000000  0.500000  0.869084  1
  Al  Al5  1  0.500000  0.000000  0.122884  1
  Cu  Cu6  1  0.000000  0.000000  0.998517  1
  Pt  Pt7  1  0.000000  0.500000  0.628130  1
  Au  Au8  1  0.500000  0.500000  0.998895  1
  Au  Au9  1  0.500000  0.000000  0.368327  1
