# generated using pymatgen
data_Y2Ho2(Al8Pd3)3
_symmetry_space_group_name_H-M   'P 1'
_cell_length_a   7.53861751
_cell_length_b   7.56760164
_cell_length_c   13.18281101
_cell_angle_alpha   84.58982959
_cell_angle_beta   79.12850511
_cell_angle_gamma   60.01878431
_symmetry_Int_Tables_number   1
_chemical_formula_structural   Y2Ho2(Al8Pd3)3
_chemical_formula_sum   'Y2 Ho2 Al24 Pd9'
_cell_volume   639.74305814
_cell_formula_units_Z   1
loop_
 _symmetry_equiv_pos_site_id
 _symmetry_equiv_pos_as_xyz
  1  'x, y, z'
loop_
 _atom_site_type_symbol
 _atom_site_label
 _atom_site_symmetry_multiplicity
 _atom_site_fract_x
 _atom_site_fract_y
 _atom_site_fract_z
 _atom_site_occupancy
  Y  Y0  1  0.393249  0.168972  0.808671  1
  Y  Y1  1  0.606751  0.831028  0.191329  1
  Ho  Ho2  1  0.733769  0.498137  0.808450  1
  Ho  Ho3  1  0.266231  0.501863  0.191550  1
  Al  Al4  1  0.684856  0.833362  0.944692  1
  Al  Al5  1  0.315144  0.166638  0.055308  1
  Al  Al6  1  0.146080  0.833166  0.561232  1
  Al  Al7  1  0.853920  0.166834  0.438768  1
  Al  Al8  1  0.478933  0.166673  0.558858  1
  Al  Al9  1  0.521067  0.833327  0.441142  1
  Al  Al10  1  0.216876  0.165422  0.329700  1
  Al  Al11  1  0.783124  0.834578  0.670300  1
  Al  Al12  1  0.437044  0.506790  0.670327  1
  Al  Al13  1  0.562956  0.493210  0.329673  1
  Al  Al14  1  0.108952  0.159749  0.669261  1
  Al  Al15  1  0.891048  0.840251  0.330739  1
  Al  Al16  1  0.352667  0.500080  0.945115  1
  Al  Al17  1  0.647333  0.499920  0.054885  1
  Al  Al18  1  0.015117  0.167491  0.953941  1
  Al  Al19  1  0.984883  0.832509  0.046059  1
  Al  Al20  1  0.187187  0.499321  0.440792  1
  Al  Al21  1  0.812813  0.500679  0.559208  1
  Al  Al22  1  0.733238  0.164338  0.183613  1
  Al  Al23  1  0.266762  0.835662  0.816387  1
  Al  Al24  1  0.061452  0.631096  0.815125  1
  Al  Al25  1  0.938548  0.368904  0.184875  1
  Al  Al26  1  0.855501  0.041796  0.815957  1
  Al  Al27  1  0.144499  0.958204  0.184043  1
  Pd  Pd28  1  0.119311  0.492689  0.638338  1
  Pd  Pd29  1  0.880689  0.507311  0.361662  1
  Pd  Pd30  1  0.657035  0.171338  0.999751  1
  Pd  Pd31  1  0.342965  0.828662  0.000249  1
  Pd  Pd32  1  0.538119  0.167005  0.361488  1
  Pd  Pd33  1  0.461881  0.832995  0.638512  1
  Pd  Pd34  1  0.777964  0.174958  0.637778  1
  Pd  Pd35  1  0.222036  0.825042  0.362222  1
  Pd  Pd36  1  0.000000  0.500000  0.000000  1
