# generated using pymatgen
data_Na11LiV4S8(O4F)8
_symmetry_space_group_name_H-M   'P 1'
_cell_length_a   6.75612100
_cell_length_b   9.01049200
_cell_length_c   14.19045000
_cell_angle_alpha   90.00000000
_cell_angle_beta   90.00000000
_cell_angle_gamma   90.00000000
_symmetry_Int_Tables_number   1
_chemical_formula_structural   Na11LiV4S8(O4F)8
_chemical_formula_sum   'Na11 Li1 V4 S8 O32 F8'
_cell_volume   863.85746839
_cell_formula_units_Z   1
loop_
 _symmetry_equiv_pos_site_id
 _symmetry_equiv_pos_as_xyz
  1  'x, y, z'
loop_
 _atom_site_type_symbol
 _atom_site_label
 _atom_site_symmetry_multiplicity
 _atom_site_fract_x
 _atom_site_fract_y
 _atom_site_fract_z
 _atom_site_occupancy
  Na  Na0  1  0.521227  0.669919  0.902635  1
  Na  Na1  1  0.019059  0.833474  0.596119  1
  Na  Na2  1  0.480941  0.166526  0.596119  1
  Na  Na3  1  0.978773  0.330081  0.902635  1
  Na  Na4  1  0.483838  0.329502  0.094245  1
  Na  Na5  1  0.981615  0.166485  0.405911  1
  Na  Na6  1  0.518385  0.833515  0.405911  1
  Na  Na7  1  0.016162  0.670498  0.094245  1
  Na  Na8  1  0.250000  0.500000  0.451974  1
  Na  Na9  1  0.250000  0.000000  0.951457  1
  Na  Na10  1  0.750000  0.500000  0.549167  1
  Li  Li11  1  0.750000  0.000000  0.071752  1
  V  V12  1  0.750000  0.000000  0.805675  1
  V  V13  1  0.250000  0.500000  0.697688  1
  V  V14  1  0.250000  0.000000  0.197100  1
  V  V15  1  0.750000  0.500000  0.300290  1
  S  S16  1  0.002536  0.692640  0.858134  1
  S  S17  1  0.503518  0.807362  0.643361  1
  S  S18  1  0.996482  0.192638  0.643361  1
  S  S19  1  0.497464  0.307360  0.858134  1
  S  S20  1  0.995229  0.298057  0.140106  1
  S  S21  1  0.495812  0.194937  0.356492  1
  S  S22  1  0.004188  0.805063  0.356492  1
  S  S23  1  0.504771  0.701943  0.140106  1
  O  O24  1  0.446600  0.445251  0.800499  1
  O  O25  1  0.945391  0.055042  0.700610  1
  O  O26  1  0.554609  0.944958  0.700610  1
  O  O27  1  0.053400  0.554749  0.800499  1
  O  O28  1  0.564164  0.562620  0.193565  1
  O  O29  1  0.054094  0.944868  0.300802  1
  O  O30  1  0.445906  0.055132  0.300802  1
  O  O31  1  0.935836  0.437380  0.193565  1
  O  O32  1  0.184475  0.765159  0.890385  1
  O  O33  1  0.685012  0.735095  0.609902  1
  O  O34  1  0.814988  0.264905  0.609902  1
  O  O35  1  0.315525  0.234841  0.890385  1
  O  O36  1  0.818180  0.215594  0.109357  1
  O  O37  1  0.313712  0.265174  0.390608  1
  O  O38  1  0.186288  0.734826  0.390608  1
  O  O39  1  0.681820  0.784406  0.109357  1
  O  O40  1  0.878664  0.641032  0.937353  1
  O  O41  1  0.377844  0.858067  0.564407  1
  O  O42  1  0.122156  0.141933  0.564407  1
  O  O43  1  0.621336  0.358968  0.937353  1
  O  O44  1  0.118081  0.347928  0.060341  1
  O  O45  1  0.625593  0.147513  0.434484  1
  O  O46  1  0.874407  0.852487  0.434484  1
  O  O47  1  0.381919  0.652072  0.060341  1
  O  O48  1  0.387700  0.707713  0.707749  1
  O  O49  1  0.884869  0.791248  0.794002  1
  O  O50  1  0.615131  0.208752  0.794002  1
  O  O51  1  0.112300  0.292287  0.707749  1
  O  O52  1  0.605583  0.295295  0.289808  1
  O  O53  1  0.117152  0.207409  0.207351  1
  O  O54  1  0.382848  0.792591  0.207351  1
  O  O55  1  0.894417  0.704705  0.289808  1
  F  F56  1  0.574808  0.929195  0.903833  1
  F  F57  1  0.076608  0.571308  0.597017  1
  F  F58  1  0.423392  0.428692  0.597017  1
  F  F59  1  0.925192  0.070805  0.903833  1
  F  F60  1  0.432876  0.065911  0.098398  1
  F  F61  1  0.923315  0.427305  0.399975  1
  F  F62  1  0.576685  0.572695  0.399975  1
  F  F63  1  0.067124  0.934089  0.098398  1
