# generated using pymatgen
data_Tm6Lu6Tc3Os
_symmetry_space_group_name_H-M   'P 1'
_cell_length_a   7.40190643
_cell_length_b   8.89066771
_cell_length_c   6.14774173
_cell_angle_alpha   89.87819115
_cell_angle_beta   89.82739792
_cell_angle_gamma   90.04472734
_symmetry_Int_Tables_number   1
_chemical_formula_structural   Tm6Lu6Tc3Os
_chemical_formula_sum   'Tm6 Lu6 Tc3 Os1'
_cell_volume   404.56703936
_cell_formula_units_Z   1
loop_
 _symmetry_equiv_pos_site_id
 _symmetry_equiv_pos_as_xyz
  1  'x, y, z'
loop_
 _atom_site_type_symbol
 _atom_site_label
 _atom_site_symmetry_multiplicity
 _atom_site_fract_x
 _atom_site_fract_y
 _atom_site_fract_z
 _atom_site_occupancy
  Tm  Tm0  1  0.043060  0.249073  0.627103  1
  Tm  Tm1  1  0.958522  0.750745  0.375814  1
  Tm  Tm2  1  0.462949  0.750975  0.125160  1
  Tm  Tm3  1  0.537336  0.249072  0.876254  1
  Tm  Tm4  1  0.677799  0.436466  0.344902  1
  Tm  Tm5  1  0.323075  0.562620  0.653240  1
  Lu  Lu6  1  0.171662  0.062753  0.156114  1
  Lu  Lu7  1  0.827006  0.938921  0.843122  1
  Lu  Lu8  1  0.324052  0.937925  0.652360  1
  Lu  Lu9  1  0.827949  0.561006  0.842239  1
  Lu  Lu10  1  0.677260  0.062936  0.345158  1
  Lu  Lu11  1  0.171135  0.437114  0.157409  1
  Tc  Tc12  1  0.381996  0.248856  0.453566  1
  Tc  Tc13  1  0.618742  0.751223  0.547358  1
  Tc  Tc14  1  0.118137  0.750804  0.959765  1
  Os  Os15  1  0.879323  0.249509  0.040435  1
