# generated using pymatgen
data_Tm5Co2
_symmetry_space_group_name_H-M   'P 1'
_cell_length_a   8.37740613
_cell_length_b   8.37740741
_cell_length_c   6.86842705
_cell_angle_alpha   83.74057422
_cell_angle_beta   83.74057687
_cell_angle_gamma   43.37760568
_symmetry_Int_Tables_number   1
_chemical_formula_structural   Tm5Co2
_chemical_formula_sum   'Tm10 Co4'
_cell_volume   328.77479475
_cell_formula_units_Z   2
loop_
 _symmetry_equiv_pos_site_id
 _symmetry_equiv_pos_as_xyz
  1  'x, y, z'
loop_
 _atom_site_type_symbol
 _atom_site_label
 _atom_site_symmetry_multiplicity
 _atom_site_fract_x
 _atom_site_fract_y
 _atom_site_fract_z
 _atom_site_occupancy
  Tm  Tm0  1  0.014089  0.797138  0.913301  1
  Tm  Tm1  1  0.202862  0.985911  0.586699  1
  Tm  Tm2  1  0.985911  0.202862  0.086699  1
  Tm  Tm3  1  0.797138  0.014089  0.413301  1
  Tm  Tm4  1  0.352930  0.214299  0.815171  1
  Tm  Tm5  1  0.785701  0.647070  0.684829  1
  Tm  Tm6  1  0.647070  0.785701  0.184829  1
  Tm  Tm7  1  0.214299  0.352930  0.315171  1
  Tm  Tm8  1  0.571354  0.428646  0.750000  1
  Tm  Tm9  1  0.428646  0.571354  0.250000  1
  Co  Co10  1  0.176020  0.601489  0.573095  1
  Co  Co11  1  0.398511  0.823980  0.926905  1
  Co  Co12  1  0.823980  0.398511  0.426905  1
  Co  Co13  1  0.601489  0.176020  0.073095  1
