# generated using pymatgen
data_YTm9(Bi3C)2
_symmetry_space_group_name_H-M   'P 1'
_cell_length_a   9.05800900
_cell_length_b   9.05800797
_cell_length_c   6.42120700
_cell_angle_alpha   90.00000000
_cell_angle_beta   90.00000000
_cell_angle_gamma   120.00000011
_symmetry_Int_Tables_number   1
_chemical_formula_structural   YTm9(Bi3C)2
_chemical_formula_sum   'Y1 Tm9 Bi6 C2'
_cell_volume   456.26036961
_cell_formula_units_Z   1
loop_
 _symmetry_equiv_pos_site_id
 _symmetry_equiv_pos_as_xyz
  1  'x, y, z'
loop_
 _atom_site_type_symbol
 _atom_site_label
 _atom_site_symmetry_multiplicity
 _atom_site_fract_x
 _atom_site_fract_y
 _atom_site_fract_z
 _atom_site_occupancy
  Y  Y0  1  0.666667  0.333333  0.000000  1
  Tm  Tm1  1  0.333333  0.666667  0.000000  1
  Tm  Tm2  1  0.333333  0.666667  0.500000  1
  Tm  Tm3  1  0.666667  0.333333  0.500000  1
  Tm  Tm4  1  0.794338  0.794212  0.749906  1
  Tm  Tm5  1  0.205788  0.000127  0.749906  1
  Tm  Tm6  1  0.999873  0.205662  0.749906  1
  Tm  Tm7  1  0.205788  0.205662  0.250094  1
  Tm  Tm8  1  0.794338  0.000127  0.250094  1
  Tm  Tm9  1  0.999873  0.794212  0.250094  1
  Bi  Bi10  1  0.400578  0.401654  0.748814  1
  Bi  Bi11  1  0.598346  0.998924  0.748814  1
  Bi  Bi12  1  0.001076  0.599422  0.748814  1
  Bi  Bi13  1  0.598346  0.599422  0.251186  1
  Bi  Bi14  1  0.400578  0.998924  0.251186  1
  Bi  Bi15  1  0.001076  0.401654  0.251186  1
  C  C16  1  0.000000  0.000000  0.000000  1
  C  C17  1  0.000000  0.000000  0.500000  1
