# generated using pymatgen
data_PdSeF34
_symmetry_space_group_name_H-M   'P 1'
_cell_length_a   9.02212399
_cell_length_b   8.50823999
_cell_length_c   10.21542767
_cell_angle_alpha   85.49015989
_cell_angle_beta   87.53219203
_cell_angle_gamma   62.46867141
_symmetry_Int_Tables_number   1
_chemical_formula_structural   PdSeF34
_chemical_formula_sum   'Pd1 Se1 F34'
_cell_volume   693.18802282
_cell_formula_units_Z   1
loop_
 _symmetry_equiv_pos_site_id
 _symmetry_equiv_pos_as_xyz
  1  'x, y, z'
loop_
 _atom_site_type_symbol
 _atom_site_label
 _atom_site_symmetry_multiplicity
 _atom_site_fract_x
 _atom_site_fract_y
 _atom_site_fract_z
 _atom_site_occupancy
  Pd  Pd0  1  0.128838  0.753708  0.250658  1
  Se  Se1  1  0.867980  0.247782  0.759774  1
  F  F2  1  0.614682  0.206522  0.478128  1
  F  F3  1  0.395462  0.788133  0.512675  1
  F  F4  1  0.836977  0.709742  0.722202  1
  F  F5  1  0.167172  0.315828  0.273088  1
  F  F6  1  0.105481  0.736200  0.874924  1
  F  F7  1  0.916548  0.228718  0.142723  1
  F  F8  1  0.564196  0.141806  0.372609  1
  F  F9  1  0.436793  0.853419  0.623342  1
  F  F10  1  0.664708  0.328266  0.703536  1
  F  F11  1  0.351435  0.663232  0.312047  1
  F  F12  1  0.934727  0.068225  0.662955  1
  F  F13  1  0.056995  0.948024  0.358770  1
  F  F14  1  0.909141  0.367422  0.630517  1
  F  F15  1  0.082867  0.623240  0.390397  1
  F  F16  1  0.862478  0.794548  0.604100  1
  F  F17  1  0.156198  0.192017  0.370216  1
  F  F18  1  0.802036  0.428207  0.856345  1
  F  F19  1  0.196847  0.557040  0.144627  1
  F  F20  1  0.218211  0.694124  0.766271  1
  F  F21  1  0.772801  0.308363  0.224475  1
  F  F22  1  0.907698  0.844435  0.186874  1
  F  F23  1  0.070024  0.168444  0.817511  1
  F  F24  1  0.825426  0.127527  0.888007  1
  F  F25  1  0.177359  0.883620  0.111533  1
  F  F26  1  0.473851  0.596918  0.998480  1
  F  F27  1  0.515799  0.413405  0.005660  1
  F  F28  1  0.434825  0.107731  0.872410  1
  F  F29  1  0.540693  0.896404  0.125268  1
  F  F30  1  0.291369  0.247120  0.604514  1
  F  F31  1  0.717136  0.748447  0.377793  1
  F  F32  1  0.256666  0.404237  0.667861  1
  F  F33  1  0.739850  0.589225  0.324170  1
  F  F34  1  0.554215  0.942133  0.825390  1
  F  F35  1  0.452521  0.075790  0.160151  1
