# generated using pymatgen
data_Ce4Al18TcRh5
_symmetry_space_group_name_H-M   'P 1'
_cell_length_a   7.62112951
_cell_length_b   7.62174230
_cell_length_c   9.48348510
_cell_angle_alpha   89.72186339
_cell_angle_beta   89.72258095
_cell_angle_gamma   118.79310276
_symmetry_Int_Tables_number   1
_chemical_formula_structural   Ce4Al18TcRh5
_chemical_formula_sum   'Ce4 Al18 Tc1 Rh5'
_cell_volume   482.73271823
_cell_formula_units_Z   1
loop_
 _symmetry_equiv_pos_site_id
 _symmetry_equiv_pos_as_xyz
  1  'x, y, z'
loop_
 _atom_site_type_symbol
 _atom_site_label
 _atom_site_symmetry_multiplicity
 _atom_site_fract_x
 _atom_site_fract_y
 _atom_site_fract_z
 _atom_site_occupancy
  Ce  Ce0  1  0.995710  0.679091  0.246996  1
  Ce  Ce1  1  0.004290  0.320909  0.753004  1
  Ce  Ce2  1  0.679081  0.995705  0.246996  1
  Ce  Ce3  1  0.320919  0.004295  0.753004  1
  Al  Al4  1  0.005605  0.339559  0.078109  1
  Al  Al5  1  0.994395  0.660441  0.921891  1
  Al  Al6  1  0.998088  0.661527  0.576558  1
  Al  Al7  1  0.338558  0.001940  0.423484  1
  Al  Al8  1  0.001912  0.338473  0.423442  1
  Al  Al9  1  0.661442  0.998060  0.576516  1
  Al  Al10  1  0.660359  0.994366  0.921931  1
  Al  Al11  1  0.339641  0.005634  0.078069  1
  Al  Al12  1  0.333788  0.333747  0.545999  1
  Al  Al13  1  0.666212  0.666253  0.454001  1
  Al  Al14  1  0.665495  0.665534  0.046352  1
  Al  Al15  1  0.334505  0.334466  0.953648  1
  Al  Al16  1  0.134323  0.134338  0.250504  1
  Al  Al17  1  0.865677  0.865662  0.749496  1
  Al  Al18  1  0.343287  0.552523  0.250947  1
  Al  Al19  1  0.656713  0.447477  0.749053  1
  Al  Al20  1  0.552465  0.343151  0.250946  1
  Al  Al21  1  0.447535  0.656849  0.749054  1
  Tc  Tc22  1  0.000000  0.000000  0.000000  1
  Rh  Rh23  1  0.672070  0.327886  0.000009  1
  Rh  Rh24  1  0.327930  0.672114  0.999991  1
  Rh  Rh25  1  0.328377  0.671677  0.499999  1
  Rh  Rh26  1  0.671623  0.328323  0.500001  1
  Rh  Rh27  1  0.000000  0.000000  0.500000  1
