# generated using pymatgen
data_Tm4BeCuSi6
_symmetry_space_group_name_H-M   'P 1'
_cell_length_a   7.88341067
_cell_length_b   7.89577764
_cell_length_c   5.57666318
_cell_angle_alpha   69.18461301
_cell_angle_beta   69.42232475
_cell_angle_gamma   41.39305775
_symmetry_Int_Tables_number   1
_chemical_formula_structural   Tm4BeCuSi6
_chemical_formula_sum   'Tm4 Be1 Cu1 Si6'
_cell_volume   212.51071729
_cell_formula_units_Z   1
loop_
 _symmetry_equiv_pos_site_id
 _symmetry_equiv_pos_as_xyz
  1  'x, y, z'
loop_
 _atom_site_type_symbol
 _atom_site_label
 _atom_site_symmetry_multiplicity
 _atom_site_fract_x
 _atom_site_fract_y
 _atom_site_fract_z
 _atom_site_occupancy
  Tm  Tm0  1  0.251205  0.251205  0.248794  1
  Tm  Tm1  1  0.743457  0.254466  0.256543  1
  Tm  Tm2  1  0.254467  0.743457  0.745533  1
  Tm  Tm3  1  0.751205  0.751205  0.748795  1
  Be  Be4  1  0.833195  0.833195  0.166805  1
  Cu  Cu5  1  0.166935  0.166936  0.833065  1
  Si  Si6  1  0.328321  0.839906  0.160095  1
  Si  Si7  1  0.152416  0.675401  0.324600  1
  Si  Si8  1  0.672490  0.672490  0.327511  1
  Si  Si9  1  0.331002  0.331002  0.668999  1
  Si  Si10  1  0.839906  0.328321  0.671679  1
  Si  Si11  1  0.675400  0.152417  0.847584  1
