# generated using pymatgen
data_Tb2Er(TmSn2)2
_symmetry_space_group_name_H-M   'P 1'
_cell_length_a   7.99557700
_cell_length_b   8.13608500
_cell_length_c   15.37287800
_cell_angle_alpha   90.00000000
_cell_angle_beta   90.00000000
_cell_angle_gamma   90.00000000
_symmetry_Int_Tables_number   1
_chemical_formula_structural   Tb2Er(TmSn2)2
_chemical_formula_sum   'Tb8 Er4 Tm8 Sn16'
_cell_volume   1000.04712991
_cell_formula_units_Z   4
loop_
 _symmetry_equiv_pos_site_id
 _symmetry_equiv_pos_as_xyz
  1  'x, y, z'
loop_
 _atom_site_type_symbol
 _atom_site_label
 _atom_site_symmetry_multiplicity
 _atom_site_fract_x
 _atom_site_fract_y
 _atom_site_fract_z
 _atom_site_occupancy
  Tb  Tb0  1  0.520775  0.320496  0.902760  1
  Tb  Tb1  1  0.020775  0.179504  0.597240  1
  Tb  Tb2  1  0.479225  0.679504  0.402760  1
  Tb  Tb3  1  0.979225  0.820496  0.097240  1
  Tb  Tb4  1  0.479260  0.679558  0.097281  1
  Tb  Tb5  1  0.979260  0.820442  0.402719  1
  Tb  Tb6  1  0.520740  0.320442  0.597281  1
  Tb  Tb7  1  0.020740  0.179558  0.902719  1
  Er  Er8  1  0.367052  0.836455  0.877381  1
  Er  Er9  1  0.867052  0.663545  0.622619  1
  Er  Er10  1  0.632948  0.163545  0.377381  1
  Er  Er11  1  0.132948  0.336455  0.122619  1
  Tm  Tm12  1  0.633041  0.163520  0.122580  1
  Tm  Tm13  1  0.133041  0.336480  0.377420  1
  Tm  Tm14  1  0.366959  0.836480  0.622580  1
  Tm  Tm15  1  0.866959  0.663520  0.877420  1
  Tm  Tm16  1  0.198058  0.503906  0.749980  1
  Tm  Tm17  1  0.698058  0.996094  0.750020  1
  Tm  Tm18  1  0.801942  0.496094  0.249980  1
  Tm  Tm19  1  0.301942  0.003906  0.250020  1
  Sn  Sn20  1  0.294709  0.037228  0.041834  1
  Sn  Sn21  1  0.794709  0.462772  0.458166  1
  Sn  Sn22  1  0.705291  0.962772  0.541834  1
  Sn  Sn23  1  0.205291  0.537228  0.958166  1
  Sn  Sn24  1  0.705612  0.962738  0.958288  1
  Sn  Sn25  1  0.205612  0.537262  0.541712  1
  Sn  Sn26  1  0.294388  0.037262  0.458288  1
  Sn  Sn27  1  0.794388  0.462738  0.041712  1
  Sn  Sn28  1  0.564282  0.621071  0.749996  1
  Sn  Sn29  1  0.064282  0.878929  0.750004  1
  Sn  Sn30  1  0.435718  0.378929  0.249996  1
  Sn  Sn31  1  0.935718  0.121071  0.250004  1
  Sn  Sn32  1  0.329562  0.146885  0.749949  1
  Sn  Sn33  1  0.829562  0.353115  0.750051  1
  Sn  Sn34  1  0.670438  0.853115  0.249949  1
  Sn  Sn35  1  0.170438  0.646885  0.250051  1
