# generated using pymatgen
data_Mn2Cr20NiC6
_symmetry_space_group_name_H-M   'P 1'
_cell_length_a   7.46155013
_cell_length_b   7.46154996
_cell_length_c   7.46155200
_cell_angle_alpha   59.99999983
_cell_angle_beta   60.00000057
_cell_angle_gamma   59.99999964
_symmetry_Int_Tables_number   1
_chemical_formula_structural   Mn2Cr20NiC6
_chemical_formula_sum   'Mn2 Cr20 Ni1 C6'
_cell_volume   293.74621863
_cell_formula_units_Z   1
loop_
 _symmetry_equiv_pos_site_id
 _symmetry_equiv_pos_as_xyz
  1  'x, y, z'
loop_
 _atom_site_type_symbol
 _atom_site_label
 _atom_site_symmetry_multiplicity
 _atom_site_fract_x
 _atom_site_fract_y
 _atom_site_fract_z
 _atom_site_occupancy
  Mn  Mn0  1  0.750000  0.750000  0.750000  1
  Mn  Mn1  1  0.250000  0.250000  0.250000  1
  Cr  Cr2  1  0.619379  0.619379  0.141863  1
  Cr  Cr3  1  0.619379  0.141863  0.619379  1
  Cr  Cr4  1  0.141863  0.619379  0.619379  1
  Cr  Cr5  1  0.619379  0.619379  0.619379  1
  Cr  Cr6  1  0.380621  0.380621  0.858137  1
  Cr  Cr7  1  0.380621  0.858137  0.380621  1
  Cr  Cr8  1  0.858137  0.380621  0.380621  1
  Cr  Cr9  1  0.380621  0.380621  0.380621  1
  Cr  Cr10  1  0.000000  0.000000  0.334763  1
  Cr  Cr11  1  0.665237  0.000000  0.334763  1
  Cr  Cr12  1  0.000000  0.665237  0.334763  1
  Cr  Cr13  1  0.665237  0.334763  0.000000  1
  Cr  Cr14  1  0.000000  0.334763  0.000000  1
  Cr  Cr15  1  0.000000  0.334763  0.665237  1
  Cr  Cr16  1  0.334763  0.665237  0.000000  1
  Cr  Cr17  1  0.334763  0.000000  0.665237  1
  Cr  Cr18  1  0.334763  0.000000  0.000000  1
  Cr  Cr19  1  0.000000  0.000000  0.665237  1
  Cr  Cr20  1  0.000000  0.665237  0.000000  1
  Cr  Cr21  1  0.665237  0.000000  0.000000  1
  Ni  Ni22  1  0.000000  0.000000  0.000000  1
  C  C23  1  0.721208  0.721208  0.278792  1
  C  C24  1  0.278792  0.721208  0.278792  1
  C  C25  1  0.721208  0.278792  0.278792  1
  C  C26  1  0.278792  0.278792  0.721208  1
  C  C27  1  0.721208  0.278792  0.721208  1
  C  C28  1  0.278792  0.721208  0.721208  1
