# generated using pymatgen
data_Nd11DyCo2(Si4Ni)2
_symmetry_space_group_name_H-M   'P 1'
_cell_length_a   4.19762700
_cell_length_b   11.63213165
_cell_length_c   11.65215402
_cell_angle_alpha   89.80790844
_cell_angle_beta   90.00000000
_cell_angle_gamma   90.00000000
_symmetry_Int_Tables_number   1
_chemical_formula_structural   Nd11DyCo2(Si4Ni)2
_chemical_formula_sum   'Nd11 Dy1 Co2 Si8 Ni2'
_cell_volume   568.94060361
_cell_formula_units_Z   1
loop_
 _symmetry_equiv_pos_site_id
 _symmetry_equiv_pos_as_xyz
  1  'x, y, z'
loop_
 _atom_site_type_symbol
 _atom_site_label
 _atom_site_symmetry_multiplicity
 _atom_site_fract_x
 _atom_site_fract_y
 _atom_site_fract_z
 _atom_site_occupancy
  Nd  Nd0  1  0.250000  0.059565  0.881542  1
  Nd  Nd1  1  0.250000  0.442602  0.385567  1
  Nd  Nd2  1  0.750000  0.941222  0.113561  1
  Nd  Nd3  1  0.750000  0.560177  0.616468  1
  Nd  Nd4  1  0.250000  0.123299  0.560570  1
  Nd  Nd5  1  0.250000  0.376795  0.057333  1
  Nd  Nd6  1  0.750000  0.874562  0.439429  1
  Nd  Nd7  1  0.750000  0.624418  0.939667  1
  Nd  Nd8  1  0.250000  0.802050  0.711635  1
  Nd  Nd9  1  0.250000  0.698025  0.212082  1
  Nd  Nd10  1  0.750000  0.199028  0.287607  1
  Dy  Dy11  1  0.750000  0.306314  0.788106  1
  Co  Co12  1  0.750000  0.634898  0.369220  1
  Co  Co13  1  0.750000  0.863506  0.868121  1
  Si  Si14  1  0.250000  0.815005  0.968232  1
  Si  Si15  1  0.250000  0.684669  0.468840  1
  Si  Si16  1  0.750000  0.188021  0.027390  1
  Si  Si17  1  0.750000  0.314087  0.535611  1
  Si  Si18  1  0.250000  0.486504  0.802469  1
  Si  Si19  1  0.250000  0.009586  0.300144  1
  Si  Si20  1  0.750000  0.508086  0.201777  1
  Si  Si21  1  0.750000  0.990375  0.701049  1
  Ni  Ni22  1  0.250000  0.361597  0.635309  1
  Ni  Ni23  1  0.250000  0.135609  0.128271  1
