# generated using pymatgen
data_Dy3Lu7Ru3Rh
_symmetry_space_group_name_H-M   'P 1'
_cell_length_a   6.23883754
_cell_length_b   7.23301666
_cell_length_c   8.34726560
_cell_angle_alpha   97.00700998
_cell_angle_beta   112.05213219
_cell_angle_gamma   90.04412911
_symmetry_Int_Tables_number   1
_chemical_formula_structural   Dy3Lu7Ru3Rh
_chemical_formula_sum   'Dy3 Lu7 Ru3 Rh1'
_cell_volume   346.06708891
_cell_formula_units_Z   1
loop_
 _symmetry_equiv_pos_site_id
 _symmetry_equiv_pos_as_xyz
  1  'x, y, z'
loop_
 _atom_site_type_symbol
 _atom_site_label
 _atom_site_symmetry_multiplicity
 _atom_site_fract_x
 _atom_site_fract_y
 _atom_site_fract_z
 _atom_site_occupancy
  Dy  Dy0  1  0.523502  0.083216  0.810786  1
  Dy  Dy1  1  0.476151  0.918124  0.186422  1
  Dy  Dy2  1  0.713030  0.416562  0.186541  1
  Lu  Lu3  1  0.287638  0.583502  0.807678  1
  Lu  Lu4  1  0.295262  0.313746  0.436682  1
  Lu  Lu5  1  0.708458  0.684688  0.568453  1
  Lu  Lu6  1  0.860084  0.184633  0.565398  1
  Lu  Lu7  1  0.137981  0.817106  0.436620  1
  Lu  Lu8  1  0.079927  0.249052  0.997984  1
  Lu  Lu9  1  0.919721  0.750265  0.999402  1
  Ru  Ru10  1  0.676130  0.426301  0.778316  1
  Ru  Ru11  1  0.102478  0.921713  0.779916  1
  Ru  Ru12  1  0.902696  0.076287  0.221442  1
  Rh  Rh13  1  0.316939  0.574806  0.224360  1
