# generated using pymatgen
data_BaSi3Pt5
_symmetry_space_group_name_H-M   'P 1'
_cell_length_a   6.68823179
_cell_length_b   6.68823314
_cell_length_c   12.92085400
_cell_angle_alpha   90.00000000
_cell_angle_beta   90.00000000
_cell_angle_gamma   145.28864672
_symmetry_Int_Tables_number   1
_chemical_formula_structural   BaSi3Pt5
_chemical_formula_sum   'Ba2 Si6 Pt10'
_cell_volume   329.12718567
_cell_formula_units_Z   2
loop_
 _symmetry_equiv_pos_site_id
 _symmetry_equiv_pos_as_xyz
  1  'x, y, z'
loop_
 _atom_site_type_symbol
 _atom_site_label
 _atom_site_symmetry_multiplicity
 _atom_site_fract_x
 _atom_site_fract_y
 _atom_site_fract_z
 _atom_site_occupancy
  Ba  Ba0  1  0.159498  0.840502  0.250000  1
  Ba  Ba1  1  0.840502  0.159498  0.750000  1
  Si  Si2  1  0.888587  0.111413  0.250000  1
  Si  Si3  1  0.111413  0.888587  0.750000  1
  Si  Si4  1  0.384350  0.615650  0.965496  1
  Si  Si5  1  0.615650  0.384350  0.034504  1
  Si  Si6  1  0.615650  0.384350  0.465496  1
  Si  Si7  1  0.384350  0.615650  0.534504  1
  Pt  Pt8  1  0.449047  0.550953  0.355617  1
  Pt  Pt9  1  0.449047  0.550953  0.144383  1
  Pt  Pt10  1  0.794270  0.205730  0.073688  1
  Pt  Pt11  1  0.205730  0.794270  0.926312  1
  Pt  Pt12  1  0.205730  0.794270  0.573688  1
  Pt  Pt13  1  0.794270  0.205730  0.426312  1
  Pt  Pt14  1  0.000000  0.000000  0.500000  1
  Pt  Pt15  1  0.000000  0.000000  0.000000  1
  Pt  Pt16  1  0.550953  0.449047  0.855617  1
  Pt  Pt17  1  0.550953  0.449047  0.644383  1
