# generated using pymatgen
data_LiTa2(Co10B3)2
_symmetry_space_group_name_H-M   'P 1'
_cell_length_a   7.43229811
_cell_length_b   7.43229900
_cell_length_c   7.43229900
_cell_angle_alpha   60.00000446
_cell_angle_beta   60.00000048
_cell_angle_gamma   60.00000173
_symmetry_Int_Tables_number   1
_chemical_formula_structural   LiTa2(Co10B3)2
_chemical_formula_sum   'Li1 Ta2 Co20 B6'
_cell_volume   290.30498320
_cell_formula_units_Z   1
loop_
 _symmetry_equiv_pos_site_id
 _symmetry_equiv_pos_as_xyz
  1  'x, y, z'
loop_
 _atom_site_type_symbol
 _atom_site_label
 _atom_site_symmetry_multiplicity
 _atom_site_fract_x
 _atom_site_fract_y
 _atom_site_fract_z
 _atom_site_occupancy
  Li  Li0  1  0.000000  0.000000  0.000000  1
  Ta  Ta1  1  0.750000  0.750000  0.750000  1
  Ta  Ta2  1  0.250000  0.250000  0.250000  1
  Co  Co3  1  0.616202  0.616202  0.151394  1
  Co  Co4  1  0.616202  0.151394  0.616202  1
  Co  Co5  1  0.151394  0.616202  0.616202  1
  Co  Co6  1  0.616202  0.616202  0.616202  1
  Co  Co7  1  0.383798  0.383798  0.848606  1
  Co  Co8  1  0.383798  0.848606  0.383798  1
  Co  Co9  1  0.848606  0.383798  0.383798  1
  Co  Co10  1  0.383798  0.383798  0.383798  1
  Co  Co11  1  0.000000  0.000000  0.341137  1
  Co  Co12  1  0.658863  0.000000  0.341137  1
  Co  Co13  1  0.000000  0.658863  0.341137  1
  Co  Co14  1  0.658863  0.341137  0.000000  1
  Co  Co15  1  0.000000  0.341137  0.000000  1
  Co  Co16  1  0.000000  0.341137  0.658863  1
  Co  Co17  1  0.341137  0.658863  0.000000  1
  Co  Co18  1  0.341137  0.000000  0.658863  1
  Co  Co19  1  0.341137  0.000000  0.000000  1
  Co  Co20  1  0.000000  0.000000  0.658863  1
  Co  Co21  1  0.000000  0.658863  0.000000  1
  Co  Co22  1  0.658863  0.000000  0.000000  1
  B  B23  1  0.727636  0.727636  0.272364  1
  B  B24  1  0.272364  0.727636  0.272364  1
  B  B25  1  0.727636  0.272364  0.272364  1
  B  B26  1  0.272364  0.272364  0.727636  1
  B  B27  1  0.727636  0.272364  0.727636  1
  B  B28  1  0.272364  0.727636  0.727636  1
