# generated using pymatgen
data_Ce4Y4Re3B24W
_symmetry_space_group_name_H-M   'P 1'
_cell_length_a   3.73044200
_cell_length_b   9.24211720
_cell_length_c   11.62579126
_cell_angle_alpha   90.02411131
_cell_angle_beta   90.00000000
_cell_angle_gamma   90.00000000
_symmetry_Int_Tables_number   1
_chemical_formula_structural   Ce4Y4Re3B24W
_chemical_formula_sum   'Ce4 Y4 Re3 B24 W1'
_cell_volume   400.82448778
_cell_formula_units_Z   1
loop_
 _symmetry_equiv_pos_site_id
 _symmetry_equiv_pos_as_xyz
  1  'x, y, z'
loop_
 _atom_site_type_symbol
 _atom_site_label
 _atom_site_symmetry_multiplicity
 _atom_site_fract_x
 _atom_site_fract_y
 _atom_site_fract_z
 _atom_site_occupancy
  Ce  Ce0  1  0.000000  0.822268  0.085965  1
  Ce  Ce1  1  0.000000  0.177165  0.913725  1
  Ce  Ce2  1  0.000000  0.322882  0.413999  1
  Ce  Ce3  1  0.000000  0.676970  0.585842  1
  Y  Y4  1  0.000000  0.445234  0.126945  1
  Y  Y5  1  0.000000  0.556112  0.872462  1
  Y  Y6  1  0.000000  0.943644  0.373491  1
  Y  Y7  1  0.000000  0.055888  0.627592  1
  Re  Re8  1  0.000000  0.861249  0.820715  1
  Re  Re9  1  0.000000  0.638237  0.321708  1
  Re  Re10  1  0.000000  0.361692  0.678823  1
  B  B11  1  0.500000  0.052829  0.066731  1
  B  B12  1  0.500000  0.945711  0.931451  1
  B  B13  1  0.500000  0.554385  0.431578  1
  B  B14  1  0.500000  0.445776  0.568449  1
  B  B15  1  0.500000  0.249462  0.079946  1
  B  B16  1  0.500000  0.752288  0.918381  1
  B  B17  1  0.500000  0.747891  0.418423  1
  B  B18  1  0.500000  0.252055  0.581654  1
  B  B19  1  0.500000  0.293254  0.234677  1
  B  B20  1  0.500000  0.708956  0.766253  1
  B  B21  1  0.500000  0.790963  0.266380  1
  B  B22  1  0.500000  0.209079  0.733691  1
  B  B23  1  0.500000  0.131982  0.315291  1
  B  B24  1  0.500000  0.868059  0.686249  1
  B  B25  1  0.500000  0.631780  0.186581  1
  B  B26  1  0.500000  0.368358  0.813643  1
  B  B27  1  0.500000  0.483919  0.287290  1
  B  B28  1  0.500000  0.516194  0.712657  1
  B  B29  1  0.500000  0.981018  0.213226  1
  B  B30  1  0.500000  0.015977  0.787263  1
  B  B31  1  0.500000  0.107444  0.470616  1
  B  B32  1  0.500000  0.892542  0.529978  1
  B  B33  1  0.500000  0.607362  0.029750  1
  B  B34  1  0.500000  0.393120  0.969840  1
  W  W35  1  0.000000  0.138255  0.178734  1
