# generated using pymatgen
data_Ac2C2Br
_symmetry_space_group_name_H-M   'P 1'
_cell_length_a   8.20218709
_cell_length_b   8.20218705
_cell_length_c   7.04452476
_cell_angle_alpha   98.94799272
_cell_angle_beta   98.94799402
_cell_angle_gamma   32.27811103
_symmetry_Int_Tables_number   1
_chemical_formula_structural   Ac2C2Br
_chemical_formula_sum   'Ac4 C4 Br2'
_cell_volume   249.75093012
_cell_formula_units_Z   2
loop_
 _symmetry_equiv_pos_site_id
 _symmetry_equiv_pos_as_xyz
  1  'x, y, z'
loop_
 _atom_site_type_symbol
 _atom_site_label
 _atom_site_symmetry_multiplicity
 _atom_site_fract_x
 _atom_site_fract_y
 _atom_site_fract_z
 _atom_site_occupancy
  Ac  Ac0  1  0.851997  0.457870  0.147627  1
  Ac  Ac1  1  0.542130  0.148003  0.352372  1
  Ac  Ac2  1  0.457870  0.851997  0.647628  1
  Ac  Ac3  1  0.148003  0.542130  0.852372  1
  C  C4  1  0.361447  0.091058  0.025949  1
  C  C5  1  0.908941  0.638553  0.474050  1
  C  C6  1  0.091058  0.361447  0.525950  1
  C  C7  1  0.638553  0.908942  0.974051  1
  Br  Br8  1  0.209980  0.790020  0.250000  1
  Br  Br9  1  0.790020  0.209980  0.750001  1
