# generated using pymatgen
data_CaNb8AlS16
_symmetry_space_group_name_H-M   'P 1'
_cell_length_a   6.66526300
_cell_length_b   6.66526318
_cell_length_c   13.18626900
_cell_angle_alpha   90.00000000
_cell_angle_beta   90.00000000
_cell_angle_gamma   120.00000407
_symmetry_Int_Tables_number   1
_chemical_formula_structural   CaNb8AlS16
_chemical_formula_sum   'Ca1 Nb8 Al1 S16'
_cell_volume   507.32602086
_cell_formula_units_Z   1
loop_
 _symmetry_equiv_pos_site_id
 _symmetry_equiv_pos_as_xyz
  1  'x, y, z'
loop_
 _atom_site_type_symbol
 _atom_site_label
 _atom_site_symmetry_multiplicity
 _atom_site_fract_x
 _atom_site_fract_y
 _atom_site_fract_z
 _atom_site_occupancy
  Ca  Ca0  1  0.000000  0.000000  0.000000  1
  Nb  Nb1  1  0.000000  0.000000  0.266652  1
  Nb  Nb2  1  0.000000  0.000000  0.733348  1
  Nb  Nb3  1  0.505243  0.010486  0.269771  1
  Nb  Nb4  1  0.494757  0.989514  0.730229  1
  Nb  Nb5  1  0.989514  0.494757  0.269771  1
  Nb  Nb6  1  0.010486  0.505243  0.730229  1
  Nb  Nb7  1  0.505243  0.494757  0.269771  1
  Nb  Nb8  1  0.494757  0.505243  0.730229  1
  Al  Al9  1  0.000000  0.000000  0.500000  1
  S  S10  1  0.333333  0.666667  0.609761  1
  S  S11  1  0.666667  0.333333  0.390239  1
  S  S12  1  0.666667  0.333333  0.147033  1
  S  S13  1  0.333333  0.666667  0.852967  1
  S  S14  1  0.169242  0.338483  0.150149  1
  S  S15  1  0.830758  0.661517  0.849851  1
  S  S16  1  0.661517  0.830758  0.150149  1
  S  S17  1  0.833489  0.666977  0.611164  1
  S  S18  1  0.338483  0.169242  0.849851  1
  S  S19  1  0.166511  0.333023  0.388836  1
  S  S20  1  0.169242  0.830758  0.150149  1
  S  S21  1  0.333023  0.166511  0.611164  1
  S  S22  1  0.830758  0.169242  0.849851  1
  S  S23  1  0.666977  0.833489  0.388836  1
  S  S24  1  0.833489  0.166511  0.611164  1
  S  S25  1  0.166511  0.833489  0.388836  1
