# generated using pymatgen
data_Hf6Ta4Al12Ru7
_symmetry_space_group_name_H-M   'P 1'
_cell_length_a   8.79540177
_cell_length_b   8.79508368
_cell_length_c   8.79519412
_cell_angle_alpha   60.00199935
_cell_angle_beta   59.99833482
_cell_angle_gamma   59.99912140
_symmetry_Int_Tables_number   1
_chemical_formula_structural   Hf6Ta4Al12Ru7
_chemical_formula_sum   'Hf6 Ta4 Al12 Ru7'
_cell_volume   481.08775402
_cell_formula_units_Z   1
loop_
 _symmetry_equiv_pos_site_id
 _symmetry_equiv_pos_as_xyz
  1  'x, y, z'
loop_
 _atom_site_type_symbol
 _atom_site_label
 _atom_site_symmetry_multiplicity
 _atom_site_fract_x
 _atom_site_fract_y
 _atom_site_fract_z
 _atom_site_occupancy
  Hf  Hf0  1  0.697531  0.697514  0.302461  1
  Hf  Hf1  1  0.302489  0.697519  0.302484  1
  Hf  Hf2  1  0.697528  0.302495  0.302474  1
  Hf  Hf3  1  0.302468  0.302482  0.697536  1
  Hf  Hf4  1  0.697520  0.302469  0.697527  1
  Hf  Hf5  1  0.302464  0.697513  0.697531  1
  Ta  Ta6  1  0.879451  0.879472  0.361617  1
  Ta  Ta7  1  0.879455  0.361621  0.879469  1
  Ta  Ta8  1  0.361630  0.879457  0.879449  1
  Ta  Ta9  1  0.879463  0.879460  0.879459  1
  Al  Al10  1  0.120687  0.120722  0.637902  1
  Al  Al11  1  0.120689  0.637920  0.120713  1
  Al  Al12  1  0.637926  0.120683  0.120688  1
  Al  Al13  1  0.120701  0.120675  0.120691  1
  Al  Al14  1  0.660934  0.661007  0.017114  1
  Al  Al15  1  0.660944  0.017143  0.660999  1
  Al  Al16  1  0.017119  0.660940  0.660926  1
  Al  Al17  1  0.661013  0.660904  0.660929  1
  Al  Al18  1  0.334745  0.334699  0.995831  1
  Al  Al19  1  0.334737  0.995797  0.334718  1
  Al  Al20  1  0.995829  0.334729  0.334757  1
  Al  Al21  1  0.334706  0.334760  0.334748  1
  Ru  Ru22  1  0.000003  0.000005  0.999983  1
  Ru  Ru23  1  0.997419  0.997416  0.502580  1
  Ru  Ru24  1  0.502553  0.997465  0.502545  1
  Ru  Ru25  1  0.997458  0.502546  0.502544  1
  Ru  Ru26  1  0.502588  0.502548  0.997454  1
  Ru  Ru27  1  0.997409  0.502590  0.997414  1
  Ru  Ru28  1  0.502546  0.997448  0.997456  1
