# generated using pymatgen
data_Pr18Er2Si15Br
_symmetry_space_group_name_H-M   'P 1'
_cell_length_a   7.94189848
_cell_length_b   7.88679928
_cell_length_c   15.30562000
_cell_angle_alpha   89.63827019
_cell_angle_beta   89.16891172
_cell_angle_gamma   90.19484065
_symmetry_Int_Tables_number   1
_chemical_formula_structural   Pr18Er2Si15Br
_chemical_formula_sum   'Pr18 Er2 Si15 Br1'
_cell_volume   958.55944811
_cell_formula_units_Z   1
loop_
 _symmetry_equiv_pos_site_id
 _symmetry_equiv_pos_as_xyz
  1  'x, y, z'
loop_
 _atom_site_type_symbol
 _atom_site_label
 _atom_site_symmetry_multiplicity
 _atom_site_fract_x
 _atom_site_fract_y
 _atom_site_fract_z
 _atom_site_occupancy
  Pr  Pr0  1  0.794949  0.189580  0.753360  1
  Pr  Pr1  1  0.687638  0.689103  0.496534  1
  Pr  Pr2  1  0.380523  0.004825  0.441622  1
  Pr  Pr3  1  0.496234  0.868545  0.699259  1
  Pr  Pr4  1  0.510329  0.122891  0.196679  1
  Pr  Pr5  1  0.874577  0.485101  0.299046  1
  Pr  Pr6  1  0.123300  0.516800  0.805005  1
  Pr  Pr7  1  0.632342  0.985319  0.953730  1
  Pr  Pr8  1  0.996934  0.383031  0.544333  1
  Pr  Pr9  1  0.991973  0.623806  0.053665  1
  Pr  Pr10  1  0.139395  0.987164  0.876330  1
  Pr  Pr11  1  0.518653  0.629602  0.126171  1
  Pr  Pr12  1  0.481516  0.371632  0.631035  1
  Pr  Pr13  1  0.634538  0.522527  0.877338  1
  Pr  Pr14  1  0.368528  0.476566  0.373384  1
  Pr  Pr15  1  0.870626  0.019513  0.375883  1
  Pr  Pr16  1  0.983481  0.128396  0.124350  1
  Pr  Pr17  1  0.013107  0.863664  0.619898  1
  Er  Er18  1  0.312340  0.311991  0.999857  1
  Er  Er19  1  0.186346  0.809907  0.249313  1
  Si  Si20  1  0.330194  0.693923  0.953283  1
  Si  Si21  1  0.661490  0.304445  0.453301  1
  Si  Si22  1  0.698716  0.333767  0.050266  1
  Si  Si23  1  0.304142  0.667383  0.548031  1
  Si  Si24  1  0.807618  0.830214  0.203304  1
  Si  Si25  1  0.169514  0.190160  0.295062  1
  Si  Si26  1  0.843114  0.805394  0.797629  1
  Si  Si27  1  0.286971  0.923942  0.061959  1
  Si  Si28  1  0.572162  0.786569  0.307455  1
  Si  Si29  1  0.447876  0.212298  0.829832  1
  Si  Si30  1  0.790775  0.576667  0.688798  1
  Si  Si31  1  0.212084  0.425179  0.188013  1
  Si  Si32  1  0.703892  0.074905  0.560759  1
  Si  Si33  1  0.932442  0.291615  0.941489  1
  Si  Si34  1  0.079035  0.712450  0.435918  1
  Br  Br35  1  0.162648  0.181124  0.688109  1
