# generated using pymatgen
data_Lu16Cd4PdRh3
_symmetry_space_group_name_H-M   'P 1'
_cell_length_a   9.45265150
_cell_length_b   9.44915683
_cell_length_c   9.45461766
_cell_angle_alpha   60.01167372
_cell_angle_beta   60.03158626
_cell_angle_gamma   60.01135942
_symmetry_Int_Tables_number   1
_chemical_formula_structural   Lu16Cd4PdRh3
_chemical_formula_sum   'Lu16 Cd4 Pd1 Rh3'
_cell_volume   597.38574441
_cell_formula_units_Z   1
loop_
 _symmetry_equiv_pos_site_id
 _symmetry_equiv_pos_as_xyz
  1  'x, y, z'
loop_
 _atom_site_type_symbol
 _atom_site_label
 _atom_site_symmetry_multiplicity
 _atom_site_fract_x
 _atom_site_fract_y
 _atom_site_fract_z
 _atom_site_occupancy
  Lu  Lu0  1  0.597170  0.603787  0.603926  1
  Lu  Lu1  1  0.597581  0.603879  0.194444  1
  Lu  Lu2  1  0.597360  0.194945  0.604008  1
  Lu  Lu3  1  0.202210  0.599232  0.599459  1
  Lu  Lu4  1  0.065047  0.439063  0.439094  1
  Lu  Lu5  1  0.438085  0.061434  0.061647  1
  Lu  Lu6  1  0.437971  0.061619  0.438701  1
  Lu  Lu7  1  0.064912  0.439091  0.056845  1
  Lu  Lu8  1  0.437910  0.438733  0.061887  1
  Lu  Lu9  1  0.065121  0.056878  0.438949  1
  Lu  Lu10  1  0.185080  0.814510  0.814502  1
  Lu  Lu11  1  0.812313  0.185881  0.185848  1
  Lu  Lu12  1  0.812266  0.185907  0.815963  1
  Lu  Lu13  1  0.185253  0.814436  0.185973  1
  Lu  Lu14  1  0.812324  0.815936  0.185856  1
  Lu  Lu15  1  0.185212  0.185884  0.814432  1
  Cd  Cd16  1  0.832839  0.831104  0.830941  1
  Cd  Cd17  1  0.832602  0.831122  0.504973  1
  Cd  Cd18  1  0.832656  0.505100  0.830913  1
  Cd  Cd19  1  0.502698  0.832305  0.832382  1
  Pd  Pd20  1  0.818885  0.394016  0.393926  1
  Rh  Rh21  1  0.394624  0.392874  0.392495  1
  Rh  Rh22  1  0.394804  0.391999  0.821417  1
  Rh  Rh23  1  0.395077  0.820267  0.391418  1
