# generated using pymatgen
data_Tb2Ho6Sc12Si15Tc
_symmetry_space_group_name_H-M   'P 1'
_cell_length_a   7.08397473
_cell_length_b   7.44430695
_cell_length_c   13.93355407
_cell_angle_alpha   90.04414285
_cell_angle_beta   89.99195353
_cell_angle_gamma   90.16680741
_symmetry_Int_Tables_number   1
_chemical_formula_structural   Tb2Ho6Sc12Si15Tc
_chemical_formula_sum   'Tb2 Ho6 Sc12 Si15 Tc1'
_cell_volume   734.78656858
_cell_formula_units_Z   1
loop_
 _symmetry_equiv_pos_site_id
 _symmetry_equiv_pos_as_xyz
  1  'x, y, z'
loop_
 _atom_site_type_symbol
 _atom_site_label
 _atom_site_symmetry_multiplicity
 _atom_site_fract_x
 _atom_site_fract_y
 _atom_site_fract_z
 _atom_site_occupancy
  Tb  Tb0  1  0.511125  0.323599  0.404218  1
  Tb  Tb1  1  0.489177  0.675240  0.595752  1
  Ho  Ho2  1  0.011819  0.179127  0.095367  1
  Ho  Ho3  1  0.990632  0.826614  0.904704  1
  Ho  Ho4  1  0.489147  0.676068  0.904028  1
  Ho  Ho5  1  0.990595  0.826807  0.595984  1
  Ho  Ho6  1  0.511146  0.322931  0.095883  1
  Ho  Ho7  1  0.011579  0.179038  0.404042  1
  Sc  Sc8  1  0.156757  0.499335  0.750206  1
  Sc  Sc9  1  0.838411  0.495182  0.249753  1
  Sc  Sc10  1  0.338973  0.006105  0.249739  1
  Sc  Sc11  1  0.667102  0.998139  0.750255  1
  Sc  Sc12  1  0.314931  0.170269  0.628315  1
  Sc  Sc13  1  0.672913  0.827282  0.373625  1
  Sc  Sc14  1  0.171782  0.678618  0.373474  1
  Sc  Sc15  1  0.672624  0.826562  0.125948  1
  Sc  Sc16  1  0.837786  0.319543  0.627538  1
  Sc  Sc17  1  0.315242  0.170948  0.872119  1
  Sc  Sc18  1  0.837697  0.319285  0.872895  1
  Sc  Sc19  1  0.171848  0.678426  0.126068  1
  Si  Si20  1  0.969092  0.886564  0.249707  1
  Si  Si21  1  0.470457  0.614498  0.249646  1
  Si  Si22  1  0.529342  0.387102  0.750442  1
  Si  Si23  1  0.285601  0.865669  0.750562  1
  Si  Si24  1  0.714280  0.130144  0.249474  1
  Si  Si25  1  0.214292  0.370417  0.249416  1
  Si  Si26  1  0.780325  0.628136  0.750678  1
  Si  Si27  1  0.159414  0.468248  0.536762  1
  Si  Si28  1  0.845765  0.536826  0.461378  1
  Si  Si29  1  0.343894  0.965758  0.459851  1
  Si  Si30  1  0.844319  0.536099  0.038604  1
  Si  Si31  1  0.655269  0.034119  0.539062  1
  Si  Si32  1  0.160859  0.468751  0.963066  1
  Si  Si33  1  0.654867  0.033857  0.960990  1
  Si  Si34  1  0.344293  0.965959  0.040188  1
  Tc  Tc35  1  0.026642  0.108732  0.750261  1
