# generated using pymatgen
data_Ti8Al15CoPt6
_symmetry_space_group_name_H-M   'P 1'
_cell_length_a   8.66913884
_cell_length_b   8.66913986
_cell_length_c   8.66913902
_cell_angle_alpha   120.30245820
_cell_angle_beta   119.73391988
_cell_angle_gamma   89.96920688
_symmetry_Int_Tables_number   1
_chemical_formula_structural   Ti8Al15CoPt6
_chemical_formula_sum   'Ti8 Al15 Co1 Pt6'
_cell_volume   460.55348274
_cell_formula_units_Z   1
loop_
 _symmetry_equiv_pos_site_id
 _symmetry_equiv_pos_as_xyz
  1  'x, y, z'
loop_
 _atom_site_type_symbol
 _atom_site_label
 _atom_site_symmetry_multiplicity
 _atom_site_fract_x
 _atom_site_fract_y
 _atom_site_fract_z
 _atom_site_occupancy
  Ti  Ti0  1  0.786994  0.290564  0.077945  1
  Ti  Ti1  1  0.212619  0.290564  0.503570  1
  Ti  Ti2  1  0.212496  0.712496  0.500000  1
  Ti  Ti3  1  0.212619  0.709049  0.922055  1
  Ti  Ti4  1  0.786994  0.709049  0.496430  1
  Ti  Ti5  1  0.789950  0.289950  0.500000  1
  Ti  Ti6  1  0.383062  0.117698  0.734636  1
  Ti  Ti7  1  0.383062  0.648427  0.265364  1
  Al  Al8  1  0.001355  0.501355  0.500000  1
  Al  Al9  1  0.156840  0.346988  0.190148  1
  Al  Al10  1  0.156840  0.966692  0.809852  1
  Al  Al11  1  0.159393  0.342688  0.816704  1
  Al  Al12  1  0.525983  0.342688  0.183296  1
  Al  Al13  1  0.844875  0.655933  0.811059  1
  Al  Al14  1  0.844875  0.033816  0.188941  1
  Al  Al15  1  0.844907  0.655899  0.189007  1
  Al  Al16  1  0.466891  0.655899  0.810993  1
  Al  Al17  1  0.382866  0.116819  0.266048  1
  Al  Al18  1  0.850772  0.116819  0.733952  1
  Al  Al19  1  0.617873  0.881785  0.263912  1
  Al  Al20  1  0.617873  0.353961  0.736088  1
  Al  Al21  1  0.619001  0.881672  0.737330  1
  Al  Al22  1  0.144341  0.881672  0.262670  1
  Co  Co23  1  0.497205  0.997205  0.500000  1
  Pt  Pt24  1  0.996791  0.999940  0.498631  1
  Pt  Pt25  1  0.501310  0.999940  0.003149  1
  Pt  Pt26  1  0.502387  0.502387  0.000000  1
  Pt  Pt27  1  0.501310  0.498161  0.501369  1
  Pt  Pt28  1  0.996791  0.498161  0.996851  1
  Pt  Pt29  1  0.001724  0.001724  0.000000  1
