# generated using pymatgen
data_Pr5Sn2BiP
_symmetry_space_group_name_H-M   'P 1'
_cell_length_a   9.52507595
_cell_length_b   9.54189074
_cell_length_c   7.02499700
_cell_angle_alpha   90.00000000
_cell_angle_beta   90.00000000
_cell_angle_gamma   120.05840557
_symmetry_Int_Tables_number   1
_chemical_formula_structural   Pr5Sn2BiP
_chemical_formula_sum   'Pr10 Sn4 Bi2 P2'
_cell_volume   552.61639307
_cell_formula_units_Z   2
loop_
 _symmetry_equiv_pos_site_id
 _symmetry_equiv_pos_as_xyz
  1  'x, y, z'
loop_
 _atom_site_type_symbol
 _atom_site_label
 _atom_site_symmetry_multiplicity
 _atom_site_fract_x
 _atom_site_fract_y
 _atom_site_fract_z
 _atom_site_occupancy
  Pr  Pr0  1  0.670418  0.336247  0.003816  1
  Pr  Pr1  1  0.329582  0.665830  0.003816  1
  Pr  Pr2  1  0.329582  0.665830  0.496184  1
  Pr  Pr3  1  0.670418  0.336247  0.496184  1
  Pr  Pr4  1  0.763819  0.759720  0.750000  1
  Pr  Pr5  1  0.236181  0.995900  0.750000  1
  Pr  Pr6  1  0.000000  0.239739  0.750000  1
  Pr  Pr7  1  0.238900  0.238420  0.250000  1
  Pr  Pr8  1  0.761100  0.999520  0.250000  1
  Pr  Pr9  1  0.000000  0.761084  0.250000  1
  Sn  Sn10  1  0.000000  0.599929  0.750000  1
  Sn  Sn11  1  0.600388  0.600748  0.250000  1
  Sn  Sn12  1  0.399612  0.000360  0.250000  1
  Sn  Sn13  1  0.000000  0.399612  0.250000  1
  Bi  Bi14  1  0.399196  0.399192  0.750000  1
  Bi  Bi15  1  0.600804  0.999997  0.750000  1
  P  P16  1  0.000000  0.000813  0.999064  1
  P  P17  1  0.000000  0.000813  0.500936  1
