# generated using pymatgen
data_Tc3Rh4
_symmetry_space_group_name_H-M   'P 1'
_cell_length_a   7.31142913
_cell_length_b   7.31134219
_cell_length_c   4.33852200
_cell_angle_alpha   90.00000000
_cell_angle_beta   90.00000000
_cell_angle_gamma   59.99692185
_symmetry_Int_Tables_number   1
_chemical_formula_structural   Tc3Rh4
_chemical_formula_sum   'Tc6 Rh8'
_cell_volume   200.84376279
_cell_formula_units_Z   2
loop_
 _symmetry_equiv_pos_site_id
 _symmetry_equiv_pos_as_xyz
  1  'x, y, z'
loop_
 _atom_site_type_symbol
 _atom_site_label
 _atom_site_symmetry_multiplicity
 _atom_site_fract_x
 _atom_site_fract_y
 _atom_site_fract_z
 _atom_site_occupancy
  Tc  Tc0  1  0.708371  0.436729  0.000000  1
  Tc  Tc1  1  0.293902  0.569175  0.000000  1
  Tc  Tc2  1  0.426279  0.851224  0.000000  1
  Tc  Tc3  1  0.526096  0.386844  0.500000  1
  Tc  Tc4  1  0.658488  0.668900  0.500000  1
  Tc  Tc5  1  0.243979  0.801373  0.500000  1
  Rh  Rh6  1  0.573073  0.140565  0.000000  1
  Rh  Rh7  1  0.142858  0.285718  0.000000  1
  Rh  Rh8  1  0.857714  0.715932  0.000000  1
  Rh  Rh9  1  0.997631  0.000632  0.000000  1
  Rh  Rh10  1  0.379355  0.097456  0.500000  1
  Rh  Rh11  1  0.954653  0.237448  0.500000  1
  Rh  Rh12  1  0.094654  0.522202  0.500000  1
  Rh  Rh13  1  0.809506  0.952371  0.500000  1
