# generated using pymatgen
data_LaNd3(Ni2Ir)2
_symmetry_space_group_name_H-M   'P 1'
_cell_length_a   5.47650560
_cell_length_b   5.47650523
_cell_length_c   8.11777039
_cell_angle_alpha   89.74696835
_cell_angle_beta   90.25303008
_cell_angle_gamma   125.45306154
_symmetry_Int_Tables_number   1
_chemical_formula_structural   LaNd3(Ni2Ir)2
_chemical_formula_sum   'La1 Nd3 Ni4 Ir2'
_cell_volume   198.32526361
_cell_formula_units_Z   1
loop_
 _symmetry_equiv_pos_site_id
 _symmetry_equiv_pos_as_xyz
  1  'x, y, z'
loop_
 _atom_site_type_symbol
 _atom_site_label
 _atom_site_symmetry_multiplicity
 _atom_site_fract_x
 _atom_site_fract_y
 _atom_site_fract_z
 _atom_site_occupancy
  La  La0  1  0.344106  0.655894  0.904054  1
  Nd  Nd1  1  0.844968  0.155032  0.593036  1
  Nd  Nd2  1  0.155529  0.844471  0.405170  1
  Nd  Nd3  1  0.655290  0.344710  0.095481  1
  Ni  Ni4  1  0.844315  0.655573  0.749835  1
  Ni  Ni5  1  0.655996  0.844777  0.251157  1
  Ni  Ni6  1  0.344427  0.155685  0.749835  1
  Ni  Ni7  1  0.155223  0.344004  0.251157  1
  Ir  Ir8  1  0.500611  0.499389  0.499332  1
  Ir  Ir9  1  0.999535  0.000465  0.000944  1
