# generated using pymatgen
data_Ce4Cd(FeB3)2
_symmetry_space_group_name_H-M   'P 1'
_cell_length_a   5.28818120
_cell_length_b   5.28818069
_cell_length_c   8.38263987
_cell_angle_alpha   71.61355605
_cell_angle_beta   71.61355538
_cell_angle_gamma   59.99999734
_symmetry_Int_Tables_number   1
_chemical_formula_structural   Ce4Cd(FeB3)2
_chemical_formula_sum   'Ce4 Cd1 Fe2 B6'
_cell_volume   189.06864927
_cell_formula_units_Z   1
loop_
 _symmetry_equiv_pos_site_id
 _symmetry_equiv_pos_as_xyz
  1  'x, y, z'
loop_
 _atom_site_type_symbol
 _atom_site_label
 _atom_site_symmetry_multiplicity
 _atom_site_fract_x
 _atom_site_fract_y
 _atom_site_fract_z
 _atom_site_occupancy
  Ce  Ce0  1  0.254258  0.254258  0.237225  1
  Ce  Ce1  1  0.745742  0.745742  0.762775  1
  Ce  Ce2  1  0.412628  0.412628  0.762116  1
  Ce  Ce3  1  0.587372  0.587372  0.237885  1
  Cd  Cd4  1  0.000000  0.000000  0.000000  1
  Fe  Fe5  1  0.117383  0.117383  0.647852  1
  Fe  Fe6  1  0.882617  0.882617  0.352148  1
  B  B7  1  0.168363  0.831637  0.500000  1
  B  B8  1  0.831637  0.500000  0.500000  1
  B  B9  1  0.500000  0.168363  0.500000  1
  B  B10  1  0.168363  0.500000  0.500000  1
  B  B11  1  0.500000  0.831637  0.500000  1
  B  B12  1  0.831637  0.168363  0.500000  1
