# generated using pymatgen
data_Pr2Nd4OsRuI6
_symmetry_space_group_name_H-M   'P 1'
_cell_length_a   4.33969000
_cell_length_b   9.37393529
_cell_length_c   12.65048630
_cell_angle_alpha   87.23001638
_cell_angle_beta   90.00000000
_cell_angle_gamma   90.00000000
_symmetry_Int_Tables_number   1
_chemical_formula_structural   Pr2Nd4OsRuI6
_chemical_formula_sum   'Pr2 Nd4 Os1 Ru1 I6'
_cell_volume   514.02015604
_cell_formula_units_Z   1
loop_
 _symmetry_equiv_pos_site_id
 _symmetry_equiv_pos_as_xyz
  1  'x, y, z'
loop_
 _atom_site_type_symbol
 _atom_site_label
 _atom_site_symmetry_multiplicity
 _atom_site_fract_x
 _atom_site_fract_y
 _atom_site_fract_z
 _atom_site_occupancy
  Pr  Pr0  1  0.750000  0.114611  0.670404  1
  Pr  Pr1  1  0.750000  0.097784  0.109533  1
  Nd  Nd2  1  0.750000  0.693046  0.117586  1
  Nd  Nd3  1  0.250000  0.307581  0.882310  1
  Nd  Nd4  1  0.250000  0.884247  0.330241  1
  Nd  Nd5  1  0.250000  0.902472  0.891242  1
  Os  Os6  1  0.250000  0.890787  0.118717  1
  Ru  Ru7  1  0.750000  0.108820  0.879763  1
  I  I8  1  0.250000  0.865972  0.617546  1
  I  I9  1  0.750000  0.130647  0.382785  1
  I  I10  1  0.750000  0.636129  0.374445  1
  I  I11  1  0.250000  0.366112  0.626196  1
  I  I12  1  0.250000  0.398714  0.132541  1
  I  I13  1  0.750000  0.603076  0.866691  1
