# generated using pymatgen
data_Tm4VZnRu6
_symmetry_space_group_name_H-M   'P 1'
_cell_length_a   5.32550300
_cell_length_b   5.12740744
_cell_length_c   8.82378200
_cell_angle_alpha   90.00000000
_cell_angle_beta   90.00000000
_cell_angle_gamma   121.17704236
_symmetry_Int_Tables_number   1
_chemical_formula_structural   Tm4VZnRu6
_chemical_formula_sum   'Tm4 V1 Zn1 Ru6'
_cell_volume   206.14351325
_cell_formula_units_Z   1
loop_
 _symmetry_equiv_pos_site_id
 _symmetry_equiv_pos_as_xyz
  1  'x, y, z'
loop_
 _atom_site_type_symbol
 _atom_site_label
 _atom_site_symmetry_multiplicity
 _atom_site_fract_x
 _atom_site_fract_y
 _atom_site_fract_z
 _atom_site_occupancy
  Tm  Tm0  1  0.671358  0.342572  0.564949  1
  Tm  Tm1  1  0.332046  0.664225  0.433850  1
  Tm  Tm2  1  0.332046  0.664225  0.066150  1
  Tm  Tm3  1  0.671358  0.342572  0.935051  1
  V  V4  1  0.156291  0.312242  0.750000  1
  Zn  Zn5  1  0.834996  0.669791  0.250000  1
  Ru  Ru6  1  0.010835  0.022048  0.502155  1
  Ru  Ru7  1  0.010835  0.022048  0.997845  1
  Ru  Ru8  1  0.173183  0.815312  0.750000  1
  Ru  Ru9  1  0.643534  0.815489  0.750000  1
  Ru  Ru10  1  0.818526  0.164453  0.250000  1
  Ru  Ru11  1  0.344994  0.165020  0.250000  1
