# generated using pymatgen
data_TiNb3Ga2(B2Ru5)2
_symmetry_space_group_name_H-M   'P 1'
_cell_length_a   9.31650344
_cell_length_b   9.31650344
_cell_length_c   2.98734600
_cell_angle_alpha   90.00000000
_cell_angle_beta   90.00000000
_cell_angle_gamma   89.70230649
_symmetry_Int_Tables_number   1
_chemical_formula_structural   TiNb3Ga2(B2Ru5)2
_chemical_formula_sum   'Ti1 Nb3 Ga2 B4 Ru10'
_cell_volume   259.28987682
_cell_formula_units_Z   1
loop_
 _symmetry_equiv_pos_site_id
 _symmetry_equiv_pos_as_xyz
  1  'x, y, z'
loop_
 _atom_site_type_symbol
 _atom_site_label
 _atom_site_symmetry_multiplicity
 _atom_site_fract_x
 _atom_site_fract_y
 _atom_site_fract_z
 _atom_site_occupancy
  Ti  Ti0  1  0.824201  0.675799  0.000000  1
  Nb  Nb1  1  0.174577  0.325423  0.000000  1
  Nb  Nb2  1  0.324269  0.823284  0.000000  1
  Nb  Nb3  1  0.676716  0.175731  0.000000  1
  Ga  Ga4  1  0.499816  0.500219  0.000000  1
  Ga  Ga5  1  0.999781  0.000184  0.000000  1
  B  B6  1  0.626760  0.873240  0.000000  1
  B  B7  1  0.374933  0.125067  0.000000  1
  B  B8  1  0.123413  0.624942  0.000000  1
  B  B9  1  0.875058  0.376587  0.000000  1
  Ru  Ru10  1  0.571084  0.713663  0.500000  1
  Ru  Ru11  1  0.431704  0.284894  0.500000  1
  Ru  Ru12  1  0.069131  0.785900  0.500000  1
  Ru  Ru13  1  0.931665  0.215558  0.500000  1
  Ru  Ru14  1  0.284442  0.568335  0.500000  1
  Ru  Ru15  1  0.714100  0.430869  0.500000  1
  Ru  Ru16  1  0.215106  0.068296  0.500000  1
  Ru  Ru17  1  0.786337  0.928916  0.500000  1
  Ru  Ru18  1  0.500740  0.999260  0.500000  1
  Ru  Ru19  1  0.996164  0.503836  0.500000  1
