# generated using pymatgen
data_Nd2ZnAg3
_symmetry_space_group_name_H-M   'P 1'
_cell_length_a   5.89401623
_cell_length_b   5.95758309
_cell_length_c   5.95758247
_cell_angle_alpha   132.42799988
_cell_angle_beta   105.48018741
_cell_angle_gamma   93.55119639
_symmetry_Int_Tables_number   1
_chemical_formula_structural   Nd2ZnAg3
_chemical_formula_sum   'Nd2 Zn1 Ag3'
_cell_volume   139.93373742
_cell_formula_units_Z   1
loop_
 _symmetry_equiv_pos_site_id
 _symmetry_equiv_pos_as_xyz
  1  'x, y, z'
loop_
 _atom_site_type_symbol
 _atom_site_label
 _atom_site_symmetry_multiplicity
 _atom_site_fract_x
 _atom_site_fract_y
 _atom_site_fract_z
 _atom_site_occupancy
  Nd  Nd0  1  0.713662  0.963639  0.750022  1
  Nd  Nd1  1  0.282105  0.034614  0.247490  1
  Zn  Zn2  1  0.710555  0.668924  0.041631  1
  Ag  Ag3  1  0.310149  0.344990  0.965160  1
  Ag  Ag4  1  0.862256  0.324268  0.537989  1
  Ag  Ag5  1  0.121273  0.663564  0.457708  1
