# generated using pymatgen
data_Cr7Re6
_symmetry_space_group_name_H-M   'P 1'
_cell_length_a   4.73036746
_cell_length_b   4.73036615
_cell_length_c   9.22379655
_cell_angle_alpha   75.14214230
_cell_angle_beta   75.14213646
_cell_angle_gamma   60.00000421
_symmetry_Int_Tables_number   1
_chemical_formula_structural   Cr7Re6
_chemical_formula_sum   'Cr7 Re6'
_cell_volume   170.72851519
_cell_formula_units_Z   1
loop_
 _symmetry_equiv_pos_site_id
 _symmetry_equiv_pos_as_xyz
  1  'x, y, z'
loop_
 _atom_site_type_symbol
 _atom_site_label
 _atom_site_symmetry_multiplicity
 _atom_site_fract_x
 _atom_site_fract_y
 _atom_site_fract_z
 _atom_site_occupancy
  Cr  Cr0  1  0.000000  0.000000  0.000000  1
  Cr  Cr1  1  0.908242  0.411277  0.772239  1
  Cr  Cr2  1  0.411277  0.908242  0.772239  1
  Cr  Cr3  1  0.908242  0.908242  0.772239  1
  Cr  Cr4  1  0.091758  0.588723  0.227761  1
  Cr  Cr5  1  0.588723  0.091758  0.227761  1
  Cr  Cr6  1  0.091758  0.091758  0.227761  1
  Re  Re7  1  0.833104  0.833104  0.500688  1
  Re  Re8  1  0.166896  0.166896  0.499312  1
  Re  Re9  1  0.652020  0.652020  0.043941  1
  Re  Re10  1  0.347980  0.347980  0.956059  1
  Re  Re11  1  0.548044  0.548044  0.355867  1
  Re  Re12  1  0.451956  0.451956  0.644133  1
