# generated using pymatgen
data_ZrPa4Ga15
_symmetry_space_group_name_H-M   'P 1'
_cell_length_a   12.49291470
_cell_length_b   12.49291426
_cell_length_c   12.49291200
_cell_angle_alpha   28.46327001
_cell_angle_beta   28.46327375
_cell_angle_gamma   28.46326866
_symmetry_Int_Tables_number   1
_chemical_formula_structural   ZrPa4Ga15
_chemical_formula_sum   'Zr1 Pa4 Ga15'
_cell_volume   391.42812753
_cell_formula_units_Z   1
loop_
 _symmetry_equiv_pos_site_id
 _symmetry_equiv_pos_as_xyz
  1  'x, y, z'
loop_
 _atom_site_type_symbol
 _atom_site_label
 _atom_site_symmetry_multiplicity
 _atom_site_fract_x
 _atom_site_fract_y
 _atom_site_fract_z
 _atom_site_occupancy
  Zr  Zr0  1  0.599859  0.599859  0.599859  1
  Pa  Pa1  1  0.132011  0.132011  0.132011  1
  Pa  Pa2  1  0.870262  0.870262  0.870262  1
  Pa  Pa3  1  0.399323  0.399323  0.399323  1
  Pa  Pa4  1  0.998400  0.998400  0.998400  1
  Ga  Ga5  1  0.430334  0.883521  0.883521  1
  Ga  Ga6  1  0.883521  0.883521  0.430334  1
  Ga  Ga7  1  0.883521  0.430334  0.883521  1
  Ga  Ga8  1  0.118217  0.564746  0.118217  1
  Ga  Ga9  1  0.118217  0.118217  0.564746  1
  Ga  Ga10  1  0.564746  0.118217  0.118217  1
  Ga  Ga11  1  0.129452  0.636267  0.636267  1
  Ga  Ga12  1  0.636267  0.636267  0.129452  1
  Ga  Ga13  1  0.636267  0.129452  0.636267  1
  Ga  Ga14  1  0.367479  0.869552  0.367479  1
  Ga  Ga15  1  0.367479  0.367479  0.869552  1
  Ga  Ga16  1  0.869552  0.367479  0.367479  1
  Ga  Ga17  1  0.500724  0.500724  0.993645  1
  Ga  Ga18  1  0.500724  0.993645  0.500724  1
  Ga  Ga19  1  0.993645  0.500724  0.500724  1
