# generated using pymatgen
data_Li29AlSi7Hg
_symmetry_space_group_name_H-M   'P 1'
_cell_length_a   9.20118178
_cell_length_b   9.22988126
_cell_length_c   9.28417803
_cell_angle_alpha   109.51085596
_cell_angle_beta   110.34626141
_cell_angle_gamma   109.41211483
_symmetry_Int_Tables_number   1
_chemical_formula_structural   Li29AlSi7Hg
_chemical_formula_sum   'Li29 Al1 Si7 Hg1'
_cell_volume   600.43130481
_cell_formula_units_Z   1
loop_
 _symmetry_equiv_pos_site_id
 _symmetry_equiv_pos_as_xyz
  1  'x, y, z'
loop_
 _atom_site_type_symbol
 _atom_site_label
 _atom_site_symmetry_multiplicity
 _atom_site_fract_x
 _atom_site_fract_y
 _atom_site_fract_z
 _atom_site_occupancy
  Li  Li0  1  0.118100  0.745452  0.872673  1
  Li  Li1  1  0.728514  0.354668  0.813814  1
  Li  Li2  1  0.614373  0.763175  0.588947  1
  Li  Li3  1  0.037580  0.917482  0.694244  1
  Li  Li4  1  0.084630  0.270368  0.108434  1
  Li  Li5  1  0.916038  0.695734  0.032769  1
  Li  Li6  1  0.270809  0.110744  0.083901  1
  Li  Li7  1  0.198554  0.425409  0.536479  1
  Li  Li8  1  0.777463  0.583652  0.620128  1
  Li  Li9  1  0.696987  0.029009  0.926799  1
  Li  Li10  1  0.530822  0.191395  0.408594  1
  Li  Li11  1  0.622336  0.380603  0.250438  1
  Li  Li12  1  0.469747  0.170312  0.898870  1
  Li  Li13  1  0.891794  0.126626  0.754501  1
  Li  Li14  1  0.974946  0.382673  0.661747  1
  Li  Li15  1  0.411713  0.528058  0.188970  1
  Li  Li16  1  0.114816  0.090700  0.277211  1
  Li  Li17  1  0.301402  0.834585  0.207787  1
  Li  Li18  1  0.755197  0.872617  0.124940  1
  Li  Li19  1  0.887026  0.475372  0.163068  1
  Li  Li20  1  0.579555  0.619807  0.775807  1
  Li  Li21  1  0.384796  0.657288  0.963602  1
  Li  Li22  1  0.802192  0.726616  0.340594  1
  Li  Li23  1  0.659089  0.960512  0.369676  1
  Li  Li24  1  0.145450  0.881991  0.465517  1
  Li  Li25  1  0.230290  0.311819  0.841962  1
  Li  Li26  1  0.369044  0.263286  0.630516  1
  Li  Li27  1  0.844845  0.223801  0.308432  1
  Li  Li28  1  0.241052  0.603732  0.368387  1
  Al  Al29  1  0.339494  0.810597  0.732937  1
  Si  Si30  1  0.586954  0.501848  0.000297  1
  Si  Si31  1  0.493048  0.994548  0.074710  1
  Si  Si32  1  0.000947  0.088492  0.499590  1
  Si  Si33  1  0.007795  0.591000  0.506615  1
  Si  Si34  1  0.082287  0.495732  0.996714  1
  Si  Si35  1  0.416609  0.410518  0.411342  1
  Si  Si36  1  0.916587  0.916393  0.913640  1
  Hg  Hg37  1  0.497118  0.993385  0.585349  1
