# generated using pymatgen
data_Dy8Lu12Si15Bi
_symmetry_space_group_name_H-M   'P 1'
_cell_length_a   7.40325876
_cell_length_b   7.60777933
_cell_length_c   14.43560708
_cell_angle_alpha   90.07641073
_cell_angle_beta   87.15623222
_cell_angle_gamma   90.14308227
_symmetry_Int_Tables_number   1
_chemical_formula_structural   Dy8Lu12Si15Bi
_chemical_formula_sum   'Dy8 Lu12 Si15 Bi1'
_cell_volume   812.04307173
_cell_formula_units_Z   1
loop_
 _symmetry_equiv_pos_site_id
 _symmetry_equiv_pos_as_xyz
  1  'x, y, z'
loop_
 _atom_site_type_symbol
 _atom_site_label
 _atom_site_symmetry_multiplicity
 _atom_site_fract_x
 _atom_site_fract_y
 _atom_site_fract_z
 _atom_site_occupancy
  Dy  Dy0  1  0.017363  0.180079  0.097934  1
  Dy  Dy1  1  0.982887  0.821188  0.902307  1
  Dy  Dy2  1  0.483633  0.679001  0.902273  1
  Dy  Dy3  1  0.998444  0.829502  0.600148  1
  Dy  Dy4  1  0.517527  0.320334  0.099080  1
  Dy  Dy5  1  0.995609  0.173102  0.398554  1
  Dy  Dy6  1  0.509575  0.314522  0.396673  1
  Dy  Dy7  1  0.515672  0.687110  0.602811  1
  Lu  Lu8  1  0.167079  0.504649  0.754517  1
  Lu  Lu9  1  0.831167  0.494276  0.252547  1
  Lu  Lu10  1  0.331162  0.007751  0.251772  1
  Lu  Lu11  1  0.671644  0.993800  0.750191  1
  Lu  Lu12  1  0.354711  0.151957  0.627294  1
  Lu  Lu13  1  0.650213  0.830224  0.376714  1
  Lu  Lu14  1  0.145844  0.682256  0.370048  1
  Lu  Lu15  1  0.670584  0.821829  0.122167  1
  Lu  Lu16  1  0.833735  0.329393  0.624194  1
  Lu  Lu17  1  0.327424  0.175985  0.877267  1
  Lu  Lu18  1  0.827043  0.323046  0.877178  1
  Lu  Lu19  1  0.171418  0.677806  0.123166  1
  Si  Si20  1  0.040336  0.115524  0.751801  1
  Si  Si21  1  0.956251  0.890801  0.245486  1
  Si  Si22  1  0.458035  0.611420  0.247498  1
  Si  Si23  1  0.537387  0.388432  0.752870  1
  Si  Si24  1  0.291866  0.864571  0.754279  1
  Si  Si25  1  0.711500  0.128561  0.245739  1
  Si  Si26  1  0.210289  0.371620  0.247507  1
  Si  Si27  1  0.793049  0.631796  0.752740  1
  Si  Si28  1  0.801250  0.536972  0.456707  1
  Si  Si29  1  0.307375  0.965833  0.457139  1
  Si  Si30  1  0.848980  0.530594  0.040383  1
  Si  Si31  1  0.693626  0.035116  0.541795  1
  Si  Si32  1  0.150166  0.469127  0.960698  1
  Si  Si33  1  0.650248  0.030700  0.959964  1
  Si  Si34  1  0.348577  0.970381  0.040958  1
  Bi  Bi35  1  0.198331  0.460744  0.537603  1
