# generated using pymatgen
data_MgTa5(NbN3)4
_symmetry_space_group_name_H-M   'P 1'
_cell_length_a   5.26106366
_cell_length_b   5.24938373
_cell_length_c   10.35937171
_cell_angle_alpha   90.08287142
_cell_angle_beta   89.95865197
_cell_angle_gamma   119.92660375
_symmetry_Int_Tables_number   1
_chemical_formula_structural   MgTa5(NbN3)4
_chemical_formula_sum   'Mg1 Ta5 Nb4 N12'
_cell_volume   247.95118964
_cell_formula_units_Z   1
loop_
 _symmetry_equiv_pos_site_id
 _symmetry_equiv_pos_as_xyz
  1  'x, y, z'
loop_
 _atom_site_type_symbol
 _atom_site_label
 _atom_site_symmetry_multiplicity
 _atom_site_fract_x
 _atom_site_fract_y
 _atom_site_fract_z
 _atom_site_occupancy
  Mg  Mg0  1  0.330945  0.665473  0.500000  1
  Ta  Ta1  1  0.667379  0.333689  0.000000  1
  Ta  Ta2  1  0.666424  0.333211  0.500000  1
  Ta  Ta3  1  0.331562  0.665781  0.000000  1
  Ta  Ta4  1  0.677319  0.995955  0.749322  1
  Ta  Ta5  1  0.677319  0.681364  0.250678  1
  Nb  Nb6  1  0.003546  0.323778  0.249098  1
  Nb  Nb7  1  0.003546  0.679768  0.750902  1
  Nb  Nb8  1  0.320343  0.323337  0.750946  1
  Nb  Nb9  1  0.320343  0.997006  0.249054  1
  N  N10  1  0.355665  0.348441  0.374834  1
  N  N11  1  0.656175  0.003825  0.375121  1
  N  N12  1  0.988780  0.649336  0.375271  1
  N  N13  1  0.995698  0.336250  0.881074  1
  N  N14  1  0.658963  0.997102  0.118855  1
  N  N15  1  0.658963  0.661861  0.881145  1
  N  N16  1  0.345358  0.000344  0.880441  1
  N  N17  1  0.656175  0.652350  0.624879  1
  N  N18  1  0.988780  0.339444  0.624729  1
  N  N19  1  0.995698  0.659448  0.118926  1
  N  N20  1  0.355665  0.007224  0.625166  1
  N  N21  1  0.345358  0.345013  0.119559  1
