# generated using pymatgen
data_Sr10SnSb5
_symmetry_space_group_name_H-M   'P 1'
_cell_length_a   9.65369400
_cell_length_b   9.66805604
_cell_length_c   7.44980400
_cell_angle_alpha   90.00000000
_cell_angle_beta   90.00000000
_cell_angle_gamma   119.95087171
_symmetry_Int_Tables_number   1
_chemical_formula_structural   Sr10SnSb5
_chemical_formula_sum   'Sr10 Sn1 Sb5'
_cell_volume   602.45269395
_cell_formula_units_Z   1
loop_
 _symmetry_equiv_pos_site_id
 _symmetry_equiv_pos_as_xyz
  1  'x, y, z'
loop_
 _atom_site_type_symbol
 _atom_site_label
 _atom_site_symmetry_multiplicity
 _atom_site_fract_x
 _atom_site_fract_y
 _atom_site_fract_z
 _atom_site_occupancy
  Sr  Sr0  1  0.335476  0.668358  0.001086  1
  Sr  Sr1  1  0.667120  0.331642  0.498914  1
  Sr  Sr2  1  0.667120  0.331642  0.001086  1
  Sr  Sr3  1  0.335476  0.668358  0.498914  1
  Sr  Sr4  1  0.265287  0.000000  0.250000  1
  Sr  Sr5  1  0.262065  0.262435  0.750000  1
  Sr  Sr6  1  0.999630  0.737565  0.750000  1
  Sr  Sr7  1  0.997490  0.263781  0.250000  1
  Sr  Sr8  1  0.733709  0.736219  0.250000  1
  Sr  Sr9  1  0.738863  0.000000  0.750000  1
  Sn  Sn10  1  0.614606  0.000000  0.250000  1
  Sb  Sb11  1  0.613620  0.611285  0.750000  1
  Sb  Sb12  1  0.002335  0.388715  0.750000  1
  Sb  Sb13  1  0.999497  0.617115  0.250000  1
  Sb  Sb14  1  0.382383  0.382885  0.250000  1
  Sb  Sb15  1  0.385321  0.000000  0.750000  1
