# generated using pymatgen
data_Ho3ZnSn3RuRh
_symmetry_space_group_name_H-M   'P 1'
_cell_length_a   7.59510100
_cell_length_b   7.59510089
_cell_length_c   3.87756800
_cell_angle_alpha   90.00000000
_cell_angle_beta   90.00000000
_cell_angle_gamma   120.00000481
_symmetry_Int_Tables_number   1
_chemical_formula_structural   Ho3ZnSn3RuRh
_chemical_formula_sum   'Ho3 Zn1 Sn3 Ru1 Rh1'
_cell_volume   193.71227174
_cell_formula_units_Z   1
loop_
 _symmetry_equiv_pos_site_id
 _symmetry_equiv_pos_as_xyz
  1  'x, y, z'
loop_
 _atom_site_type_symbol
 _atom_site_label
 _atom_site_symmetry_multiplicity
 _atom_site_fract_x
 _atom_site_fract_y
 _atom_site_fract_z
 _atom_site_occupancy
  Ho  Ho0  1  0.016094  0.408202  0.000000  1
  Ho  Ho1  1  0.591798  0.607892  0.000000  1
  Ho  Ho2  1  0.392108  0.983906  0.000000  1
  Zn  Zn3  1  0.666667  0.333333  0.500000  1
  Sn  Sn4  1  0.260686  0.259443  0.500000  1
  Sn  Sn5  1  0.998756  0.739314  0.500000  1
  Sn  Sn6  1  0.740557  0.001244  0.500000  1
  Ru  Ru7  1  0.000000  0.000000  0.000000  1
  Rh  Rh8  1  0.333333  0.666667  0.500000  1
