# generated using pymatgen
data_Fe6Re6W
_symmetry_space_group_name_H-M   'P 1'
_cell_length_a   4.72945585
_cell_length_b   4.72945486
_cell_length_c   9.06197275
_cell_angle_alpha   74.87352527
_cell_angle_beta   74.87352578
_cell_angle_gamma   59.99999237
_symmetry_Int_Tables_number   1
_chemical_formula_structural   Fe6Re6W
_chemical_formula_sum   'Fe6 Re6 W1'
_cell_volume   167.38126696
_cell_formula_units_Z   1
loop_
 _symmetry_equiv_pos_site_id
 _symmetry_equiv_pos_as_xyz
  1  'x, y, z'
loop_
 _atom_site_type_symbol
 _atom_site_label
 _atom_site_symmetry_multiplicity
 _atom_site_fract_x
 _atom_site_fract_y
 _atom_site_fract_z
 _atom_site_occupancy
  Fe  Fe0  1  0.907314  0.907314  0.765264  1
  Fe  Fe1  1  0.420106  0.907314  0.765264  1
  Fe  Fe2  1  0.907314  0.420106  0.765264  1
  Fe  Fe3  1  0.093521  0.093521  0.234094  1
  Fe  Fe4  1  0.578866  0.093521  0.234094  1
  Fe  Fe5  1  0.093521  0.578866  0.234094  1
  Re  Re6  1  0.000350  0.000350  0.998951  1
  Re  Re7  1  0.162783  0.162783  0.511650  1
  Re  Re8  1  0.650872  0.650872  0.047387  1
  Re  Re9  1  0.349158  0.349158  0.952523  1
  Re  Re10  1  0.548284  0.548284  0.355149  1
  Re  Re11  1  0.451691  0.451691  0.644927  1
  W  W12  1  0.836220  0.836220  0.491340  1
