# generated using pymatgen
data_KB4Ir3
_symmetry_space_group_name_H-M   'P 1'
_cell_length_a   7.65768058
_cell_length_b   7.65768122
_cell_length_c   8.34368800
_cell_angle_alpha   90.00000000
_cell_angle_beta   90.00000000
_cell_angle_gamma   97.24532473
_symmetry_Int_Tables_number   1
_chemical_formula_structural   KB4Ir3
_chemical_formula_sum   'K4 B16 Ir12'
_cell_volume   485.36776744
_cell_formula_units_Z   4
loop_
 _symmetry_equiv_pos_site_id
 _symmetry_equiv_pos_as_xyz
  1  'x, y, z'
loop_
 _atom_site_type_symbol
 _atom_site_label
 _atom_site_symmetry_multiplicity
 _atom_site_fract_x
 _atom_site_fract_y
 _atom_site_fract_z
 _atom_site_occupancy
  K  K0  1  0.999651  0.000349  0.500000  1
  K  K1  1  0.499651  0.500349  0.500000  1
  K  K2  1  0.198747  0.301253  0.783961  1
  K  K3  1  0.698747  0.801253  0.216039  1
  B  B4  1  0.156161  0.159709  0.182296  1
  B  B5  1  0.840291  0.843839  0.817704  1
  B  B6  1  0.656161  0.659709  0.817704  1
  B  B7  1  0.340291  0.343839  0.182296  1
  B  B8  1  0.908776  0.412459  0.500323  1
  B  B9  1  0.587541  0.091224  0.499677  1
  B  B10  1  0.087541  0.591224  0.500323  1
  B  B11  1  0.408776  0.912459  0.499677  1
  B  B12  1  0.212847  0.946500  0.161726  1
  B  B13  1  0.053500  0.787153  0.838274  1
  B  B14  1  0.443466  0.717565  0.838509  1
  B  B15  1  0.282435  0.556534  0.161491  1
  B  B16  1  0.782435  0.056534  0.838509  1
  B  B17  1  0.943466  0.217565  0.161491  1
  B  B18  1  0.553500  0.287153  0.161726  1
  B  B19  1  0.712847  0.446500  0.838274  1
  Ir  Ir20  1  0.105246  0.394754  0.309018  1
  Ir  Ir21  1  0.605246  0.894754  0.690982  1
  Ir  Ir22  1  0.891117  0.608883  0.691735  1
  Ir  Ir23  1  0.391117  0.108883  0.308265  1
  Ir  Ir24  1  0.748519  0.251481  0.000000  1
  Ir  Ir25  1  0.248519  0.751481  0.000000  1
  Ir  Ir26  1  0.998937  0.001063  0.000000  1
  Ir  Ir27  1  0.498937  0.501063  0.000000  1
  Ir  Ir28  1  0.747558  0.251791  0.665852  1
  Ir  Ir29  1  0.748209  0.252442  0.334148  1
  Ir  Ir30  1  0.247558  0.751791  0.334148  1
  Ir  Ir31  1  0.248209  0.752442  0.665852  1
