# generated using pymatgen
data_Ce6DyCd22Sb
_symmetry_space_group_name_H-M   'P 1'
_cell_length_a   10.14869639
_cell_length_b   10.14869710
_cell_length_c   10.14869600
_cell_angle_alpha   60.00000359
_cell_angle_beta   60.00000127
_cell_angle_gamma   60.00000505
_symmetry_Int_Tables_number   1
_chemical_formula_structural   Ce6DyCd22Sb
_chemical_formula_sum   'Ce6 Dy1 Cd22 Sb1'
_cell_volume   739.12148946
_cell_formula_units_Z   1
loop_
 _symmetry_equiv_pos_site_id
 _symmetry_equiv_pos_as_xyz
  1  'x, y, z'
loop_
 _atom_site_type_symbol
 _atom_site_label
 _atom_site_symmetry_multiplicity
 _atom_site_fract_x
 _atom_site_fract_y
 _atom_site_fract_z
 _atom_site_occupancy
  Ce  Ce0  1  0.780781  0.780781  0.219219  1
  Ce  Ce1  1  0.219219  0.780781  0.219219  1
  Ce  Ce2  1  0.780781  0.219219  0.219219  1
  Ce  Ce3  1  0.219219  0.219219  0.780781  1
  Ce  Ce4  1  0.780781  0.219219  0.780781  1
  Ce  Ce5  1  0.219219  0.780781  0.780781  1
  Dy  Dy6  1  0.500000  0.500000  0.500000  1
  Cd  Cd7  1  0.836881  0.836881  0.489354  1
  Cd  Cd8  1  0.836881  0.489354  0.836881  1
  Cd  Cd9  1  0.489354  0.836881  0.836881  1
  Cd  Cd10  1  0.836881  0.836881  0.836881  1
  Cd  Cd11  1  0.163119  0.163119  0.510646  1
  Cd  Cd12  1  0.163119  0.510646  0.163119  1
  Cd  Cd13  1  0.510646  0.163119  0.163119  1
  Cd  Cd14  1  0.163119  0.163119  0.163119  1
  Cd  Cd15  1  0.625679  0.625679  0.122965  1
  Cd  Cd16  1  0.625679  0.122965  0.625679  1
  Cd  Cd17  1  0.122965  0.625679  0.625679  1
  Cd  Cd18  1  0.625679  0.625679  0.625679  1
  Cd  Cd19  1  0.374321  0.374321  0.877035  1
  Cd  Cd20  1  0.374321  0.877035  0.374321  1
  Cd  Cd21  1  0.877035  0.374321  0.374321  1
  Cd  Cd22  1  0.374321  0.374321  0.374321  1
  Cd  Cd23  1  0.000000  0.000000  0.500000  1
  Cd  Cd24  1  0.500000  0.000000  0.500000  1
  Cd  Cd25  1  0.000000  0.500000  0.500000  1
  Cd  Cd26  1  0.500000  0.500000  0.000000  1
  Cd  Cd27  1  0.000000  0.500000  0.000000  1
  Cd  Cd28  1  0.500000  0.000000  0.000000  1
  Sb  Sb29  1  0.000000  0.000000  0.000000  1
