# generated using pymatgen
data_Ba3InFeIrO9
_symmetry_space_group_name_H-M   'P 1'
_cell_length_a   5.93223600
_cell_length_b   5.93223593
_cell_length_c   14.63997500
_cell_angle_alpha   90.00000000
_cell_angle_beta   90.00000000
_cell_angle_gamma   120.00000037
_symmetry_Int_Tables_number   1
_chemical_formula_structural   Ba3InFeIrO9
_chemical_formula_sum   'Ba6 In2 Fe2 Ir2 O18'
_cell_volume   446.17763837
_cell_formula_units_Z   2
loop_
 _symmetry_equiv_pos_site_id
 _symmetry_equiv_pos_as_xyz
  1  'x, y, z'
loop_
 _atom_site_type_symbol
 _atom_site_label
 _atom_site_symmetry_multiplicity
 _atom_site_fract_x
 _atom_site_fract_y
 _atom_site_fract_z
 _atom_site_occupancy
  Ba  Ba0  1  0.666667  0.333333  0.590351  1
  Ba  Ba1  1  0.333333  0.666667  0.407207  1
  Ba  Ba2  1  0.333333  0.666667  0.090351  1
  Ba  Ba3  1  0.666667  0.333333  0.907207  1
  Ba  Ba4  1  0.000000  0.000000  0.754250  1
  Ba  Ba5  1  0.000000  0.000000  0.254250  1
  In  In6  1  0.000000  0.000000  0.497232  1
  In  In7  1  0.000000  0.000000  0.997232  1
  Fe  Fe8  1  0.666667  0.333333  0.353689  1
  Fe  Fe9  1  0.333333  0.666667  0.853689  1
  Ir  Ir10  1  0.333333  0.666667  0.662634  1
  Ir  Ir11  1  0.666667  0.333333  0.162634  1
  O  O12  1  0.484883  0.969766  0.743765  1
  O  O13  1  0.484883  0.515117  0.743765  1
  O  O14  1  0.030234  0.515117  0.743765  1
  O  O15  1  0.515117  0.030234  0.243765  1
  O  O16  1  0.515117  0.484883  0.243765  1
  O  O17  1  0.969766  0.484883  0.243765  1
  O  O18  1  0.174963  0.349926  0.586708  1
  O  O19  1  0.174963  0.825037  0.586708  1
  O  O20  1  0.650074  0.825037  0.586708  1
  O  O21  1  0.831005  0.662009  0.414389  1
  O  O22  1  0.831005  0.168995  0.414389  1
  O  O23  1  0.337991  0.168995  0.414389  1
  O  O24  1  0.825037  0.650074  0.086708  1
  O  O25  1  0.825037  0.174963  0.086708  1
  O  O26  1  0.349926  0.174963  0.086708  1
  O  O27  1  0.168995  0.337991  0.914389  1
  O  O28  1  0.168995  0.831005  0.914389  1
  O  O29  1  0.662009  0.831005  0.914389  1
