# generated using pymatgen
data_Pr2Gd4RuCl10
_symmetry_space_group_name_H-M   'P 1'
_cell_length_a   7.27815615
_cell_length_b   9.07718233
_cell_length_c   9.21035800
_cell_angle_alpha   109.13180202
_cell_angle_beta   96.42720930
_cell_angle_gamma   107.16274221
_symmetry_Int_Tables_number   1
_chemical_formula_structural   Pr2Gd4RuCl10
_chemical_formula_sum   'Pr2 Gd4 Ru1 Cl10'
_cell_volume   534.40175945
_cell_formula_units_Z   1
loop_
 _symmetry_equiv_pos_site_id
 _symmetry_equiv_pos_as_xyz
  1  'x, y, z'
loop_
 _atom_site_type_symbol
 _atom_site_label
 _atom_site_symmetry_multiplicity
 _atom_site_fract_x
 _atom_site_fract_y
 _atom_site_fract_z
 _atom_site_occupancy
  Pr  Pr0  1  0.137123  0.056357  0.760465  1
  Pr  Pr1  1  0.862877  0.943643  0.239535  1
  Gd  Gd2  1  0.974726  0.314742  0.105851  1
  Gd  Gd3  1  0.025274  0.685258  0.894149  1
  Gd  Gd4  1  0.622293  0.850270  0.802042  1
  Gd  Gd5  1  0.377707  0.149730  0.197958  1
  Ru  Ru6  1  0.000000  0.000000  0.000000  1
  Cl  Cl7  1  0.554753  0.172233  0.931378  1
  Cl  Cl8  1  0.445247  0.827767  0.068622  1
  Cl  Cl9  1  0.751851  0.917261  0.552331  1
  Cl  Cl10  1  0.248149  0.082739  0.447669  1
  Cl  Cl11  1  0.086635  0.375704  0.844762  1
  Cl  Cl12  1  0.913365  0.624296  0.155238  1
  Cl  Cl13  1  0.207294  0.741769  0.656901  1
  Cl  Cl14  1  0.792706  0.258231  0.343099  1
  Cl  Cl15  1  0.644834  0.543395  0.724271  1
  Cl  Cl16  1  0.355166  0.456605  0.275729  1
