# generated using pymatgen
data_Zr4CoSi4
_symmetry_space_group_name_H-M   'P 1'
_cell_length_a   5.27550192
_cell_length_b   5.27550191
_cell_length_c   8.61306125
_cell_angle_alpha   72.70351977
_cell_angle_beta   72.70351937
_cell_angle_gamma   41.54734593
_symmetry_Int_Tables_number   1
_chemical_formula_structural   Zr4CoSi4
_chemical_formula_sum   'Zr4 Co1 Si4'
_cell_volume   150.73237532
_cell_formula_units_Z   1
loop_
 _symmetry_equiv_pos_site_id
 _symmetry_equiv_pos_as_xyz
  1  'x, y, z'
loop_
 _atom_site_type_symbol
 _atom_site_label
 _atom_site_symmetry_multiplicity
 _atom_site_fract_x
 _atom_site_fract_y
 _atom_site_fract_z
 _atom_site_occupancy
  Zr  Zr0  1  0.110212  0.110212  0.619336  1
  Zr  Zr1  1  0.889788  0.889788  0.380664  1
  Zr  Zr2  1  0.755810  0.755810  0.845471  1
  Zr  Zr3  1  0.244190  0.244190  0.154529  1
  Co  Co4  1  0.000000  0.000000  0.000000  1
  Si  Si5  1  0.389567  0.389567  0.615633  1
  Si  Si6  1  0.610433  0.610433  0.384367  1
  Si  Si7  1  0.467226  0.467226  0.859809  1
  Si  Si8  1  0.532774  0.532774  0.140191  1
