# generated using pymatgen
data_Eu4Fe(Si2Pt)5
_symmetry_space_group_name_H-M   'P 1'
_cell_length_a   8.27659528
_cell_length_b   8.27659540
_cell_length_c   8.27659602
_cell_angle_alpha   137.88014245
_cell_angle_beta   105.10440288
_cell_angle_gamma   89.86695241
_symmetry_Int_Tables_number   1
_chemical_formula_structural   Eu4Fe(Si2Pt)5
_chemical_formula_sum   'Eu4 Fe1 Si10 Pt5'
_cell_volume   350.78863636
_cell_formula_units_Z   1
loop_
 _symmetry_equiv_pos_site_id
 _symmetry_equiv_pos_as_xyz
  1  'x, y, z'
loop_
 _atom_site_type_symbol
 _atom_site_label
 _atom_site_symmetry_multiplicity
 _atom_site_fract_x
 _atom_site_fract_y
 _atom_site_fract_z
 _atom_site_occupancy
  Eu  Eu0  1  0.103490  0.872715  0.236104  1
  Eu  Eu1  1  0.896510  0.132614  0.769225  1
  Eu  Eu2  1  0.636612  0.367386  0.263896  1
  Eu  Eu3  1  0.363388  0.627285  0.730775  1
  Fe  Fe4  1  0.500000  0.750000  0.250000  1
  Si  Si5  1  0.000000  0.750000  0.750000  1
  Si  Si6  1  0.000000  0.250000  0.250000  1
  Si  Si7  1  0.273914  0.023914  0.750000  1
  Si  Si8  1  0.726086  0.476086  0.750000  1
  Si  Si9  1  0.725005  0.975005  0.250000  1
  Si  Si10  1  0.274995  0.524995  0.250000  1
  Si  Si11  1  0.751581  0.622590  0.164046  1
  Si  Si12  1  0.248419  0.412465  0.871009  1
  Si  Si13  1  0.458545  0.087535  0.335954  1
  Si  Si14  1  0.541455  0.877410  0.628991  1
  Pt  Pt15  1  0.500000  0.250000  0.750000  1
  Pt  Pt16  1  0.024239  0.637892  0.387438  1
  Pt  Pt17  1  0.975761  0.363199  0.613653  1
  Pt  Pt18  1  0.250454  0.136801  0.112562  1
  Pt  Pt19  1  0.749546  0.862108  0.886347  1
