# generated using pymatgen
data_Ti10SiSb6Pt
_symmetry_space_group_name_H-M   'P 1'
_cell_length_a   8.25803100
_cell_length_b   8.25803294
_cell_length_c   5.52052400
_cell_angle_alpha   90.00000000
_cell_angle_beta   90.00000000
_cell_angle_gamma   120.00000426
_symmetry_Int_Tables_number   1
_chemical_formula_structural   Ti10SiSb6Pt
_chemical_formula_sum   'Ti10 Si1 Sb6 Pt1'
_cell_volume   326.03485775
_cell_formula_units_Z   1
loop_
 _symmetry_equiv_pos_site_id
 _symmetry_equiv_pos_as_xyz
  1  'x, y, z'
loop_
 _atom_site_type_symbol
 _atom_site_label
 _atom_site_symmetry_multiplicity
 _atom_site_fract_x
 _atom_site_fract_y
 _atom_site_fract_z
 _atom_site_occupancy
  Ti  Ti0  1  0.666667  0.333333  0.500000  1
  Ti  Ti1  1  0.333333  0.666667  0.500000  1
  Ti  Ti2  1  0.333333  0.666667  0.000000  1
  Ti  Ti3  1  0.666667  0.333333  0.000000  1
  Ti  Ti4  1  0.731276  0.731276  0.238638  1
  Ti  Ti5  1  0.268724  0.000000  0.238638  1
  Ti  Ti6  1  0.000000  0.268724  0.238638  1
  Ti  Ti7  1  0.268724  0.268724  0.761362  1
  Ti  Ti8  1  0.731276  0.000000  0.761362  1
  Ti  Ti9  1  0.000000  0.731276  0.761362  1
  Si  Si10  1  0.000000  0.000000  0.000000  1
  Sb  Sb11  1  0.388111  0.388111  0.253933  1
  Sb  Sb12  1  0.611889  0.000000  0.253933  1
  Sb  Sb13  1  0.000000  0.611889  0.253933  1
  Sb  Sb14  1  0.611889  0.611889  0.746067  1
  Sb  Sb15  1  0.388111  0.000000  0.746067  1
  Sb  Sb16  1  0.000000  0.388111  0.746067  1
  Pt  Pt17  1  0.000000  0.000000  0.500000  1
