# generated using pymatgen
data_NdSm3Ti8O22
_symmetry_space_group_name_H-M   'P 1'
_cell_length_a   5.11723923
_cell_length_b   7.27706238
_cell_length_c   12.61071896
_cell_angle_alpha   97.33928342
_cell_angle_beta   101.60577764
_cell_angle_gamma   110.69089982
_symmetry_Int_Tables_number   1
_chemical_formula_structural   NdSm3Ti8O22
_chemical_formula_sum   'Nd1 Sm3 Ti8 O22'
_cell_volume   420.08142454
_cell_formula_units_Z   1
loop_
 _symmetry_equiv_pos_site_id
 _symmetry_equiv_pos_as_xyz
  1  'x, y, z'
loop_
 _atom_site_type_symbol
 _atom_site_label
 _atom_site_symmetry_multiplicity
 _atom_site_fract_x
 _atom_site_fract_y
 _atom_site_fract_z
 _atom_site_occupancy
  Nd  Nd0  1  0.109905  0.302355  0.906491  1
  Sm  Sm1  1  0.888489  0.696213  0.094100  1
  Sm  Sm2  1  0.597665  0.804383  0.406525  1
  Sm  Sm3  1  0.402331  0.196223  0.592860  1
  Ti  Ti4  1  0.574486  0.156642  0.098156  1
  Ti  Ti5  1  0.243164  0.415451  0.191890  1
  Ti  Ti6  1  0.137303  0.085795  0.309568  1
  Ti  Ti7  1  0.819261  0.342681  0.402760  1
  Ti  Ti8  1  0.180546  0.656728  0.596984  1
  Ti  Ti9  1  0.861116  0.912507  0.689020  1
  Ti  Ti10  1  0.758138  0.587970  0.808894  1
  Ti  Ti11  1  0.427395  0.842273  0.903164  1
  O  O12  1  0.642276  0.919980  0.056892  1
  O  O13  1  0.920996  0.342456  0.061608  1
  O  O14  1  0.486070  0.416729  0.098053  1
  O  O15  1  0.262378  0.073259  0.167521  1
  O  O16  1  0.272799  0.666459  0.224752  1
  O  O17  1  0.903567  0.249274  0.250622  1
  O  O18  1  0.882245  0.834644  0.276137  1
  O  O19  1  0.520852  0.425549  0.332965  1
  O  O20  1  0.472500  0.083491  0.403150  1
  O  O21  1  0.022231  0.159976  0.440907  1
  O  O22  1  0.164473  0.579594  0.443354  1
  O  O23  1  0.835514  0.419390  0.556295  1
  O  O24  1  0.975649  0.837702  0.558178  1
  O  O25  1  0.526071  0.916117  0.596042  1
  O  O26  1  0.478793  0.574789  0.666940  1
  O  O27  1  0.115125  0.163739  0.721580  1
  O  O28  1  0.096875  0.750280  0.749551  1
  O  O29  1  0.724129  0.336060  0.774744  1
  O  O30  1  0.736948  0.924011  0.831525  1
  O  O31  1  0.517773  0.586052  0.904147  1
  O  O32  1  0.078795  0.661024  0.940467  1
  O  O33  1  0.364148  0.080210  0.944156  1
