# generated using pymatgen
data_LiYbP2Pd
_symmetry_space_group_name_H-M   'P 1'
_cell_length_a   5.77003357
_cell_length_b   5.77003298
_cell_length_c   5.77003288
_cell_angle_alpha   139.12206333
_cell_angle_beta   139.12205630
_cell_angle_gamma   59.18878203
_symmetry_Int_Tables_number   1
_chemical_formula_structural   LiYbP2Pd
_chemical_formula_sum   'Li1 Yb1 P2 Pd1'
_cell_volume   81.48133404
_cell_formula_units_Z   1
loop_
 _symmetry_equiv_pos_site_id
 _symmetry_equiv_pos_as_xyz
  1  'x, y, z'
loop_
 _atom_site_type_symbol
 _atom_site_label
 _atom_site_symmetry_multiplicity
 _atom_site_fract_x
 _atom_site_fract_y
 _atom_site_fract_z
 _atom_site_occupancy
  Li  Li0  1  0.750000  0.250000  0.500000  1
  Yb  Yb1  1  0.000000  0.000000  0.000000  1
  P  P2  1  0.390407  0.390407  0.000000  1
  P  P3  1  0.609593  0.609593  0.000000  1
  Pd  Pd4  1  0.250000  0.750000  0.500000  1
