# generated using pymatgen
data_ErPa5F24
_symmetry_space_group_name_H-M   'P 1'
_cell_length_a   8.37114911
_cell_length_b   8.45577174
_cell_length_c   8.37594104
_cell_angle_alpha   63.15665197
_cell_angle_beta   63.57014635
_cell_angle_gamma   80.28321245
_symmetry_Int_Tables_number   1
_chemical_formula_structural   ErPa5F24
_chemical_formula_sum   'Er1 Pa5 F24'
_cell_volume   473.32397464
_cell_formula_units_Z   1
loop_
 _symmetry_equiv_pos_site_id
 _symmetry_equiv_pos_as_xyz
  1  'x, y, z'
loop_
 _atom_site_type_symbol
 _atom_site_label
 _atom_site_symmetry_multiplicity
 _atom_site_fract_x
 _atom_site_fract_y
 _atom_site_fract_z
 _atom_site_occupancy
  Er  Er0  1  0.774938  0.636925  0.168710  1
  Pa  Pa1  1  0.639185  0.766412  0.667518  1
  Pa  Pa2  1  0.378369  0.225851  0.329731  1
  Pa  Pa3  1  0.213671  0.370375  0.838353  1
  Pa  Pa4  1  0.788402  0.207050  0.740622  1
  Pa  Pa5  1  0.216690  0.786914  0.243564  1
  F  F6  1  0.318891  0.259551  0.610457  1
  F  F7  1  0.680665  0.739625  0.396388  1
  F  F8  1  0.736525  0.680597  0.896810  1
  F  F9  1  0.267000  0.328237  0.102736  1
  F  F10  1  0.819722  0.936763  0.950406  1
  F  F11  1  0.167957  0.070552  0.048261  1
  F  F12  1  0.069242  0.169027  0.544040  1
  F  F13  1  0.939029  0.824382  0.458075  1
  F  F14  1  0.401824  0.598777  0.752564  1
  F  F15  1  0.598815  0.402904  0.248522  1
  F  F16  1  0.498837  0.996348  0.505436  1
  F  F17  1  0.994480  0.497724  0.006797  1
  F  F18  1  0.498663  0.248864  0.797369  1
  F  F19  1  0.497617  0.742612  0.209261  1
  F  F20  1  0.749513  0.493531  0.712144  1
  F  F21  1  0.246426  0.499635  0.299381  1
  F  F22  1  0.398789  0.811733  0.923663  1
  F  F23  1  0.604705  0.189436  0.071355  1
  F  F24  1  0.191768  0.604366  0.571914  1
  F  F25  1  0.805823  0.401010  0.432543  1
  F  F26  1  0.726121  0.027762  0.639039  1
  F  F27  1  0.279042  0.978426  0.339596  1
  F  F28  1  0.972878  0.276113  0.841807  1
  F  F29  1  0.024414  0.728498  0.152938  1
