# generated using pymatgen
data_CaLa4Pr2IrBr12
_symmetry_space_group_name_H-M   'P 1'
_cell_length_a   9.76635084
_cell_length_b   9.75801279
_cell_length_c   9.59885718
_cell_angle_alpha   107.27491278
_cell_angle_beta   106.95214673
_cell_angle_gamma   107.14158371
_symmetry_Int_Tables_number   1
_chemical_formula_structural   CaLa4Pr2IrBr12
_chemical_formula_sum   'Ca1 La4 Pr2 Ir1 Br12'
_cell_volume   759.25865276
_cell_formula_units_Z   1
loop_
 _symmetry_equiv_pos_site_id
 _symmetry_equiv_pos_as_xyz
  1  'x, y, z'
loop_
 _atom_site_type_symbol
 _atom_site_label
 _atom_site_symmetry_multiplicity
 _atom_site_fract_x
 _atom_site_fract_y
 _atom_site_fract_z
 _atom_site_occupancy
  Ca  Ca0  1  0.500395  0.500759  0.501368  1
  La  La1  1  0.109731  0.322855  0.025919  1
  La  La2  1  0.322456  0.026218  0.110925  1
  La  La3  1  0.025974  0.105044  0.308299  1
  La  La4  1  0.974223  0.893339  0.690898  1
  Pr  Pr5  1  0.681554  0.973801  0.889548  1
  Pr  Pr6  1  0.888419  0.680088  0.973247  1
  Ir  Ir7  1  0.001339  0.000547  0.999797  1
  Br  Br8  1  0.213702  0.683682  0.071178  1
  Br  Br9  1  0.458563  0.379272  0.169288  1
  Br  Br10  1  0.684591  0.072410  0.217453  1
  Br  Br11  1  0.927077  0.780433  0.315870  1
  Br  Br12  1  0.173031  0.459949  0.382507  1
  Br  Br13  1  0.381132  0.173463  0.462318  1
  Br  Br14  1  0.618798  0.827827  0.540145  1
  Br  Br15  1  0.827076  0.539562  0.620561  1
  Br  Br16  1  0.071483  0.216608  0.680580  1
  Br  Br17  1  0.316514  0.926439  0.779854  1
  Br  Br18  1  0.543077  0.623400  0.833268  1
  Br  Br19  1  0.780871  0.314308  0.926982  1
