# generated using pymatgen
data_Th3Mn(Pd3Pt)3
_symmetry_space_group_name_H-M   'P 1'
_cell_length_a   7.21223554
_cell_length_b   7.21223637
_cell_length_c   7.20261878
_cell_angle_alpha   109.63164187
_cell_angle_beta   109.63162966
_cell_angle_gamma   109.20522146
_symmetry_Int_Tables_number   1
_chemical_formula_structural   Th3Mn(Pd3Pt)3
_chemical_formula_sum   'Th3 Mn1 Pd9 Pt3'
_cell_volume   288.20940969
_cell_formula_units_Z   1
loop_
 _symmetry_equiv_pos_site_id
 _symmetry_equiv_pos_as_xyz
  1  'x, y, z'
loop_
 _atom_site_type_symbol
 _atom_site_label
 _atom_site_symmetry_multiplicity
 _atom_site_fract_x
 _atom_site_fract_y
 _atom_site_fract_z
 _atom_site_occupancy
  Th  Th0  1  0.249961  0.250192  0.500154  1
  Th  Th1  1  0.749808  0.750039  0.499846  1
  Th  Th2  1  0.250672  0.749328  0.000000  1
  Mn  Mn3  1  0.748629  0.251371  0.000000  1
  Pd  Pd4  1  0.504288  0.249784  0.245779  1
  Pd  Pd5  1  0.504646  0.758852  0.753881  1
  Pd  Pd6  1  0.995030  0.249234  0.753881  1
  Pd  Pd7  1  0.258508  0.004006  0.754221  1
  Pd  Pd8  1  0.995994  0.741492  0.245779  1
  Pd  Pd9  1  0.750766  0.004970  0.246119  1
  Pd  Pd10  1  0.241148  0.495354  0.246119  1
  Pd  Pd11  1  0.750216  0.495712  0.754221  1
  Pd  Pd12  1  0.995619  0.004381  0.000000  1
  Pt  Pt13  1  0.504810  0.004895  0.509704  1
  Pt  Pt14  1  0.995105  0.495190  0.490296  1
  Pt  Pt15  1  0.504801  0.495199  0.000000  1
