# generated using pymatgen
data_Li16Zn3Si6Hg
_symmetry_space_group_name_H-M   'P 1'
_cell_length_a   9.15578875
_cell_length_b   9.15579002
_cell_length_c   9.15578969
_cell_angle_alpha   48.31825252
_cell_angle_beta   48.31825646
_cell_angle_gamma   48.31824743
_symmetry_Int_Tables_number   1
_chemical_formula_structural   Li16Zn3Si6Hg
_chemical_formula_sum   'Li16 Zn3 Si6 Hg1'
_cell_volume   392.48089389
_cell_formula_units_Z   1
loop_
 _symmetry_equiv_pos_site_id
 _symmetry_equiv_pos_as_xyz
  1  'x, y, z'
loop_
 _atom_site_type_symbol
 _atom_site_label
 _atom_site_symmetry_multiplicity
 _atom_site_fract_x
 _atom_site_fract_y
 _atom_site_fract_z
 _atom_site_occupancy
  Li  Li0  1  0.057583  0.057583  0.057583  1
  Li  Li1  1  0.297246  0.592423  0.956691  1
  Li  Li2  1  0.554716  0.554716  0.554716  1
  Li  Li3  1  0.206011  0.908414  0.557924  1
  Li  Li4  1  0.592423  0.956691  0.297246  1
  Li  Li5  1  0.063084  0.406978  0.706874  1
  Li  Li6  1  0.908414  0.557924  0.206011  1
  Li  Li7  1  0.799523  0.454839  0.096473  1
  Li  Li8  1  0.956691  0.297246  0.592423  1
  Li  Li9  1  0.557924  0.206011  0.908414  1
  Li  Li10  1  0.454839  0.096473  0.799523  1
  Li  Li11  1  0.706874  0.063084  0.406978  1
  Li  Li12  1  0.096473  0.799523  0.454839  1
  Li  Li13  1  0.456379  0.456379  0.456379  1
  Li  Li14  1  0.955186  0.955186  0.955186  1
  Li  Li15  1  0.406978  0.706874  0.063084  1
  Zn  Zn16  1  0.336218  0.336218  0.336218  1
  Zn  Zn17  1  0.836328  0.836328  0.836328  1
  Zn  Zn18  1  0.174054  0.174054  0.174054  1
  Si  Si19  1  0.176401  0.503839  0.832383  1
  Si  Si20  1  0.678546  0.316253  0.018766  1
  Si  Si21  1  0.832383  0.176401  0.503839  1
  Si  Si22  1  0.316253  0.018766  0.678546  1
  Si  Si23  1  0.018766  0.678546  0.316253  1
  Si  Si24  1  0.503839  0.832383  0.176401  1
  Hg  Hg25  1  0.673611  0.673611  0.673611  1
