# generated using pymatgen
data_Ac2Er(InPt)3
_symmetry_space_group_name_H-M   'P 1'
_cell_length_a   7.86358619
_cell_length_b   7.81487228
_cell_length_c   4.18724400
_cell_angle_alpha   90.00000000
_cell_angle_beta   90.00000000
_cell_angle_gamma   119.79528489
_symmetry_Int_Tables_number   1
_chemical_formula_structural   Ac2Er(InPt)3
_chemical_formula_sum   'Ac2 Er1 In3 Pt3'
_cell_volume   223.30252187
_cell_formula_units_Z   1
loop_
 _symmetry_equiv_pos_site_id
 _symmetry_equiv_pos_as_xyz
  1  'x, y, z'
loop_
 _atom_site_type_symbol
 _atom_site_label
 _atom_site_symmetry_multiplicity
 _atom_site_fract_x
 _atom_site_fract_y
 _atom_site_fract_z
 _atom_site_occupancy
  Ac  Ac0  1  0.589964  0.999603  0.500000  1
  Ac  Ac1  1  0.410036  0.409639  0.500000  1
  Er  Er2  1  0.000000  0.595740  0.500000  1
  In  In3  1  0.763069  0.750437  0.000000  1
  In  In4  1  0.000000  0.257864  0.000000  1
  In  In5  1  0.236931  0.987368  0.000000  1
  Pt  Pt6  1  0.312418  0.662049  0.000000  1
  Pt  Pt7  1  0.687582  0.349629  0.000000  1
  Pt  Pt8  1  0.000000  0.987671  0.500000  1
