# generated using pymatgen
data_Tb2TmSn3Ir2Rh
_symmetry_space_group_name_H-M   'P 1'
_cell_length_a   7.68595800
_cell_length_b   7.65869190
_cell_length_c   3.73850300
_cell_angle_alpha   90.00000000
_cell_angle_beta   90.00000000
_cell_angle_gamma   120.11783888
_symmetry_Int_Tables_number   1
_chemical_formula_structural   Tb2TmSn3Ir2Rh
_chemical_formula_sum   'Tb2 Tm1 Sn3 Ir2 Rh1'
_cell_volume   190.35489719
_cell_formula_units_Z   1
loop_
 _symmetry_equiv_pos_site_id
 _symmetry_equiv_pos_as_xyz
  1  'x, y, z'
loop_
 _atom_site_type_symbol
 _atom_site_label
 _atom_site_symmetry_multiplicity
 _atom_site_fract_x
 _atom_site_fract_y
 _atom_site_fract_z
 _atom_site_occupancy
  Tb  Tb0  1  0.000185  0.403846  0.000000  1
  Tb  Tb1  1  0.596338  0.596154  0.000000  1
  Tm  Tm2  1  0.403470  0.000000  0.000000  1
  Sn  Sn3  1  0.265875  0.263851  0.500000  1
  Sn  Sn4  1  0.002023  0.736149  0.500000  1
  Sn  Sn5  1  0.733327  0.000000  0.500000  1
  Ir  Ir6  1  0.664276  0.330446  0.500000  1
  Ir  Ir7  1  0.333829  0.669554  0.500000  1
  Rh  Rh8  1  0.000677  0.000000  0.000000  1
