# generated using pymatgen
data_Y8Hf11Si16W
_symmetry_space_group_name_H-M   'P 1'
_cell_length_a   7.25250308
_cell_length_b   7.25250372
_cell_length_c   13.31715101
_cell_angle_alpha   89.94162778
_cell_angle_beta   90.05836942
_cell_angle_gamma   90.06699301
_symmetry_Int_Tables_number   1
_chemical_formula_structural   Y8Hf11Si16W
_chemical_formula_sum   'Y8 Hf11 Si16 W1'
_cell_volume   700.46503194
_cell_formula_units_Z   1
loop_
 _symmetry_equiv_pos_site_id
 _symmetry_equiv_pos_as_xyz
  1  'x, y, z'
loop_
 _atom_site_type_symbol
 _atom_site_label
 _atom_site_symmetry_multiplicity
 _atom_site_fract_x
 _atom_site_fract_y
 _atom_site_fract_z
 _atom_site_occupancy
  Y  Y0  1  0.998424  0.343053  0.212714  1
  Y  Y1  1  0.004182  0.656780  0.716556  1
  Y  Y2  1  0.156762  0.495481  0.465513  1
  Y  Y3  1  0.501649  0.845210  0.034202  1
  Y  Y4  1  0.845210  0.501649  0.965798  1
  Y  Y5  1  0.495481  0.156762  0.534487  1
  Y  Y6  1  0.343053  0.998424  0.787286  1
  Y  Y7  1  0.656780  0.004182  0.283444  1
  Hf  Hf8  1  0.825682  0.825682  0.500000  1
  Hf  Hf9  1  0.324515  0.674239  0.248905  1
  Hf  Hf10  1  0.674239  0.324515  0.751095  1
  Hf  Hf11  1  0.148596  0.996975  0.373612  1
  Hf  Hf12  1  0.852888  0.005144  0.877371  1
  Hf  Hf13  1  0.504139  0.648756  0.624660  1
  Hf  Hf14  1  0.348823  0.493265  0.877254  1
  Hf  Hf15  1  0.493265  0.348823  0.122746  1
  Hf  Hf16  1  0.648756  0.504139  0.375340  1
  Hf  Hf17  1  0.996975  0.148596  0.626388  1
  Hf  Hf18  1  0.005144  0.852888  0.122629  1
  Si  Si19  1  0.362800  0.295180  0.316278  1
  Si  Si20  1  0.636425  0.704861  0.817474  1
  Si  Si21  1  0.204979  0.863029  0.567131  1
  Si  Si22  1  0.137838  0.797600  0.933234  1
  Si  Si23  1  0.797600  0.137838  0.066766  1
  Si  Si24  1  0.863029  0.204979  0.432869  1
  Si  Si25  1  0.295180  0.362800  0.683722  1
  Si  Si26  1  0.704861  0.636425  0.182526  1
  Si  Si27  1  0.294191  0.050965  0.182522  1
  Si  Si28  1  0.704186  0.951958  0.686018  1
  Si  Si29  1  0.450789  0.795622  0.435068  1
  Si  Si30  1  0.203758  0.545940  0.064151  1
  Si  Si31  1  0.545940  0.203758  0.935849  1
  Si  Si32  1  0.795622  0.450789  0.564932  1
  Si  Si33  1  0.050965  0.294191  0.817478  1
  Si  Si34  1  0.951958  0.704186  0.313982  1
  W  W35  1  0.175314  0.175314  0.000000  1
