# generated using pymatgen
data_Dy5Si12MoIr18
_symmetry_space_group_name_H-M   'P 1'
_cell_length_a   12.82726956
_cell_length_b   12.88099484
_cell_length_c   3.99502500
_cell_angle_alpha   90.00000000
_cell_angle_beta   90.00000000
_cell_angle_gamma   120.13864487
_symmetry_Int_Tables_number   1
_chemical_formula_structural   Dy5Si12MoIr18
_chemical_formula_sum   'Dy5 Si12 Mo1 Ir18'
_cell_volume   570.85435756
_cell_formula_units_Z   1
loop_
 _symmetry_equiv_pos_site_id
 _symmetry_equiv_pos_as_xyz
  1  'x, y, z'
loop_
 _atom_site_type_symbol
 _atom_site_label
 _atom_site_symmetry_multiplicity
 _atom_site_fract_x
 _atom_site_fract_y
 _atom_site_fract_z
 _atom_site_occupancy
  Dy  Dy0  1  0.330607  0.665418  0.500000  1
  Dy  Dy1  1  0.669393  0.334810  0.500000  1
  Dy  Dy2  1  0.000000  0.813248  0.000000  1
  Dy  Dy3  1  0.185034  0.185275  0.000000  1
  Dy  Dy4  1  0.814966  0.000241  0.000000  1
  Si  Si5  1  0.000000  0.630714  0.500000  1
  Si  Si6  1  0.369928  0.368188  0.500000  1
  Si  Si7  1  0.630072  0.998260  0.500000  1
  Si  Si8  1  0.517702  0.687541  0.000000  1
  Si  Si9  1  0.310582  0.832580  0.000000  1
  Si  Si10  1  0.166795  0.480216  0.000000  1
  Si  Si11  1  0.482298  0.169839  0.000000  1
  Si  Si12  1  0.689418  0.521998  0.000000  1
  Si  Si13  1  0.833205  0.313420  0.000000  1
  Si  Si14  1  0.000000  0.180461  0.500000  1
  Si  Si15  1  0.817222  0.818767  0.500000  1
  Si  Si16  1  0.182778  0.001545  0.500000  1
  Mo  Mo17  1  0.000000  0.439446  0.500000  1
  Ir  Ir18  1  0.510499  0.872773  0.000000  1
  Ir  Ir19  1  0.127568  0.640339  0.000000  1
  Ir  Ir20  1  0.361304  0.487297  0.000000  1
  Ir  Ir21  1  0.489501  0.362274  0.000000  1
  Ir  Ir22  1  0.872432  0.512772  0.000000  1
  Ir  Ir23  1  0.638696  0.125993  0.000000  1
  Ir  Ir24  1  0.553431  0.553346  0.500000  1
  Ir  Ir25  1  0.446569  0.999915  0.500000  1
  Ir  Ir26  1  0.000000  0.279053  0.000000  1
  Ir  Ir27  1  0.716274  0.718748  0.000000  1
  Ir  Ir28  1  0.283726  0.002474  0.000000  1
  Ir  Ir29  1  0.621282  0.805101  0.500000  1
  Ir  Ir30  1  0.193530  0.819804  0.500000  1
  Ir  Ir31  1  0.183609  0.376152  0.500000  1
  Ir  Ir32  1  0.378718  0.183820  0.500000  1
  Ir  Ir33  1  0.806470  0.626275  0.500000  1
  Ir  Ir34  1  0.816391  0.192545  0.500000  1
  Ir  Ir35  1  0.000000  0.999353  0.500000  1
