# generated using pymatgen
data_Tb12InCo4Ir
_symmetry_space_group_name_H-M   'P 1'
_cell_length_a   8.32873824
_cell_length_b   8.32820120
_cell_length_c   8.32873671
_cell_angle_alpha   111.20893720
_cell_angle_beta   110.43441698
_cell_angle_gamma   106.80629657
_symmetry_Int_Tables_number   1
_chemical_formula_structural   Tb12InCo4Ir
_chemical_formula_sum   'Tb12 In1 Co4 Ir1'
_cell_volume   443.96790536
_cell_formula_units_Z   1
loop_
 _symmetry_equiv_pos_site_id
 _symmetry_equiv_pos_as_xyz
  1  'x, y, z'
loop_
 _atom_site_type_symbol
 _atom_site_label
 _atom_site_symmetry_multiplicity
 _atom_site_fract_x
 _atom_site_fract_y
 _atom_site_fract_z
 _atom_site_occupancy
  Tb  Tb0  1  0.409524  0.215588  0.193929  1
  Tb  Tb1  1  0.590476  0.784412  0.806071  1
  Tb  Tb2  1  0.021659  0.215588  0.806063  1
  Tb  Tb3  1  0.978341  0.784412  0.193937  1
  Tb  Tb4  1  0.182943  0.287348  0.470273  1
  Tb  Tb5  1  0.817057  0.712652  0.529727  1
  Tb  Tb6  1  0.182926  0.712652  0.895596  1
  Tb  Tb7  1  0.817074  0.287348  0.104404  1
  Tb  Tb8  1  0.316066  0.621904  0.305837  1
  Tb  Tb9  1  0.683934  0.378096  0.694163  1
  Tb  Tb10  1  0.316074  0.010228  0.694153  1
  Tb  Tb11  1  0.683926  0.989772  0.305847  1
  In  In12  1  0.500000  0.500000  0.000000  1
  Co  Co13  1  0.377758  0.000000  0.377758  1
  Co  Co14  1  0.622242  0.000000  0.622242  1
  Co  Co15  1  0.111658  0.611642  0.499984  1
  Co  Co16  1  0.888342  0.388358  0.500016  1
  Ir  Ir17  1  0.000000  0.000000  0.000000  1
