# generated using pymatgen
data_Ac3In3AgPd2
_symmetry_space_group_name_H-M   'P 1'
_cell_length_a   8.04026400
_cell_length_b   8.04026461
_cell_length_c   4.25790200
_cell_angle_alpha   90.00000000
_cell_angle_beta   90.00000000
_cell_angle_gamma   120.00000573
_symmetry_Int_Tables_number   1
_chemical_formula_structural   Ac3In3AgPd2
_chemical_formula_sum   'Ac3 In3 Ag1 Pd2'
_cell_volume   238.37841001
_cell_formula_units_Z   1
loop_
 _symmetry_equiv_pos_site_id
 _symmetry_equiv_pos_as_xyz
  1  'x, y, z'
loop_
 _atom_site_type_symbol
 _atom_site_label
 _atom_site_symmetry_multiplicity
 _atom_site_fract_x
 _atom_site_fract_y
 _atom_site_fract_z
 _atom_site_occupancy
  Ac  Ac0  1  0.414343  0.414343  0.500000  1
  Ac  Ac1  1  0.585657  0.000000  0.500000  1
  Ac  Ac2  1  0.000000  0.585657  0.500000  1
  In  In3  1  0.748292  0.748292  0.000000  1
  In  In4  1  0.251708  0.000000  0.000000  1
  In  In5  1  0.000000  0.251708  0.000000  1
  Ag  Ag6  1  0.000000  0.000000  0.500000  1
  Pd  Pd7  1  0.666667  0.333333  0.000000  1
  Pd  Pd8  1  0.333333  0.666667  0.000000  1
