# generated using pymatgen
data_Dy5(SnBi)2
_symmetry_space_group_name_H-M   'P 1'
_cell_length_a   8.84106511
_cell_length_b   8.84106623
_cell_length_c   8.23471500
_cell_angle_alpha   90.00000000
_cell_angle_beta   90.00000000
_cell_angle_gamma   124.73987570
_symmetry_Int_Tables_number   1
_chemical_formula_structural   Dy5(SnBi)2
_chemical_formula_sum   'Dy10 Sn4 Bi4'
_cell_volume   528.92765399
_cell_formula_units_Z   2
loop_
 _symmetry_equiv_pos_site_id
 _symmetry_equiv_pos_as_xyz
  1  'x, y, z'
loop_
 _atom_site_type_symbol
 _atom_site_label
 _atom_site_symmetry_multiplicity
 _atom_site_fract_x
 _atom_site_fract_y
 _atom_site_fract_z
 _atom_site_occupancy
  Dy  Dy0  1  0.033283  0.297549  0.335923  1
  Dy  Dy1  1  0.966717  0.702451  0.664077  1
  Dy  Dy2  1  0.466717  0.202451  0.835923  1
  Dy  Dy3  1  0.797549  0.533283  0.164077  1
  Dy  Dy4  1  0.533283  0.797549  0.164077  1
  Dy  Dy5  1  0.202451  0.466717  0.835923  1
  Dy  Dy6  1  0.702451  0.966717  0.664077  1
  Dy  Dy7  1  0.297549  0.033283  0.335923  1
  Dy  Dy8  1  0.000000  0.000000  0.000000  1
  Dy  Dy9  1  0.500000  0.500000  0.500000  1
  Sn  Sn10  1  0.363702  0.363702  0.135950  1
  Sn  Sn11  1  0.636298  0.636298  0.864050  1
  Sn  Sn12  1  0.136298  0.136298  0.635950  1
  Sn  Sn13  1  0.863702  0.863702  0.364050  1
  Bi  Bi14  1  0.796083  0.203917  0.000000  1
  Bi  Bi15  1  0.203917  0.796083  0.000000  1
  Bi  Bi16  1  0.703917  0.296083  0.500000  1
  Bi  Bi17  1  0.296083  0.703917  0.500000  1
