# generated using pymatgen
data_Th8SnOs5Au2
_symmetry_space_group_name_H-M   'P 1'
_cell_length_a   4.35267100
_cell_length_b   6.05882860
_cell_length_c   14.96998800
_cell_angle_alpha   89.55032569
_cell_angle_beta   90.00000000
_cell_angle_gamma   90.00000000
_symmetry_Int_Tables_number   1
_chemical_formula_structural   Th8SnOs5Au2
_chemical_formula_sum   'Th8 Sn1 Os5 Au2'
_cell_volume   394.77767528
_cell_formula_units_Z   1
loop_
 _symmetry_equiv_pos_site_id
 _symmetry_equiv_pos_as_xyz
  1  'x, y, z'
loop_
 _atom_site_type_symbol
 _atom_site_label
 _atom_site_symmetry_multiplicity
 _atom_site_fract_x
 _atom_site_fract_y
 _atom_site_fract_z
 _atom_site_occupancy
  Th  Th0  1  0.250000  0.492265  0.264443  1
  Th  Th1  1  0.750000  0.473679  0.726287  1
  Th  Th2  1  0.750000  0.034037  0.207406  1
  Th  Th3  1  0.250000  0.978372  0.784021  1
  Th  Th4  1  0.250000  0.744030  0.043970  1
  Th  Th5  1  0.750000  0.262879  0.969202  1
  Th  Th6  1  0.750000  0.237211  0.456203  1
  Th  Th7  1  0.250000  0.783907  0.551038  1
  Sn  Sn8  1  0.750000  0.739147  0.391254  1
  Os  Os9  1  0.250000  0.040775  0.357486  1
  Os  Os10  1  0.750000  0.948857  0.655391  1
  Os  Os11  1  0.750000  0.560834  0.141962  1
  Os  Os12  1  0.250000  0.435709  0.853441  1
  Os  Os13  1  0.250000  0.216847  0.094095  1
  Au  Au14  1  0.750000  0.766227  0.900717  1
  Au  Au15  1  0.250000  0.285224  0.603084  1
