# generated using pymatgen
data_YbLu(Al3Ni)3
_symmetry_space_group_name_H-M   'P 1'
_cell_length_a   7.43566900
_cell_length_b   7.43206708
_cell_length_c   9.27656800
_cell_angle_alpha   90.00000000
_cell_angle_beta   90.00000000
_cell_angle_gamma   119.43130663
_symmetry_Int_Tables_number   1
_chemical_formula_structural   YbLu(Al3Ni)3
_chemical_formula_sum   'Yb2 Lu2 Al18 Ni6'
_cell_volume   446.48611366
_cell_formula_units_Z   2
loop_
 _symmetry_equiv_pos_site_id
 _symmetry_equiv_pos_as_xyz
  1  'x, y, z'
loop_
 _atom_site_type_symbol
 _atom_site_label
 _atom_site_symmetry_multiplicity
 _atom_site_fract_x
 _atom_site_fract_y
 _atom_site_fract_z
 _atom_site_occupancy
  Yb  Yb0  1  0.992883  0.669937  0.250000  1
  Yb  Yb1  1  0.007117  0.330063  0.750000  1
  Lu  Lu2  1  0.671665  0.995228  0.250000  1
  Lu  Lu3  1  0.328335  0.004772  0.750000  1
  Al  Al4  1  0.124036  0.125737  0.250000  1
  Al  Al5  1  0.875964  0.874263  0.750000  1
  Al  Al6  1  0.331738  0.330574  0.548762  1
  Al  Al7  1  0.668262  0.669426  0.048762  1
  Al  Al8  1  0.331738  0.330574  0.951238  1
  Al  Al9  1  0.668262  0.669426  0.451238  1
  Al  Al10  1  0.343645  0.556422  0.250000  1
  Al  Al11  1  0.656355  0.443578  0.750000  1
  Al  Al12  1  0.551142  0.336831  0.250000  1
  Al  Al13  1  0.448858  0.663169  0.750000  1
  Al  Al14  1  0.997616  0.334582  0.073045  1
  Al  Al15  1  0.002384  0.665418  0.573045  1
  Al  Al16  1  0.335229  0.996439  0.426832  1
  Al  Al17  1  0.664771  0.003561  0.926832  1
  Al  Al18  1  0.002384  0.665418  0.926955  1
  Al  Al19  1  0.997616  0.334582  0.426955  1
  Al  Al20  1  0.664771  0.003561  0.573168  1
  Al  Al21  1  0.335229  0.996439  0.073168  1
  Ni  Ni22  1  0.000000  0.000000  0.000000  1
  Ni  Ni23  1  0.000000  0.000000  0.500000  1
  Ni  Ni24  1  0.670728  0.329197  0.000542  1
  Ni  Ni25  1  0.329272  0.670803  0.500542  1
  Ni  Ni26  1  0.329272  0.670803  0.999458  1
  Ni  Ni27  1  0.670728  0.329197  0.499458  1
