# generated using pymatgen
data_TbDyFe2O7
_symmetry_space_group_name_H-M   'P 1'
_cell_length_a   7.17723928
_cell_length_b   7.17724042
_cell_length_c   7.17225100
_cell_angle_alpha   60.02298886
_cell_angle_beta   60.02298358
_cell_angle_gamma   60.05565984
_symmetry_Int_Tables_number   1
_chemical_formula_structural   TbDyFe2O7
_chemical_formula_sum   'Tb2 Dy2 Fe4 O14'
_cell_volume   261.45002242
_cell_formula_units_Z   2
loop_
 _symmetry_equiv_pos_site_id
 _symmetry_equiv_pos_as_xyz
  1  'x, y, z'
loop_
 _atom_site_type_symbol
 _atom_site_label
 _atom_site_symmetry_multiplicity
 _atom_site_fract_x
 _atom_site_fract_y
 _atom_site_fract_z
 _atom_site_occupancy
  Tb  Tb0  1  0.500000  0.000000  0.500000  1
  Tb  Tb1  1  0.000000  0.500000  0.500001  1
  Dy  Dy2  1  0.500000  0.500000  0.000000  1
  Dy  Dy3  1  0.500000  0.500000  0.500000  1
  Fe  Fe4  1  0.000000  0.500000  0.000001  1
  Fe  Fe5  1  0.500000  0.000000  0.000000  1
  Fe  Fe6  1  0.000000  0.000000  0.500000  1
  Fe  Fe7  1  0.000000  0.000000  0.000000  1
  O  O8  1  0.333186  0.916490  0.917232  1
  O  O9  1  0.083511  0.666814  0.666908  1
  O  O10  1  0.916488  0.333187  0.917232  1
  O  O11  1  0.917021  0.917023  0.332978  1
  O  O12  1  0.333258  0.333259  0.916741  1
  O  O13  1  0.333186  0.916490  0.333092  1
  O  O14  1  0.083511  0.666814  0.082768  1
  O  O15  1  0.666813  0.083511  0.666908  1
  O  O16  1  0.376005  0.376006  0.373995  1
  O  O17  1  0.623994  0.623995  0.626005  1
  O  O18  1  0.916488  0.333187  0.333092  1
  O  O19  1  0.666813  0.083511  0.082768  1
  O  O20  1  0.082978  0.082978  0.667022  1
  O  O21  1  0.666741  0.666742  0.083259  1
