# generated using pymatgen
data_TbTm(LuPb)3
_symmetry_space_group_name_H-M   'P 1'
_cell_length_a   6.53696900
_cell_length_b   8.91823887
_cell_length_c   8.95351131
_cell_angle_alpha   119.86976630
_cell_angle_beta   90.00041978
_cell_angle_gamma   89.99915264
_symmetry_Int_Tables_number   1
_chemical_formula_structural   TbTm(LuPb)3
_chemical_formula_sum   'Tb2 Tm2 Lu6 Pb6'
_cell_volume   452.63484462
_cell_formula_units_Z   2
loop_
 _symmetry_equiv_pos_site_id
 _symmetry_equiv_pos_as_xyz
  1  'x, y, z'
loop_
 _atom_site_type_symbol
 _atom_site_label
 _atom_site_symmetry_multiplicity
 _atom_site_fract_x
 _atom_site_fract_y
 _atom_site_fract_z
 _atom_site_occupancy
  Tb  Tb0  1  0.750016  0.235000  0.000000  1
  Tb  Tb1  1  0.249993  0.764948  0.000000  1
  Tm  Tm2  1  0.750008  0.763377  0.762629  1
  Tm  Tm3  1  0.750008  0.000750  0.237371  1
  Lu  Lu4  1  0.249996  0.236325  0.236654  1
  Lu  Lu5  1  0.249996  0.999670  0.763346  1
  Lu  Lu6  1  0.499900  0.333440  0.666977  1
  Lu  Lu7  1  0.499900  0.666464  0.333023  1
  Lu  Lu8  1  0.000098  0.666489  0.333017  1
  Lu  Lu9  1  0.000098  0.333473  0.666983  1
  Pb  Pb10  1  0.749984  0.605907  0.000000  1
  Pb  Pb11  1  0.750002  0.395941  0.397096  1
  Pb  Pb12  1  0.750002  0.998847  0.602904  1
  Pb  Pb13  1  0.250004  0.393323  0.000000  1
  Pb  Pb14  1  0.249998  0.604458  0.602870  1
  Pb  Pb15  1  0.249998  0.001587  0.397130  1
