# generated using pymatgen
data_Er3ZrCo7NiP6
_symmetry_space_group_name_H-M   'P 1'
_cell_length_a   3.71147400
_cell_length_b   10.63147400
_cell_length_c   12.35630800
_cell_angle_alpha   90.00000000
_cell_angle_beta   90.00000000
_cell_angle_gamma   90.00000000
_symmetry_Int_Tables_number   1
_chemical_formula_structural   Er3ZrCo7NiP6
_chemical_formula_sum   'Er6 Zr2 Co14 Ni2 P12'
_cell_volume   487.56062959
_cell_formula_units_Z   2
loop_
 _symmetry_equiv_pos_site_id
 _symmetry_equiv_pos_as_xyz
  1  'x, y, z'
loop_
 _atom_site_type_symbol
 _atom_site_label
 _atom_site_symmetry_multiplicity
 _atom_site_fract_x
 _atom_site_fract_y
 _atom_site_fract_z
 _atom_site_occupancy
  Er  Er0  1  0.750000  0.250000  0.471574  1
  Er  Er1  1  0.250000  0.750000  0.528426  1
  Er  Er2  1  0.250000  0.928902  0.795541  1
  Er  Er3  1  0.250000  0.571098  0.795541  1
  Er  Er4  1  0.750000  0.071098  0.204459  1
  Er  Er5  1  0.750000  0.428902  0.204459  1
  Zr  Zr6  1  0.250000  0.250000  0.841223  1
  Zr  Zr7  1  0.750000  0.750000  0.158777  1
  Co  Co8  1  0.750000  0.250000  0.013553  1
  Co  Co9  1  0.250000  0.750000  0.986447  1
  Co  Co10  1  0.250000  0.417924  0.006937  1
  Co  Co11  1  0.250000  0.082076  0.006937  1
  Co  Co12  1  0.750000  0.582076  0.993063  1
  Co  Co13  1  0.750000  0.917924  0.993063  1
  Co  Co14  1  0.250000  0.453760  0.565928  1
  Co  Co15  1  0.250000  0.046240  0.565928  1
  Co  Co16  1  0.750000  0.546240  0.434072  1
  Co  Co17  1  0.750000  0.953760  0.434072  1
  Co  Co18  1  0.250000  0.873380  0.297852  1
  Co  Co19  1  0.250000  0.626620  0.297852  1
  Co  Co20  1  0.750000  0.126620  0.702148  1
  Co  Co21  1  0.750000  0.373380  0.702148  1
  Ni  Ni22  1  0.250000  0.250000  0.296879  1
  Ni  Ni23  1  0.750000  0.750000  0.703121  1
  P  P24  1  0.250000  0.250000  0.116243  1
  P  P25  1  0.750000  0.750000  0.883757  1
  P  P26  1  0.250000  0.250000  0.635635  1
  P  P27  1  0.750000  0.750000  0.364365  1
  P  P28  1  0.250000  0.439622  0.384320  1
  P  P29  1  0.250000  0.060378  0.384320  1
  P  P30  1  0.750000  0.560378  0.615680  1
  P  P31  1  0.750000  0.939622  0.615680  1
  P  P32  1  0.250000  0.912534  0.107091  1
  P  P33  1  0.250000  0.587466  0.107091  1
  P  P34  1  0.750000  0.087466  0.892909  1
  P  P35  1  0.750000  0.412534  0.892909  1
