# generated using pymatgen
data_Tb2Y6Zn3Si12Au
_symmetry_space_group_name_H-M   'P 1'
_cell_length_a   8.15805200
_cell_length_b   8.15804953
_cell_length_c   8.12156000
_cell_angle_alpha   90.00000000
_cell_angle_beta   90.00000000
_cell_angle_gamma   120.00000192
_symmetry_Int_Tables_number   1
_chemical_formula_structural   Tb2Y6Zn3Si12Au
_chemical_formula_sum   'Tb2 Y6 Zn3 Si12 Au1'
_cell_volume   468.10457666
_cell_formula_units_Z   1
loop_
 _symmetry_equiv_pos_site_id
 _symmetry_equiv_pos_as_xyz
  1  'x, y, z'
loop_
 _atom_site_type_symbol
 _atom_site_label
 _atom_site_symmetry_multiplicity
 _atom_site_fract_x
 _atom_site_fract_y
 _atom_site_fract_z
 _atom_site_occupancy
  Tb  Tb0  1  0.000000  0.000000  0.249545  1
  Tb  Tb1  1  0.000000  0.000000  0.750626  1
  Y  Y2  1  0.501862  0.003722  0.248041  1
  Y  Y3  1  0.500753  0.001508  0.751971  1
  Y  Y4  1  0.996278  0.498138  0.248041  1
  Y  Y5  1  0.998492  0.499247  0.751971  1
  Y  Y6  1  0.501862  0.498138  0.248041  1
  Y  Y7  1  0.500753  0.499247  0.751971  1
  Zn  Zn8  1  0.333333  0.666667  0.004993  1
  Zn  Zn9  1  0.666667  0.333333  0.995202  1
  Zn  Zn10  1  0.666667  0.333333  0.500149  1
  Si  Si11  1  0.166385  0.332771  0.997802  1
  Si  Si12  1  0.832696  0.665392  0.002165  1
  Si  Si13  1  0.667229  0.833615  0.997802  1
  Si  Si14  1  0.833167  0.666332  0.501961  1
  Si  Si15  1  0.334608  0.167304  0.002165  1
  Si  Si16  1  0.163502  0.327002  0.498077  1
  Si  Si17  1  0.166385  0.833615  0.997802  1
  Si  Si18  1  0.333668  0.166833  0.501961  1
  Si  Si19  1  0.832696  0.167304  0.002165  1
  Si  Si20  1  0.672998  0.836498  0.498077  1
  Si  Si21  1  0.833167  0.166833  0.501961  1
  Si  Si22  1  0.163502  0.836498  0.498077  1
  Au  Au23  1  0.333333  0.666667  0.499435  1
