# generated using pymatgen
data_KPr3BiSb3Au4
_symmetry_space_group_name_H-M   'P 1'
_cell_length_a   4.74575900
_cell_length_b   4.74575851
_cell_length_c   17.82788800
_cell_angle_alpha   90.00000000
_cell_angle_beta   90.00000000
_cell_angle_gamma   120.00001038
_symmetry_Int_Tables_number   1
_chemical_formula_structural   KPr3BiSb3Au4
_chemical_formula_sum   'K1 Pr3 Bi1 Sb3 Au4'
_cell_volume   347.72971014
_cell_formula_units_Z   1
loop_
 _symmetry_equiv_pos_site_id
 _symmetry_equiv_pos_as_xyz
  1  'x, y, z'
loop_
 _atom_site_type_symbol
 _atom_site_label
 _atom_site_symmetry_multiplicity
 _atom_site_fract_x
 _atom_site_fract_y
 _atom_site_fract_z
 _atom_site_occupancy
  K  K0  1  0.000000  0.000000  0.241592  1
  Pr  Pr1  1  0.000000  0.000000  0.516922  1
  Pr  Pr2  1  0.000000  0.000000  0.985279  1
  Pr  Pr3  1  0.000000  0.000000  0.750887  1
  Bi  Bi4  1  0.333333  0.666667  0.388644  1
  Sb  Sb5  1  0.666667  0.333333  0.620634  1
  Sb  Sb6  1  0.666667  0.333333  0.880279  1
  Sb  Sb7  1  0.333333  0.666667  0.103414  1
  Au  Au8  1  0.666667  0.333333  0.434544  1
  Au  Au9  1  0.333333  0.666667  0.666286  1
  Au  Au10  1  0.333333  0.666667  0.834605  1
  Au  Au11  1  0.666667  0.333333  0.076916  1
