# generated using pymatgen
data_Ti4V4GaAs3
_symmetry_space_group_name_H-M   'P 1'
_cell_length_a   3.39392700
_cell_length_b   6.62447232
_cell_length_c   8.01919520
_cell_angle_alpha   89.66351038
_cell_angle_beta   90.00000000
_cell_angle_gamma   90.00000000
_symmetry_Int_Tables_number   1
_chemical_formula_structural   Ti4V4GaAs3
_chemical_formula_sum   'Ti4 V4 Ga1 As3'
_cell_volume   180.29225957
_cell_formula_units_Z   1
loop_
 _symmetry_equiv_pos_site_id
 _symmetry_equiv_pos_as_xyz
  1  'x, y, z'
loop_
 _atom_site_type_symbol
 _atom_site_label
 _atom_site_symmetry_multiplicity
 _atom_site_fract_x
 _atom_site_fract_y
 _atom_site_fract_z
 _atom_site_occupancy
  Ti  Ti0  1  0.250000  0.553520  0.166887  1
  Ti  Ti1  1  0.750000  0.443911  0.832960  1
  Ti  Ti2  1  0.750000  0.949401  0.661781  1
  Ti  Ti3  1  0.250000  0.051255  0.332705  1
  V  V4  1  0.250000  0.624035  0.556860  1
  V  V5  1  0.750000  0.370642  0.440590  1
  V  V6  1  0.750000  0.878423  0.063105  1
  V  V7  1  0.250000  0.128481  0.942848  1
  Ga  Ga8  1  0.250000  0.746838  0.859173  1
  As  As9  1  0.750000  0.255754  0.141307  1
  As  As10  1  0.750000  0.750935  0.359861  1
  As  As11  1  0.250000  0.246805  0.641925  1
