# generated using pymatgen
data_Zr10Sn4BSb2
_symmetry_space_group_name_H-M   'P 1'
_cell_length_a   8.46883895
_cell_length_b   8.46515134
_cell_length_c   5.75034200
_cell_angle_alpha   90.18435880
_cell_angle_beta   89.90786762
_cell_angle_gamma   119.98560221
_symmetry_Int_Tables_number   1
_chemical_formula_structural   Zr10Sn4BSb2
_chemical_formula_sum   'Zr10 Sn4 B1 Sb2'
_cell_volume   357.06201322
_cell_formula_units_Z   1
loop_
 _symmetry_equiv_pos_site_id
 _symmetry_equiv_pos_as_xyz
  1  'x, y, z'
loop_
 _atom_site_type_symbol
 _atom_site_label
 _atom_site_symmetry_multiplicity
 _atom_site_fract_x
 _atom_site_fract_y
 _atom_site_fract_z
 _atom_site_occupancy
  Zr  Zr0  1  0.665050  0.331785  0.500099  1
  Zr  Zr1  1  0.334950  0.666736  0.500099  1
  Zr  Zr2  1  0.334561  0.666787  0.999092  1
  Zr  Zr3  1  0.665439  0.332224  0.999092  1
  Zr  Zr4  1  0.763608  0.763325  0.258807  1
  Zr  Zr5  1  0.236392  0.999717  0.258807  1
  Zr  Zr6  1  0.000000  0.236091  0.256720  1
  Zr  Zr7  1  0.238717  0.239059  0.741570  1
  Zr  Zr8  1  0.761283  0.000343  0.741570  1
  Zr  Zr9  1  0.000000  0.763776  0.743614  1
  Sn  Sn10  1  0.000000  0.601579  0.248776  1
  Sn  Sn11  1  0.604782  0.603922  0.751847  1
  Sn  Sn12  1  0.395218  0.999141  0.751847  1
  Sn  Sn13  1  0.000000  0.398424  0.751889  1
  B  B14  1  0.000000  0.000652  0.500534  1
  Sb  Sb15  1  0.396649  0.396543  0.247818  1
  Sb  Sb16  1  0.603351  0.999895  0.247818  1
