# generated using pymatgen
data_Pr8Sc12Si15Ag
_symmetry_space_group_name_H-M   'P 1'
_cell_length_a   7.29686298
_cell_length_b   7.52859651
_cell_length_c   14.33436827
_cell_angle_alpha   90.01769068
_cell_angle_beta   89.55283403
_cell_angle_gamma   90.26568004
_symmetry_Int_Tables_number   1
_chemical_formula_structural   Pr8Sc12Si15Ag
_chemical_formula_sum   'Pr8 Sc12 Si15 Ag1'
_cell_volume   787.42801018
_cell_formula_units_Z   1
loop_
 _symmetry_equiv_pos_site_id
 _symmetry_equiv_pos_as_xyz
  1  'x, y, z'
loop_
 _atom_site_type_symbol
 _atom_site_label
 _atom_site_symmetry_multiplicity
 _atom_site_fract_x
 _atom_site_fract_y
 _atom_site_fract_z
 _atom_site_occupancy
  Pr  Pr0  1  0.009193  0.170721  0.398832  1
  Pr  Pr1  1  0.513675  0.325913  0.399181  1
  Pr  Pr2  1  0.486724  0.673103  0.902621  1
  Pr  Pr3  1  0.493284  0.674785  0.601150  1
  Pr  Pr4  1  0.989177  0.833776  0.597482  1
  Pr  Pr5  1  0.986829  0.828297  0.902600  1
  Pr  Pr6  1  0.512809  0.327176  0.097475  1
  Pr  Pr7  1  0.012898  0.172661  0.098529  1
  Sc  Sc8  1  0.342582  0.170863  0.628151  1
  Sc  Sc9  1  0.666156  0.824471  0.373585  1
  Sc  Sc10  1  0.663549  0.000617  0.751817  1
  Sc  Sc11  1  0.166588  0.676771  0.371106  1
  Sc  Sc12  1  0.829559  0.322835  0.875965  1
  Sc  Sc13  1  0.823130  0.325004  0.625278  1
  Sc  Sc14  1  0.839764  0.503096  0.250692  1
  Sc  Sc15  1  0.340564  0.995885  0.248589  1
  Sc  Sc16  1  0.328389  0.174013  0.875778  1
  Sc  Sc17  1  0.169482  0.676249  0.125227  1
  Sc  Sc18  1  0.671314  0.824976  0.124547  1
  Sc  Sc19  1  0.160973  0.495955  0.754096  1
  Si  Si20  1  0.286522  0.882725  0.750663  1
  Si  Si21  1  0.465648  0.625129  0.248266  1
  Si  Si22  1  0.036098  0.129347  0.749918  1
  Si  Si23  1  0.535552  0.376421  0.752089  1
  Si  Si24  1  0.964552  0.875188  0.249110  1
  Si  Si25  1  0.710199  0.117406  0.248547  1
  Si  Si26  1  0.849632  0.537275  0.039648  1
  Si  Si27  1  0.348436  0.962599  0.040231  1
  Si  Si28  1  0.149612  0.462879  0.961136  1
  Si  Si29  1  0.652181  0.037577  0.538603  1
  Si  Si30  1  0.345293  0.959566  0.460660  1
  Si  Si31  1  0.839994  0.543021  0.457511  1
  Si  Si32  1  0.791374  0.616956  0.751382  1
  Si  Si33  1  0.212377  0.382408  0.249318  1
  Si  Si34  1  0.650738  0.036935  0.959901  1
  Ag  Ag35  1  0.155152  0.457404  0.540317  1
