# generated using pymatgen
data_Dy20Ir3RuAu8
_symmetry_space_group_name_H-M   'P 1'
_cell_length_a   11.33174700
_cell_length_b   11.33174700
_cell_length_c   6.32213200
_cell_angle_alpha   90.00000000
_cell_angle_beta   90.00000000
_cell_angle_gamma   90.00000000
_symmetry_Int_Tables_number   1
_chemical_formula_structural   Dy20Ir3RuAu8
_chemical_formula_sum   'Dy20 Ir3 Ru1 Au8'
_cell_volume   811.81542416
_cell_formula_units_Z   1
loop_
 _symmetry_equiv_pos_site_id
 _symmetry_equiv_pos_as_xyz
  1  'x, y, z'
loop_
 _atom_site_type_symbol
 _atom_site_label
 _atom_site_symmetry_multiplicity
 _atom_site_fract_x
 _atom_site_fract_y
 _atom_site_fract_z
 _atom_site_occupancy
  Dy  Dy0  1  0.299805  0.083166  0.353117  1
  Dy  Dy1  1  0.300450  0.916240  0.855178  1
  Dy  Dy2  1  0.699550  0.083760  0.855178  1
  Dy  Dy3  1  0.700195  0.916834  0.353117  1
  Dy  Dy4  1  0.583760  0.800450  0.855178  1
  Dy  Dy5  1  0.583166  0.200195  0.353117  1
  Dy  Dy6  1  0.416834  0.799805  0.353117  1
  Dy  Dy7  1  0.416240  0.199550  0.855178  1
  Dy  Dy8  1  0.201682  0.416392  0.645400  1
  Dy  Dy9  1  0.201596  0.583697  0.145562  1
  Dy  Dy10  1  0.798404  0.416303  0.145562  1
  Dy  Dy11  1  0.798318  0.583608  0.645400  1
  Dy  Dy12  1  0.916303  0.701596  0.145562  1
  Dy  Dy13  1  0.916392  0.298318  0.645400  1
  Dy  Dy14  1  0.083608  0.701682  0.645400  1
  Dy  Dy15  1  0.083697  0.298404  0.145562  1
  Dy  Dy16  1  0.000000  0.000000  0.499413  1
  Dy  Dy17  1  0.000000  0.000000  0.998837  1
  Dy  Dy18  1  0.500000  0.500000  0.998837  1
  Dy  Dy19  1  0.500000  0.500000  0.499413  1
  Ir  Ir20  1  0.500000  0.000000  0.606712  1
  Ir  Ir21  1  0.000000  0.500000  0.896433  1
  Ir  Ir22  1  0.000000  0.500000  0.396682  1
  Ru  Ru23  1  0.500000  0.000000  0.107871  1
  Au  Au24  1  0.844138  0.156125  0.249852  1
  Au  Au25  1  0.844126  0.844254  0.749842  1
  Au  Au26  1  0.155874  0.155746  0.749842  1
  Au  Au27  1  0.155862  0.843875  0.249852  1
  Au  Au28  1  0.655746  0.344126  0.749842  1
  Au  Au29  1  0.656125  0.655862  0.249852  1
  Au  Au30  1  0.343875  0.344138  0.249852  1
  Au  Au31  1  0.344254  0.655874  0.749842  1
