# generated using pymatgen
data_Y3Th5(P7Ir8)2
_symmetry_space_group_name_H-M   'P 1'
_cell_length_a   3.98167300
_cell_length_b   12.77979954
_cell_length_c   13.19604524
_cell_angle_alpha   81.90933495
_cell_angle_beta   90.00000000
_cell_angle_gamma   90.00000000
_symmetry_Int_Tables_number   1
_chemical_formula_structural   Y3Th5(P7Ir8)2
_chemical_formula_sum   'Y3 Th5 P14 Ir16'
_cell_volume   664.79702100
_cell_formula_units_Z   1
loop_
 _symmetry_equiv_pos_site_id
 _symmetry_equiv_pos_as_xyz
  1  'x, y, z'
loop_
 _atom_site_type_symbol
 _atom_site_label
 _atom_site_symmetry_multiplicity
 _atom_site_fract_x
 _atom_site_fract_y
 _atom_site_fract_z
 _atom_site_occupancy
  Y  Y0  1  0.750000  0.480555  0.707480  1
  Y  Y1  1  0.250000  0.208507  0.439958  1
  Y  Y2  1  0.750000  0.791559  0.559833  1
  Th  Th3  1  0.250000  0.107574  0.789972  1
  Th  Th4  1  0.750000  0.892880  0.207217  1
  Th  Th5  1  0.250000  0.282258  0.100183  1
  Th  Th6  1  0.750000  0.715685  0.900121  1
  Th  Th7  1  0.250000  0.515579  0.291336  1
  P  P8  1  0.250000  0.054877  0.099678  1
  P  P9  1  0.750000  0.945278  0.899739  1
  P  P10  1  0.250000  0.317462  0.687561  1
  P  P11  1  0.750000  0.685523  0.315103  1
  P  P12  1  0.250000  0.608410  0.566570  1
  P  P13  1  0.750000  0.389239  0.439107  1
  P  P14  1  0.250000  0.844476  0.715426  1
  P  P15  1  0.750000  0.155452  0.284922  1
  P  P16  1  0.750000  0.254246  0.916328  1
  P  P17  1  0.250000  0.747632  0.084884  1
  P  P18  1  0.750000  0.093343  0.588858  1
  P  P19  1  0.250000  0.906782  0.412309  1
  P  P20  1  0.750000  0.472017  0.125393  1
  P  P21  1  0.250000  0.527351  0.869145  1
  Ir  Ir22  1  0.250000  0.992014  0.575984  1
  Ir  Ir23  1  0.750000  0.008365  0.424064  1
  Ir  Ir24  1  0.250000  0.664062  0.729744  1
  Ir  Ir25  1  0.750000  0.336629  0.269831  1
  Ir  Ir26  1  0.250000  0.550497  0.047209  1
  Ir  Ir27  1  0.750000  0.450353  0.949563  1
  Ir  Ir28  1  0.250000  0.060182  0.275425  1
  Ir  Ir29  1  0.750000  0.939719  0.724749  1
  Ir  Ir30  1  0.250000  0.424884  0.527599  1
  Ir  Ir31  1  0.750000  0.575992  0.476190  1
  Ir  Ir32  1  0.250000  0.917974  0.994946  1
  Ir  Ir33  1  0.750000  0.082772  0.002959  1
  Ir  Ir34  1  0.250000  0.728259  0.398828  1
  Ir  Ir35  1  0.750000  0.271512  0.602116  1
  Ir  Ir36  1  0.250000  0.339501  0.858636  1
  Ir  Ir37  1  0.750000  0.660598  0.141036  1
