# generated using pymatgen
data_GaBiSeCl4
_symmetry_space_group_name_H-M   'P 1'
_cell_length_a   10.48737093
_cell_length_b   10.48737128
_cell_length_c   10.48737111
_cell_angle_alpha   107.72972715
_cell_angle_beta   107.72972045
_cell_angle_gamma   113.01334976
_symmetry_Int_Tables_number   1
_chemical_formula_structural   GaBiSeCl4
_chemical_formula_sum   'Ga4 Bi4 Se4 Cl16'
_cell_volume   885.36648079
_cell_formula_units_Z   4
loop_
 _symmetry_equiv_pos_site_id
 _symmetry_equiv_pos_as_xyz
  1  'x, y, z'
loop_
 _atom_site_type_symbol
 _atom_site_label
 _atom_site_symmetry_multiplicity
 _atom_site_fract_x
 _atom_site_fract_y
 _atom_site_fract_z
 _atom_site_occupancy
  Ga  Ga0  1  0.591233  0.710603  0.729568  1
  Ga  Ga1  1  0.138335  0.408767  0.119370  1
  Ga  Ga2  1  0.981035  0.861665  0.270432  1
  Ga  Ga3  1  0.289397  0.018965  0.880630  1
  Bi  Bi4  1  0.808966  0.215090  0.285447  1
  Bi  Bi5  1  0.784910  0.070357  0.593877  1
  Bi  Bi6  1  0.929643  0.523520  0.714553  1
  Bi  Bi7  1  0.476480  0.191034  0.406123  1
  Se  Se8  1  0.021956  0.321372  0.588190  1
  Se  Se9  1  0.733182  0.433767  0.411810  1
  Se  Se10  1  0.566233  0.978044  0.299416  1
  Se  Se11  1  0.678628  0.266818  0.700584  1
  Cl  Cl12  1  0.835449  0.821561  0.386103  1
  Cl  Cl13  1  0.510341  0.813582  0.587137  1
  Cl  Cl14  1  0.823999  0.767243  0.743281  1
  Cl  Cl15  1  0.178439  0.564543  0.013888  1
  Cl  Cl16  1  0.550654  0.164551  0.986112  1
  Cl  Cl17  1  0.919281  0.176001  0.943244  1
  Cl  Cl18  1  0.023963  0.080719  0.256719  1
  Cl  Cl19  1  0.232757  0.976037  0.056756  1
  Cl  Cl20  1  0.226446  0.923204  0.412863  1
  Cl  Cl21  1  0.076796  0.489659  0.303242  1
  Cl  Cl22  1  0.190457  0.135644  0.784718  1
  Cl  Cl23  1  0.350926  0.405739  0.215282  1
  Cl  Cl24  1  0.186418  0.773554  0.696758  1
  Cl  Cl25  1  0.864356  0.649074  0.054813  1
  Cl  Cl26  1  0.435457  0.449346  0.613897  1
  Cl  Cl27  1  0.594261  0.809543  0.945187  1
