# generated using pymatgen
data_Li2Pr3ZnPd2Ru
_symmetry_space_group_name_H-M   'P 1'
_cell_length_a   7.38658891
_cell_length_b   7.33649638
_cell_length_c   4.10166800
_cell_angle_alpha   90.00000000
_cell_angle_beta   90.00000000
_cell_angle_gamma   119.35322581
_symmetry_Int_Tables_number   1
_chemical_formula_structural   Li2Pr3ZnPd2Ru
_chemical_formula_sum   'Li2 Pr3 Zn1 Pd2 Ru1'
_cell_volume   193.73918854
_cell_formula_units_Z   1
loop_
 _symmetry_equiv_pos_site_id
 _symmetry_equiv_pos_as_xyz
  1  'x, y, z'
loop_
 _atom_site_type_symbol
 _atom_site_label
 _atom_site_symmetry_multiplicity
 _atom_site_fract_x
 _atom_site_fract_y
 _atom_site_fract_z
 _atom_site_occupancy
  Li  Li0  1  0.771016  0.770620  0.000000  1
  Li  Li1  1  0.999053  0.228336  0.000000  1
  Pr  Pr2  1  0.571587  0.987304  0.500000  1
  Pr  Pr3  1  0.406291  0.417889  0.500000  1
  Pr  Pr4  1  0.015147  0.593317  0.500000  1
  Zn  Zn5  1  0.235827  0.995330  0.000000  1
  Pd  Pd6  1  0.010846  0.002496  0.500000  1
  Pd  Pd7  1  0.659966  0.330509  0.000000  1
  Ru  Ru8  1  0.330270  0.674199  0.000000  1
