# generated using pymatgen
data_TbDyWO6
_symmetry_space_group_name_H-M   'P 1'
_cell_length_a   5.41255200
_cell_length_b   7.72123262
_cell_length_c   11.49568821
_cell_angle_alpha   75.56869529
_cell_angle_beta   90.00000000
_cell_angle_gamma   90.00000000
_symmetry_Int_Tables_number   1
_chemical_formula_structural   TbDyWO6
_chemical_formula_sum   'Tb4 Dy4 W4 O24'
_cell_volume   465.26417700
_cell_formula_units_Z   4
loop_
 _symmetry_equiv_pos_site_id
 _symmetry_equiv_pos_as_xyz
  1  'x, y, z'
loop_
 _atom_site_type_symbol
 _atom_site_label
 _atom_site_symmetry_multiplicity
 _atom_site_fract_x
 _atom_site_fract_y
 _atom_site_fract_z
 _atom_site_occupancy
  Tb  Tb0  1  0.738838  0.000000  0.750000  1
  Tb  Tb1  1  0.261162  0.000000  0.250000  1
  Tb  Tb2  1  0.683691  0.500000  0.750000  1
  Tb  Tb3  1  0.316309  0.500000  0.250000  1
  Dy  Dy4  1  0.186875  0.795687  0.577778  1
  Dy  Dy5  1  0.813125  0.795687  0.077778  1
  Dy  Dy6  1  0.186875  0.204313  0.922222  1
  Dy  Dy7  1  0.813125  0.204313  0.422222  1
  W  W8  1  0.254077  0.722738  0.885799  1
  W  W9  1  0.745923  0.722738  0.385799  1
  W  W10  1  0.254077  0.277262  0.614201  1
  W  W11  1  0.745923  0.277262  0.114201  1
  O  O12  1  0.042322  0.938854  0.895869  1
  O  O13  1  0.528589  0.848774  0.931236  1
  O  O14  1  0.957678  0.938854  0.395869  1
  O  O15  1  0.459116  0.788016  0.728355  1
  O  O16  1  0.471411  0.848774  0.431236  1
  O  O17  1  0.983737  0.709863  0.771558  1
  O  O18  1  0.540884  0.788016  0.228355  1
  O  O19  1  0.851871  0.635134  0.547954  1
  O  O20  1  0.361834  0.489908  0.887266  1
  O  O21  1  0.016263  0.709863  0.271558  1
  O  O22  1  0.361834  0.510092  0.612734  1
  O  O23  1  0.851871  0.364866  0.952046  1
  O  O24  1  0.148129  0.635134  0.047954  1
  O  O25  1  0.638166  0.489908  0.387266  1
  O  O26  1  0.983737  0.290137  0.728442  1
  O  O27  1  0.638166  0.510092  0.112734  1
  O  O28  1  0.148129  0.364866  0.452046  1
  O  O29  1  0.459116  0.211984  0.771645  1
  O  O30  1  0.016263  0.290137  0.228442  1
  O  O31  1  0.528589  0.151226  0.568764  1
  O  O32  1  0.540884  0.211984  0.271645  1
  O  O33  1  0.042322  0.061146  0.604131  1
  O  O34  1  0.471411  0.151226  0.068764  1
  O  O35  1  0.957678  0.061146  0.104131  1
