# generated using pymatgen
data_Sm4TaTc3B16
_symmetry_space_group_name_H-M   'P 1'
_cell_length_a   3.65592000
_cell_length_b   6.06647615
_cell_length_c   11.74608150
_cell_angle_alpha   89.95621706
_cell_angle_beta   90.00000000
_cell_angle_gamma   90.00000000
_symmetry_Int_Tables_number   1
_chemical_formula_structural   Sm4TaTc3B16
_chemical_formula_sum   'Sm4 Ta1 Tc3 B16'
_cell_volume   260.51099738
_cell_formula_units_Z   1
loop_
 _symmetry_equiv_pos_site_id
 _symmetry_equiv_pos_as_xyz
  1  'x, y, z'
loop_
 _atom_site_type_symbol
 _atom_site_label
 _atom_site_symmetry_multiplicity
 _atom_site_fract_x
 _atom_site_fract_y
 _atom_site_fract_z
 _atom_site_occupancy
  Sm  Sm0  1  0.000000  0.623772  0.347105  1
  Sm  Sm1  1  0.000000  0.373286  0.651801  1
  Sm  Sm2  1  0.000000  0.126907  0.149660  1
  Sm  Sm3  1  0.000000  0.873657  0.852300  1
  Ta  Ta4  1  0.000000  0.870229  0.584483  1
  Tc  Tc5  1  0.000000  0.632560  0.086849  1
  Tc  Tc6  1  0.000000  0.367811  0.915807  1
  Tc  Tc7  1  0.000000  0.128682  0.413220  1
  B  B8  1  0.500000  0.782484  0.183772  1
  B  B9  1  0.500000  0.218911  0.817362  1
  B  B10  1  0.500000  0.283399  0.315053  1
  B  B11  1  0.500000  0.710348  0.688753  1
  B  B12  1  0.500000  0.861570  0.031839  1
  B  B13  1  0.500000  0.139035  0.969121  1
  B  B14  1  0.500000  0.362547  0.465572  1
  B  B15  1  0.500000  0.631863  0.530102  1
  B  B16  1  0.500000  0.890052  0.450491  1
  B  B17  1  0.500000  0.117409  0.543615  1
  B  B18  1  0.500000  0.388526  0.046601  1
  B  B19  1  0.500000  0.611940  0.954432  1
  B  B20  1  0.500000  0.977119  0.307604  1
  B  B21  1  0.500000  0.029067  0.693615  1
  B  B22  1  0.500000  0.475459  0.189898  1
  B  B23  1  0.500000  0.523368  0.810945  1
