# generated using pymatgen
data_Sr3Zn12Te7Pb9WO48
_symmetry_space_group_name_H-M   'P 1'
_cell_length_a   11.29309490
_cell_length_b   11.29309487
_cell_length_c   11.29309500
_cell_angle_alpha   109.51635999
_cell_angle_beta   109.51635993
_cell_angle_gamma   109.51636527
_symmetry_Int_Tables_number   1
_chemical_formula_structural   Sr3Zn12Te7Pb9WO48
_chemical_formula_sum   'Sr3 Zn12 Te7 Pb9 W1 O48'
_cell_volume   1106.85078633
_cell_formula_units_Z   1
loop_
 _symmetry_equiv_pos_site_id
 _symmetry_equiv_pos_as_xyz
  1  'x, y, z'
loop_
 _atom_site_type_symbol
 _atom_site_label
 _atom_site_symmetry_multiplicity
 _atom_site_fract_x
 _atom_site_fract_y
 _atom_site_fract_z
 _atom_site_occupancy
  Sr  Sr0  1  0.623653  0.872438  0.747590  1
  Sr  Sr1  1  0.625126  0.250061  0.874953  1
  Sr  Sr2  1  0.747525  0.623562  0.872332  1
  Zn  Zn3  1  0.750596  0.874923  0.124035  1
  Zn  Zn4  1  0.874021  0.249106  0.124064  1
  Zn  Zn5  1  0.622421  0.373336  0.245898  1
  Zn  Zn6  1  0.124326  0.874122  0.248967  1
  Zn  Zn7  1  0.626434  0.752504  0.377655  1
  Zn  Zn8  1  0.247424  0.623540  0.373528  1
  Zn  Zn9  1  0.373795  0.247151  0.623723  1
  Zn  Zn10  1  0.753479  0.377822  0.627802  1
  Zn  Zn11  1  0.874113  0.124354  0.750006  1
  Zn  Zn12  1  0.378036  0.626929  0.752723  1
  Zn  Zn13  1  0.124525  0.750824  0.875582  1
  Zn  Zn14  1  0.250355  0.124469  0.875332  1
  Te  Te15  1  0.997464  0.998022  0.998347  1
  Te  Te16  1  0.500931  0.000447  0.998480  1
  Te  Te17  1  0.997495  0.499415  0.999100  1
  Te  Te18  1  0.501537  0.499618  0.999099  1
  Te  Te19  1  0.999985  0.000030  0.499995  1
  Te  Te20  1  0.501003  0.000633  0.502440  1
  Te  Te21  1  0.000029  0.499947  0.500046  1
  Pb  Pb22  1  0.375071  0.749749  0.124810  1
  Pb  Pb23  1  0.251457  0.375929  0.126244  1
  Pb  Pb24  1  0.875039  0.625060  0.250021  1
  Pb  Pb25  1  0.375973  0.126268  0.251609  1
  Pb  Pb26  1  0.126587  0.251698  0.375739  1
  Pb  Pb27  1  0.749405  0.124626  0.374812  1
  Pb  Pb28  1  0.873133  0.747904  0.623670  1
  Pb  Pb29  1  0.250224  0.875088  0.625093  1
  Pb  Pb30  1  0.125153  0.375297  0.750333  1
  W  W31  1  0.501177  0.501495  0.501999  1
  O  O32  1  0.329969  0.907955  0.015193  1
  O  O33  1  0.184441  0.107888  0.014609  1
  O  O34  1  0.687280  0.669436  0.073637  1
  O  O35  1  0.887774  0.404812  0.074914  1
  O  O36  1  0.980975  0.670024  0.090769  1
  O  O37  1  0.610076  0.420484  0.089727  1
  O  O38  1  0.593428  0.922343  0.107062  1
  O  O39  1  0.014623  0.185078  0.108496  1
  O  O40  1  0.184810  0.577742  0.169813  1
  O  O41  1  0.487445  0.593557  0.171363  1
  O  O42  1  0.578398  0.170332  0.185828  1
  O  O43  1  0.108090  0.014993  0.185290  1
  O  O44  1  0.330163  0.924257  0.315419  1
  O  O45  1  0.489688  0.394563  0.318197  1
  O  O46  1  0.907633  0.016374  0.329189  1
  O  O47  1  0.923496  0.313290  0.329420  1
  O  O48  1  0.577830  0.908235  0.392021  1
  O  O49  1  0.316509  0.488256  0.393927  1
  O  O50  1  0.827990  0.513563  0.406250  1
  O  O51  1  0.078533  0.892479  0.407383  1
  O  O52  1  0.829484  0.813291  0.421124  1
  O  O53  1  0.091671  0.608739  0.421902  1
  O  O54  1  0.594247  0.172058  0.487431  1
  O  O55  1  0.392913  0.317290  0.489023  1
  O  O56  1  0.609165  0.687784  0.516408  1
  O  O57  1  0.408134  0.828540  0.516679  1
  O  O58  1  0.170558  0.186885  0.578614  1
  O  O59  1  0.908026  0.390928  0.577889  1
  O  O60  1  0.921597  0.107848  0.592865  1
  O  O61  1  0.172108  0.486257  0.593861  1
  O  O62  1  0.686031  0.515273  0.612315  1
  O  O63  1  0.425490  0.094155  0.613328  1
  O  O64  1  0.092152  0.983698  0.670587  1
  O  O65  1  0.076795  0.686484  0.670528  1
  O  O66  1  0.517889  0.612795  0.688611  1
  O  O67  1  0.669668  0.075724  0.689395  1
  O  O68  1  0.886657  0.981943  0.812535  1
  O  O69  1  0.424643  0.830722  0.812341  1
  O  O70  1  0.517703  0.405707  0.828953  1
  O  O71  1  0.810200  0.422615  0.830530  1
  O  O72  1  0.980941  0.811027  0.889640  1
  O  O73  1  0.409187  0.079852  0.891102  1
  O  O74  1  0.015194  0.329340  0.907259  1
  O  O75  1  0.391723  0.577084  0.907352  1
  O  O76  1  0.106651  0.592536  0.921608  1
  O  O77  1  0.314450  0.329630  0.923592  1
  O  O78  1  0.669629  0.093244  0.980102  1
  O  O79  1  0.810449  0.886516  0.979888  1
