# generated using pymatgen
data_Ce3ScH12
_symmetry_space_group_name_H-M   'P 1'
_cell_length_a   6.61173700
_cell_length_b   6.61173700
_cell_length_c   6.61173700
_cell_angle_alpha   90.00000000
_cell_angle_beta   90.00000000
_cell_angle_gamma   90.00000000
_symmetry_Int_Tables_number   1
_chemical_formula_structural   Ce3ScH12
_chemical_formula_sum   'Ce6 Sc2 H24'
_cell_volume   289.03252037
_cell_formula_units_Z   2
loop_
 _symmetry_equiv_pos_site_id
 _symmetry_equiv_pos_as_xyz
  1  'x, y, z'
loop_
 _atom_site_type_symbol
 _atom_site_label
 _atom_site_symmetry_multiplicity
 _atom_site_fract_x
 _atom_site_fract_y
 _atom_site_fract_z
 _atom_site_occupancy
  Ce  Ce0  1  0.250000  0.000000  0.500000  1
  Ce  Ce1  1  0.750000  0.000000  0.500000  1
  Ce  Ce2  1  0.000000  0.500000  0.250000  1
  Ce  Ce3  1  0.000000  0.500000  0.750000  1
  Ce  Ce4  1  0.500000  0.750000  0.000000  1
  Ce  Ce5  1  0.500000  0.250000  0.000000  1
  Sc  Sc6  1  0.000000  0.000000  0.000000  1
  Sc  Sc7  1  0.500000  0.500000  0.500000  1
  H  H8  1  0.000000  0.150463  0.292717  1
  H  H9  1  0.500000  0.207283  0.650463  1
  H  H10  1  0.500000  0.792717  0.349537  1
  H  H11  1  0.792717  0.650463  0.500000  1
  H  H12  1  0.207283  0.650463  0.500000  1
  H  H13  1  0.349537  0.500000  0.792717  1
  H  H14  1  0.650463  0.500000  0.792717  1
  H  H15  1  0.292717  0.000000  0.150463  1
  H  H16  1  0.150463  0.292717  0.000000  1
  H  H17  1  0.849537  0.707283  0.000000  1
  H  H18  1  0.292717  0.000000  0.849537  1
  H  H19  1  0.849537  0.292717  0.000000  1
  H  H20  1  0.707283  0.000000  0.150463  1
  H  H21  1  0.707283  0.000000  0.849537  1
  H  H22  1  0.150463  0.707283  0.000000  1
  H  H23  1  0.000000  0.849537  0.707283  1
  H  H24  1  0.000000  0.150463  0.707283  1
  H  H25  1  0.000000  0.849537  0.292717  1
  H  H26  1  0.650463  0.500000  0.207283  1
  H  H27  1  0.349537  0.500000  0.207283  1
  H  H28  1  0.792717  0.349537  0.500000  1
  H  H29  1  0.207283  0.349537  0.500000  1
  H  H30  1  0.500000  0.792717  0.650463  1
  H  H31  1  0.500000  0.207283  0.349537  1
