# generated using pymatgen
data_Hf3Sc5Co11Si16Rh
_symmetry_space_group_name_H-M   'P 1'
_cell_length_a   5.22213135
_cell_length_b   6.78798191
_cell_length_c   13.69256142
_cell_angle_alpha   90.22062653
_cell_angle_beta   90.01061007
_cell_angle_gamma   89.98530602
_symmetry_Int_Tables_number   1
_chemical_formula_structural   Hf3Sc5Co11Si16Rh
_chemical_formula_sum   'Hf3 Sc5 Co11 Si16 Rh1'
_cell_volume   485.36664050
_cell_formula_units_Z   1
loop_
 _symmetry_equiv_pos_site_id
 _symmetry_equiv_pos_as_xyz
  1  'x, y, z'
loop_
 _atom_site_type_symbol
 _atom_site_label
 _atom_site_symmetry_multiplicity
 _atom_site_fract_x
 _atom_site_fract_y
 _atom_site_fract_z
 _atom_site_occupancy
  Hf  Hf0  1  0.731097  0.900845  0.356284  1
  Hf  Hf1  1  0.267494  0.903393  0.854715  1
  Hf  Hf2  1  0.772170  0.601048  0.852450  1
  Sc  Sc3  1  0.231626  0.398728  0.147692  1
  Sc  Sc4  1  0.727630  0.100568  0.145680  1
  Sc  Sc5  1  0.271836  0.100632  0.642211  1
  Sc  Sc6  1  0.767687  0.400732  0.641597  1
  Sc  Sc7  1  0.229720  0.599456  0.356614  1
  Co  Co8  1  0.506678  0.224484  0.482941  1
  Co  Co9  1  0.773643  0.998332  0.750391  1
  Co  Co10  1  0.493832  0.221721  0.982629  1
  Co  Co11  1  0.723899  0.501367  0.251568  1
  Co  Co12  1  0.494351  0.774399  0.517599  1
  Co  Co13  1  0.004961  0.272059  0.482188  1
  Co  Co14  1  0.006662  0.723897  0.018183  1
  Co  Co15  1  0.224493  0.000414  0.250934  1
  Co  Co16  1  0.277217  0.502721  0.750028  1
  Co  Co17  1  0.507449  0.774832  0.018300  1
  Co  Co18  1  0.993831  0.726422  0.517590  1
  Si  Si19  1  0.221098  0.012786  0.070725  1
  Si  Si20  1  0.716805  0.518124  0.432893  1
  Si  Si21  1  0.784460  0.018148  0.567466  1
  Si  Si22  1  0.478935  0.752758  0.187885  1
  Si  Si23  1  0.021635  0.253403  0.805153  1
  Si  Si24  1  0.520579  0.248105  0.812657  1
  Si  Si25  1  0.217696  0.980087  0.433006  1
  Si  Si26  1  0.293879  0.525062  0.932326  1
  Si  Si27  1  0.977992  0.748266  0.187544  1
  Si  Si28  1  0.708208  0.486099  0.069834  1
  Si  Si29  1  0.282728  0.481780  0.566498  1
  Si  Si30  1  0.482448  0.246344  0.314843  1
  Si  Si31  1  0.021756  0.748405  0.686239  1
  Si  Si32  1  0.777026  0.974152  0.931668  1
  Si  Si33  1  0.519369  0.753265  0.686641  1
  Si  Si34  1  0.974763  0.251206  0.314034  1
  Rh  Rh35  1  0.994347  0.275959  0.980995  1
