# generated using pymatgen
data_Tm4CoB14
_symmetry_space_group_name_H-M   'P 1'
_cell_length_a   7.16309000
_cell_length_b   7.16309000
_cell_length_c   7.41623300
_cell_angle_alpha   90.00000000
_cell_angle_beta   90.00000000
_cell_angle_gamma   90.00000000
_symmetry_Int_Tables_number   1
_chemical_formula_structural   Tm4CoB14
_chemical_formula_sum   'Tm8 Co2 B28'
_cell_volume   380.52586471
_cell_formula_units_Z   2
loop_
 _symmetry_equiv_pos_site_id
 _symmetry_equiv_pos_as_xyz
  1  'x, y, z'
loop_
 _atom_site_type_symbol
 _atom_site_label
 _atom_site_symmetry_multiplicity
 _atom_site_fract_x
 _atom_site_fract_y
 _atom_site_fract_z
 _atom_site_occupancy
  Tm  Tm0  1  0.193279  0.330290  0.000000  1
  Tm  Tm1  1  0.669710  0.193279  0.000000  1
  Tm  Tm2  1  0.330290  0.806721  0.000000  1
  Tm  Tm3  1  0.693279  0.169710  0.500000  1
  Tm  Tm4  1  0.306721  0.830290  0.500000  1
  Tm  Tm5  1  0.806721  0.669710  0.000000  1
  Tm  Tm6  1  0.830290  0.693279  0.500000  1
  Tm  Tm7  1  0.169710  0.306721  0.500000  1
  Co  Co8  1  0.000000  0.000000  0.000000  1
  Co  Co9  1  0.500000  0.500000  0.500000  1
  B  B10  1  0.175098  0.038695  0.230620  1
  B  B11  1  0.961305  0.175098  0.230620  1
  B  B12  1  0.038695  0.824902  0.230620  1
  B  B13  1  0.675098  0.461305  0.269380  1
  B  B14  1  0.324902  0.538695  0.269380  1
  B  B15  1  0.824902  0.961305  0.230620  1
  B  B16  1  0.538695  0.675098  0.269380  1
  B  B17  1  0.461305  0.324902  0.269380  1
  B  B18  1  0.824902  0.961305  0.769380  1
  B  B19  1  0.038695  0.824902  0.769380  1
  B  B20  1  0.961305  0.175098  0.769380  1
  B  B21  1  0.324902  0.538695  0.730620  1
  B  B22  1  0.675098  0.461305  0.730620  1
  B  B23  1  0.175098  0.038695  0.769380  1
  B  B24  1  0.461305  0.324902  0.730620  1
  B  B25  1  0.538695  0.675098  0.730620  1
  B  B26  1  0.087668  0.587668  0.250000  1
  B  B27  1  0.412332  0.087668  0.250000  1
  B  B28  1  0.587668  0.912332  0.250000  1
  B  B29  1  0.912332  0.412332  0.250000  1
  B  B30  1  0.912332  0.412332  0.750000  1
  B  B31  1  0.587668  0.912332  0.750000  1
  B  B32  1  0.412332  0.087668  0.750000  1
  B  B33  1  0.087668  0.587668  0.750000  1
  B  B34  1  0.000000  0.000000  0.388377  1
  B  B35  1  0.500000  0.500000  0.111623  1
  B  B36  1  0.000000  0.000000  0.611623  1
  B  B37  1  0.500000  0.500000  0.888377  1
