# generated using pymatgen
data_HoLu3(ZrPt)4
_symmetry_space_group_name_H-M   'P 1'
_cell_length_a   4.68584100
_cell_length_b   6.98702965
_cell_length_c   8.22484400
_cell_angle_alpha   89.96059753
_cell_angle_beta   90.00000000
_cell_angle_gamma   90.00000000
_symmetry_Int_Tables_number   1
_chemical_formula_structural   HoLu3(ZrPt)4
_chemical_formula_sum   'Ho1 Lu3 Zr4 Pt4'
_cell_volume   269.28223372
_cell_formula_units_Z   1
loop_
 _symmetry_equiv_pos_site_id
 _symmetry_equiv_pos_as_xyz
  1  'x, y, z'
loop_
 _atom_site_type_symbol
 _atom_site_label
 _atom_site_symmetry_multiplicity
 _atom_site_fract_x
 _atom_site_fract_y
 _atom_site_fract_z
 _atom_site_occupancy
  Ho  Ho0  1  0.250000  0.515217  0.178519  1
  Lu  Lu1  1  0.750000  0.483817  0.821166  1
  Lu  Lu2  1  0.750000  0.983754  0.678490  1
  Lu  Lu3  1  0.250000  0.016008  0.322386  1
  Zr  Zr4  1  0.250000  0.650188  0.580692  1
  Zr  Zr5  1  0.750000  0.349755  0.420628  1
  Zr  Zr6  1  0.750000  0.850888  0.080449  1
  Zr  Zr7  1  0.250000  0.149175  0.919046  1
  Pt  Pt8  1  0.250000  0.765943  0.904276  1
  Pt  Pt9  1  0.750000  0.234167  0.093486  1
  Pt  Pt10  1  0.750000  0.736009  0.406883  1
  Pt  Pt11  1  0.250000  0.265080  0.593980  1
