# generated using pymatgen
data_MgNp(Si7Ir3)2
_symmetry_space_group_name_H-M   'P 1'
_cell_length_a   8.02080995
_cell_length_b   8.02080986
_cell_length_c   8.02081053
_cell_angle_alpha   56.65994166
_cell_angle_beta   56.65994740
_cell_angle_gamma   56.65994619
_symmetry_Int_Tables_number   1
_chemical_formula_structural   MgNp(Si7Ir3)2
_chemical_formula_sum   'Mg1 Np1 Si14 Ir6'
_cell_volume   336.72448878
_cell_formula_units_Z   1
loop_
 _symmetry_equiv_pos_site_id
 _symmetry_equiv_pos_as_xyz
  1  'x, y, z'
loop_
 _atom_site_type_symbol
 _atom_site_label
 _atom_site_symmetry_multiplicity
 _atom_site_fract_x
 _atom_site_fract_y
 _atom_site_fract_z
 _atom_site_occupancy
  Mg  Mg0  1  0.000000  0.000000  0.000000  1
  Np  Np1  1  0.500000  0.500000  0.500000  1
  Si  Si2  1  0.749311  0.749311  0.749311  1
  Si  Si3  1  0.250689  0.250689  0.250689  1
  Si  Si4  1  0.853557  0.063838  0.674012  1
  Si  Si5  1  0.674012  0.853557  0.063838  1
  Si  Si6  1  0.063838  0.674012  0.853557  1
  Si  Si7  1  0.652563  0.828294  0.433347  1
  Si  Si8  1  0.433347  0.652563  0.828294  1
  Si  Si9  1  0.828294  0.433347  0.652563  1
  Si  Si10  1  0.171706  0.566653  0.347437  1
  Si  Si11  1  0.566653  0.347437  0.171706  1
  Si  Si12  1  0.347437  0.171706  0.566653  1
  Si  Si13  1  0.936162  0.325988  0.146443  1
  Si  Si14  1  0.325988  0.146443  0.936162  1
  Si  Si15  1  0.146443  0.936162  0.325988  1
  Ir  Ir16  1  0.072082  0.429383  0.749632  1
  Ir  Ir17  1  0.250368  0.927918  0.570617  1
  Ir  Ir18  1  0.570617  0.250368  0.927918  1
  Ir  Ir19  1  0.927918  0.570617  0.250368  1
  Ir  Ir20  1  0.429383  0.749632  0.072082  1
  Ir  Ir21  1  0.749632  0.072082  0.429383  1
