# generated using pymatgen
data_Tb2Er2BCl6
_symmetry_space_group_name_H-M   'P 1'
_cell_length_a   3.85014700
_cell_length_b   12.63504200
_cell_length_c   13.10812600
_cell_angle_alpha   90.00000000
_cell_angle_beta   90.00000000
_cell_angle_gamma   90.00000000
_symmetry_Int_Tables_number   1
_chemical_formula_structural   Tb2Er2BCl6
_chemical_formula_sum   'Tb4 Er4 B2 Cl12'
_cell_volume   637.66797822
_cell_formula_units_Z   2
loop_
 _symmetry_equiv_pos_site_id
 _symmetry_equiv_pos_as_xyz
  1  'x, y, z'
loop_
 _atom_site_type_symbol
 _atom_site_label
 _atom_site_symmetry_multiplicity
 _atom_site_fract_x
 _atom_site_fract_y
 _atom_site_fract_z
 _atom_site_occupancy
  Tb  Tb0  1  0.500000  0.126940  0.850662  1
  Tb  Tb1  1  0.500000  0.873060  0.149338  1
  Tb  Tb2  1  0.500000  0.626940  0.649338  1
  Tb  Tb3  1  0.500000  0.373060  0.350662  1
  Er  Er4  1  0.000000  0.105135  0.083165  1
  Er  Er5  1  0.000000  0.894865  0.916835  1
  Er  Er6  1  0.000000  0.605135  0.416835  1
  Er  Er7  1  0.000000  0.394865  0.583165  1
  B  B8  1  0.500000  0.000000  0.000000  1
  B  B9  1  0.500000  0.500000  0.500000  1
  Cl  Cl10  1  0.500000  0.270158  0.680830  1
  Cl  Cl11  1  0.500000  0.729842  0.319170  1
  Cl  Cl12  1  0.500000  0.770158  0.819170  1
  Cl  Cl13  1  0.500000  0.229842  0.180830  1
  Cl  Cl14  1  0.000000  0.256770  0.931264  1
  Cl  Cl15  1  0.000000  0.743230  0.068736  1
  Cl  Cl16  1  0.000000  0.480263  0.243684  1
  Cl  Cl17  1  0.000000  0.519737  0.756316  1
  Cl  Cl18  1  0.000000  0.980263  0.256316  1
  Cl  Cl19  1  0.000000  0.019737  0.743684  1
  Cl  Cl20  1  0.000000  0.243230  0.431264  1
  Cl  Cl21  1  0.000000  0.756770  0.568736  1
