# generated using pymatgen
data_Er15Th5(FeSb2)4
_symmetry_space_group_name_H-M   'P 1'
_cell_length_a   8.03423365
_cell_length_b   8.58576041
_cell_length_c   12.21426740
_cell_angle_alpha   89.86771987
_cell_angle_beta   90.12719201
_cell_angle_gamma   90.14425938
_symmetry_Int_Tables_number   1
_chemical_formula_structural   Er15Th5(FeSb2)4
_chemical_formula_sum   'Er15 Th5 Fe4 Sb8'
_cell_volume   842.53324787
_cell_formula_units_Z   1
loop_
 _symmetry_equiv_pos_site_id
 _symmetry_equiv_pos_as_xyz
  1  'x, y, z'
loop_
 _atom_site_type_symbol
 _atom_site_label
 _atom_site_symmetry_multiplicity
 _atom_site_fract_x
 _atom_site_fract_y
 _atom_site_fract_z
 _atom_site_occupancy
  Er  Er0  1  0.161507  0.748865  0.204497  1
  Er  Er1  1  0.658176  0.252150  0.299249  1
  Er  Er2  1  0.836969  0.249634  0.793833  1
  Er  Er3  1  0.339235  0.751501  0.702440  1
  Er  Er4  1  0.458865  0.749737  0.000094  1
  Er  Er5  1  0.956127  0.247942  0.500293  1
  Er  Er6  1  0.548393  0.252348  0.000318  1
  Er  Er7  1  0.044063  0.746127  0.499433  1
  Er  Er8  1  0.619500  0.753245  0.301499  1
  Er  Er9  1  0.118580  0.248563  0.200268  1
  Er  Er10  1  0.377320  0.251744  0.697584  1
  Er  Er11  1  0.876566  0.743984  0.800325  1
  Er  Er12  1  0.682062  0.959752  0.565770  1
  Er  Er13  1  0.821469  0.542085  0.067416  1
  Er  Er14  1  0.319046  0.459549  0.432416  1
  Th  Th15  1  0.820831  0.965454  0.062757  1
  Th  Th16  1  0.326363  0.032694  0.440254  1
  Th  Th17  1  0.174547  0.461529  0.939720  1
  Th  Th18  1  0.672781  0.532437  0.560402  1
  Th  Th19  1  0.183452  0.034450  0.937176  1
  Fe  Fe20  1  0.420874  0.766817  0.483656  1
  Fe  Fe21  1  0.931703  0.235006  0.011871  1
  Fe  Fe22  1  0.577620  0.266575  0.517434  1
  Fe  Fe23  1  0.079503  0.754735  0.982686  1
  Sb  Sb24  1  0.924871  0.987270  0.328042  1
  Sb  Sb25  1  0.425726  0.013511  0.173332  1
  Sb  Sb26  1  0.073460  0.486979  0.673191  1
  Sb  Sb27  1  0.570394  0.510972  0.826814  1
  Sb  Sb28  1  0.067686  0.008160  0.673166  1
  Sb  Sb29  1  0.575426  0.987423  0.824018  1
  Sb  Sb30  1  0.928011  0.509979  0.325355  1
  Sb  Sb31  1  0.428874  0.488780  0.174691  1
