# generated using pymatgen
data_Lu2Hf3Zr3F30
_symmetry_space_group_name_H-M   'P 1'
_cell_length_a   8.11005461
_cell_length_b   8.10881513
_cell_length_c   8.11031217
_cell_angle_alpha   79.77817740
_cell_angle_beta   79.73326366
_cell_angle_gamma   100.03947122
_symmetry_Int_Tables_number   1
_chemical_formula_structural   Lu2Hf3Zr3F30
_chemical_formula_sum   'Lu2 Hf3 Zr3 F30'
_cell_volume   504.67175931
_cell_formula_units_Z   1
loop_
 _symmetry_equiv_pos_site_id
 _symmetry_equiv_pos_as_xyz
  1  'x, y, z'
loop_
 _atom_site_type_symbol
 _atom_site_label
 _atom_site_symmetry_multiplicity
 _atom_site_fract_x
 _atom_site_fract_y
 _atom_site_fract_z
 _atom_site_occupancy
  Lu  Lu0  1  0.177427  0.821351  0.251224  1
  Lu  Lu1  1  0.821493  0.178537  0.749553  1
  Hf  Hf2  1  0.751020  0.248784  0.249707  1
  Hf  Hf3  1  0.248958  0.751041  0.750098  1
  Hf  Hf4  1  0.749932  0.678207  0.673602  1
  Zr  Zr5  1  0.322184  0.250465  0.826148  1
  Zr  Zr6  1  0.249601  0.321541  0.326243  1
  Zr  Zr7  1  0.678515  0.750317  0.173587  1
  F  F8  1  0.317496  0.352211  0.052789  1
  F  F9  1  0.940531  0.813265  0.151951  1
  F  F10  1  0.842681  0.458398  0.684079  1
  F  F11  1  0.456369  0.845247  0.183602  1
  F  F12  1  0.811018  0.936885  0.653405  1
  F  F13  1  0.351580  0.317375  0.552524  1
  F  F14  1  0.685000  0.650352  0.943295  1
  F  F15  1  0.059931  0.186829  0.848010  1
  F  F16  1  0.154240  0.543235  0.317132  1
  F  F17  1  0.543693  0.154899  0.816575  1
  F  F18  1  0.186213  0.059355  0.349233  1
  F  F19  1  0.651015  0.683149  0.449124  1
  F  F20  1  0.775057  0.278467  0.996691  1
  F  F21  1  0.006926  0.275615  0.219558  1
  F  F22  1  0.777133  0.505015  0.222592  1
  F  F23  1  0.505398  0.775059  0.722774  1
  F  F24  1  0.276629  0.006967  0.719575  1
  F  F25  1  0.278809  0.774656  0.496858  1
  F  F26  1  0.225060  0.721494  0.003233  1
  F  F27  1  0.992952  0.723731  0.778421  1
  F  F28  1  0.222776  0.494871  0.776516  1
  F  F29  1  0.494963  0.222522  0.276259  1
  F  F30  1  0.724030  0.992881  0.280430  1
  F  F31  1  0.721532  0.224964  0.502894  1
  F  F32  1  0.467261  0.533649  0.249585  1
  F  F33  1  0.748863  0.958413  0.968084  1
  F  F34  1  0.041594  0.251103  0.532622  1
  F  F35  1  0.251349  0.042545  0.032795  1
  F  F36  1  0.956024  0.748056  0.470062  1
  F  F37  1  0.534746  0.468553  0.749170  1
