# generated using pymatgen
data_Dy4ErZn2Sb
_symmetry_space_group_name_H-M   'P 1'
_cell_length_a   8.56687711
_cell_length_b   8.56687641
_cell_length_c   8.56687671
_cell_angle_alpha   123.56968054
_cell_angle_beta   123.56968330
_cell_angle_gamma   83.92090095
_symmetry_Int_Tables_number   1
_chemical_formula_structural   Dy4ErZn2Sb
_chemical_formula_sum   'Dy8 Er2 Zn4 Sb2'
_cell_volume   418.01910788
_cell_formula_units_Z   2
loop_
 _symmetry_equiv_pos_site_id
 _symmetry_equiv_pos_as_xyz
  1  'x, y, z'
loop_
 _atom_site_type_symbol
 _atom_site_label
 _atom_site_symmetry_multiplicity
 _atom_site_fract_x
 _atom_site_fract_y
 _atom_site_fract_z
 _atom_site_occupancy
  Dy  Dy0  1  0.010849  0.510849  0.810254  1
  Dy  Dy1  1  0.700595  0.200595  0.189746  1
  Dy  Dy2  1  0.510849  0.700595  0.500000  1
  Dy  Dy3  1  0.200595  0.010849  0.500000  1
  Dy  Dy4  1  0.989151  0.489151  0.189746  1
  Dy  Dy5  1  0.299405  0.799405  0.810254  1
  Dy  Dy6  1  0.489151  0.299405  0.500000  1
  Dy  Dy7  1  0.799405  0.989151  0.500000  1
  Er  Er8  1  0.000000  0.000000  0.000000  1
  Er  Er9  1  0.500000  0.500000  0.000000  1
  Zn  Zn10  1  0.636411  0.136411  0.772822  1
  Zn  Zn11  1  0.363589  0.863589  0.227178  1
  Zn  Zn12  1  0.136411  0.363589  0.500000  1
  Zn  Zn13  1  0.863589  0.636411  0.500000  1
  Sb  Sb14  1  0.750000  0.750000  0.000000  1
  Sb  Sb15  1  0.250000  0.250000  0.000000  1
