# generated using pymatgen
data_Y3Nb(P3Rh4)2
_symmetry_space_group_name_H-M   'P 1'
_cell_length_a   3.95163500
_cell_length_b   11.18404100
_cell_length_c   12.88808100
_cell_angle_alpha   90.00000000
_cell_angle_beta   90.00000000
_cell_angle_gamma   90.00000000
_symmetry_Int_Tables_number   1
_chemical_formula_structural   Y3Nb(P3Rh4)2
_chemical_formula_sum   'Y6 Nb2 P12 Rh16'
_cell_volume   569.59193420
_cell_formula_units_Z   2
loop_
 _symmetry_equiv_pos_site_id
 _symmetry_equiv_pos_as_xyz
  1  'x, y, z'
loop_
 _atom_site_type_symbol
 _atom_site_label
 _atom_site_symmetry_multiplicity
 _atom_site_fract_x
 _atom_site_fract_y
 _atom_site_fract_z
 _atom_site_occupancy
  Y  Y0  1  0.000000  0.500000  0.521494  1
  Y  Y1  1  0.500000  0.000000  0.478506  1
  Y  Y2  1  0.500000  0.818473  0.202386  1
  Y  Y3  1  0.500000  0.181527  0.202386  1
  Y  Y4  1  0.000000  0.681527  0.797614  1
  Y  Y5  1  0.000000  0.318473  0.797614  1
  Nb  Nb6  1  0.500000  0.500000  0.157772  1
  Nb  Nb7  1  0.000000  0.000000  0.842228  1
  P  P8  1  0.500000  0.500000  0.875847  1
  P  P9  1  0.000000  0.000000  0.124153  1
  P  P10  1  0.500000  0.500000  0.350285  1
  P  P11  1  0.000000  0.000000  0.649715  1
  P  P12  1  0.500000  0.313928  0.616620  1
  P  P13  1  0.500000  0.686072  0.616620  1
  P  P14  1  0.000000  0.186072  0.383380  1
  P  P15  1  0.000000  0.813928  0.383380  1
  P  P16  1  0.500000  0.845459  0.888003  1
  P  P17  1  0.500000  0.154541  0.888003  1
  P  P18  1  0.000000  0.654541  0.111997  1
  P  P19  1  0.000000  0.345459  0.111997  1
  Rh  Rh20  1  0.500000  0.500000  0.697976  1
  Rh  Rh21  1  0.000000  0.000000  0.302024  1
  Rh  Rh22  1  0.000000  0.500000  0.986528  1
  Rh  Rh23  1  0.500000  0.000000  0.013472  1
  Rh  Rh24  1  0.500000  0.331838  0.985374  1
  Rh  Rh25  1  0.500000  0.668162  0.985374  1
  Rh  Rh26  1  0.000000  0.168162  0.014626  1
  Rh  Rh27  1  0.000000  0.831838  0.014626  1
  Rh  Rh28  1  0.500000  0.293271  0.431962  1
  Rh  Rh29  1  0.500000  0.706729  0.431962  1
  Rh  Rh30  1  0.000000  0.206729  0.568038  1
  Rh  Rh31  1  0.000000  0.793271  0.568038  1
  Rh  Rh32  1  0.500000  0.874277  0.706885  1
  Rh  Rh33  1  0.500000  0.125723  0.706885  1
  Rh  Rh34  1  0.000000  0.625723  0.293115  1
  Rh  Rh35  1  0.000000  0.374277  0.293115  1
