# generated using pymatgen
data_Sc4Cr3Tc2Os3
_symmetry_space_group_name_H-M   'P 1'
_cell_length_a   5.15730536
_cell_length_b   5.09823858
_cell_length_c   8.58093700
_cell_angle_alpha   90.00000000
_cell_angle_beta   90.00000000
_cell_angle_gamma   121.28930967
_symmetry_Int_Tables_number   1
_chemical_formula_structural   Sc4Cr3Tc2Os3
_chemical_formula_sum   'Sc4 Cr3 Tc2 Os3'
_cell_volume   192.80492092
_cell_formula_units_Z   1
loop_
 _symmetry_equiv_pos_site_id
 _symmetry_equiv_pos_as_xyz
  1  'x, y, z'
loop_
 _atom_site_type_symbol
 _atom_site_label
 _atom_site_symmetry_multiplicity
 _atom_site_fract_x
 _atom_site_fract_y
 _atom_site_fract_z
 _atom_site_occupancy
  Sc  Sc0  1  0.332761  0.663836  0.436035  1
  Sc  Sc1  1  0.666494  0.335002  0.560183  1
  Sc  Sc2  1  0.666494  0.335002  0.939817  1
  Sc  Sc3  1  0.332761  0.663836  0.063965  1
  Cr  Cr4  1  0.168827  0.336019  0.750000  1
  Cr  Cr5  1  0.343607  0.173169  0.250000  1
  Cr  Cr6  1  0.829302  0.661364  0.250000  1
  Tc  Tc7  1  0.172248  0.822769  0.750000  1
  Tc  Tc8  1  0.655292  0.826584  0.750000  1
  Os  Os9  1  0.006906  0.001260  0.006730  1
  Os  Os10  1  0.818401  0.179899  0.250000  1
  Os  Os11  1  0.006906  0.001260  0.493270  1
