# generated using pymatgen
data_Pa2InTe5
_symmetry_space_group_name_H-M   'P 1'
_cell_length_a   9.48473607
_cell_length_b   9.48473632
_cell_length_c   9.48473561
_cell_angle_alpha   127.98507847
_cell_angle_beta   127.98508060
_cell_angle_gamma   76.64920489
_symmetry_Int_Tables_number   1
_chemical_formula_structural   Pa2InTe5
_chemical_formula_sum   'Pa4 In2 Te10'
_cell_volume   514.81367482
_cell_formula_units_Z   2
loop_
 _symmetry_equiv_pos_site_id
 _symmetry_equiv_pos_as_xyz
  1  'x, y, z'
loop_
 _atom_site_type_symbol
 _atom_site_label
 _atom_site_symmetry_multiplicity
 _atom_site_fract_x
 _atom_site_fract_y
 _atom_site_fract_z
 _atom_site_occupancy
  Pa  Pa0  1  0.650848  0.150848  0.801697  1
  Pa  Pa1  1  0.349152  0.849152  0.198303  1
  Pa  Pa2  1  0.150848  0.349152  0.500000  1
  Pa  Pa3  1  0.849152  0.650848  0.500000  1
  In  In4  1  0.750000  0.750000  0.000000  1
  In  In5  1  0.250000  0.250000  0.000000  1
  Te  Te6  1  0.015063  0.515063  0.799297  1
  Te  Te7  1  0.715766  0.215766  0.200703  1
  Te  Te8  1  0.515063  0.715766  0.500000  1
  Te  Te9  1  0.215766  0.015063  0.500000  1
  Te  Te10  1  0.984937  0.484937  0.200703  1
  Te  Te11  1  0.284234  0.784234  0.799297  1
  Te  Te12  1  0.484937  0.284234  0.500000  1
  Te  Te13  1  0.784234  0.984937  0.500000  1
  Te  Te14  1  0.000000  0.000000  0.000000  1
  Te  Te15  1  0.500000  0.500000  0.000000  1
