# generated using pymatgen
data_Tb5Tm11(InIr)4
_symmetry_space_group_name_H-M   'P 1'
_cell_length_a   9.60959598
_cell_length_b   9.59539384
_cell_length_c   9.59539262
_cell_angle_alpha   60.02640996
_cell_angle_beta   59.95102975
_cell_angle_gamma   59.95102555
_symmetry_Int_Tables_number   1
_chemical_formula_structural   Tb5Tm11(InIr)4
_chemical_formula_sum   'Tb5 Tm11 In4 Ir4'
_cell_volume   625.28829015
_cell_formula_units_Z   1
loop_
 _symmetry_equiv_pos_site_id
 _symmetry_equiv_pos_as_xyz
  1  'x, y, z'
loop_
 _atom_site_type_symbol
 _atom_site_label
 _atom_site_symmetry_multiplicity
 _atom_site_fract_x
 _atom_site_fract_y
 _atom_site_fract_z
 _atom_site_occupancy
  Tb  Tb0  1  0.807449  0.192551  0.192551  1
  Tb  Tb1  1  0.810163  0.189411  0.810330  1
  Tb  Tb2  1  0.190095  0.810330  0.189411  1
  Tb  Tb3  1  0.810163  0.810330  0.189411  1
  Tb  Tb4  1  0.190095  0.189411  0.810330  1
  Tm  Tm5  1  0.597546  0.597938  0.597938  1
  Tm  Tm6  1  0.597350  0.600516  0.204784  1
  Tm  Tm7  1  0.597350  0.204784  0.600516  1
  Tm  Tm8  1  0.206579  0.597938  0.597938  1
  Tm  Tm9  1  0.060021  0.439979  0.439979  1
  Tm  Tm10  1  0.440234  0.059766  0.059766  1
  Tm  Tm11  1  0.440787  0.058598  0.440429  1
  Tm  Tm12  1  0.060186  0.440429  0.058598  1
  Tm  Tm13  1  0.440787  0.440429  0.058598  1
  Tm  Tm14  1  0.060186  0.058598  0.440429  1
  Tm  Tm15  1  0.191661  0.808339  0.808339  1
  In  In16  1  0.833819  0.832367  0.832367  1
  In  In17  1  0.832220  0.832245  0.503316  1
  In  In18  1  0.832220  0.503316  0.832245  1
  In  In19  1  0.501446  0.832367  0.832367  1
  Ir  Ir20  1  0.391489  0.390366  0.390366  1
  Ir  Ir21  1  0.390188  0.392260  0.827365  1
  Ir  Ir22  1  0.390188  0.827365  0.392260  1
  Ir  Ir23  1  0.827779  0.390366  0.390366  1
