# generated using pymatgen
data_Y7Te8
_symmetry_space_group_name_H-M   'P 1'
_cell_length_a   8.48325326
_cell_length_b   8.48325302
_cell_length_c   10.44805176
_cell_angle_alpha   53.54881761
_cell_angle_beta   53.54880953
_cell_angle_gamma   61.71948179
_symmetry_Int_Tables_number   1
_chemical_formula_structural   Y7Te8
_chemical_formula_sum   'Y7 Te8'
_cell_volume   477.92671612
_cell_formula_units_Z   1
loop_
 _symmetry_equiv_pos_site_id
 _symmetry_equiv_pos_as_xyz
  1  'x, y, z'
loop_
 _atom_site_type_symbol
 _atom_site_label
 _atom_site_symmetry_multiplicity
 _atom_site_fract_x
 _atom_site_fract_y
 _atom_site_fract_z
 _atom_site_occupancy
  Y  Y0  1  0.740416  0.259584  0.500000  1
  Y  Y1  1  0.259584  0.740416  0.500000  1
  Y  Y2  1  0.500000  0.000000  0.500000  1
  Y  Y3  1  0.000000  0.500000  0.500000  1
  Y  Y4  1  0.746778  0.746778  0.002546  1
  Y  Y5  1  0.253222  0.253222  0.997454  1
  Y  Y6  1  0.000000  0.000000  0.000000  1
  Te  Te7  1  0.960068  0.960068  0.334057  1
  Te  Te8  1  0.039932  0.039932  0.665943  1
  Te  Te9  1  0.544031  0.040491  0.166489  1
  Te  Te10  1  0.455969  0.959509  0.833511  1
  Te  Te11  1  0.959509  0.455969  0.833511  1
  Te  Te12  1  0.040491  0.544031  0.166489  1
  Te  Te13  1  0.457840  0.457840  0.325991  1
  Te  Te14  1  0.542160  0.542160  0.674009  1
