# generated using pymatgen
data_Zr8In4Cu4PdPt3
_symmetry_space_group_name_H-M   'P 1'
_cell_length_a   7.43621016
_cell_length_b   7.42842126
_cell_length_c   6.90933886
_cell_angle_alpha   90.00095272
_cell_angle_beta   89.80942938
_cell_angle_gamma   89.85051688
_symmetry_Int_Tables_number   1
_chemical_formula_structural   Zr8In4Cu4PdPt3
_chemical_formula_sum   'Zr8 In4 Cu4 Pd1 Pt3'
_cell_volume   381.66364322
_cell_formula_units_Z   1
loop_
 _symmetry_equiv_pos_site_id
 _symmetry_equiv_pos_as_xyz
  1  'x, y, z'
loop_
 _atom_site_type_symbol
 _atom_site_label
 _atom_site_symmetry_multiplicity
 _atom_site_fract_x
 _atom_site_fract_y
 _atom_site_fract_z
 _atom_site_occupancy
  Zr  Zr0  1  0.651402  0.652570  0.499185  1
  Zr  Zr1  1  0.805369  0.192029  0.502230  1
  Zr  Zr2  1  0.691217  0.692364  0.000063  1
  Zr  Zr3  1  0.847370  0.149597  0.001070  1
  Zr  Zr4  1  0.191555  0.805861  0.502468  1
  Zr  Zr5  1  0.309898  0.309749  0.001238  1
  Zr  Zr6  1  0.149281  0.847047  0.993384  1
  Zr  Zr7  1  0.350813  0.350492  0.497084  1
  In  In8  1  0.004196  0.501515  0.248804  1
  In  In9  1  0.499721  0.005048  0.751587  1
  In  In10  1  0.496314  0.995143  0.249025  1
  In  In11  1  0.996207  0.494845  0.751450  1
  Cu  Cu12  1  0.629109  0.371452  0.799070  1
  Cu  Cu13  1  0.370962  0.629646  0.200848  1
  Cu  Cu14  1  0.122196  0.121878  0.291650  1
  Cu  Cu15  1  0.878795  0.878219  0.295702  1
  Pd  Pd16  1  0.132341  0.131813  0.704589  1
  Pt  Pt17  1  0.623358  0.377139  0.214610  1
  Pt  Pt18  1  0.377825  0.622195  0.786125  1
  Pt  Pt19  1  0.872071  0.871400  0.709816  1
