# generated using pymatgen
data_Zr12SiP2Se
_symmetry_space_group_name_H-M   'P 1'
_cell_length_a   10.87321600
_cell_length_b   10.92599063
_cell_length_c   5.47761400
_cell_angle_alpha   90.00000000
_cell_angle_beta   90.00000000
_cell_angle_gamma   90.12410960
_symmetry_Int_Tables_number   1
_chemical_formula_structural   Zr12SiP2Se
_chemical_formula_sum   'Zr24 Si2 P4 Se2'
_cell_volume   650.74261074
_cell_formula_units_Z   2
loop_
 _symmetry_equiv_pos_site_id
 _symmetry_equiv_pos_as_xyz
  1  'x, y, z'
loop_
 _atom_site_type_symbol
 _atom_site_label
 _atom_site_symmetry_multiplicity
 _atom_site_fract_x
 _atom_site_fract_y
 _atom_site_fract_z
 _atom_site_occupancy
  Zr  Zr0  1  0.213027  0.683315  0.981577  1
  Zr  Zr1  1  0.786973  0.316685  0.981577  1
  Zr  Zr2  1  0.178861  0.281573  0.489364  1
  Zr  Zr3  1  0.821139  0.718427  0.489364  1
  Zr  Zr4  1  0.283037  0.822128  0.512419  1
  Zr  Zr5  1  0.716963  0.177872  0.512419  1
  Zr  Zr6  1  0.316972  0.211559  0.013986  1
  Zr  Zr7  1  0.683028  0.788441  0.013986  1
  Zr  Zr8  1  0.637498  0.527075  0.718039  1
  Zr  Zr9  1  0.362502  0.472925  0.718039  1
  Zr  Zr10  1  0.026841  0.863234  0.220094  1
  Zr  Zr11  1  0.973159  0.136766  0.220094  1
  Zr  Zr12  1  0.862685  0.974070  0.780601  1
  Zr  Zr13  1  0.137315  0.025930  0.780601  1
  Zr  Zr14  1  0.472507  0.641302  0.281826  1
  Zr  Zr15  1  0.527493  0.358698  0.281826  1
  Zr  Zr16  1  0.104024  0.587307  0.470895  1
  Zr  Zr17  1  0.895976  0.412693  0.470895  1
  Zr  Zr18  1  0.080733  0.391037  0.955798  1
  Zr  Zr19  1  0.919267  0.608963  0.955798  1
  Zr  Zr20  1  0.390579  0.917321  0.036674  1
  Zr  Zr21  1  0.609421  0.082679  0.036674  1
  Zr  Zr22  1  0.413897  0.105216  0.538522  1
  Zr  Zr23  1  0.586103  0.894784  0.538522  1
  Si  Si24  1  0.459888  0.707137  0.787651  1
  Si  Si25  1  0.540112  0.292863  0.787651  1
  P  P26  1  0.039839  0.795354  0.711803  1
  P  P27  1  0.960161  0.204646  0.711803  1
  P  P28  1  0.794407  0.959946  0.287720  1
  P  P29  1  0.205593  0.040054  0.287720  1
  Se  Se30  1  0.708869  0.539581  0.213033  1
  Se  Se31  1  0.291131  0.460419  0.213033  1
