# generated using pymatgen
data_Nd12B3AsBr12
_symmetry_space_group_name_H-M   'P 1'
_cell_length_a   10.29211740
_cell_length_b   10.29211673
_cell_length_c   10.29211770
_cell_angle_alpha   110.02325969
_cell_angle_beta   110.02325063
_cell_angle_gamma   110.02324997
_symmetry_Int_Tables_number   1
_chemical_formula_structural   Nd12B3AsBr12
_chemical_formula_sum   'Nd12 B3 As1 Br12'
_cell_volume   821.65150943
_cell_formula_units_Z   1
loop_
 _symmetry_equiv_pos_site_id
 _symmetry_equiv_pos_as_xyz
  1  'x, y, z'
loop_
 _atom_site_type_symbol
 _atom_site_label
 _atom_site_symmetry_multiplicity
 _atom_site_fract_x
 _atom_site_fract_y
 _atom_site_fract_z
 _atom_site_occupancy
  Nd  Nd0  1  0.471636  0.499243  0.225596  1
  Nd  Nd1  1  0.750000  0.229560  0.270440  1
  Nd  Nd2  1  0.750000  0.017430  0.482570  1
  Nd  Nd3  1  0.225596  0.471636  0.499243  1
  Nd  Nd4  1  0.270440  0.750000  0.229560  1
  Nd  Nd5  1  0.028364  0.274404  0.000757  1
  Nd  Nd6  1  0.000757  0.028364  0.274404  1
  Nd  Nd7  1  0.482570  0.750000  0.017430  1
  Nd  Nd8  1  0.499243  0.225596  0.471636  1
  Nd  Nd9  1  0.017430  0.482570  0.750000  1
  Nd  Nd10  1  0.274404  0.000757  0.028364  1
  Nd  Nd11  1  0.229560  0.270440  0.750000  1
  B  B12  1  0.498688  0.001312  0.250000  1
  B  B13  1  0.001312  0.250000  0.498688  1
  B  B14  1  0.250000  0.498688  0.001312  1
  As  As15  1  0.250000  0.250000  0.250000  1
  Br  Br16  1  0.250000  0.757690  0.742310  1
  Br  Br17  1  0.510960  0.505952  0.755713  1
  Br  Br18  1  0.989040  0.744287  0.994048  1
  Br  Br19  1  0.742310  0.250000  0.757690  1
  Br  Br20  1  0.994048  0.989040  0.744287  1
  Br  Br21  1  0.250000  0.995272  0.504728  1
  Br  Br22  1  0.755713  0.510960  0.505952  1
  Br  Br23  1  0.504728  0.250000  0.995272  1
  Br  Br24  1  0.757690  0.742310  0.250000  1
  Br  Br25  1  0.744287  0.994048  0.989040  1
  Br  Br26  1  0.995272  0.504728  0.250000  1
  Br  Br27  1  0.505952  0.755713  0.510960  1
