# generated using pymatgen
data_Dy2Si3Ge(AsRh4)3
_symmetry_space_group_name_H-M   'P 1'
_cell_length_a   9.89165800
_cell_length_b   9.89165927
_cell_length_c   3.89692900
_cell_angle_alpha   90.00000000
_cell_angle_beta   90.00000000
_cell_angle_gamma   120.00000245
_symmetry_Int_Tables_number   1
_chemical_formula_structural   Dy2Si3Ge(AsRh4)3
_chemical_formula_sum   'Dy2 Si3 Ge1 As3 Rh12'
_cell_volume   330.21086183
_cell_formula_units_Z   1
loop_
 _symmetry_equiv_pos_site_id
 _symmetry_equiv_pos_as_xyz
  1  'x, y, z'
loop_
 _atom_site_type_symbol
 _atom_site_label
 _atom_site_symmetry_multiplicity
 _atom_site_fract_x
 _atom_site_fract_y
 _atom_site_fract_z
 _atom_site_occupancy
  Dy  Dy0  1  0.333333  0.666667  0.751647  1
  Dy  Dy1  1  0.666667  0.333333  0.249532  1
  Si  Si2  1  0.885457  0.596754  0.751035  1
  Si  Si3  1  0.403246  0.288703  0.751035  1
  Si  Si4  1  0.711297  0.114543  0.751035  1
  Ge  Ge5  1  0.000000  0.000000  0.577922  1
  As  As6  1  0.115021  0.404282  0.249887  1
  As  As7  1  0.595718  0.710739  0.249887  1
  As  As8  1  0.289261  0.884979  0.249887  1
  Rh  Rh9  1  0.621735  0.549335  0.752447  1
  Rh  Rh10  1  0.450665  0.072400  0.752447  1
  Rh  Rh11  1  0.927600  0.378265  0.752447  1
  Rh  Rh12  1  0.386209  0.440362  0.250072  1
  Rh  Rh13  1  0.559638  0.945847  0.250072  1
  Rh  Rh14  1  0.054153  0.613791  0.250072  1
  Rh  Rh15  1  0.118757  0.846160  0.751553  1
  Rh  Rh16  1  0.153840  0.272598  0.751553  1
  Rh  Rh17  1  0.727402  0.881243  0.751553  1
  Rh  Rh18  1  0.878995  0.144228  0.253399  1
  Rh  Rh19  1  0.855772  0.734767  0.253399  1
  Rh  Rh20  1  0.265233  0.121005  0.253399  1
