# generated using pymatgen
data_Bi3As2Pd6Pb
_symmetry_space_group_name_H-M   'P 1'
_cell_length_a   7.00001800
_cell_length_b   7.04066933
_cell_length_c   6.00911935
_cell_angle_alpha   89.81958054
_cell_angle_beta   89.90523959
_cell_angle_gamma   121.67167201
_symmetry_Int_Tables_number   1
_chemical_formula_structural   Bi3As2Pd6Pb
_chemical_formula_sum   'Bi3 As2 Pd6 Pb1'
_cell_volume   252.04854613
_cell_formula_units_Z   1
loop_
 _symmetry_equiv_pos_site_id
 _symmetry_equiv_pos_as_xyz
  1  'x, y, z'
loop_
 _atom_site_type_symbol
 _atom_site_label
 _atom_site_symmetry_multiplicity
 _atom_site_fract_x
 _atom_site_fract_y
 _atom_site_fract_z
 _atom_site_occupancy
  Bi  Bi0  1  0.017669  0.661322  0.692004  1
  Bi  Bi1  1  0.980332  0.336454  0.190691  1
  Bi  Bi2  1  0.341936  0.984492  0.190799  1
  As  As3  1  0.702460  0.703677  0.298430  1
  As  As4  1  0.298269  0.298784  0.796287  1
  Pd  Pd5  1  0.663910  0.425168  0.000329  1
  Pd  Pd6  1  0.332139  0.573538  0.497876  1
  Pd  Pd7  1  0.946986  0.948024  0.982067  1
  Pd  Pd8  1  0.056103  0.051573  0.482469  1
  Pd  Pd9  1  0.421224  0.662353  0.999791  1
  Pd  Pd10  1  0.579991  0.337007  0.498887  1
  Pb  Pb11  1  0.658981  0.017608  0.690369  1
