# generated using pymatgen
data_Sc2Cr2ReSi4
_symmetry_space_group_name_H-M   'P 1'
_cell_length_a   6.57198500
_cell_length_b   6.57198500
_cell_length_c   12.12444700
_cell_angle_alpha   90.00000000
_cell_angle_beta   90.00000000
_cell_angle_gamma   90.00000000
_symmetry_Int_Tables_number   1
_chemical_formula_structural   Sc2Cr2ReSi4
_chemical_formula_sum   'Sc8 Cr8 Re4 Si16'
_cell_volume   523.66683082
_cell_formula_units_Z   4
loop_
 _symmetry_equiv_pos_site_id
 _symmetry_equiv_pos_as_xyz
  1  'x, y, z'
loop_
 _atom_site_type_symbol
 _atom_site_label
 _atom_site_symmetry_multiplicity
 _atom_site_fract_x
 _atom_site_fract_y
 _atom_site_fract_z
 _atom_site_occupancy
  Sc  Sc0  1  0.003639  0.664106  0.028927  1
  Sc  Sc1  1  0.996361  0.335894  0.528927  1
  Sc  Sc2  1  0.335894  0.996361  0.471073  1
  Sc  Sc3  1  0.164106  0.496361  0.778927  1
  Sc  Sc4  1  0.835894  0.503639  0.278927  1
  Sc  Sc5  1  0.496361  0.164106  0.221073  1
  Sc  Sc6  1  0.503639  0.835894  0.721073  1
  Sc  Sc7  1  0.664106  0.003639  0.971073  1
  Cr  Cr8  1  0.010780  0.830008  0.627017  1
  Cr  Cr9  1  0.989220  0.169992  0.127017  1
  Cr  Cr10  1  0.830008  0.010780  0.372983  1
  Cr  Cr11  1  0.330008  0.489220  0.377017  1
  Cr  Cr12  1  0.669992  0.510780  0.877017  1
  Cr  Cr13  1  0.489220  0.330008  0.622983  1
  Cr  Cr14  1  0.510780  0.669992  0.122983  1
  Cr  Cr15  1  0.169992  0.989220  0.872983  1
  Re  Re16  1  0.666377  0.666377  0.500000  1
  Re  Re17  1  0.166377  0.833623  0.250000  1
  Re  Re18  1  0.333623  0.333623  0.000000  1
  Re  Re19  1  0.833623  0.166377  0.750000  1
  Si  Si20  1  0.033381  0.713583  0.435257  1
  Si  Si21  1  0.620350  0.298528  0.432393  1
  Si  Si22  1  0.379650  0.701472  0.932393  1
  Si  Si23  1  0.201472  0.120350  0.682393  1
  Si  Si24  1  0.298528  0.620350  0.567607  1
  Si  Si25  1  0.701472  0.379650  0.067607  1
  Si  Si26  1  0.798528  0.879650  0.182393  1
  Si  Si27  1  0.120350  0.201472  0.317607  1
  Si  Si28  1  0.966619  0.286417  0.935257  1
  Si  Si29  1  0.713583  0.033381  0.564743  1
  Si  Si30  1  0.213583  0.466619  0.185257  1
  Si  Si31  1  0.786417  0.533381  0.685257  1
  Si  Si32  1  0.466619  0.213583  0.814743  1
  Si  Si33  1  0.533381  0.786417  0.314743  1
  Si  Si34  1  0.286417  0.966619  0.064743  1
  Si  Si35  1  0.879650  0.798528  0.817607  1
