# generated using pymatgen
data_HoU(TaS2)8
_symmetry_space_group_name_H-M   'P 1'
_cell_length_a   6.67493700
_cell_length_b   6.67493587
_cell_length_c   13.94571400
_cell_angle_alpha   90.00000000
_cell_angle_beta   90.00000000
_cell_angle_gamma   120.00000062
_symmetry_Int_Tables_number   1
_chemical_formula_structural   HoU(TaS2)8
_chemical_formula_sum   'Ho1 U1 Ta8 S16'
_cell_volume   538.10329611
_cell_formula_units_Z   1
loop_
 _symmetry_equiv_pos_site_id
 _symmetry_equiv_pos_as_xyz
  1  'x, y, z'
loop_
 _atom_site_type_symbol
 _atom_site_label
 _atom_site_symmetry_multiplicity
 _atom_site_fract_x
 _atom_site_fract_y
 _atom_site_fract_z
 _atom_site_occupancy
  Ho  Ho0  1  0.000000  0.000000  0.500000  1
  U  U1  1  0.000000  0.000000  0.000000  1
  Ta  Ta2  1  0.504860  0.495140  0.748928  1
  Ta  Ta3  1  0.009718  0.504860  0.251072  1
  Ta  Ta4  1  0.495140  0.990282  0.251072  1
  Ta  Ta5  1  0.504860  0.009718  0.748928  1
  Ta  Ta6  1  0.990282  0.495140  0.748928  1
  Ta  Ta7  1  0.495140  0.504860  0.251072  1
  Ta  Ta8  1  0.000000  0.000000  0.748696  1
  Ta  Ta9  1  0.000000  0.000000  0.251304  1
  S  S10  1  0.831232  0.168768  0.364186  1
  S  S11  1  0.831232  0.662464  0.364186  1
  S  S12  1  0.337536  0.168768  0.364186  1
  S  S13  1  0.663607  0.831803  0.861188  1
  S  S14  1  0.168768  0.337536  0.635814  1
  S  S15  1  0.168197  0.831803  0.861188  1
  S  S16  1  0.168197  0.336393  0.861188  1
  S  S17  1  0.831803  0.168197  0.138812  1
  S  S18  1  0.336393  0.168197  0.138812  1
  S  S19  1  0.662464  0.831232  0.635814  1
  S  S20  1  0.333333  0.666667  0.135396  1
  S  S21  1  0.666667  0.333333  0.633638  1
  S  S22  1  0.666667  0.333333  0.864604  1
  S  S23  1  0.333333  0.666667  0.366362  1
  S  S24  1  0.831803  0.663607  0.138812  1
  S  S25  1  0.168768  0.831232  0.635814  1
