# generated using pymatgen
data_Tb4Y12MgNi4Hg3
_symmetry_space_group_name_H-M   'P 1'
_cell_length_a   9.58355469
_cell_length_b   9.55599159
_cell_length_c   9.55693704
_cell_angle_alpha   60.00621936
_cell_angle_beta   60.09834016
_cell_angle_gamma   60.09732397
_symmetry_Int_Tables_number   1
_chemical_formula_structural   Tb4Y12MgNi4Hg3
_chemical_formula_sum   'Tb4 Y12 Mg1 Ni4 Hg3'
_cell_volume   619.82231136
_cell_formula_units_Z   1
loop_
 _symmetry_equiv_pos_site_id
 _symmetry_equiv_pos_as_xyz
  1  'x, y, z'
loop_
 _atom_site_type_symbol
 _atom_site_label
 _atom_site_symmetry_multiplicity
 _atom_site_fract_x
 _atom_site_fract_y
 _atom_site_fract_z
 _atom_site_occupancy
  Tb  Tb0  1  0.599332  0.597687  0.597564  1
  Tb  Tb1  1  0.599245  0.597604  0.205497  1
  Tb  Tb2  1  0.599306  0.205441  0.597539  1
  Tb  Tb3  1  0.200803  0.599758  0.599630  1
  Y  Y4  1  0.183238  0.815246  0.815264  1
  Y  Y5  1  0.810965  0.186939  0.186947  1
  Y  Y6  1  0.810945  0.186953  0.815151  1
  Y  Y7  1  0.183225  0.815265  0.186254  1
  Y  Y8  1  0.810957  0.815151  0.186951  1
  Y  Y9  1  0.183234  0.186254  0.815270  1
  Y  Y10  1  0.057851  0.440844  0.440849  1
  Y  Y11  1  0.434294  0.063286  0.063384  1
  Y  Y12  1  0.434282  0.063361  0.439037  1
  Y  Y13  1  0.057809  0.440843  0.060506  1
  Y  Y14  1  0.434291  0.439037  0.063405  1
  Y  Y15  1  0.057840  0.060470  0.440849  1
  Mg  Mg16  1  0.536125  0.821289  0.821301  1
  Ni  Ni17  1  0.392719  0.392545  0.392549  1
  Ni  Ni18  1  0.392721  0.392538  0.822203  1
  Ni  Ni19  1  0.392728  0.822190  0.392546  1
  Ni  Ni20  1  0.821581  0.392806  0.392808  1
  Hg  Hg21  1  0.835498  0.835724  0.835734  1
  Hg  Hg22  1  0.835512  0.835732  0.493028  1
  Hg  Hg23  1  0.835502  0.493039  0.835735  1
