# generated using pymatgen
data_La2Hg4PtRh
_symmetry_space_group_name_H-M   'P 1'
_cell_length_a   5.47875015
_cell_length_b   5.47875076
_cell_length_c   8.79202600
_cell_angle_alpha   90.00000000
_cell_angle_beta   90.00000000
_cell_angle_gamma   133.96955581
_symmetry_Int_Tables_number   1
_chemical_formula_structural   La2Hg4PtRh
_chemical_formula_sum   'La2 Hg4 Pt1 Rh1'
_cell_volume   189.93667014
_cell_formula_units_Z   1
loop_
 _symmetry_equiv_pos_site_id
 _symmetry_equiv_pos_as_xyz
  1  'x, y, z'
loop_
 _atom_site_type_symbol
 _atom_site_label
 _atom_site_symmetry_multiplicity
 _atom_site_fract_x
 _atom_site_fract_y
 _atom_site_fract_z
 _atom_site_occupancy
  La  La0  1  0.070776  0.929222  0.250000  1
  La  La1  1  0.935096  0.064902  0.750001  1
  Hg  Hg2  1  0.356716  0.643283  0.041325  1
  Hg  Hg3  1  0.356716  0.643283  0.458676  1
  Hg  Hg4  1  0.643074  0.356925  0.548011  1
  Hg  Hg5  1  0.643074  0.356925  0.951989  1
  Pt  Pt6  1  0.780881  0.219118  0.250000  1
  Rh  Rh7  1  0.213663  0.786336  0.750001  1
