# generated using pymatgen
data_Yb2GdTm5(B6Ru)4
_symmetry_space_group_name_H-M   'P 1'
_cell_length_a   3.62861800
_cell_length_b   9.10102173
_cell_length_c   11.49451972
_cell_angle_alpha   90.00837874
_cell_angle_beta   90.00000000
_cell_angle_gamma   90.00000000
_symmetry_Int_Tables_number   1
_chemical_formula_structural   Yb2GdTm5(B6Ru)4
_chemical_formula_sum   'Yb2 Gd1 Tm5 B24 Ru4'
_cell_volume   379.59652389
_cell_formula_units_Z   1
loop_
 _symmetry_equiv_pos_site_id
 _symmetry_equiv_pos_as_xyz
  1  'x, y, z'
loop_
 _atom_site_type_symbol
 _atom_site_label
 _atom_site_symmetry_multiplicity
 _atom_site_fract_x
 _atom_site_fract_y
 _atom_site_fract_z
 _atom_site_occupancy
  Yb  Yb0  1  0.000000  0.676902  0.585782  1
  Yb  Yb1  1  0.000000  0.823011  0.085270  1
  Gd  Gd2  1  0.000000  0.324011  0.414976  1
  Tm  Tm3  1  0.000000  0.175661  0.914944  1
  Tm  Tm4  1  0.000000  0.941005  0.368579  1
  Tm  Tm5  1  0.000000  0.056275  0.630549  1
  Tm  Tm6  1  0.000000  0.443592  0.129835  1
  Tm  Tm7  1  0.000000  0.559024  0.869474  1
  B  B8  1  0.500000  0.554771  0.432947  1
  B  B9  1  0.500000  0.445641  0.568719  1
  B  B10  1  0.500000  0.054306  0.066798  1
  B  B11  1  0.500000  0.946344  0.933071  1
  B  B12  1  0.500000  0.748753  0.417778  1
  B  B13  1  0.500000  0.250646  0.582878  1
  B  B14  1  0.500000  0.249199  0.080814  1
  B  B15  1  0.500000  0.751863  0.917964  1
  B  B16  1  0.500000  0.790432  0.264455  1
  B  B17  1  0.500000  0.208096  0.736294  1
  B  B18  1  0.500000  0.291139  0.234173  1
  B  B19  1  0.500000  0.710003  0.765040  1
  B  B20  1  0.500000  0.630622  0.184928  1
  B  B21  1  0.500000  0.368841  0.815747  1
  B  B22  1  0.500000  0.130386  0.313980  1
  B  B23  1  0.500000  0.869746  0.685331  1
  B  B24  1  0.500000  0.983056  0.211247  1
  B  B25  1  0.500000  0.017401  0.788608  1
  B  B26  1  0.500000  0.483750  0.287875  1
  B  B27  1  0.500000  0.516688  0.712647  1
  B  B28  1  0.500000  0.600144  0.027231  1
  B  B29  1  0.500000  0.398537  0.971958  1
  B  B30  1  0.500000  0.099303  0.472383  1
  B  B31  1  0.500000  0.900402  0.527023  1
  Ru  Ru32  1  0.000000  0.638361  0.319816  1
  Ru  Ru33  1  0.000000  0.359799  0.681493  1
  Ru  Ru34  1  0.000000  0.139360  0.179107  1
  Ru  Ru35  1  0.000000  0.862933  0.820283  1
