# generated using pymatgen
data_Nd6Y9Th(CdIr)4
_symmetry_space_group_name_H-M   'P 1'
_cell_length_a   9.78590430
_cell_length_b   9.78590544
_cell_length_c   9.78590566
_cell_angle_alpha   60.18945009
_cell_angle_beta   60.18944489
_cell_angle_gamma   60.18945191
_symmetry_Int_Tables_number   1
_chemical_formula_structural   Nd6Y9Th(CdIr)4
_chemical_formula_sum   'Nd6 Y9 Th1 Cd4 Ir4'
_cell_volume   665.49867879
_cell_formula_units_Z   1
loop_
 _symmetry_equiv_pos_site_id
 _symmetry_equiv_pos_as_xyz
  1  'x, y, z'
loop_
 _atom_site_type_symbol
 _atom_site_label
 _atom_site_symmetry_multiplicity
 _atom_site_fract_x
 _atom_site_fract_y
 _atom_site_fract_z
 _atom_site_occupancy
  Nd  Nd0  1  0.940321  0.561360  0.561360  1
  Nd  Nd1  1  0.558868  0.941822  0.941822  1
  Nd  Nd2  1  0.561360  0.940321  0.561360  1
  Nd  Nd3  1  0.941822  0.558868  0.941822  1
  Nd  Nd4  1  0.561360  0.561360  0.940321  1
  Nd  Nd5  1  0.941822  0.941822  0.558868  1
  Y  Y6  1  0.349470  0.349470  0.951925  1
  Y  Y7  1  0.349470  0.951925  0.349470  1
  Y  Y8  1  0.951925  0.349470  0.349470  1
  Y  Y9  1  0.812757  0.187594  0.187594  1
  Y  Y10  1  0.187227  0.811587  0.811587  1
  Y  Y11  1  0.187594  0.812757  0.187594  1
  Y  Y12  1  0.811587  0.187227  0.811587  1
  Y  Y13  1  0.187594  0.187594  0.812757  1
  Y  Y14  1  0.811587  0.811587  0.187227  1
  Th  Th15  1  0.345179  0.345179  0.345179  1
  Cd  Cd16  1  0.578914  0.578914  0.578914  1
  Cd  Cd17  1  0.580002  0.580002  0.260013  1
  Cd  Cd18  1  0.580002  0.260013  0.580002  1
  Cd  Cd19  1  0.260013  0.580002  0.580002  1
  Ir  Ir20  1  0.142119  0.142119  0.142119  1
  Ir  Ir21  1  0.142618  0.142618  0.573767  1
  Ir  Ir22  1  0.142618  0.573767  0.142618  1
  Ir  Ir23  1  0.573767  0.142618  0.142618  1
