# generated using pymatgen
data_Y9Ho(IrPb3)2
_symmetry_space_group_name_H-M   'P 1'
_cell_length_a   9.22153489
_cell_length_b   9.21449856
_cell_length_c   6.89206900
_cell_angle_alpha   90.00000000
_cell_angle_beta   90.00000000
_cell_angle_gamma   119.97475973
_symmetry_Int_Tables_number   1
_chemical_formula_structural   Y9Ho(IrPb3)2
_chemical_formula_sum   'Y9 Ho1 Ir2 Pb6'
_cell_volume   507.30082701
_cell_formula_units_Z   1
loop_
 _symmetry_equiv_pos_site_id
 _symmetry_equiv_pos_as_xyz
  1  'x, y, z'
loop_
 _atom_site_type_symbol
 _atom_site_label
 _atom_site_symmetry_multiplicity
 _atom_site_fract_x
 _atom_site_fract_y
 _atom_site_fract_z
 _atom_site_occupancy
  Y  Y0  1  0.000000  0.763621  0.750000  1
  Y  Y1  1  0.333294  0.666590  0.499974  1
  Y  Y2  1  0.763631  0.763664  0.250000  1
  Y  Y3  1  0.763656  0.000033  0.750000  1
  Y  Y4  1  0.236369  0.000034  0.250000  1
  Y  Y5  1  0.666706  0.333295  0.499974  1
  Y  Y6  1  0.236344  0.236377  0.750000  1
  Y  Y7  1  0.333294  0.666590  0.000026  1
  Y  Y8  1  0.666706  0.333295  0.000026  1
  Ho  Ho9  1  0.000000  0.235158  0.250000  1
  Ir  Ir10  1  0.000000  0.000784  0.000763  1
  Ir  Ir11  1  0.000000  0.000784  0.499237  1
  Pb  Pb12  1  0.405099  0.405237  0.250000  1
  Pb  Pb13  1  0.594682  0.594654  0.750000  1
  Pb  Pb14  1  0.594901  0.000138  0.250000  1
  Pb  Pb15  1  0.405318  0.999973  0.750000  1
  Pb  Pb16  1  0.000000  0.594435  0.250000  1
  Pb  Pb17  1  0.000000  0.405340  0.750000  1
