# generated using pymatgen
data_Y3ZnAg3Ge2
_symmetry_space_group_name_H-M   'P 1'
_cell_length_a   7.24896100
_cell_length_b   7.24896079
_cell_length_c   4.15185900
_cell_angle_alpha   90.00000000
_cell_angle_beta   90.00000000
_cell_angle_gamma   119.99998727
_symmetry_Int_Tables_number   1
_chemical_formula_structural   Y3ZnAg3Ge2
_chemical_formula_sum   'Y3 Zn1 Ag3 Ge2'
_cell_volume   188.94038561
_cell_formula_units_Z   1
loop_
 _symmetry_equiv_pos_site_id
 _symmetry_equiv_pos_as_xyz
  1  'x, y, z'
loop_
 _atom_site_type_symbol
 _atom_site_label
 _atom_site_symmetry_multiplicity
 _atom_site_fract_x
 _atom_site_fract_y
 _atom_site_fract_z
 _atom_site_occupancy
  Y  Y0  1  0.581715  0.000000  0.000000  1
  Y  Y1  1  0.000000  0.581715  0.000000  1
  Y  Y2  1  0.418285  0.418285  0.000000  1
  Zn  Zn3  1  0.000000  0.000000  0.000000  1
  Ag  Ag4  1  0.246859  0.000000  0.500000  1
  Ag  Ag5  1  0.000000  0.246859  0.500000  1
  Ag  Ag6  1  0.753141  0.753141  0.500000  1
  Ge  Ge7  1  0.333333  0.666667  0.500000  1
  Ge  Ge8  1  0.666667  0.333333  0.500000  1
