# generated using pymatgen
data_Dy3YFe6(P6Rh7)2
_symmetry_space_group_name_H-M   'P 1'
_cell_length_a   3.82631900
_cell_length_b   10.66651763
_cell_length_c   12.34466971
_cell_angle_alpha   90.07816050
_cell_angle_beta   90.00000000
_cell_angle_gamma   90.00000000
_symmetry_Int_Tables_number   1
_chemical_formula_structural   Dy3YFe6(P6Rh7)2
_chemical_formula_sum   'Dy3 Y1 Fe6 P12 Rh14'
_cell_volume   503.82869672
_cell_formula_units_Z   1
loop_
 _symmetry_equiv_pos_site_id
 _symmetry_equiv_pos_as_xyz
  1  'x, y, z'
loop_
 _atom_site_type_symbol
 _atom_site_label
 _atom_site_symmetry_multiplicity
 _atom_site_fract_x
 _atom_site_fract_y
 _atom_site_fract_z
 _atom_site_occupancy
  Dy  Dy0  1  0.250000  0.923247  0.210878  1
  Dy  Dy1  1  0.750000  0.415677  0.290861  1
  Dy  Dy2  1  0.750000  0.084327  0.790903  1
  Y  Y3  1  0.250000  0.576714  0.710904  1
  Fe  Fe4  1  0.750000  0.123095  0.301947  1
  Fe  Fe5  1  0.750000  0.376531  0.802159  1
  Fe  Fe6  1  0.250000  0.459780  0.932857  1
  Fe  Fe7  1  0.250000  0.040162  0.432624  1
  Fe  Fe8  1  0.750000  0.540035  0.065217  1
  Fe  Fe9  1  0.750000  0.959984  0.564949  1
  P  P10  1  0.250000  0.430921  0.106040  1
  P  P11  1  0.250000  0.069187  0.605894  1
  P  P12  1  0.750000  0.559025  0.888563  1
  P  P13  1  0.750000  0.940877  0.388241  1
  P  P14  1  0.250000  0.274604  0.863964  1
  P  P15  1  0.250000  0.225367  0.363921  1
  P  P16  1  0.750000  0.731793  0.130266  1
  P  P17  1  0.750000  0.768347  0.630113  1
  P  P18  1  0.250000  0.599948  0.390069  1
  P  P19  1  0.250000  0.899938  0.889933  1
  P  P20  1  0.750000  0.396996  0.619732  1
  P  P21  1  0.750000  0.102867  0.119868  1
  Rh  Rh22  1  0.250000  0.716646  0.992134  1
  Rh  Rh23  1  0.250000  0.783658  0.491715  1
  Rh  Rh24  1  0.750000  0.285843  0.009083  1
  Rh  Rh25  1  0.750000  0.214113  0.508887  1
  Rh  Rh26  1  0.250000  0.404924  0.478017  1
  Rh  Rh27  1  0.250000  0.094987  0.977966  1
  Rh  Rh28  1  0.750000  0.588248  0.518999  1
  Rh  Rh29  1  0.750000  0.911816  0.019442  1
  Rh  Rh30  1  0.250000  0.228872  0.174439  1
  Rh  Rh31  1  0.250000  0.271092  0.674361  1
  Rh  Rh32  1  0.750000  0.764762  0.825858  1
  Rh  Rh33  1  0.750000  0.735520  0.325661  1
  Rh  Rh34  1  0.250000  0.881358  0.701648  1
  Rh  Rh35  1  0.250000  0.618736  0.201882  1
