# generated using pymatgen
data_Tm20Ir4RuPt7
_symmetry_space_group_name_H-M   'P 1'
_cell_length_a   10.88237113
_cell_length_b   10.88609428
_cell_length_c   6.28950499
_cell_angle_alpha   89.97998546
_cell_angle_beta   89.98622151
_cell_angle_gamma   90.26295722
_symmetry_Int_Tables_number   1
_chemical_formula_structural   Tm20Ir4RuPt7
_chemical_formula_sum   'Tm20 Ir4 Ru1 Pt7'
_cell_volume   745.08784235
_cell_formula_units_Z   1
loop_
 _symmetry_equiv_pos_site_id
 _symmetry_equiv_pos_as_xyz
  1  'x, y, z'
loop_
 _atom_site_type_symbol
 _atom_site_label
 _atom_site_symmetry_multiplicity
 _atom_site_fract_x
 _atom_site_fract_y
 _atom_site_fract_z
 _atom_site_occupancy
  Tm  Tm0  1  0.295858  0.084743  0.369959  1
  Tm  Tm1  1  0.296047  0.909754  0.873236  1
  Tm  Tm2  1  0.703253  0.085675  0.872972  1
  Tm  Tm3  1  0.703744  0.913688  0.368791  1
  Tm  Tm4  1  0.582523  0.793953  0.871728  1
  Tm  Tm5  1  0.586138  0.204839  0.370754  1
  Tm  Tm6  1  0.411845  0.792878  0.374273  1
  Tm  Tm7  1  0.413467  0.202574  0.873691  1
  Tm  Tm8  1  0.208165  0.416357  0.630048  1
  Tm  Tm9  1  0.208347  0.589599  0.124108  1
  Tm  Tm10  1  0.794028  0.412494  0.127528  1
  Tm  Tm11  1  0.795517  0.587790  0.627552  1
  Tm  Tm12  1  0.913705  0.705345  0.127884  1
  Tm  Tm13  1  0.912749  0.294783  0.628465  1
  Tm  Tm14  1  0.091850  0.705732  0.627726  1
  Tm  Tm15  1  0.087704  0.295047  0.129316  1
  Tm  Tm16  1  0.999321  0.000143  0.500119  1
  Tm  Tm17  1  0.999811  0.000616  0.999027  1
  Tm  Tm18  1  0.498152  0.500483  0.999579  1
  Tm  Tm19  1  0.499656  0.501879  0.499634  1
  Ir  Ir20  1  0.346852  0.652291  0.749261  1
  Ir  Ir21  1  0.499643  0.999731  0.622113  1
  Ir  Ir22  1  0.000097  0.500312  0.879430  1
  Ir  Ir23  1  0.000336  0.500210  0.378599  1
  Ru  Ru24  1  0.499766  0.999754  0.126063  1
  Pt  Pt25  1  0.846226  0.153796  0.249886  1
  Pt  Pt26  1  0.845160  0.846472  0.750631  1
  Pt  Pt27  1  0.153152  0.155245  0.748811  1
  Pt  Pt28  1  0.152826  0.847324  0.249688  1
  Pt  Pt29  1  0.653451  0.347223  0.749685  1
  Pt  Pt30  1  0.655168  0.654430  0.249224  1
  Pt  Pt31  1  0.345445  0.344840  0.250216  1
