# generated using pymatgen
data_Nd5Y11Cd4Ir3Pd
_symmetry_space_group_name_H-M   'P 1'
_cell_length_a   9.76633492
_cell_length_b   9.76205003
_cell_length_c   9.76205065
_cell_angle_alpha   60.17890297
_cell_angle_beta   60.15796371
_cell_angle_gamma   60.15798210
_symmetry_Int_Tables_number   1
_chemical_formula_structural   Nd5Y11Cd4Ir3Pd
_chemical_formula_sum   'Nd5 Y11 Cd4 Ir3 Pd1'
_cell_volume   660.56890374
_cell_formula_units_Z   1
loop_
 _symmetry_equiv_pos_site_id
 _symmetry_equiv_pos_as_xyz
  1  'x, y, z'
loop_
 _atom_site_type_symbol
 _atom_site_label
 _atom_site_symmetry_multiplicity
 _atom_site_fract_x
 _atom_site_fract_y
 _atom_site_fract_z
 _atom_site_occupancy
  Nd  Nd0  1  0.561165  0.940448  0.940448  1
  Nd  Nd1  1  0.562962  0.938928  0.561042  1
  Nd  Nd2  1  0.940298  0.562169  0.937334  1
  Nd  Nd3  1  0.562962  0.561042  0.938928  1
  Nd  Nd4  1  0.940298  0.937334  0.562169  1
  Y  Y5  1  0.347212  0.346809  0.346809  1
  Y  Y6  1  0.352989  0.354923  0.949485  1
  Y  Y7  1  0.352989  0.949485  0.354923  1
  Y  Y8  1  0.947824  0.353848  0.353848  1
  Y  Y9  1  0.805040  0.189104  0.189104  1
  Y  Y10  1  0.186297  0.812013  0.812013  1
  Y  Y11  1  0.188381  0.805050  0.190649  1
  Y  Y12  1  0.812304  0.187013  0.810968  1
  Y  Y13  1  0.188381  0.190649  0.805050  1
  Y  Y14  1  0.812304  0.810968  0.187013  1
  Y  Y15  1  0.942268  0.558519  0.558519  1
  Cd  Cd16  1  0.582634  0.579549  0.579549  1
  Cd  Cd17  1  0.578823  0.579474  0.260981  1
  Cd  Cd18  1  0.578823  0.260981  0.579474  1
  Cd  Cd19  1  0.258492  0.579151  0.579151  1
  Ir  Ir20  1  0.139809  0.143898  0.574696  1
  Ir  Ir21  1  0.139809  0.574696  0.143898  1
  Ir  Ir22  1  0.574906  0.141257  0.141257  1
  Pd  Pd23  1  0.143027  0.142688  0.142688  1
