# generated using pymatgen
data_Nd9Er11Bi12
_symmetry_space_group_name_H-M   'P 1'
_cell_length_a   8.34725076
_cell_length_b   9.56902525
_cell_length_c   12.35698434
_cell_angle_alpha   89.94550946
_cell_angle_beta   90.10920375
_cell_angle_gamma   90.09122795
_symmetry_Int_Tables_number   1
_chemical_formula_structural   Nd9Er11Bi12
_chemical_formula_sum   'Nd9 Er11 Bi12'
_cell_volume   987.01129559
_cell_formula_units_Z   1
loop_
 _symmetry_equiv_pos_site_id
 _symmetry_equiv_pos_as_xyz
  1  'x, y, z'
loop_
 _atom_site_type_symbol
 _atom_site_label
 _atom_site_symmetry_multiplicity
 _atom_site_fract_x
 _atom_site_fract_y
 _atom_site_fract_z
 _atom_site_occupancy
  Nd  Nd0  1  0.183585  0.750130  0.721583  1
  Nd  Nd1  1  0.685184  0.749791  0.779001  1
  Nd  Nd2  1  0.815204  0.248968  0.278120  1
  Nd  Nd3  1  0.315251  0.249795  0.220310  1
  Nd  Nd4  1  0.808856  0.438885  0.559007  1
  Nd  Nd5  1  0.352673  0.749379  0.214895  1
  Nd  Nd6  1  0.852545  0.748755  0.284421  1
  Nd  Nd7  1  0.644774  0.249110  0.785370  1
  Nd  Nd8  1  0.148359  0.248914  0.715914  1
  Er  Er9  1  0.025061  0.749678  0.989300  1
  Er  Er10  1  0.524649  0.749516  0.511338  1
  Er  Er11  1  0.974618  0.249660  0.011564  1
  Er  Er12  1  0.473860  0.249964  0.488453  1
  Er  Er13  1  0.307750  0.435110  0.942106  1
  Er  Er14  1  0.807055  0.065474  0.558878  1
  Er  Er15  1  0.692497  0.935327  0.057803  1
  Er  Er16  1  0.191366  0.564515  0.442090  1
  Er  Er17  1  0.691733  0.564820  0.058098  1
  Er  Er18  1  0.194743  0.935588  0.440851  1
  Er  Er19  1  0.307415  0.064587  0.942150  1
  Bi  Bi20  1  0.435252  0.003591  0.667820  1
  Bi  Bi21  1  0.936250  0.495210  0.833689  1
  Bi  Bi22  1  0.563848  0.504015  0.330976  1
  Bi  Bi23  1  0.064880  0.994955  0.167493  1
  Bi  Bi24  1  0.564272  0.994997  0.332142  1
  Bi  Bi25  1  0.065133  0.504293  0.167277  1
  Bi  Bi26  1  0.432249  0.495811  0.668715  1
  Bi  Bi27  1  0.935701  0.004198  0.833018  1
  Bi  Bi28  1  0.406891  0.749949  0.957340  1
  Bi  Bi29  1  0.909567  0.758095  0.541294  1
  Bi  Bi30  1  0.593368  0.249972  0.042728  1
  Bi  Bi31  1  0.095410  0.246946  0.456256  1
