# generated using pymatgen
data_DyY4Tl15
_symmetry_space_group_name_H-M   'P 1'
_cell_length_a   4.76946100
_cell_length_b   4.76946100
_cell_length_c   24.09723100
_cell_angle_alpha   90.00000000
_cell_angle_beta   90.00000000
_cell_angle_gamma   90.00000000
_symmetry_Int_Tables_number   1
_chemical_formula_structural   DyY4Tl15
_chemical_formula_sum   'Dy1 Y4 Tl15'
_cell_volume   548.15798481
_cell_formula_units_Z   1
loop_
 _symmetry_equiv_pos_site_id
 _symmetry_equiv_pos_as_xyz
  1  'x, y, z'
loop_
 _atom_site_type_symbol
 _atom_site_label
 _atom_site_symmetry_multiplicity
 _atom_site_fract_x
 _atom_site_fract_y
 _atom_site_fract_z
 _atom_site_occupancy
  Dy  Dy0  1  0.000000  0.000000  0.000000  1
  Y  Y1  1  0.000000  0.000000  0.199484  1
  Y  Y2  1  0.000000  0.000000  0.400245  1
  Y  Y3  1  0.000000  0.000000  0.599755  1
  Y  Y4  1  0.000000  0.000000  0.800516  1
  Tl  Tl5  1  0.500000  0.500000  0.000000  1
  Tl  Tl6  1  0.500000  0.500000  0.199129  1
  Tl  Tl7  1  0.500000  0.500000  0.399843  1
  Tl  Tl8  1  0.500000  0.500000  0.600157  1
  Tl  Tl9  1  0.500000  0.500000  0.800871  1
  Tl  Tl10  1  0.500000  0.000000  0.099292  1
  Tl  Tl11  1  0.500000  0.000000  0.299959  1
  Tl  Tl12  1  0.500000  0.000000  0.500000  1
  Tl  Tl13  1  0.500000  0.000000  0.700041  1
  Tl  Tl14  1  0.500000  0.000000  0.900708  1
  Tl  Tl15  1  0.000000  0.500000  0.099292  1
  Tl  Tl16  1  0.000000  0.500000  0.299959  1
  Tl  Tl17  1  0.000000  0.500000  0.500000  1
  Tl  Tl18  1  0.000000  0.500000  0.700041  1
  Tl  Tl19  1  0.000000  0.500000  0.900708  1
