# generated using pymatgen
data_TbY2Pa(Ga3Ir)6
_symmetry_space_group_name_H-M   'P 1'
_cell_length_a   7.62680103
_cell_length_b   7.61731843
_cell_length_c   9.46013900
_cell_angle_alpha   90.00000000
_cell_angle_beta   90.00000000
_cell_angle_gamma   119.86176141
_symmetry_Int_Tables_number   1
_chemical_formula_structural   TbY2Pa(Ga3Ir)6
_chemical_formula_sum   'Tb1 Y2 Pa1 Ga18 Ir6'
_cell_volume   476.62405593
_cell_formula_units_Z   1
loop_
 _symmetry_equiv_pos_site_id
 _symmetry_equiv_pos_as_xyz
  1  'x, y, z'
loop_
 _atom_site_type_symbol
 _atom_site_label
 _atom_site_symmetry_multiplicity
 _atom_site_fract_x
 _atom_site_fract_y
 _atom_site_fract_z
 _atom_site_occupancy
  Tb  Tb0  1  0.331081  0.003003  0.750000  1
  Y  Y1  1  0.004096  0.331336  0.750000  1
  Y  Y2  1  0.669542  0.996329  0.250000  1
  Pa  Pa3  1  0.997525  0.669084  0.250000  1
  Ga  Ga4  1  0.130402  0.130128  0.250000  1
  Ga  Ga5  1  0.872842  0.873665  0.750000  1
  Ga  Ga6  1  0.998775  0.330962  0.080098  1
  Ga  Ga7  1  0.000861  0.665425  0.917144  1
  Ga  Ga8  1  0.000861  0.665425  0.582856  1
  Ga  Ga9  1  0.338201  0.002610  0.419685  1
  Ga  Ga10  1  0.998775  0.330962  0.419902  1
  Ga  Ga11  1  0.665671  0.001505  0.580823  1
  Ga  Ga12  1  0.665671  0.001505  0.919177  1
  Ga  Ga13  1  0.338201  0.002610  0.080315  1
  Ga  Ga14  1  0.331623  0.331621  0.567090  1
  Ga  Ga15  1  0.664187  0.667631  0.434447  1
  Ga  Ga16  1  0.664187  0.667631  0.065553  1
  Ga  Ga17  1  0.331623  0.331621  0.932910  1
  Ga  Ga18  1  0.339211  0.544526  0.250000  1
  Ga  Ga19  1  0.660453  0.452801  0.750000  1
  Ga  Ga20  1  0.544213  0.339951  0.250000  1
  Ga  Ga21  1  0.452964  0.661265  0.750000  1
  Ir  Ir22  1  0.673915  0.331632  0.002098  1
  Ir  Ir23  1  0.326177  0.671189  0.002127  1
  Ir  Ir24  1  0.326177  0.671189  0.497873  1
  Ir  Ir25  1  0.673915  0.331632  0.497902  1
  Ir  Ir26  1  0.999425  0.996383  0.002550  1
  Ir  Ir27  1  0.999425  0.996383  0.497450  1
