# generated using pymatgen
data_MnV6Cr
_symmetry_space_group_name_H-M   'P 1'
_cell_length_a   4.91628949
_cell_length_b   2.92040583
_cell_length_c   8.87273195
_cell_angle_alpha   109.13054075
_cell_angle_beta   120.22554368
_cell_angle_gamma   73.02594407
_symmetry_Int_Tables_number   1
_chemical_formula_structural   MnV6Cr
_chemical_formula_sum   'Mn1 V6 Cr1'
_cell_volume   102.72783640
_cell_formula_units_Z   1
loop_
 _symmetry_equiv_pos_site_id
 _symmetry_equiv_pos_as_xyz
  1  'x, y, z'
loop_
 _atom_site_type_symbol
 _atom_site_label
 _atom_site_symmetry_multiplicity
 _atom_site_fract_x
 _atom_site_fract_y
 _atom_site_fract_z
 _atom_site_occupancy
  Mn  Mn0  1  0.252526  0.349313  0.705441  1
  V  V1  1  0.243177  0.602293  0.459967  1
  V  V2  1  0.760326  0.477107  0.087771  1
  V  V3  1  0.735761  0.729525  0.825703  1
  V  V4  1  0.247266  0.094580  0.945118  1
  V  V5  1  0.267960  0.842202  0.208148  1
  V  V6  1  0.761265  0.965028  0.577706  1
  Cr  Cr7  1  0.751182  0.219164  0.329851  1
