# generated using pymatgen
data_LaTmV2F14
_symmetry_space_group_name_H-M   'P 1'
_cell_length_a   5.62219413
_cell_length_b   9.04366328
_cell_length_c   12.05520200
_cell_angle_alpha   63.18564475
_cell_angle_beta   89.90871918
_cell_angle_gamma   89.98026231
_symmetry_Int_Tables_number   1
_chemical_formula_structural   LaTmV2F14
_chemical_formula_sum   'La2 Tm2 V4 F28'
_cell_volume   547.04005251
_cell_formula_units_Z   2
loop_
 _symmetry_equiv_pos_site_id
 _symmetry_equiv_pos_as_xyz
  1  'x, y, z'
loop_
 _atom_site_type_symbol
 _atom_site_label
 _atom_site_symmetry_multiplicity
 _atom_site_fract_x
 _atom_site_fract_y
 _atom_site_fract_z
 _atom_site_occupancy
  La  La0  1  0.257610  0.812881  0.269514  1
  La  La1  1  0.742390  0.187119  0.730486  1
  Tm  Tm2  1  0.760226  0.200549  0.227333  1
  Tm  Tm3  1  0.239774  0.799451  0.772667  1
  V  V4  1  0.753403  0.720131  0.041541  1
  V  V5  1  0.246597  0.279869  0.958459  1
  V  V6  1  0.254959  0.269188  0.449839  1
  V  V7  1  0.745041  0.730812  0.550161  1
  F  F8  1  0.943929  0.708321  0.431189  1
  F  F9  1  0.056071  0.291679  0.568811  1
  F  F10  1  0.452232  0.293979  0.078458  1
  F  F11  1  0.547768  0.706021  0.921542  1
  F  F12  1  0.485969  0.728497  0.133974  1
  F  F13  1  0.514031  0.271503  0.866026  1
  F  F14  1  0.981364  0.264924  0.355565  1
  F  F15  1  0.018636  0.735076  0.644435  1
  F  F16  1  0.950518  0.740119  0.163263  1
  F  F17  1  0.049482  0.259881  0.836737  1
  F  F18  1  0.464252  0.247704  0.329692  1
  F  F19  1  0.535748  0.752296  0.670308  1
  F  F20  1  0.765610  0.491626  0.133526  1
  F  F21  1  0.234390  0.508374  0.866474  1
  F  F22  1  0.265109  0.496615  0.359723  1
  F  F23  1  0.734891  0.503385  0.640277  1
  F  F24  1  0.966895  0.286001  0.049944  1
  F  F25  1  0.033105  0.713999  0.950056  1
  F  F26  1  0.471398  0.715281  0.461600  1
  F  F27  1  0.528602  0.284719  0.538400  1
  F  F28  1  0.742748  0.953968  0.457969  1
  F  F29  1  0.257252  0.046032  0.542031  1
  F  F30  1  0.242625  0.053575  0.044808  1
  F  F31  1  0.757375  0.946425  0.955192  1
  F  F32  1  0.592326  0.987275  0.230869  1
  F  F33  1  0.407674  0.012725  0.769131  1
  F  F34  1  0.065439  0.038721  0.268370  1
  F  F35  1  0.934561  0.961279  0.731630  1
