# generated using pymatgen
data_CaYb(SiOs)2
_symmetry_space_group_name_H-M   'P 1'
_cell_length_a   4.24602400
_cell_length_b   4.24602400
_cell_length_c   6.71938600
_cell_angle_alpha   90.00000000
_cell_angle_beta   90.00000000
_cell_angle_gamma   90.00000000
_symmetry_Int_Tables_number   1
_chemical_formula_structural   CaYb(SiOs)2
_chemical_formula_sum   'Ca1 Yb1 Si2 Os2'
_cell_volume   121.14192748
_cell_formula_units_Z   1
loop_
 _symmetry_equiv_pos_site_id
 _symmetry_equiv_pos_as_xyz
  1  'x, y, z'
loop_
 _atom_site_type_symbol
 _atom_site_label
 _atom_site_symmetry_multiplicity
 _atom_site_fract_x
 _atom_site_fract_y
 _atom_site_fract_z
 _atom_site_occupancy
  Ca  Ca0  1  0.000000  0.500000  0.327264  1
  Yb  Yb1  1  0.500000  0.000000  0.683895  1
  Si  Si2  1  0.500000  0.000000  0.173302  1
  Si  Si3  1  0.000000  0.500000  0.820442  1
  Os  Os4  1  0.000000  0.000000  0.997548  1
  Os  Os5  1  0.500000  0.500000  0.997548  1
