# generated using pymatgen
data_Fe2CuSb12Os
_symmetry_space_group_name_H-M   'P 1'
_cell_length_a   8.05420796
_cell_length_b   8.00983823
_cell_length_c   9.28326653
_cell_angle_alpha   54.84087335
_cell_angle_beta   54.73071727
_cell_angle_gamma   70.55058596
_symmetry_Int_Tables_number   1
_chemical_formula_structural   Fe2CuSb12Os
_chemical_formula_sum   'Fe2 Cu1 Sb12 Os1'
_cell_volume   399.75407372
_cell_formula_units_Z   1
loop_
 _symmetry_equiv_pos_site_id
 _symmetry_equiv_pos_as_xyz
  1  'x, y, z'
loop_
 _atom_site_type_symbol
 _atom_site_label
 _atom_site_symmetry_multiplicity
 _atom_site_fract_x
 _atom_site_fract_y
 _atom_site_fract_z
 _atom_site_occupancy
  Fe  Fe0  1  0.500000  0.000000  0.500000  1
  Fe  Fe1  1  0.000000  0.500000  0.500000  1
  Cu  Cu2  1  0.500000  0.000000  0.000000  1
  Sb  Sb3  1  0.669713  0.668925  0.492049  1
  Sb  Sb4  1  0.330287  0.331075  0.507951  1
  Sb  Sb5  1  0.657879  0.655634  0.189811  1
  Sb  Sb6  1  0.342121  0.344366  0.810189  1
  Sb  Sb7  1  0.164777  0.847839  0.661223  1
  Sb  Sb8  1  0.835223  0.152161  0.338777  1
  Sb  Sb9  1  0.852229  0.165183  0.651759  1
  Sb  Sb10  1  0.147771  0.834817  0.348241  1
  Sb  Sb11  1  0.825477  0.491358  0.836248  1
  Sb  Sb12  1  0.174523  0.508642  0.163752  1
  Sb  Sb13  1  0.504172  0.182595  0.165496  1
  Sb  Sb14  1  0.495828  0.817405  0.834504  1
  Os  Os15  1  0.000000  0.500000  0.000000  1
