# generated using pymatgen
data_Sc3NiPt6
_symmetry_space_group_name_H-M   'P 1'
_cell_length_a   10.29232071
_cell_length_b   10.29232042
_cell_length_c   3.95239300
_cell_angle_alpha   90.00000000
_cell_angle_beta   90.00000000
_cell_angle_gamma   157.39592450
_symmetry_Int_Tables_number   1
_chemical_formula_structural   Sc3NiPt6
_chemical_formula_sum   'Sc3 Ni1 Pt6'
_cell_volume   160.92593236
_cell_formula_units_Z   1
loop_
 _symmetry_equiv_pos_site_id
 _symmetry_equiv_pos_as_xyz
  1  'x, y, z'
loop_
 _atom_site_type_symbol
 _atom_site_label
 _atom_site_symmetry_multiplicity
 _atom_site_fract_x
 _atom_site_fract_y
 _atom_site_fract_z
 _atom_site_occupancy
  Sc  Sc0  1  0.000000  0.000000  0.000000  1
  Sc  Sc1  1  0.810109  0.189893  0.000000  1
  Sc  Sc2  1  0.189893  0.810109  0.000000  1
  Ni  Ni3  1  0.500001  0.500001  0.500001  1
  Pt  Pt4  1  0.594003  0.405998  0.000000  1
  Pt  Pt5  1  0.405998  0.594003  0.000000  1
  Pt  Pt6  1  0.904496  0.095505  0.500001  1
  Pt  Pt7  1  0.698931  0.301071  0.500001  1
  Pt  Pt8  1  0.301071  0.698931  0.500001  1
  Pt  Pt9  1  0.095505  0.904496  0.500001  1
