# generated using pymatgen
data_La14CoRh5
_symmetry_space_group_name_H-M   'P 1'
_cell_length_a   10.18810849
_cell_length_b   10.16955804
_cell_length_c   6.60846313
_cell_angle_alpha   89.94061303
_cell_angle_beta   89.88533812
_cell_angle_gamma   120.47639990
_symmetry_Int_Tables_number   1
_chemical_formula_structural   La14CoRh5
_chemical_formula_sum   'La14 Co1 Rh5'
_cell_volume   590.09199375
_cell_formula_units_Z   1
loop_
 _symmetry_equiv_pos_site_id
 _symmetry_equiv_pos_as_xyz
  1  'x, y, z'
loop_
 _atom_site_type_symbol
 _atom_site_label
 _atom_site_symmetry_multiplicity
 _atom_site_fract_x
 _atom_site_fract_y
 _atom_site_fract_z
 _atom_site_occupancy
  La  La0  1  0.667385  0.333322  0.559090  1
  La  La1  1  0.329846  0.661059  0.052853  1
  La  La2  1  0.875425  0.751035  0.789051  1
  La  La3  1  0.247503  0.131943  0.790539  1
  La  La4  1  0.882364  0.131991  0.792871  1
  La  La5  1  0.125515  0.250271  0.288106  1
  La  La6  1  0.750096  0.874928  0.290295  1
  La  La7  1  0.126802  0.874577  0.292169  1
  La  La8  1  0.462156  0.924345  0.597780  1
  La  La9  1  0.079021  0.533230  0.598347  1
  La  La10  1  0.453418  0.531820  0.599105  1
  La  La11  1  0.538625  0.075404  0.093837  1
  La  La12  1  0.923488  0.462556  0.096709  1
  La  La13  1  0.537380  0.462309  0.095552  1
  Co  Co14  1  0.189070  0.373669  0.819138  1
  Rh  Rh15  1  0.625644  0.811242  0.834975  1
  Rh  Rh16  1  0.187472  0.813640  0.831899  1
  Rh  Rh17  1  0.811087  0.626126  0.330052  1
  Rh  Rh18  1  0.375091  0.189418  0.331678  1
  Rh  Rh19  1  0.812611  0.187116  0.331002  1
