# generated using pymatgen
data_Th(CrTc2)4
_symmetry_space_group_name_H-M   'P 1'
_cell_length_a   6.84188477
_cell_length_b   6.84199621
_cell_length_c   6.84188396
_cell_angle_alpha   97.02501019
_cell_angle_beta   97.02618173
_cell_angle_gamma   139.05685623
_symmetry_Int_Tables_number   1
_chemical_formula_structural   Th(CrTc2)4
_chemical_formula_sum   'Th1 Cr4 Tc8'
_cell_volume   196.63128148
_cell_formula_units_Z   1
loop_
 _symmetry_equiv_pos_site_id
 _symmetry_equiv_pos_as_xyz
  1  'x, y, z'
loop_
 _atom_site_type_symbol
 _atom_site_label
 _atom_site_symmetry_multiplicity
 _atom_site_fract_x
 _atom_site_fract_y
 _atom_site_fract_z
 _atom_site_occupancy
  Th  Th0  1  0.000000  0.000000  0.000000  1
  Cr  Cr1  1  0.000000  0.000000  0.500000  1
  Cr  Cr2  1  0.000000  0.500000  0.000000  1
  Cr  Cr3  1  0.500000  0.000000  0.000000  1
  Cr  Cr4  1  0.500000  0.500000  0.500000  1
  Tc  Tc5  1  0.500000  0.276743  0.776743  1
  Tc  Tc6  1  0.276743  0.500000  0.776743  1
  Tc  Tc7  1  0.723257  0.500000  0.223257  1
  Tc  Tc8  1  0.500000  0.723257  0.223257  1
  Tc  Tc9  1  0.000000  0.357531  0.357531  1
  Tc  Tc10  1  0.000000  0.642469  0.642469  1
  Tc  Tc11  1  0.642454  0.000000  0.642454  1
  Tc  Tc12  1  0.357546  0.000000  0.357546  1
