# generated using pymatgen
data_Pr4Dy2Al24Os7Au
_symmetry_space_group_name_H-M   'P 1'
_cell_length_a   8.95567423
_cell_length_b   8.95567636
_cell_length_c   9.64264328
_cell_angle_alpha   89.93086510
_cell_angle_beta   90.06912723
_cell_angle_gamma   120.30998450
_symmetry_Int_Tables_number   1
_chemical_formula_structural   Pr4Dy2Al24Os7Au
_chemical_formula_sum   'Pr4 Dy2 Al24 Os7 Au1'
_cell_volume   667.66395624
_cell_formula_units_Z   1
loop_
 _symmetry_equiv_pos_site_id
 _symmetry_equiv_pos_as_xyz
  1  'x, y, z'
loop_
 _atom_site_type_symbol
 _atom_site_label
 _atom_site_symmetry_multiplicity
 _atom_site_fract_x
 _atom_site_fract_y
 _atom_site_fract_z
 _atom_site_occupancy
  Pr  Pr0  1  0.190128  0.382028  0.250031  1
  Pr  Pr1  1  0.809872  0.617972  0.749969  1
  Pr  Pr2  1  0.617972  0.809872  0.250031  1
  Pr  Pr3  1  0.382028  0.190128  0.749969  1
  Dy  Dy4  1  0.194740  0.805260  0.254004  1
  Dy  Dy5  1  0.805260  0.194740  0.745996  1
  Al  Al6  1  0.328029  0.671971  0.016538  1
  Al  Al7  1  0.671971  0.328029  0.983462  1
  Al  Al8  1  0.666594  0.333406  0.513179  1
  Al  Al9  1  0.333406  0.666594  0.486821  1
  Al  Al10  1  0.160810  0.326021  0.575248  1
  Al  Al11  1  0.839190  0.673979  0.424752  1
  Al  Al12  1  0.673979  0.839190  0.575248  1
  Al  Al13  1  0.850829  0.677694  0.079490  1
  Al  Al14  1  0.326021  0.160810  0.424752  1
  Al  Al15  1  0.149171  0.322306  0.920510  1
  Al  Al16  1  0.163264  0.836736  0.572693  1
  Al  Al17  1  0.322306  0.149171  0.079490  1
  Al  Al18  1  0.836736  0.163264  0.427307  1
  Al  Al19  1  0.677694  0.850829  0.920510  1
  Al  Al20  1  0.836563  0.163437  0.072098  1
  Al  Al21  1  0.163437  0.836563  0.927902  1
  Al  Al22  1  0.560123  0.121480  0.249103  1
  Al  Al23  1  0.439877  0.878520  0.750897  1
  Al  Al24  1  0.878520  0.439877  0.249103  1
  Al  Al25  1  0.121480  0.560123  0.750897  1
  Al  Al26  1  0.565477  0.434523  0.256137  1
  Al  Al27  1  0.434523  0.565477  0.743863  1
  Al  Al28  1  0.002508  0.997492  0.250442  1
  Al  Al29  1  0.997492  0.002508  0.749558  1
  Os  Os30  1  0.500000  0.000000  0.000000  1
  Os  Os31  1  0.000000  0.500000  0.000000  1
  Os  Os32  1  0.500000  0.000000  0.500000  1
  Os  Os33  1  0.000000  0.500000  0.500000  1
  Os  Os34  1  0.500000  0.500000  0.500000  1
  Os  Os35  1  0.000000  0.000000  0.000000  1
  Os  Os36  1  0.000000  0.000000  0.500000  1
  Au  Au37  1  0.500000  0.500000  0.000000  1
