# generated using pymatgen
data_CaNd2MnCrC6
_symmetry_space_group_name_H-M   'P 1'
_cell_length_a   8.31833100
_cell_length_b   8.33111352
_cell_length_c   5.15409600
_cell_angle_alpha   90.00000000
_cell_angle_beta   90.00000000
_cell_angle_gamma   120.26378060
_symmetry_Int_Tables_number   1
_chemical_formula_structural   CaNd2MnCrC6
_chemical_formula_sum   'Ca2 Nd4 Mn2 Cr2 C12'
_cell_volume   308.50476084
_cell_formula_units_Z   2
loop_
 _symmetry_equiv_pos_site_id
 _symmetry_equiv_pos_as_xyz
  1  'x, y, z'
loop_
 _atom_site_type_symbol
 _atom_site_label
 _atom_site_symmetry_multiplicity
 _atom_site_fract_x
 _atom_site_fract_y
 _atom_site_fract_z
 _atom_site_occupancy
  Ca  Ca0  1  0.613377  0.688712  0.750000  1
  Ca  Ca1  1  0.920706  0.613398  0.250000  1
  Nd  Nd2  1  0.687596  0.073013  0.250000  1
  Nd  Nd3  1  0.310439  0.925648  0.750000  1
  Nd  Nd4  1  0.074907  0.389991  0.750000  1
  Nd  Nd5  1  0.389653  0.316745  0.250000  1
  Mn  Mn6  1  0.667030  0.331196  0.750000  1
  Mn  Mn7  1  0.334540  0.665868  0.250000  1
  Cr  Cr8  1  0.998425  0.998367  0.500346  1
  Cr  Cr9  1  0.998425  0.998367  0.999654  1
  C  C10  1  0.947721  0.767862  0.750000  1
  C  C11  1  0.184847  0.950873  0.250000  1
  C  C12  1  0.771095  0.820238  0.250000  1
  C  C13  1  0.232507  0.185723  0.750000  1
  C  C14  1  0.818981  0.048187  0.750000  1
  C  C15  1  0.048030  0.230942  0.250000  1
  C  C16  1  0.852105  0.578714  0.750000  1
  C  C17  1  0.271856  0.848363  0.250000  1
  C  C18  1  0.580666  0.722869  0.250000  1
  C  C19  1  0.424229  0.277371  0.750000  1
  C  C20  1  0.147212  0.422205  0.250000  1
  C  C21  1  0.725657  0.145352  0.750000  1
