# generated using pymatgen
data_EuSn2PdRh
_symmetry_space_group_name_H-M   'P 1'
_cell_length_a   4.69949100
_cell_length_b   4.69949100
_cell_length_c   10.42020500
_cell_angle_alpha   90.00000000
_cell_angle_beta   90.00000000
_cell_angle_gamma   90.00000000
_symmetry_Int_Tables_number   1
_chemical_formula_structural   EuSn2PdRh
_chemical_formula_sum   'Eu2 Sn4 Pd2 Rh2'
_cell_volume   230.13247464
_cell_formula_units_Z   2
loop_
 _symmetry_equiv_pos_site_id
 _symmetry_equiv_pos_as_xyz
  1  'x, y, z'
loop_
 _atom_site_type_symbol
 _atom_site_label
 _atom_site_symmetry_multiplicity
 _atom_site_fract_x
 _atom_site_fract_y
 _atom_site_fract_z
 _atom_site_occupancy
  Eu  Eu0  1  0.000000  0.500000  0.245811  1
  Eu  Eu1  1  0.500000  0.000000  0.754189  1
  Sn  Sn2  1  0.000000  0.000000  0.500000  1
  Sn  Sn3  1  0.500000  0.500000  0.500000  1
  Sn  Sn4  1  0.000000  0.500000  0.875018  1
  Sn  Sn5  1  0.500000  0.000000  0.124982  1
  Pd  Pd6  1  0.000000  0.000000  0.000000  1
  Pd  Pd7  1  0.500000  0.500000  0.000000  1
  Rh  Rh8  1  0.000000  0.500000  0.625397  1
  Rh  Rh9  1  0.500000  0.000000  0.374603  1
