# generated using pymatgen
data_Ca2Ho2As6Ir7
_symmetry_space_group_name_H-M   'P 1'
_cell_length_a   7.29305510
_cell_length_b   7.28028139
_cell_length_c   7.29305523
_cell_angle_alpha   109.49237463
_cell_angle_beta   109.49993674
_cell_angle_gamma   109.49238897
_symmetry_Int_Tables_number   1
_chemical_formula_structural   Ca2Ho2As6Ir7
_chemical_formula_sum   'Ca2 Ho2 As6 Ir7'
_cell_volume   297.82690922
_cell_formula_units_Z   1
loop_
 _symmetry_equiv_pos_site_id
 _symmetry_equiv_pos_as_xyz
  1  'x, y, z'
loop_
 _atom_site_type_symbol
 _atom_site_label
 _atom_site_symmetry_multiplicity
 _atom_site_fract_x
 _atom_site_fract_y
 _atom_site_fract_z
 _atom_site_occupancy
  Ca  Ca0  1  0.000000  0.500000  0.000000  1
  Ca  Ca1  1  0.500000  0.500000  0.500000  1
  Ho  Ho2  1  0.000000  0.000000  0.500000  1
  Ho  Ho3  1  0.500000  0.000000  0.000000  1
  As  As4  1  0.680390  0.678659  0.998269  1
  As  As5  1  0.319610  0.321341  0.001731  1
  As  As6  1  0.998269  0.678659  0.680390  1
  As  As7  1  0.001731  0.321341  0.319610  1
  As  As8  1  0.680168  0.000000  0.680168  1
  As  As9  1  0.319832  0.000000  0.319832  1
  Ir  Ir10  1  0.000000  0.000000  0.000000  1
  Ir  Ir11  1  0.250000  0.500000  0.750000  1
  Ir  Ir12  1  0.750278  0.246758  0.496480  1
  Ir  Ir13  1  0.496480  0.246758  0.750278  1
  Ir  Ir14  1  0.503520  0.753242  0.249722  1
  Ir  Ir15  1  0.750000  0.500000  0.250000  1
  Ir  Ir16  1  0.249722  0.753242  0.503520  1
