# generated using pymatgen
data_Hf6Ti4Al12Pd4Rh3
_symmetry_space_group_name_H-M   'P 1'
_cell_length_a   8.78386989
_cell_length_b   8.77899745
_cell_length_c   8.78387003
_cell_angle_alpha   60.01833008
_cell_angle_beta   59.96332654
_cell_angle_gamma   60.01833577
_symmetry_Int_Tables_number   1
_chemical_formula_structural   Hf6Ti4Al12Pd4Rh3
_chemical_formula_sum   'Hf6 Ti4 Al12 Pd4 Rh3'
_cell_volume   478.96240798
_cell_formula_units_Z   1
loop_
 _symmetry_equiv_pos_site_id
 _symmetry_equiv_pos_as_xyz
  1  'x, y, z'
loop_
 _atom_site_type_symbol
 _atom_site_label
 _atom_site_symmetry_multiplicity
 _atom_site_fract_x
 _atom_site_fract_y
 _atom_site_fract_z
 _atom_site_occupancy
  Hf  Hf0  1  0.685113  0.685113  0.314887  1
  Hf  Hf1  1  0.311873  0.688127  0.311873  1
  Hf  Hf2  1  0.685113  0.314887  0.314887  1
  Hf  Hf3  1  0.314887  0.314887  0.685113  1
  Hf  Hf4  1  0.688127  0.311873  0.688127  1
  Hf  Hf5  1  0.314887  0.685113  0.685113  1
  Ti  Ti6  1  0.876003  0.883844  0.356308  1
  Ti  Ti7  1  0.883844  0.356308  0.883844  1
  Ti  Ti8  1  0.356308  0.883844  0.876003  1
  Ti  Ti9  1  0.883844  0.876003  0.883844  1
  Al  Al10  1  0.121821  0.118514  0.641150  1
  Al  Al11  1  0.118514  0.641150  0.118514  1
  Al  Al12  1  0.641150  0.118514  0.121821  1
  Al  Al13  1  0.118514  0.121821  0.118514  1
  Al  Al14  1  0.664310  0.664653  0.006383  1
  Al  Al15  1  0.664653  0.006383  0.664653  1
  Al  Al16  1  0.006383  0.664653  0.664310  1
  Al  Al17  1  0.664653  0.664310  0.664653  1
  Al  Al18  1  0.331903  0.336710  0.994677  1
  Al  Al19  1  0.336710  0.994677  0.336710  1
  Al  Al20  1  0.994677  0.336710  0.331903  1
  Al  Al21  1  0.336710  0.331903  0.336710  1
  Pd  Pd22  1  0.999707  0.999707  0.500293  1
  Pd  Pd23  1  0.999707  0.500293  0.500293  1
  Pd  Pd24  1  0.500293  0.500293  0.999707  1
  Pd  Pd25  1  0.500293  0.999707  0.999707  1
  Rh  Rh26  1  0.000000  0.000000  0.000000  1
  Rh  Rh27  1  0.502585  0.997415  0.502585  1
  Rh  Rh28  1  0.997415  0.502585  0.997415  1
