# generated using pymatgen
data_Y3C2I3
_symmetry_space_group_name_H-M   'P 1'
_cell_length_a   10.28421100
_cell_length_b   10.28421145
_cell_length_c   16.98792600
_cell_angle_alpha   90.00000000
_cell_angle_beta   90.00000000
_cell_angle_gamma   111.69778242
_symmetry_Int_Tables_number   1
_chemical_formula_structural   Y3C2I3
_chemical_formula_sum   'Y24 C16 I24'
_cell_volume   1669.42422062
_cell_formula_units_Z   8
loop_
 _symmetry_equiv_pos_site_id
 _symmetry_equiv_pos_as_xyz
  1  'x, y, z'
loop_
 _atom_site_type_symbol
 _atom_site_label
 _atom_site_symmetry_multiplicity
 _atom_site_fract_x
 _atom_site_fract_y
 _atom_site_fract_z
 _atom_site_occupancy
  Y  Y0  1  0.160426  0.897018  0.999563  1
  Y  Y1  1  0.736936  0.773994  0.404567  1
  Y  Y2  1  0.619436  0.319980  0.975019  1
  Y  Y3  1  0.630697  0.369303  0.750000  1
  Y  Y4  1  0.556506  0.006696  0.599521  1
  Y  Y5  1  0.380564  0.680020  0.475019  1
  Y  Y6  1  0.773994  0.736936  0.595433  1
  Y  Y7  1  0.466192  0.969690  0.381551  1
  Y  Y8  1  0.969690  0.466192  0.618449  1
  Y  Y9  1  0.533808  0.030310  0.881551  1
  Y  Y10  1  0.443494  0.993304  0.099521  1
  Y  Y11  1  0.102982  0.839574  0.500437  1
  Y  Y12  1  0.319980  0.619436  0.024981  1
  Y  Y13  1  0.006696  0.556506  0.400479  1
  Y  Y14  1  0.823190  0.176810  0.750000  1
  Y  Y15  1  0.226006  0.263064  0.095433  1
  Y  Y16  1  0.263064  0.226006  0.904567  1
  Y  Y17  1  0.993304  0.443494  0.900479  1
  Y  Y18  1  0.680020  0.380564  0.524981  1
  Y  Y19  1  0.176810  0.823190  0.250000  1
  Y  Y20  1  0.839574  0.102982  0.499563  1
  Y  Y21  1  0.030310  0.533808  0.118449  1
  Y  Y22  1  0.369303  0.630697  0.250000  1
  Y  Y23  1  0.897018  0.160426  0.000437  1
  C  C24  1  0.281959  0.721662  0.348512  1
  C  C25  1  0.902987  0.589018  0.530097  1
  C  C26  1  0.660259  0.853579  0.526124  1
  C  C27  1  0.589018  0.902987  0.469903  1
  C  C28  1  0.718041  0.278338  0.848512  1
  C  C29  1  0.784038  0.224208  0.905303  1
  C  C30  1  0.215962  0.775792  0.405303  1
  C  C31  1  0.278338  0.718041  0.151488  1
  C  C32  1  0.721662  0.281959  0.651488  1
  C  C33  1  0.339741  0.146421  0.026124  1
  C  C34  1  0.853579  0.660259  0.473876  1
  C  C35  1  0.146421  0.339741  0.973876  1
  C  C36  1  0.224208  0.784038  0.094697  1
  C  C37  1  0.097013  0.410982  0.030097  1
  C  C38  1  0.410982  0.097013  0.969903  1
  C  C39  1  0.775792  0.215962  0.594697  1
  I  I40  1  0.360962  0.101422  0.744838  1
  I  I41  1  0.863117  0.627367  0.993854  1
  I  I42  1  0.898578  0.639038  0.755162  1
  I  I43  1  0.499952  0.512073  0.879583  1
  I  I44  1  0.132338  0.367934  0.752432  1
  I  I45  1  0.372633  0.136883  0.506146  1
  I  I46  1  0.487927  0.500048  0.620417  1
  I  I47  1  0.984846  0.986206  0.129186  1
  I  I48  1  0.500048  0.487927  0.379583  1
  I  I49  1  0.136883  0.372633  0.493854  1
  I  I50  1  0.745415  0.263031  0.368328  1
  I  I51  1  0.986206  0.984846  0.870814  1
  I  I52  1  0.013794  0.015154  0.370814  1
  I  I53  1  0.263031  0.745415  0.631672  1
  I  I54  1  0.736969  0.254585  0.131672  1
  I  I55  1  0.254585  0.736969  0.868328  1
  I  I56  1  0.627367  0.863117  0.006146  1
  I  I57  1  0.101422  0.360962  0.255162  1
  I  I58  1  0.015154  0.013794  0.629186  1
  I  I59  1  0.367934  0.132338  0.247568  1
  I  I60  1  0.639038  0.898578  0.244838  1
  I  I61  1  0.632066  0.867662  0.747568  1
  I  I62  1  0.512073  0.499952  0.120417  1
  I  I63  1  0.867662  0.632066  0.252432  1
