# generated using pymatgen
data_La20(GeSb3)3
_symmetry_space_group_name_H-M   'P 1'
_cell_length_a   8.38076767
_cell_length_b   9.65890400
_cell_length_c   12.64089102
_cell_angle_alpha   90.00000000
_cell_angle_beta   89.91006939
_cell_angle_gamma   90.00000000
_symmetry_Int_Tables_number   1
_chemical_formula_structural   La20(GeSb3)3
_chemical_formula_sum   'La20 Ge3 Sb9'
_cell_volume   1023.26661046
_cell_formula_units_Z   1
loop_
 _symmetry_equiv_pos_site_id
 _symmetry_equiv_pos_as_xyz
  1  'x, y, z'
loop_
 _atom_site_type_symbol
 _atom_site_label
 _atom_site_symmetry_multiplicity
 _atom_site_fract_x
 _atom_site_fract_y
 _atom_site_fract_z
 _atom_site_occupancy
  La  La0  1  0.810767  0.948996  0.061498  1
  La  La1  1  0.305871  0.045145  0.435154  1
  La  La2  1  0.186571  0.450443  0.940554  1
  La  La3  1  0.695337  0.558352  0.563162  1
  La  La4  1  0.186571  0.049557  0.940554  1
  La  La5  1  0.695337  0.941648  0.563162  1
  La  La6  1  0.810767  0.551004  0.061498  1
  La  La7  1  0.305871  0.454855  0.435154  1
  La  La8  1  0.523608  0.250000  0.995933  1
  La  La9  1  0.028822  0.750000  0.503863  1
  La  La10  1  0.473934  0.750000  0.003615  1
  La  La11  1  0.983248  0.250000  0.496037  1
  La  La12  1  0.165585  0.750000  0.216737  1
  La  La13  1  0.670834  0.250000  0.273714  1
  La  La14  1  0.833891  0.250000  0.781661  1
  La  La15  1  0.334859  0.750000  0.719008  1
  La  La16  1  0.642451  0.750000  0.290484  1
  La  La17  1  0.143865  0.250000  0.209175  1
  La  La18  1  0.348115  0.250000  0.713698  1
  La  La19  1  0.857060  0.750000  0.792389  1
  Ge  Ge20  1  0.906853  0.250000  0.026343  1
  Ge  Ge21  1  0.412531  0.750000  0.476519  1
  Ge  Ge22  1  0.089598  0.750000  0.975640  1
  Sb  Sb23  1  0.929335  0.990050  0.325992  1
  Sb  Sb24  1  0.429605  0.009182  0.173504  1
  Sb  Sb25  1  0.070007  0.491755  0.674980  1
  Sb  Sb26  1  0.569585  0.508942  0.825637  1
  Sb  Sb27  1  0.070007  0.008245  0.674980  1
  Sb  Sb28  1  0.569585  0.991058  0.825637  1
  Sb  Sb29  1  0.929335  0.509950  0.325992  1
  Sb  Sb30  1  0.429605  0.490818  0.173504  1
  Sb  Sb31  1  0.590587  0.250000  0.524221  1
