# generated using pymatgen
data_Ba2Zr6BeCl17
_symmetry_space_group_name_H-M   'P 1'
_cell_length_a   9.79924641
_cell_length_b   9.79924630
_cell_length_c   9.79924730
_cell_angle_alpha   105.22455172
_cell_angle_beta   105.22454851
_cell_angle_gamma   118.34598538
_symmetry_Int_Tables_number   1
_chemical_formula_structural   Ba2Zr6BeCl17
_chemical_formula_sum   'Ba2 Zr6 Be1 Cl17'
_cell_volume   711.14667417
_cell_formula_units_Z   1
loop_
 _symmetry_equiv_pos_site_id
 _symmetry_equiv_pos_as_xyz
  1  'x, y, z'
loop_
 _atom_site_type_symbol
 _atom_site_label
 _atom_site_symmetry_multiplicity
 _atom_site_fract_x
 _atom_site_fract_y
 _atom_site_fract_z
 _atom_site_occupancy
  Ba  Ba0  1  0.250000  0.750000  0.500000  1
  Ba  Ba1  1  0.750000  0.250000  0.500000  1
  Zr  Zr2  1  0.238883  0.238883  0.000000  1
  Zr  Zr3  1  0.761117  0.761117  0.000000  1
  Zr  Zr4  1  0.187007  0.068344  0.255352  1
  Zr  Zr5  1  0.931656  0.187007  0.118663  1
  Zr  Zr6  1  0.812993  0.931656  0.744648  1
  Zr  Zr7  1  0.068344  0.812993  0.881337  1
  Be  Be8  1  0.000000  0.000000  0.000000  1
  Cl  Cl9  1  0.871111  0.721988  0.593099  1
  Cl  Cl10  1  0.278012  0.871111  0.149124  1
  Cl  Cl11  1  0.130290  0.594802  0.725092  1
  Cl  Cl12  1  0.540654  0.670926  0.720134  1
  Cl  Cl13  1  0.869710  0.405198  0.274908  1
  Cl  Cl14  1  0.459346  0.329074  0.279866  1
  Cl  Cl15  1  0.820520  0.540654  0.869729  1
  Cl  Cl16  1  0.405198  0.130290  0.535487  1
  Cl  Cl17  1  0.594802  0.869710  0.464513  1
  Cl  Cl18  1  0.128889  0.278012  0.406901  1
  Cl  Cl19  1  0.329074  0.049209  0.869729  1
  Cl  Cl20  1  0.950791  0.820520  0.279866  1
  Cl  Cl21  1  0.721988  0.128889  0.850876  1
  Cl  Cl22  1  0.500000  0.500000  0.000000  1
  Cl  Cl23  1  0.179480  0.459346  0.130271  1
  Cl  Cl24  1  0.049209  0.179480  0.720134  1
  Cl  Cl25  1  0.670926  0.950791  0.130271  1
