# generated using pymatgen
data_Ba3LuSc3O9
_symmetry_space_group_name_H-M   'P 1'
_cell_length_a   5.89104136
_cell_length_b   5.89104185
_cell_length_c   8.75493290
_cell_angle_alpha   70.33979627
_cell_angle_beta   70.33979152
_cell_angle_gamma   59.99999603
_symmetry_Int_Tables_number   1
_chemical_formula_structural   Ba3LuSc3O9
_chemical_formula_sum   'Ba3 Lu1 Sc3 O9'
_cell_volume   242.46049521
_cell_formula_units_Z   1
loop_
 _symmetry_equiv_pos_site_id
 _symmetry_equiv_pos_as_xyz
  1  'x, y, z'
loop_
 _atom_site_type_symbol
 _atom_site_label
 _atom_site_symmetry_multiplicity
 _atom_site_fract_x
 _atom_site_fract_y
 _atom_site_fract_z
 _atom_site_occupancy
  Ba  Ba0  1  0.999136  0.999135  0.002594  1
  Ba  Ba1  1  0.576520  0.576521  0.270439  1
  Ba  Ba2  1  0.159349  0.159349  0.521954  1
  Lu  Lu3  1  0.737289  0.737288  0.788136  1
  Sc  Sc4  1  0.297459  0.297459  0.107625  1
  Sc  Sc5  1  0.862399  0.862398  0.412805  1
  Sc  Sc6  1  0.421909  0.421910  0.734271  1
  O  O7  1  0.073428  0.084366  0.262750  1
  O  O8  1  0.579458  0.073428  0.262750  1
  O  O9  1  0.084366  0.579457  0.262750  1
  O  O10  1  0.632869  0.129673  0.589749  1
  O  O11  1  0.647709  0.632869  0.589749  1
  O  O12  1  0.129672  0.647709  0.589749  1
  O  O13  1  0.494974  0.041391  0.932858  1
  O  O14  1  0.530778  0.494973  0.932858  1
  O  O15  1  0.041391  0.530777  0.932858  1
