# generated using pymatgen
data_Y10Si6N
_symmetry_space_group_name_H-M   'P 1'
_cell_length_a   8.42466400
_cell_length_b   8.42466346
_cell_length_c   6.38001200
_cell_angle_alpha   90.00000000
_cell_angle_beta   90.00000000
_cell_angle_gamma   119.99999425
_symmetry_Int_Tables_number   1
_chemical_formula_structural   Y10Si6N
_chemical_formula_sum   'Y10 Si6 N1'
_cell_volume   392.15459007
_cell_formula_units_Z   1
loop_
 _symmetry_equiv_pos_site_id
 _symmetry_equiv_pos_as_xyz
  1  'x, y, z'
loop_
 _atom_site_type_symbol
 _atom_site_label
 _atom_site_symmetry_multiplicity
 _atom_site_fract_x
 _atom_site_fract_y
 _atom_site_fract_z
 _atom_site_occupancy
  Y  Y0  1  0.333333  0.666667  0.500000  1
  Y  Y1  1  0.666667  0.333333  0.500000  1
  Y  Y2  1  0.666667  0.333333  0.000000  1
  Y  Y3  1  0.333333  0.666667  0.000000  1
  Y  Y4  1  0.000000  0.767311  0.266658  1
  Y  Y5  1  0.232689  0.232689  0.266658  1
  Y  Y6  1  0.767311  0.000000  0.266658  1
  Y  Y7  1  0.000000  0.232689  0.733342  1
  Y  Y8  1  0.767311  0.767311  0.733342  1
  Y  Y9  1  0.232689  0.000000  0.733342  1
  Si  Si10  1  0.000000  0.399291  0.251523  1
  Si  Si11  1  0.600709  0.600709  0.251523  1
  Si  Si12  1  0.399291  0.000000  0.251523  1
  Si  Si13  1  0.000000  0.600709  0.748477  1
  Si  Si14  1  0.399291  0.399291  0.748477  1
  Si  Si15  1  0.600709  0.000000  0.748477  1
  N  N16  1  0.000000  0.000000  0.500000  1
