# generated using pymatgen
data_Er11In9(CoRu)2
_symmetry_space_group_name_H-M   'P 1'
_cell_length_a   12.93021429
_cell_length_b   12.86806153
_cell_length_c   3.64804200
_cell_angle_alpha   90.00000000
_cell_angle_beta   90.00000000
_cell_angle_gamma   112.06554863
_symmetry_Int_Tables_number   1
_chemical_formula_structural   Er11In9(CoRu)2
_chemical_formula_sum   'Er11 In9 Co2 Ru2'
_cell_volume   562.52712686
_cell_formula_units_Z   1
loop_
 _symmetry_equiv_pos_site_id
 _symmetry_equiv_pos_as_xyz
  1  'x, y, z'
loop_
 _atom_site_type_symbol
 _atom_site_label
 _atom_site_symmetry_multiplicity
 _atom_site_fract_x
 _atom_site_fract_y
 _atom_site_fract_z
 _atom_site_occupancy
  Er  Er0  1  0.080047  0.417337  0.000000  1
  Er  Er1  1  0.919953  0.582663  0.000000  1
  Er  Er2  1  0.417981  0.081371  0.000000  1
  Er  Er3  1  0.582019  0.918629  0.000000  1
  Er  Er4  1  0.621401  0.372488  0.000000  1
  Er  Er5  1  0.378599  0.627512  0.000000  1
  Er  Er6  1  0.838132  0.160939  0.000000  1
  Er  Er7  1  0.161868  0.839061  0.000000  1
  Er  Er8  1  0.000000  0.000000  0.000000  1
  Er  Er9  1  0.315045  0.313096  0.000000  1
  Er  Er10  1  0.684955  0.686904  0.000000  1
  In  In11  1  0.842052  0.369244  0.500000  1
  In  In12  1  0.157948  0.630756  0.500000  1
  In  In13  1  0.370551  0.843916  0.500000  1
  In  In14  1  0.629449  0.156084  0.500000  1
  In  In15  1  0.077019  0.219499  0.500000  1
  In  In16  1  0.922981  0.780501  0.500000  1
  In  In17  1  0.220063  0.076224  0.500000  1
  In  In18  1  0.779937  0.923776  0.500000  1
  In  In19  1  0.500000  0.500000  0.500000  1
  Co  Co20  1  0.451311  0.246271  0.500000  1
  Co  Co21  1  0.548689  0.753729  0.500000  1
  Ru  Ru22  1  0.252142  0.451750  0.500000  1
  Ru  Ru23  1  0.747858  0.548250  0.500000  1
