# generated using pymatgen
data_TmLu(GaRh2)4
_symmetry_space_group_name_H-M   'P 1'
_cell_length_a   4.24334600
_cell_length_b   9.29243000
_cell_length_c   11.24955100
_cell_angle_alpha   90.00000000
_cell_angle_beta   90.00000000
_cell_angle_gamma   90.00000000
_symmetry_Int_Tables_number   1
_chemical_formula_structural   TmLu(GaRh2)4
_chemical_formula_sum   'Tm2 Lu2 Ga8 Rh16'
_cell_volume   443.58099678
_cell_formula_units_Z   2
loop_
 _symmetry_equiv_pos_site_id
 _symmetry_equiv_pos_as_xyz
  1  'x, y, z'
loop_
 _atom_site_type_symbol
 _atom_site_label
 _atom_site_symmetry_multiplicity
 _atom_site_fract_x
 _atom_site_fract_y
 _atom_site_fract_z
 _atom_site_occupancy
  Tm  Tm0  1  0.750000  0.855583  0.173381  1
  Tm  Tm1  1  0.750000  0.644417  0.673381  1
  Lu  Lu2  1  0.250000  0.144567  0.826607  1
  Lu  Lu3  1  0.250000  0.355433  0.326607  1
  Ga  Ga4  1  0.250000  0.412482  0.634592  1
  Ga  Ga5  1  0.250000  0.087518  0.134592  1
  Ga  Ga6  1  0.750000  0.587195  0.365440  1
  Ga  Ga7  1  0.750000  0.912805  0.865440  1
  Ga  Ga8  1  0.250000  0.612062  0.060652  1
  Ga  Ga9  1  0.250000  0.887938  0.560652  1
  Ga  Ga10  1  0.750000  0.387980  0.939282  1
  Ga  Ga11  1  0.750000  0.112020  0.439282  1
  Rh  Rh12  1  0.250000  0.622322  0.500524  1
  Rh  Rh13  1  0.250000  0.877678  0.000524  1
  Rh  Rh14  1  0.750000  0.377277  0.499049  1
  Rh  Rh15  1  0.750000  0.122723  0.999049  1
  Rh  Rh16  1  0.250000  0.703398  0.271954  1
  Rh  Rh17  1  0.250000  0.796602  0.771954  1
  Rh  Rh18  1  0.750000  0.295989  0.728179  1
  Rh  Rh19  1  0.750000  0.204011  0.228179  1
  Rh  Rh20  1  0.250000  0.166949  0.563488  1
  Rh  Rh21  1  0.250000  0.333051  0.063488  1
  Rh  Rh22  1  0.750000  0.833081  0.436694  1
  Rh  Rh23  1  0.750000  0.666919  0.936694  1
  Rh  Rh24  1  0.250000  0.000582  0.341699  1
  Rh  Rh25  1  0.250000  0.499418  0.841699  1
  Rh  Rh26  1  0.750000  0.999809  0.658457  1
  Rh  Rh27  1  0.750000  0.500191  0.158457  1
