# generated using pymatgen
data_Th10ZnSn5Sb2
_symmetry_space_group_name_H-M   'P 1'
_cell_length_a   9.60370721
_cell_length_b   9.60370682
_cell_length_c   6.57563235
_cell_angle_alpha   89.98143035
_cell_angle_beta   89.98142961
_cell_angle_gamma   119.98521843
_symmetry_Int_Tables_number   1
_chemical_formula_structural   Th10ZnSn5Sb2
_chemical_formula_sum   'Th10 Zn1 Sn5 Sb2'
_cell_volume   525.30379305
_cell_formula_units_Z   1
loop_
 _symmetry_equiv_pos_site_id
 _symmetry_equiv_pos_as_xyz
  1  'x, y, z'
loop_
 _atom_site_type_symbol
 _atom_site_label
 _atom_site_symmetry_multiplicity
 _atom_site_fract_x
 _atom_site_fract_y
 _atom_site_fract_z
 _atom_site_occupancy
  Th  Th0  1  0.999678  0.724304  0.755546  1
  Th  Th1  1  0.277290  0.277290  0.755128  1
  Th  Th2  1  0.332998  0.666383  0.499819  1
  Th  Th3  1  0.666383  0.332998  0.499819  1
  Th  Th4  1  0.723674  0.723674  0.244107  1
  Th  Th5  1  0.724304  0.999678  0.755546  1
  Th  Th6  1  0.999985  0.276328  0.244688  1
  Th  Th7  1  0.276328  0.999985  0.244688  1
  Th  Th8  1  0.333318  0.666541  0.000161  1
  Th  Th9  1  0.666541  0.333318  0.000161  1
  Zn  Zn10  1  0.000402  0.000402  0.000567  1
  Sn  Sn11  1  0.000040  0.379047  0.748978  1
  Sn  Sn12  1  0.379047  0.000040  0.748978  1
  Sn  Sn13  1  0.621011  0.000401  0.250843  1
  Sn  Sn14  1  0.378725  0.378725  0.250927  1
  Sn  Sn15  1  0.000401  0.621011  0.250843  1
  Sb  Sb16  1  0.619818  0.619818  0.749119  1
  Sb  Sb17  1  0.000056  0.000056  0.500079  1
