# generated using pymatgen
data_Y3Tm7(InGa2)2
_symmetry_space_group_name_H-M   'P 1'
_cell_length_a   7.67489029
_cell_length_b   7.67489029
_cell_length_c   14.24356201
_cell_angle_alpha   89.93907391
_cell_angle_beta   89.93907391
_cell_angle_gamma   90.02620207
_symmetry_Int_Tables_number   1
_chemical_formula_structural   Y3Tm7(InGa2)2
_chemical_formula_sum   'Y6 Tm14 In4 Ga8'
_cell_volume   839.00089902
_cell_formula_units_Z   2
loop_
 _symmetry_equiv_pos_site_id
 _symmetry_equiv_pos_as_xyz
  1  'x, y, z'
loop_
 _atom_site_type_symbol
 _atom_site_label
 _atom_site_symmetry_multiplicity
 _atom_site_fract_x
 _atom_site_fract_y
 _atom_site_fract_z
 _atom_site_occupancy
  Y  Y0  1  0.665237  0.331519  0.605693  1
  Y  Y1  1  0.831852  0.834751  0.605751  1
  Y  Y2  1  0.668481  0.334763  0.894307  1
  Y  Y3  1  0.165249  0.168148  0.894249  1
  Y  Y4  1  0.668378  0.665536  0.394066  1
  Y  Y5  1  0.334464  0.331622  0.105934  1
  Tm  Tm6  1  0.834687  0.831373  0.893790  1
  Tm  Tm7  1  0.168627  0.165313  0.606210  1
  Tm  Tm8  1  0.835136  0.168216  0.393477  1
  Tm  Tm9  1  0.165309  0.831727  0.393650  1
  Tm  Tm10  1  0.330991  0.334481  0.393629  1
  Tm  Tm11  1  0.831784  0.164864  0.106523  1
  Tm  Tm12  1  0.331466  0.665536  0.893810  1
  Tm  Tm13  1  0.168273  0.834691  0.106350  1
  Tm  Tm14  1  0.499535  0.999204  0.752399  1
  Tm  Tm15  1  0.000125  0.500010  0.247610  1
  Tm  Tm16  1  0.334464  0.668534  0.606190  1
  Tm  Tm17  1  0.665519  0.669009  0.106371  1
  Tm  Tm18  1  0.000796  0.500465  0.747601  1
  Tm  Tm19  1  0.499990  0.999875  0.252390  1
  In  In20  1  0.999621  0.501358  0.001449  1
  In  In21  1  0.500536  0.998564  0.999016  1
  In  In22  1  0.498642  0.000379  0.498551  1
  In  In23  1  0.001436  0.499464  0.500984  1
  Ga  Ga24  1  0.624789  0.375211  0.250000  1
  Ga  Ga25  1  0.375285  0.624715  0.250000  1
  Ga  Ga26  1  0.124019  0.124001  0.250233  1
  Ga  Ga27  1  0.374789  0.376352  0.749799  1
  Ga  Ga28  1  0.124888  0.875112  0.750000  1
  Ga  Ga29  1  0.875999  0.875981  0.249767  1
  Ga  Ga30  1  0.623648  0.625211  0.750201  1
  Ga  Ga31  1  0.875984  0.124016  0.750000  1
