# generated using pymatgen
data_Dy2ErCdSn3Ir2
_symmetry_space_group_name_H-M   'P 1'
_cell_length_a   7.69374701
_cell_length_b   7.70022819
_cell_length_c   3.93747000
_cell_angle_alpha   90.00000000
_cell_angle_beta   90.00000000
_cell_angle_gamma   119.96653307
_symmetry_Int_Tables_number   1
_chemical_formula_structural   Dy2ErCdSn3Ir2
_chemical_formula_sum   'Dy2 Er1 Cd1 Sn3 Ir2'
_cell_volume   202.08577634
_cell_formula_units_Z   1
loop_
 _symmetry_equiv_pos_site_id
 _symmetry_equiv_pos_as_xyz
  1  'x, y, z'
loop_
 _atom_site_type_symbol
 _atom_site_label
 _atom_site_symmetry_multiplicity
 _atom_site_fract_x
 _atom_site_fract_y
 _atom_site_fract_z
 _atom_site_occupancy
  Dy  Dy0  1  0.383664  0.410195  0.500000  1
  Dy  Dy1  1  0.589742  0.973687  0.500000  1
  Er  Er2  1  0.027139  0.616936  0.500000  1
  Cd  Cd3  1  0.667193  0.333718  0.000000  1
  Sn  Sn4  1  0.744999  0.745783  0.000000  1
  Sn  Sn5  1  0.254010  0.998561  0.000000  1
  Sn  Sn6  1  0.001032  0.255456  0.000000  1
  Ir  Ir7  1  0.332219  0.666275  0.000000  1
  Ir  Ir8  1  0.000001  0.999389  0.500000  1
