# generated using pymatgen
data_Ba6YEr(Tc2O9)2
_symmetry_space_group_name_H-M   'P 1'
_cell_length_a   5.98380700
_cell_length_b   5.98380599
_cell_length_c   14.53672700
_cell_angle_alpha   90.00000000
_cell_angle_beta   90.00000000
_cell_angle_gamma   120.00000004
_symmetry_Int_Tables_number   1
_chemical_formula_structural   Ba6YEr(Tc2O9)2
_chemical_formula_sum   'Ba6 Y1 Er1 Tc4 O18'
_cell_volume   450.76724229
_cell_formula_units_Z   1
loop_
 _symmetry_equiv_pos_site_id
 _symmetry_equiv_pos_as_xyz
  1  'x, y, z'
loop_
 _atom_site_type_symbol
 _atom_site_label
 _atom_site_symmetry_multiplicity
 _atom_site_fract_x
 _atom_site_fract_y
 _atom_site_fract_z
 _atom_site_occupancy
  Ba  Ba0  1  0.333333  0.666667  0.596668  1
  Ba  Ba1  1  0.666667  0.333333  0.096173  1
  Ba  Ba2  1  0.666667  0.333333  0.403332  1
  Ba  Ba3  1  0.333333  0.666667  0.903827  1
  Ba  Ba4  1  0.000000  0.000000  0.750469  1
  Ba  Ba5  1  0.000000  0.000000  0.249531  1
  Y  Y6  1  0.000000  0.000000  0.500000  1
  Er  Er7  1  0.000000  0.000000  0.000000  1
  Tc  Tc8  1  0.666667  0.333333  0.664518  1
  Tc  Tc9  1  0.333333  0.666667  0.163478  1
  Tc  Tc10  1  0.666667  0.333333  0.836522  1
  Tc  Tc11  1  0.333333  0.666667  0.335482  1
  O  O12  1  0.174700  0.825300  0.088333  1
  O  O13  1  0.174700  0.349402  0.088333  1
  O  O14  1  0.650598  0.825300  0.088333  1
  O  O15  1  0.351941  0.175970  0.589099  1
  O  O16  1  0.825300  0.650598  0.911667  1
  O  O17  1  0.824030  0.175970  0.589099  1
  O  O18  1  0.824030  0.648059  0.589099  1
  O  O19  1  0.175970  0.824030  0.410901  1
  O  O20  1  0.648059  0.824030  0.410901  1
  O  O21  1  0.349402  0.174700  0.911667  1
  O  O22  1  0.825300  0.174700  0.911667  1
  O  O23  1  0.175970  0.351941  0.410901  1
  O  O24  1  0.491630  0.983260  0.249809  1
  O  O25  1  0.508370  0.491630  0.750191  1
  O  O26  1  0.983260  0.491630  0.750191  1
  O  O27  1  0.016740  0.508370  0.249809  1
  O  O28  1  0.491630  0.508370  0.249809  1
  O  O29  1  0.508370  0.016740  0.750191  1
