# generated using pymatgen
data_Tb3VFeC6
_symmetry_space_group_name_H-M   'P 1'
_cell_length_a   8.19486800
_cell_length_b   8.19486861
_cell_length_c   4.98834300
_cell_angle_alpha   90.00000000
_cell_angle_beta   90.00000000
_cell_angle_gamma   120.00000560
_symmetry_Int_Tables_number   1
_chemical_formula_structural   Tb3VFeC6
_chemical_formula_sum   'Tb6 V2 Fe2 C12'
_cell_volume   290.11546013
_cell_formula_units_Z   2
loop_
 _symmetry_equiv_pos_site_id
 _symmetry_equiv_pos_as_xyz
  1  'x, y, z'
loop_
 _atom_site_type_symbol
 _atom_site_label
 _atom_site_symmetry_multiplicity
 _atom_site_fract_x
 _atom_site_fract_y
 _atom_site_fract_z
 _atom_site_occupancy
  Tb  Tb0  1  0.623957  0.679719  0.750000  1
  Tb  Tb1  1  0.944238  0.623957  0.250000  1
  Tb  Tb2  1  0.679719  0.055762  0.250000  1
  Tb  Tb3  1  0.320281  0.944238  0.750000  1
  Tb  Tb4  1  0.055762  0.376043  0.750000  1
  Tb  Tb5  1  0.376043  0.320281  0.250000  1
  V  V6  1  0.000000  0.000000  0.500000  1
  V  V7  1  0.000000  0.000000  0.000000  1
  Fe  Fe8  1  0.666667  0.333333  0.750000  1
  Fe  Fe9  1  0.333333  0.666667  0.250000  1
  C  C10  1  0.960577  0.763874  0.750000  1
  C  C11  1  0.196704  0.960577  0.250000  1
  C  C12  1  0.763874  0.803296  0.250000  1
  C  C13  1  0.236126  0.196704  0.750000  1
  C  C14  1  0.803296  0.039423  0.750000  1
  C  C15  1  0.039423  0.236126  0.250000  1
  C  C16  1  0.866767  0.571873  0.750000  1
  C  C17  1  0.294894  0.866767  0.250000  1
  C  C18  1  0.571873  0.705106  0.250000  1
  C  C19  1  0.428127  0.294894  0.750000  1
  C  C20  1  0.133233  0.428127  0.250000  1
  C  C21  1  0.705106  0.133233  0.750000  1
