# generated using pymatgen
data_Ta6CrOs3Ru2
_symmetry_space_group_name_H-M   'P 1'
_cell_length_a   4.52436218
_cell_length_b   6.24492501
_cell_length_c   13.61197077
_cell_angle_alpha   90.00289409
_cell_angle_beta   87.43542478
_cell_angle_gamma   89.99740937
_symmetry_Int_Tables_number   1
_chemical_formula_structural   Ta6CrOs3Ru2
_chemical_formula_sum   'Ta12 Cr2 Os6 Ru4'
_cell_volume   384.21153711
_cell_formula_units_Z   2
loop_
 _symmetry_equiv_pos_site_id
 _symmetry_equiv_pos_as_xyz
  1  'x, y, z'
loop_
 _atom_site_type_symbol
 _atom_site_label
 _atom_site_symmetry_multiplicity
 _atom_site_fract_x
 _atom_site_fract_y
 _atom_site_fract_z
 _atom_site_occupancy
  Ta  Ta0  1  0.467252  0.253672  0.995661  1
  Ta  Ta1  1  0.467247  0.746435  0.995657  1
  Ta  Ta2  1  0.960261  0.249701  0.172419  1
  Ta  Ta3  1  0.960258  0.750438  0.172430  1
  Ta  Ta4  1  0.539854  0.250195  0.327577  1
  Ta  Ta5  1  0.539850  0.749521  0.327573  1
  Ta  Ta6  1  0.032742  0.246243  0.504322  1
  Ta  Ta7  1  0.032745  0.753624  0.504318  1
  Ta  Ta8  1  0.510920  0.247467  0.669671  1
  Ta  Ta9  1  0.510919  0.752548  0.669671  1
  Ta  Ta10  1  0.988965  0.252549  0.830362  1
  Ta  Ta11  1  0.988972  0.747590  0.830351  1
  Cr  Cr12  1  0.011711  0.000014  0.668218  1
  Cr  Cr13  1  0.488201  0.500077  0.831770  1
  Os  Os14  1  0.965038  0.500064  0.996881  1
  Os  Os15  1  0.456209  0.000033  0.156542  1
  Os  Os16  1  0.043910  0.499901  0.343450  1
  Os  Os17  1  0.534935  0.999936  0.503116  1
  Os  Os18  1  0.011670  0.500014  0.667250  1
  Os  Os19  1  0.488210  0.000046  0.832750  1
  Ru  Ru20  1  0.965893  0.000056  0.996003  1
  Ru  Ru21  1  0.447006  0.500028  0.154898  1
  Ru  Ru22  1  0.053133  0.999906  0.345111  1
  Ru  Ru23  1  0.534103  0.499937  0.503997  1
