# generated using pymatgen
data_TbPr2(CuSn)4
_symmetry_space_group_name_H-M   'P 1'
_cell_length_a   8.61486618
_cell_length_b   8.61486725
_cell_length_c   8.61486652
_cell_angle_alpha   148.92506550
_cell_angle_beta   132.31448167
_cell_angle_gamma   58.01532320
_symmetry_Int_Tables_number   1
_chemical_formula_structural   TbPr2(CuSn)4
_chemical_formula_sum   'Tb1 Pr2 Cu4 Sn4'
_cell_volume   242.18136275
_cell_formula_units_Z   1
loop_
 _symmetry_equiv_pos_site_id
 _symmetry_equiv_pos_as_xyz
  1  'x, y, z'
loop_
 _atom_site_type_symbol
 _atom_site_label
 _atom_site_symmetry_multiplicity
 _atom_site_fract_x
 _atom_site_fract_y
 _atom_site_fract_z
 _atom_site_occupancy
  Tb  Tb0  1  0.500000  0.000000  0.500000  1
  Pr  Pr1  1  0.132874  0.132874  0.000000  1
  Pr  Pr2  1  0.867126  0.867126  0.000000  1
  Cu  Cu3  1  0.484582  0.668014  0.816569  1
  Cu  Cu4  1  0.851444  0.668014  0.183431  1
  Cu  Cu5  1  0.148556  0.331986  0.816569  1
  Cu  Cu6  1  0.515418  0.331986  0.183431  1
  Sn  Sn7  1  0.205785  0.500000  0.705785  1
  Sn  Sn8  1  0.794215  0.500000  0.294215  1
  Sn  Sn9  1  0.714695  0.214695  0.500000  1
  Sn  Sn10  1  0.285305  0.785305  0.500000  1
