# generated using pymatgen
data_SmYBr2N
_symmetry_space_group_name_H-M   'P 1'
_cell_length_a   3.71657900
_cell_length_b   3.71657853
_cell_length_c   10.58887800
_cell_angle_alpha   90.00000000
_cell_angle_beta   90.00000000
_cell_angle_gamma   120.00001307
_symmetry_Int_Tables_number   1
_chemical_formula_structural   SmYBr2N
_chemical_formula_sum   'Sm1 Y1 Br2 N1'
_cell_volume   126.66808409
_cell_formula_units_Z   1
loop_
 _symmetry_equiv_pos_site_id
 _symmetry_equiv_pos_as_xyz
  1  'x, y, z'
loop_
 _atom_site_type_symbol
 _atom_site_label
 _atom_site_symmetry_multiplicity
 _atom_site_fract_x
 _atom_site_fract_y
 _atom_site_fract_z
 _atom_site_occupancy
  Sm  Sm0  1  0.333333  0.666666  0.375479  1
  Y  Y1  1  0.666666  0.333333  0.624136  1
  Br  Br2  1  0.666666  0.333333  0.186045  1
  Br  Br3  1  0.333333  0.666666  0.807493  1
  N  N4  1  0.000000  0.000000  0.506848  1
