# generated using pymatgen
data_TaNb4(CuGe)4
_symmetry_space_group_name_H-M   'P 1'
_cell_length_a   7.57192185
_cell_length_b   7.57193458
_cell_length_c   7.57023632
_cell_angle_alpha   93.41343098
_cell_angle_beta   93.41104753
_cell_angle_gamma   151.76184376
_symmetry_Int_Tables_number   1
_chemical_formula_structural   TaNb4(CuGe)4
_chemical_formula_sum   'Ta1 Nb4 Cu4 Ge4'
_cell_volume   199.15054910
_cell_formula_units_Z   1
loop_
 _symmetry_equiv_pos_site_id
 _symmetry_equiv_pos_as_xyz
  1  'x, y, z'
loop_
 _atom_site_type_symbol
 _atom_site_label
 _atom_site_symmetry_multiplicity
 _atom_site_fract_x
 _atom_site_fract_y
 _atom_site_fract_z
 _atom_site_occupancy
  Ta  Ta0  1  0.500000  0.500000  0.000000  1
  Nb  Nb1  1  0.126865  0.805530  0.932381  1
  Nb  Nb2  1  0.194472  0.126886  0.321342  1
  Nb  Nb3  1  0.805528  0.873114  0.678658  1
  Nb  Nb4  1  0.873135  0.194470  0.067619  1
  Cu  Cu5  1  0.397892  0.918918  0.316824  1
  Cu  Cu6  1  0.602108  0.081082  0.683176  1
  Cu  Cu7  1  0.918888  0.602110  0.520991  1
  Cu  Cu8  1  0.081112  0.397890  0.479009  1
  Ge  Ge9  1  0.248450  0.561033  0.809495  1
  Ge  Ge10  1  0.439021  0.248434  0.687459  1
  Ge  Ge11  1  0.560979  0.751566  0.312541  1
  Ge  Ge12  1  0.751550  0.438967  0.190505  1
