# generated using pymatgen
data_AsBr10Cl
_symmetry_space_group_name_H-M   'P 1'
_cell_length_a   7.51385346
_cell_length_b   8.75990318
_cell_length_c   9.70318189
_cell_angle_alpha   97.58368862
_cell_angle_beta   94.67751971
_cell_angle_gamma   114.32299394
_symmetry_Int_Tables_number   1
_chemical_formula_structural   AsBr10Cl
_chemical_formula_sum   'As1 Br10 Cl1'
_cell_volume   570.32230023
_cell_formula_units_Z   1
loop_
 _symmetry_equiv_pos_site_id
 _symmetry_equiv_pos_as_xyz
  1  'x, y, z'
loop_
 _atom_site_type_symbol
 _atom_site_label
 _atom_site_symmetry_multiplicity
 _atom_site_fract_x
 _atom_site_fract_y
 _atom_site_fract_z
 _atom_site_occupancy
  As  As0  1  0.975463  0.499046  0.532646  1
  Br  Br1  1  0.002385  0.005038  0.037391  1
  Br  Br2  1  0.693719  0.795648  0.897227  1
  Br  Br3  1  0.327698  0.235529  0.227050  1
  Br  Br4  1  0.701497  0.261023  0.578221  1
  Br  Br5  1  0.239059  0.706431  0.275524  1
  Br  Br6  1  0.462315  0.747959  0.093429  1
  Br  Br7  1  0.555773  0.278380  0.008271  1
  Br  Br8  1  0.848952  0.709449  0.547342  1
  Br  Br9  1  0.148158  0.200470  0.425709  1
  Br  Br10  1  0.885241  0.482511  0.135406  1
  Cl  Cl11  1  0.159740  0.578515  0.741781  1
