# generated using pymatgen
data_TbCr4Bi3F28
_symmetry_space_group_name_H-M   'P 1'
_cell_length_a   5.58731425
_cell_length_b   8.99665801
_cell_length_c   11.88609341
_cell_angle_alpha   62.38774647
_cell_angle_beta   89.96624821
_cell_angle_gamma   89.83543444
_symmetry_Int_Tables_number   1
_chemical_formula_structural   TbCr4Bi3F28
_chemical_formula_sum   'Tb1 Cr4 Bi3 F28'
_cell_volume   529.42742672
_cell_formula_units_Z   1
loop_
 _symmetry_equiv_pos_site_id
 _symmetry_equiv_pos_as_xyz
  1  'x, y, z'
loop_
 _atom_site_type_symbol
 _atom_site_label
 _atom_site_symmetry_multiplicity
 _atom_site_fract_x
 _atom_site_fract_y
 _atom_site_fract_z
 _atom_site_occupancy
  Tb  Tb0  1  0.232359  0.804648  0.764456  1
  Cr  Cr1  1  0.758149  0.725771  0.040434  1
  Cr  Cr2  1  0.242227  0.276939  0.955576  1
  Cr  Cr3  1  0.257491  0.271656  0.458472  1
  Cr  Cr4  1  0.741522  0.726197  0.545597  1
  Bi  Bi5  1  0.275067  0.810312  0.263224  1
  Bi  Bi6  1  0.726591  0.180535  0.737706  1
  Bi  Bi7  1  0.773403  0.188026  0.237370  1
  F  F8  1  0.926902  0.709911  0.425286  1
  F  F9  1  0.073640  0.291108  0.578181  1
  F  F10  1  0.425255  0.293168  0.076974  1
  F  F11  1  0.566635  0.711942  0.919455  1
  F  F12  1  0.478728  0.728961  0.131063  1
  F  F13  1  0.521200  0.271722  0.866957  1
  F  F14  1  0.976841  0.270451  0.368126  1
  F  F15  1  0.018354  0.730963  0.637354  1
  F  F16  1  0.941135  0.742763  0.163620  1
  F  F17  1  0.060758  0.261191  0.832331  1
  F  F18  1  0.439424  0.256409  0.333695  1
  F  F19  1  0.549671  0.746435  0.667498  1
  F  F20  1  0.769024  0.497378  0.133053  1
  F  F21  1  0.233895  0.509504  0.863147  1
  F  F22  1  0.268212  0.501974  0.365174  1
  F  F23  1  0.730447  0.499054  0.637801  1
  F  F24  1  0.954765  0.282839  0.041825  1
  F  F25  1  0.041777  0.720887  0.952016  1
  F  F26  1  0.455842  0.720049  0.458103  1
  F  F27  1  0.545577  0.279706  0.542782  1
  F  F28  1  0.741002  0.958151  0.454665  1
  F  F29  1  0.258172  0.040835  0.549387  1
  F  F30  1  0.242700  0.045246  0.045959  1
  F  F31  1  0.757087  0.958132  0.952702  1
  F  F32  1  0.602312  0.968698  0.224043  1
  F  F33  1  0.403405  0.021336  0.773993  1
  F  F34  1  0.102740  0.029427  0.276348  1
  F  F35  1  0.907694  0.967677  0.725630  1
