# generated using pymatgen
data_KPu2(AsO4)3
_symmetry_space_group_name_H-M   'P 1'
_cell_length_a   10.16448064
_cell_length_b   10.16448041
_cell_length_c   10.16448070
_cell_angle_alpha   55.97307639
_cell_angle_beta   55.97308050
_cell_angle_gamma   55.97307460
_symmetry_Int_Tables_number   1
_chemical_formula_structural   KPu2(AsO4)3
_chemical_formula_sum   'K2 Pu4 As6 O24'
_cell_volume   673.29068136
_cell_formula_units_Z   2
loop_
 _symmetry_equiv_pos_site_id
 _symmetry_equiv_pos_as_xyz
  1  'x, y, z'
loop_
 _atom_site_type_symbol
 _atom_site_label
 _atom_site_symmetry_multiplicity
 _atom_site_fract_x
 _atom_site_fract_y
 _atom_site_fract_z
 _atom_site_occupancy
  K  K0  1  0.500000  0.500000  0.500000  1
  K  K1  1  0.000000  0.000000  0.000000  1
  Pu  Pu2  1  0.648602  0.648602  0.648602  1
  Pu  Pu3  1  0.851398  0.851398  0.851398  1
  Pu  Pu4  1  0.351398  0.351398  0.351398  1
  Pu  Pu5  1  0.148602  0.148602  0.148602  1
  As  As6  1  0.460888  0.039112  0.750000  1
  As  As7  1  0.039112  0.750000  0.460888  1
  As  As8  1  0.750000  0.460888  0.039112  1
  As  As9  1  0.539112  0.960888  0.250000  1
  As  As10  1  0.960888  0.250000  0.539112  1
  As  As11  1  0.250000  0.539112  0.960888  1
  O  O12  1  0.485837  0.864296  0.737246  1
  O  O13  1  0.864296  0.737246  0.485837  1
  O  O14  1  0.737246  0.485837  0.864296  1
  O  O15  1  0.635704  0.014163  0.762754  1
  O  O16  1  0.014163  0.762754  0.635704  1
  O  O17  1  0.762754  0.635704  0.014163  1
  O  O18  1  0.514163  0.135704  0.262754  1
  O  O19  1  0.135704  0.262754  0.514163  1
  O  O20  1  0.262754  0.514163  0.135704  1
  O  O21  1  0.364296  0.985837  0.237246  1
  O  O22  1  0.985837  0.237246  0.364296  1
  O  O23  1  0.237246  0.364296  0.985837  1
  O  O24  1  0.567511  0.781986  0.426281  1
  O  O25  1  0.781986  0.426281  0.567511  1
  O  O26  1  0.426281  0.567511  0.781986  1
  O  O27  1  0.718014  0.932489  0.073719  1
  O  O28  1  0.932489  0.073719  0.718014  1
  O  O29  1  0.073719  0.718014  0.932489  1
  O  O30  1  0.432489  0.218014  0.573719  1
  O  O31  1  0.218014  0.573719  0.432489  1
  O  O32  1  0.573719  0.432489  0.218014  1
  O  O33  1  0.281986  0.067511  0.926281  1
  O  O34  1  0.067511  0.926281  0.281986  1
  O  O35  1  0.926281  0.281986  0.067511  1
