# generated using pymatgen
data_KRb3TbUTe6
_symmetry_space_group_name_H-M   'P 1'
_cell_length_a   8.13230844
_cell_length_b   8.13230915
_cell_length_c   8.97044678
_cell_angle_alpha   81.21095801
_cell_angle_beta   81.21095399
_cell_angle_gamma   120.04357850
_symmetry_Int_Tables_number   1
_chemical_formula_structural   KRb3TbUTe6
_chemical_formula_sum   'K1 Rb3 Tb1 U1 Te6'
_cell_volume   488.94824737
_cell_formula_units_Z   1
loop_
 _symmetry_equiv_pos_site_id
 _symmetry_equiv_pos_as_xyz
  1  'x, y, z'
loop_
 _atom_site_type_symbol
 _atom_site_label
 _atom_site_symmetry_multiplicity
 _atom_site_fract_x
 _atom_site_fract_y
 _atom_site_fract_z
 _atom_site_occupancy
  K  K0  1  0.499978  0.500022  0.000000  1
  Rb  Rb1  1  0.345863  0.654137  0.500000  1
  Rb  Rb2  1  0.653039  0.346961  0.500000  1
  Rb  Rb3  1  0.001119  0.998881  0.500000  1
  Tb  Tb4  1  0.167956  0.832044  0.000000  1
  U  U5  1  0.832048  0.167952  0.000000  1
  Te  Te6  1  0.798762  0.808847  0.197589  1
  Te  Te7  1  0.441813  0.064690  0.202956  1
  Te  Te8  1  0.053318  0.420357  0.202487  1
  Te  Te9  1  0.579643  0.946682  0.797513  1
  Te  Te10  1  0.935310  0.558187  0.797044  1
  Te  Te11  1  0.191153  0.201238  0.802411  1
