# generated using pymatgen
data_Nd8Ho12Si15Ir
_symmetry_space_group_name_H-M   'P 1'
_cell_length_a   7.50834641
_cell_length_b   7.76150998
_cell_length_c   14.74039184
_cell_angle_alpha   89.88889256
_cell_angle_beta   89.91863137
_cell_angle_gamma   90.23427969
_symmetry_Int_Tables_number   1
_chemical_formula_structural   Nd8Ho12Si15Ir
_chemical_formula_sum   'Nd8 Ho12 Si15 Ir1'
_cell_volume   859.00295940
_cell_formula_units_Z   1
loop_
 _symmetry_equiv_pos_site_id
 _symmetry_equiv_pos_as_xyz
  1  'x, y, z'
loop_
 _atom_site_type_symbol
 _atom_site_label
 _atom_site_symmetry_multiplicity
 _atom_site_fract_x
 _atom_site_fract_y
 _atom_site_fract_z
 _atom_site_occupancy
  Nd  Nd0  1  0.975227  0.816449  0.096331  1
  Nd  Nd1  1  0.475086  0.678213  0.402163  1
  Nd  Nd2  1  0.528580  0.326455  0.900924  1
  Nd  Nd3  1  0.025788  0.181025  0.598670  1
  Nd  Nd4  1  0.024486  0.183620  0.902622  1
  Nd  Nd5  1  0.526526  0.321166  0.598800  1
  Nd  Nd6  1  0.477542  0.677927  0.098872  1
  Nd  Nd7  1  0.974911  0.821111  0.401601  1
  Ho  Ho8  1  0.650479  0.993576  0.249187  1
  Ho  Ho9  1  0.149382  0.509474  0.247667  1
  Ho  Ho10  1  0.847262  0.491812  0.758255  1
  Ho  Ho11  1  0.349010  0.009733  0.752187  1
  Ho  Ho12  1  0.682667  0.812956  0.881844  1
  Ho  Ho13  1  0.178064  0.681270  0.622224  1
  Ho  Ho14  1  0.820569  0.333008  0.119425  1
  Ho  Ho15  1  0.317080  0.177270  0.375838  1
  Ho  Ho16  1  0.320484  0.177561  0.123683  1
  Ho  Ho17  1  0.820218  0.319751  0.376803  1
  Ho  Ho18  1  0.174890  0.673841  0.878824  1
  Ho  Ho19  1  0.681232  0.819583  0.622678  1
  Si  Si20  1  0.766627  0.623491  0.251523  1
  Si  Si21  1  0.269070  0.877312  0.250785  1
  Si  Si22  1  0.731008  0.118237  0.748912  1
  Si  Si23  1  0.233617  0.379393  0.747032  1
  Si  Si24  1  0.021753  0.112828  0.248688  1
  Si  Si25  1  0.525044  0.388509  0.251259  1
  Si  Si26  1  0.469788  0.613371  0.746450  1
  Si  Si27  1  0.974331  0.890221  0.748742  1
  Si  Si28  1  0.354936  0.969666  0.538942  1
  Si  Si29  1  0.642826  0.030666  0.040973  1
  Si  Si30  1  0.145865  0.468369  0.460326  1
  Si  Si31  1  0.152617  0.468057  0.041642  1
  Si  Si32  1  0.644098  0.030975  0.460419  1
  Si  Si33  1  0.354809  0.967786  0.961226  1
  Si  Si34  1  0.855851  0.530822  0.538519  1
  Ir  Ir35  1  0.858276  0.524496  0.955966  1
