# generated using pymatgen
data_Hf2U(AlRu2)3
_symmetry_space_group_name_H-M   'P 1'
_cell_length_a   4.48577400
_cell_length_b   6.33859200
_cell_length_c   13.34167900
_cell_angle_alpha   89.99790744
_cell_angle_beta   89.99959370
_cell_angle_gamma   90.00149107
_symmetry_Int_Tables_number   1
_chemical_formula_structural   Hf2U(AlRu2)3
_chemical_formula_sum   'Hf4 U2 Al6 Ru12'
_cell_volume   379.35051211
_cell_formula_units_Z   2
loop_
 _symmetry_equiv_pos_site_id
 _symmetry_equiv_pos_as_xyz
  1  'x, y, z'
loop_
 _atom_site_type_symbol
 _atom_site_label
 _atom_site_symmetry_multiplicity
 _atom_site_fract_x
 _atom_site_fract_y
 _atom_site_fract_z
 _atom_site_occupancy
  Hf  Hf0  1  0.999952  0.999997  0.339040  1
  Hf  Hf1  1  0.499997  0.500001  0.503253  1
  Hf  Hf2  1  0.000047  0.999999  0.663393  1
  Hf  Hf3  1  0.500048  0.500000  0.827624  1
  U  U4  1  0.000010  0.000000  0.995873  1
  U  U5  1  0.499947  0.499998  0.170854  1
  Al  Al6  1  0.000004  0.499996  0.994109  1
  Al  Al7  1  0.499956  0.000001  0.172506  1
  Al  Al8  1  0.999958  0.500005  0.343108  1
  Al  Al9  1  0.500001  0.000001  0.503284  1
  Al  Al10  1  0.000046  0.499999  0.663394  1
  Al  Al11  1  0.500062  0.999997  0.823649  1
  Ru  Ru12  1  0.500001  0.256754  0.001492  1
  Ru  Ru13  1  0.500008  0.743237  0.001492  1
  Ru  Ru14  1  0.999935  0.242720  0.164982  1
  Ru  Ru15  1  0.999943  0.757281  0.164982  1
  Ru  Ru16  1  0.499953  0.253140  0.330078  1
  Ru  Ru17  1  0.499957  0.746877  0.330082  1
  Ru  Ru18  1  0.999996  0.250876  0.499132  1
  Ru  Ru19  1  0.000000  0.749120  0.499136  1
  Ru  Ru20  1  0.500049  0.249025  0.667597  1
  Ru  Ru21  1  0.500039  0.750983  0.667595  1
  Ru  Ru22  1  0.000044  0.246591  0.836671  1
  Ru  Ru23  1  0.000046  0.753407  0.836672  1
