# generated using pymatgen
data_Sm4Y2NiCl10
_symmetry_space_group_name_H-M   'P 1'
_cell_length_a   7.15529824
_cell_length_b   9.02901051
_cell_length_c   9.04519310
_cell_angle_alpha   108.64581977
_cell_angle_beta   96.18905183
_cell_angle_gamma   105.57751836
_symmetry_Int_Tables_number   1
_chemical_formula_structural   Sm4Y2NiCl10
_chemical_formula_sum   'Sm4 Y2 Ni1 Cl10'
_cell_volume   521.21182395
_cell_formula_units_Z   1
loop_
 _symmetry_equiv_pos_site_id
 _symmetry_equiv_pos_as_xyz
  1  'x, y, z'
loop_
 _atom_site_type_symbol
 _atom_site_label
 _atom_site_symmetry_multiplicity
 _atom_site_fract_x
 _atom_site_fract_y
 _atom_site_fract_z
 _atom_site_occupancy
  Sm  Sm0  1  0.534873  0.697771  0.899741  1
  Sm  Sm1  1  0.465127  0.302229  0.100259  1
  Sm  Sm2  1  0.637020  0.055388  0.754014  1
  Sm  Sm3  1  0.362980  0.944612  0.245986  1
  Y  Y4  1  0.859371  0.136429  0.184705  1
  Y  Y5  1  0.140629  0.863571  0.815295  1
  Ni  Ni6  1  0.500000  0.000000  0.000000  1
  Cl  Cl7  1  0.742408  0.079314  0.446848  1
  Cl  Cl8  1  0.257592  0.920686  0.553152  1
  Cl  Cl9  1  0.952712  0.829160  0.075615  1
  Cl  Cl10  1  0.047288  0.170840  0.924385  1
  Cl  Cl11  1  0.270269  0.243745  0.340867  1
  Cl  Cl12  1  0.729731  0.756255  0.659133  1
  Cl  Cl13  1  0.589028  0.369043  0.835956  1
  Cl  Cl14  1  0.410972  0.630957  0.164044  1
  Cl  Cl15  1  0.845768  0.443685  0.273942  1
  Cl  Cl16  1  0.154232  0.556315  0.726058  1
