# generated using pymatgen
data_Dy2ErHf(NiP)4
_symmetry_space_group_name_H-M   'P 1'
_cell_length_a   3.86244400
_cell_length_b   3.86244396
_cell_length_c   14.94824300
_cell_angle_alpha   90.00000000
_cell_angle_beta   90.00000000
_cell_angle_gamma   120.00001748
_symmetry_Int_Tables_number   1
_chemical_formula_structural   Dy2ErHf(NiP)4
_chemical_formula_sum   'Dy2 Er1 Hf1 Ni4 P4'
_cell_volume   193.12793256
_cell_formula_units_Z   1
loop_
 _symmetry_equiv_pos_site_id
 _symmetry_equiv_pos_as_xyz
  1  'x, y, z'
loop_
 _atom_site_type_symbol
 _atom_site_label
 _atom_site_symmetry_multiplicity
 _atom_site_fract_x
 _atom_site_fract_y
 _atom_site_fract_z
 _atom_site_occupancy
  Dy  Dy0  1  0.000000  0.000000  0.493369  1
  Dy  Dy1  1  0.000000  0.000000  0.006631  1
  Er  Er2  1  0.000000  0.000000  0.750000  1
  Hf  Hf3  1  0.000000  0.000000  0.250000  1
  Ni  Ni4  1  0.333333  0.666667  0.346025  1
  Ni  Ni5  1  0.666667  0.333333  0.625095  1
  Ni  Ni6  1  0.666667  0.333333  0.874905  1
  Ni  Ni7  1  0.333333  0.666667  0.153975  1
  P  P8  1  0.333333  0.666667  0.879559  1
  P  P9  1  0.666667  0.333333  0.127161  1
  P  P10  1  0.666667  0.333333  0.372839  1
  P  P11  1  0.333333  0.666667  0.620441  1
