# generated using pymatgen
data_Na3(As3Pd10)2
_symmetry_space_group_name_H-M   'P 1'
_cell_length_a   8.84617501
_cell_length_b   8.84617532
_cell_length_c   8.84617500
_cell_angle_alpha   59.99999747
_cell_angle_beta   59.99999630
_cell_angle_gamma   60.00000302
_symmetry_Int_Tables_number   1
_chemical_formula_structural   Na3(As3Pd10)2
_chemical_formula_sum   'Na3 As6 Pd20'
_cell_volume   489.49875074
_cell_formula_units_Z   1
loop_
 _symmetry_equiv_pos_site_id
 _symmetry_equiv_pos_as_xyz
  1  'x, y, z'
loop_
 _atom_site_type_symbol
 _atom_site_label
 _atom_site_symmetry_multiplicity
 _atom_site_fract_x
 _atom_site_fract_y
 _atom_site_fract_z
 _atom_site_occupancy
  Na  Na0  1  0.250000  0.250000  0.250000  1
  Na  Na1  1  0.750000  0.750000  0.750000  1
  Na  Na2  1  0.000000  0.000000  0.000000  1
  As  As3  1  0.734316  0.265684  0.265684  1
  As  As4  1  0.265684  0.734316  0.734316  1
  As  As5  1  0.265684  0.734316  0.265684  1
  As  As6  1  0.734316  0.265684  0.734316  1
  As  As7  1  0.265684  0.265684  0.734316  1
  As  As8  1  0.734316  0.734316  0.265684  1
  Pd  Pd9  1  0.383012  0.383012  0.383012  1
  Pd  Pd10  1  0.616988  0.616988  0.616988  1
  Pd  Pd11  1  0.383012  0.383012  0.850962  1
  Pd  Pd12  1  0.383012  0.850962  0.383012  1
  Pd  Pd13  1  0.616988  0.616988  0.149038  1
  Pd  Pd14  1  0.616988  0.149038  0.616988  1
  Pd  Pd15  1  0.850962  0.383012  0.383012  1
  Pd  Pd16  1  0.149038  0.616988  0.616988  1
  Pd  Pd17  1  0.347205  0.000000  0.000000  1
  Pd  Pd18  1  0.652795  0.000000  0.000000  1
  Pd  Pd19  1  0.000000  0.347205  0.652795  1
  Pd  Pd20  1  0.000000  0.652795  0.347205  1
  Pd  Pd21  1  0.000000  0.347205  0.000000  1
  Pd  Pd22  1  0.652795  0.000000  0.347205  1
  Pd  Pd23  1  0.000000  0.652795  0.000000  1
  Pd  Pd24  1  0.347205  0.000000  0.652795  1
  Pd  Pd25  1  0.000000  0.000000  0.347205  1
  Pd  Pd26  1  0.000000  0.000000  0.652795  1
  Pd  Pd27  1  0.652795  0.347205  0.000000  1
  Pd  Pd28  1  0.347205  0.652795  0.000000  1
