# generated using pymatgen
data_Sc2Pa(Co3As2)3
_symmetry_space_group_name_H-M   'P 1'
_cell_length_a   3.75770500
_cell_length_b   10.82411300
_cell_length_c   12.46478400
_cell_angle_alpha   90.00000000
_cell_angle_beta   90.00000000
_cell_angle_gamma   90.00000000
_symmetry_Int_Tables_number   1
_chemical_formula_structural   Sc2Pa(Co3As2)3
_chemical_formula_sum   'Sc4 Pa2 Co18 As12'
_cell_volume   506.99042489
_cell_formula_units_Z   2
loop_
 _symmetry_equiv_pos_site_id
 _symmetry_equiv_pos_as_xyz
  1  'x, y, z'
loop_
 _atom_site_type_symbol
 _atom_site_label
 _atom_site_symmetry_multiplicity
 _atom_site_fract_x
 _atom_site_fract_y
 _atom_site_fract_z
 _atom_site_occupancy
  Sc  Sc0  1  0.500000  0.818303  0.205032  1
  Sc  Sc1  1  0.500000  0.181697  0.205032  1
  Sc  Sc2  1  0.000000  0.681697  0.794968  1
  Sc  Sc3  1  0.000000  0.318303  0.794968  1
  Pa  Pa4  1  0.000000  0.500000  0.532811  1
  Pa  Pa5  1  0.500000  0.000000  0.467189  1
  Co  Co6  1  0.500000  0.500000  0.155565  1
  Co  Co7  1  0.000000  0.000000  0.844435  1
  Co  Co8  1  0.500000  0.500000  0.696549  1
  Co  Co9  1  0.000000  0.000000  0.303451  1
  Co  Co10  1  0.000000  0.500000  0.986098  1
  Co  Co11  1  0.500000  0.000000  0.013902  1
  Co  Co12  1  0.500000  0.333981  0.994326  1
  Co  Co13  1  0.500000  0.666019  0.994326  1
  Co  Co14  1  0.000000  0.166019  0.005674  1
  Co  Co15  1  0.000000  0.833981  0.005674  1
  Co  Co16  1  0.500000  0.303341  0.432579  1
  Co  Co17  1  0.500000  0.696659  0.432579  1
  Co  Co18  1  0.000000  0.196659  0.567421  1
  Co  Co19  1  0.000000  0.803341  0.567421  1
  Co  Co20  1  0.500000  0.879615  0.709365  1
  Co  Co21  1  0.500000  0.120385  0.709365  1
  Co  Co22  1  0.000000  0.620385  0.290635  1
  Co  Co23  1  0.000000  0.379615  0.290635  1
  As  As24  1  0.500000  0.500000  0.875973  1
  As  As25  1  0.000000  0.000000  0.124027  1
  As  As26  1  0.500000  0.500000  0.345963  1
  As  As27  1  0.000000  0.000000  0.654037  1
  As  As28  1  0.500000  0.308181  0.621286  1
  As  As29  1  0.500000  0.691819  0.621286  1
  As  As30  1  0.000000  0.191819  0.378714  1
  As  As31  1  0.000000  0.808181  0.378714  1
  As  As32  1  0.500000  0.843242  0.890001  1
  As  As33  1  0.500000  0.156758  0.890001  1
  As  As34  1  0.000000  0.656758  0.109999  1
  As  As35  1  0.000000  0.343242  0.109999  1
