# generated using pymatgen
data_Eu3Ta3MnO14
_symmetry_space_group_name_H-M   'P 1'
_cell_length_a   7.28841165
_cell_length_b   7.28841116
_cell_length_c   7.28841145
_cell_angle_alpha   61.55968202
_cell_angle_beta   61.55968863
_cell_angle_gamma   61.55968063
_symmetry_Int_Tables_number   1
_chemical_formula_structural   Eu3Ta3MnO14
_chemical_formula_sum   'Eu3 Ta3 Mn1 O14'
_cell_volume   283.34947367
_cell_formula_units_Z   1
loop_
 _symmetry_equiv_pos_site_id
 _symmetry_equiv_pos_as_xyz
  1  'x, y, z'
loop_
 _atom_site_type_symbol
 _atom_site_label
 _atom_site_symmetry_multiplicity
 _atom_site_fract_x
 _atom_site_fract_y
 _atom_site_fract_z
 _atom_site_occupancy
  Eu  Eu0  1  0.000000  0.500000  0.500000  1
  Eu  Eu1  1  0.500000  0.500000  0.000000  1
  Eu  Eu2  1  0.500000  0.000000  0.500000  1
  Ta  Ta3  1  0.500000  0.000000  0.000000  1
  Ta  Ta4  1  0.000000  0.000000  0.500000  1
  Ta  Ta5  1  0.000000  0.500000  0.000000  1
  Mn  Mn6  1  0.000000  0.000000  0.000000  1
  O  O7  1  0.944965  0.317623  0.317623  1
  O  O8  1  0.313237  0.929235  0.929235  1
  O  O9  1  0.317623  0.317623  0.944965  1
  O  O10  1  0.929235  0.929235  0.313237  1
  O  O11  1  0.929235  0.313237  0.929235  1
  O  O12  1  0.317623  0.944965  0.317623  1
  O  O13  1  0.055035  0.682377  0.682377  1
  O  O14  1  0.686763  0.070765  0.070765  1
  O  O15  1  0.682377  0.682377  0.055035  1
  O  O16  1  0.070765  0.070765  0.686763  1
  O  O17  1  0.070765  0.686763  0.070765  1
  O  O18  1  0.682377  0.055035  0.682377  1
  O  O19  1  0.360749  0.360749  0.360749  1
  O  O20  1  0.639251  0.639251  0.639251  1
