# generated using pymatgen
data_ErTh2(AlCo)3
_symmetry_space_group_name_H-M   'P 1'
_cell_length_a   6.96981800
_cell_length_b   7.11331703
_cell_length_c   3.86065800
_cell_angle_alpha   90.00000000
_cell_angle_beta   90.00000000
_cell_angle_gamma   119.33487746
_symmetry_Int_Tables_number   1
_chemical_formula_structural   ErTh2(AlCo)3
_chemical_formula_sum   'Er1 Th2 Al3 Co3'
_cell_volume   166.86200452
_cell_formula_units_Z   1
loop_
 _symmetry_equiv_pos_site_id
 _symmetry_equiv_pos_as_xyz
  1  'x, y, z'
loop_
 _atom_site_type_symbol
 _atom_site_label
 _atom_site_symmetry_multiplicity
 _atom_site_fract_x
 _atom_site_fract_y
 _atom_site_fract_z
 _atom_site_occupancy
  Er  Er0  1  0.585818  0.000000  0.000000  1
  Th  Th1  1  0.999206  0.575968  0.000000  1
  Th  Th2  1  0.423239  0.424032  0.000000  1
  Al  Al3  1  0.241234  0.000000  0.500000  1
  Al  Al4  1  0.990521  0.221257  0.500000  1
  Al  Al5  1  0.769264  0.778743  0.500000  1
  Co  Co6  1  0.315218  0.645660  0.500000  1
  Co  Co7  1  0.669559  0.354340  0.500000  1
  Co  Co8  1  0.005941  0.000000  0.000000  1
