# generated using pymatgen
data_La3Pr9Fe2I17
_symmetry_space_group_name_H-M   'P 1'
_cell_length_a   12.07823646
_cell_length_b   12.08613013
_cell_length_c   10.15307104
_cell_angle_alpha   113.95229624
_cell_angle_beta   105.70347809
_cell_angle_gamma   92.91479642
_symmetry_Int_Tables_number   1
_chemical_formula_structural   La3Pr9Fe2I17
_chemical_formula_sum   'La3 Pr9 Fe2 I17'
_cell_volume   1281.99795391
_cell_formula_units_Z   1
loop_
 _symmetry_equiv_pos_site_id
 _symmetry_equiv_pos_as_xyz
  1  'x, y, z'
loop_
 _atom_site_type_symbol
 _atom_site_label
 _atom_site_symmetry_multiplicity
 _atom_site_fract_x
 _atom_site_fract_y
 _atom_site_fract_z
 _atom_site_occupancy
  La  La0  1  0.021856  0.326228  0.783366  1
  La  La1  1  0.987316  0.671259  0.223851  1
  La  La2  1  0.407158  0.194554  0.006101  1
  Pr  Pr3  1  0.586830  0.807818  0.989080  1
  Pr  Pr4  1  0.104850  0.011309  0.739350  1
  Pr  Pr5  1  0.890875  0.981986  0.255492  1
  Pr  Pr6  1  0.149269  0.287346  0.152875  1
  Pr  Pr7  1  0.848606  0.713792  0.851832  1
  Pr  Pr8  1  0.285282  0.241984  0.643124  1
  Pr  Pr9  1  0.716545  0.758673  0.351147  1
  Pr  Pr10  1  0.325045  0.513401  0.058913  1
  Pr  Pr11  1  0.677095  0.492517  0.944558  1
  Fe  Fe12  1  0.788072  0.737702  0.105984  1
  Fe  Fe13  1  0.213330  0.261100  0.893959  1
  I  I14  1  0.000611  0.000277  0.000546  1
  I  I15  1  0.628850  0.789325  0.673961  1
  I  I16  1  0.369165  0.210717  0.326068  1
  I  I17  1  0.953962  0.707062  0.551256  1
  I  I18  1  0.045343  0.292129  0.450679  1
  I  I19  1  0.159658  0.949241  0.418550  1
  I  I20  1  0.842042  0.052262  0.583402  1
  I  I21  1  0.414188  0.530801  0.784135  1
  I  I22  1  0.584024  0.471067  0.215937  1
  I  I23  1  0.243724  0.578594  0.356180  1
  I  I24  1  0.761285  0.420581  0.646981  1
  I  I25  1  0.322696  0.895763  0.845015  1
  I  I26  1  0.672404  0.102986  0.151966  1
  I  I27  1  0.461035  0.816111  0.239842  1
  I  I28  1  0.538288  0.185738  0.757176  1
  I  I29  1  0.104601  0.632578  0.945296  1
  I  I30  1  0.896003  0.365099  0.053381  1
