# generated using pymatgen
data_La7Tb13Pb16
_symmetry_space_group_name_H-M   'P 1'
_cell_length_a   8.36709976
_cell_length_b   8.46889701
_cell_length_c   16.03483109
_cell_angle_alpha   90.03683232
_cell_angle_beta   89.69818619
_cell_angle_gamma   90.15373905
_symmetry_Int_Tables_number   1
_chemical_formula_structural   La7Tb13Pb16
_chemical_formula_sum   'La7 Tb13 Pb16'
_cell_volume   1136.20975382
_cell_formula_units_Z   1
loop_
 _symmetry_equiv_pos_site_id
 _symmetry_equiv_pos_as_xyz
  1  'x, y, z'
loop_
 _atom_site_type_symbol
 _atom_site_label
 _atom_site_symmetry_multiplicity
 _atom_site_fract_x
 _atom_site_fract_y
 _atom_site_fract_z
 _atom_site_occupancy
  La  La0  1  0.526021  0.320824  0.400589  1
  La  La1  1  0.472397  0.678261  0.902289  1
  La  La2  1  0.974690  0.821533  0.597609  1
  La  La3  1  0.973328  0.822800  0.902922  1
  La  La4  1  0.474692  0.678674  0.597621  1
  La  La5  1  0.526263  0.320089  0.098096  1
  La  La6  1  0.024525  0.178339  0.402414  1
  Tb  Tb7  1  0.869418  0.657601  0.120964  1
  Tb  Tb8  1  0.366735  0.842270  0.378106  1
  Tb  Tb9  1  0.629687  0.157756  0.880030  1
  Tb  Tb10  1  0.132008  0.342031  0.621531  1
  Tb  Tb11  1  0.128982  0.341521  0.879849  1
  Tb  Tb12  1  0.632581  0.157773  0.621202  1
  Tb  Tb13  1  0.369351  0.843012  0.120728  1
  Tb  Tb14  1  0.868081  0.656885  0.377068  1
  Tb  Tb15  1  0.032428  0.176372  0.101051  1
  Tb  Tb16  1  0.702889  0.995885  0.248983  1
  Tb  Tb17  1  0.202552  0.504239  0.248550  1
  Tb  Tb18  1  0.797134  0.495210  0.750126  1
  Tb  Tb19  1  0.296971  0.005055  0.750854  1
  Pb  Pb20  1  0.064575  0.870807  0.248972  1
  Pb  Pb21  1  0.564480  0.631142  0.249364  1
  Pb  Pb22  1  0.435224  0.369153  0.750791  1
  Pb  Pb23  1  0.935036  0.130650  0.750392  1
  Pb  Pb24  1  0.841373  0.348968  0.246923  1
  Pb  Pb25  1  0.334107  0.147040  0.249203  1
  Pb  Pb26  1  0.662125  0.853143  0.750309  1
  Pb  Pb27  1  0.162208  0.647811  0.750044  1
  Pb  Pb28  1  0.791790  0.461613  0.955736  1
  Pb  Pb29  1  0.293533  0.040231  0.544310  1
  Pb  Pb30  1  0.715097  0.966893  0.045854  1
  Pb  Pb31  1  0.206648  0.538975  0.454918  1
  Pb  Pb32  1  0.206472  0.535890  0.044904  1
  Pb  Pb33  1  0.705905  0.958813  0.455303  1
  Pb  Pb34  1  0.287435  0.042415  0.958811  1
  Pb  Pb35  1  0.793260  0.460328  0.543587  1
