# generated using pymatgen
data_Yb2PrTh5(Pt2Pb)4
_symmetry_space_group_name_H-M   'P 1'
_cell_length_a   8.07044409
_cell_length_b   8.08114174
_cell_length_c   7.46074700
_cell_angle_alpha   90.00000000
_cell_angle_beta   90.00000000
_cell_angle_gamma   90.61281724
_symmetry_Int_Tables_number   1
_chemical_formula_structural   Yb2PrTh5(Pt2Pb)4
_chemical_formula_sum   'Yb2 Pr1 Th5 Pt8 Pb4'
_cell_volume   486.55017006
_cell_formula_units_Z   1
loop_
 _symmetry_equiv_pos_site_id
 _symmetry_equiv_pos_as_xyz
  1  'x, y, z'
loop_
 _atom_site_type_symbol
 _atom_site_label
 _atom_site_symmetry_multiplicity
 _atom_site_fract_x
 _atom_site_fract_y
 _atom_site_fract_z
 _atom_site_occupancy
  Yb  Yb0  1  0.662479  0.664092  0.500000  1
  Yb  Yb1  1  0.160622  0.837984  0.000000  1
  Pr  Pr2  1  0.837465  0.161407  0.000000  1
  Th  Th3  1  0.677460  0.678398  0.000000  1
  Th  Th4  1  0.338260  0.340826  0.500000  1
  Th  Th5  1  0.824300  0.173822  0.500000  1
  Th  Th6  1  0.324591  0.325111  0.000000  1
  Th  Th7  1  0.176044  0.821127  0.500000  1
  Pt  Pt8  1  0.874725  0.871714  0.731770  1
  Pt  Pt9  1  0.133401  0.130160  0.732879  1
  Pt  Pt10  1  0.624985  0.372327  0.757997  1
  Pt  Pt11  1  0.624985  0.372327  0.242003  1
  Pt  Pt12  1  0.369652  0.626355  0.235251  1
  Pt  Pt13  1  0.133401  0.130160  0.267121  1
  Pt  Pt14  1  0.874725  0.871714  0.268230  1
  Pt  Pt15  1  0.369652  0.626355  0.764749  1
  Pb  Pb16  1  0.500135  0.992381  0.750465  1
  Pb  Pb17  1  0.500135  0.992381  0.249535  1
  Pb  Pb18  1  0.996492  0.505681  0.751353  1
  Pb  Pb19  1  0.996492  0.505681  0.248647  1
