# generated using pymatgen
data_Tb2Dy3Ho3(WO6)4
_symmetry_space_group_name_H-M   'P 1'
_cell_length_a   5.40031305
_cell_length_b   7.70652827
_cell_length_c   11.47366980
_cell_angle_alpha   75.51364295
_cell_angle_beta   90.00058605
_cell_angle_gamma   90.01580376
_symmetry_Int_Tables_number   1
_chemical_formula_structural   Tb2Dy3Ho3(WO6)4
_chemical_formula_sum   'Tb2 Dy3 Ho3 W4 O24'
_cell_volume   462.32604972
_cell_formula_units_Z   1
loop_
 _symmetry_equiv_pos_site_id
 _symmetry_equiv_pos_as_xyz
  1  'x, y, z'
loop_
 _atom_site_type_symbol
 _atom_site_label
 _atom_site_symmetry_multiplicity
 _atom_site_fract_x
 _atom_site_fract_y
 _atom_site_fract_z
 _atom_site_occupancy
  Tb  Tb0  1  0.683700  0.499751  0.750231  1
  Tb  Tb1  1  0.316439  0.499917  0.249953  1
  Dy  Dy2  1  0.739031  0.000166  0.750284  1
  Dy  Dy3  1  0.261029  0.000133  0.249780  1
  Dy  Dy4  1  0.186342  0.796040  0.577591  1
  Ho  Ho5  1  0.813844  0.795701  0.077762  1
  Ho  Ho6  1  0.186124  0.204307  0.922183  1
  Ho  Ho7  1  0.813648  0.204558  0.422066  1
  W  W8  1  0.254222  0.723444  0.885800  1
  W  W9  1  0.745985  0.723432  0.385315  1
  W  W10  1  0.254040  0.276405  0.614416  1
  W  W11  1  0.745926  0.276472  0.114436  1
  O  O12  1  0.042151  0.939897  0.895935  1
  O  O13  1  0.530687  0.848454  0.931495  1
  O  O14  1  0.957757  0.940072  0.395586  1
  O  O15  1  0.458888  0.789459  0.728274  1
  O  O16  1  0.470224  0.848903  0.430502  1
  O  O17  1  0.982202  0.711017  0.771700  1
  O  O18  1  0.542003  0.789551  0.227475  1
  O  O19  1  0.850719  0.635428  0.548061  1
  O  O20  1  0.359848  0.489715  0.886999  1
  O  O21  1  0.017858  0.711152  0.271171  1
  O  O22  1  0.360780  0.509721  0.613100  1
  O  O23  1  0.851993  0.364020  0.951808  1
  O  O24  1  0.148004  0.635867  0.048336  1
  O  O25  1  0.639823  0.489607  0.386754  1
  O  O26  1  0.982581  0.289062  0.728927  1
  O  O27  1  0.640093  0.510163  0.113032  1
  O  O28  1  0.148107  0.364144  0.451769  1
  O  O29  1  0.457953  0.210098  0.772406  1
  O  O30  1  0.017567  0.288832  0.228766  1
  O  O31  1  0.530392  0.151317  0.568804  1
  O  O32  1  0.541926  0.210323  0.272294  1
  O  O33  1  0.040928  0.061016  0.604140  1
  O  O34  1  0.469243  0.151705  0.068780  1
  O  O35  1  0.957943  0.060153  0.104068  1
