# generated using pymatgen
data_Mn4Ga2B4IrRh9
_symmetry_space_group_name_H-M   'P 1'
_cell_length_a   9.34872039
_cell_length_b   9.34872039
_cell_length_c   2.94045200
_cell_angle_alpha   90.00000000
_cell_angle_beta   90.00000000
_cell_angle_gamma   89.80606239
_symmetry_Int_Tables_number   1
_chemical_formula_structural   Mn4Ga2B4IrRh9
_chemical_formula_sum   'Mn4 Ga2 B4 Ir1 Rh9'
_cell_volume   256.98983630
_cell_formula_units_Z   1
loop_
 _symmetry_equiv_pos_site_id
 _symmetry_equiv_pos_as_xyz
  1  'x, y, z'
loop_
 _atom_site_type_symbol
 _atom_site_label
 _atom_site_symmetry_multiplicity
 _atom_site_fract_x
 _atom_site_fract_y
 _atom_site_fract_z
 _atom_site_occupancy
  Mn  Mn0  1  0.823398  0.323398  0.000000  1
  Mn  Mn1  1  0.322516  0.177484  0.000000  1
  Mn  Mn2  1  0.677484  0.822516  0.000000  1
  Mn  Mn3  1  0.176602  0.676602  0.000000  1
  Ga  Ga4  1  0.000000  0.000000  0.000000  1
  Ga  Ga5  1  0.500000  0.500000  0.000000  1
  B  B6  1  0.626840  0.126840  0.000000  1
  B  B7  1  0.127107  0.372893  0.000000  1
  B  B8  1  0.872893  0.627107  0.000000  1
  B  B9  1  0.373160  0.873160  0.000000  1
  Ir  Ir10  1  0.500000  0.000000  0.500000  1
  Rh  Rh11  1  0.070584  0.215115  0.500000  1
  Rh  Rh12  1  0.214039  0.928324  0.500000  1
  Rh  Rh13  1  0.785961  0.071676  0.500000  1
  Rh  Rh14  1  0.929416  0.784885  0.500000  1
  Rh  Rh15  1  0.428324  0.714039  0.500000  1
  Rh  Rh16  1  0.571676  0.285961  0.500000  1
  Rh  Rh17  1  0.715115  0.570584  0.500000  1
  Rh  Rh18  1  0.284885  0.429416  0.500000  1
  Rh  Rh19  1  0.000000  0.500000  0.500000  1
