# generated using pymatgen
data_TbPr8DyRu4
_symmetry_space_group_name_H-M   'P 1'
_cell_length_a   8.89058585
_cell_length_b   8.89058827
_cell_length_c   7.34288611
_cell_angle_alpha   84.23600456
_cell_angle_beta   84.23600866
_cell_angle_gamma   43.95915706
_symmetry_Int_Tables_number   1
_chemical_formula_structural   TbPr8DyRu4
_chemical_formula_sum   'Tb1 Pr8 Dy1 Ru4'
_cell_volume   400.51247511
_cell_formula_units_Z   1
loop_
 _symmetry_equiv_pos_site_id
 _symmetry_equiv_pos_as_xyz
  1  'x, y, z'
loop_
 _atom_site_type_symbol
 _atom_site_label
 _atom_site_symmetry_multiplicity
 _atom_site_fract_x
 _atom_site_fract_y
 _atom_site_fract_z
 _atom_site_occupancy
  Tb  Tb0  1  0.570226  0.429774  0.750000  1
  Pr  Pr1  1  0.204841  0.977783  0.584626  1
  Pr  Pr2  1  0.022217  0.795159  0.915374  1
  Pr  Pr3  1  0.208101  0.361464  0.313390  1
  Pr  Pr4  1  0.638536  0.791899  0.186610  1
  Pr  Pr5  1  0.791955  0.638685  0.686462  1
  Pr  Pr6  1  0.361315  0.208045  0.813538  1
  Pr  Pr7  1  0.977822  0.204705  0.085105  1
  Pr  Pr8  1  0.795295  0.022178  0.414895  1
  Dy  Dy9  1  0.430148  0.569852  0.250000  1
  Ru  Ru10  1  0.184555  0.602193  0.571352  1
  Ru  Ru11  1  0.397807  0.815445  0.928648  1
  Ru  Ru12  1  0.815261  0.398077  0.427956  1
  Ru  Ru13  1  0.601923  0.184739  0.072044  1
