# generated using pymatgen
data_Sc3CuSn3Rh2
_symmetry_space_group_name_H-M   'P 1'
_cell_length_a   7.48583700
_cell_length_b   7.48583724
_cell_length_c   7.08502000
_cell_angle_alpha   90.00000000
_cell_angle_beta   90.00000000
_cell_angle_gamma   120.00000335
_symmetry_Int_Tables_number   1
_chemical_formula_structural   Sc3CuSn3Rh2
_chemical_formula_sum   'Sc6 Cu2 Sn6 Rh4'
_cell_volume   343.83686962
_cell_formula_units_Z   2
loop_
 _symmetry_equiv_pos_site_id
 _symmetry_equiv_pos_as_xyz
  1  'x, y, z'
loop_
 _atom_site_type_symbol
 _atom_site_label
 _atom_site_symmetry_multiplicity
 _atom_site_fract_x
 _atom_site_fract_y
 _atom_site_fract_z
 _atom_site_occupancy
  Sc  Sc0  1  0.383007  0.982542  0.250000  1
  Sc  Sc1  1  0.599534  0.616993  0.250000  1
  Sc  Sc2  1  0.017458  0.400466  0.250000  1
  Sc  Sc3  1  0.378309  0.974853  0.750000  1
  Sc  Sc4  1  0.596544  0.621691  0.750000  1
  Sc  Sc5  1  0.025147  0.403456  0.750000  1
  Cu  Cu6  1  0.666667  0.333333  0.976398  1
  Cu  Cu7  1  0.666667  0.333333  0.523602  1
  Sn  Sn8  1  0.730002  0.013276  0.000397  1
  Sn  Sn9  1  0.283274  0.269998  0.499603  1
  Sn  Sn10  1  0.986724  0.716726  0.499603  1
  Sn  Sn11  1  0.986724  0.716726  0.000397  1
  Sn  Sn12  1  0.283274  0.269998  0.000397  1
  Sn  Sn13  1  0.730002  0.013276  0.499603  1
  Rh  Rh14  1  0.333333  0.666667  0.007446  1
  Rh  Rh15  1  0.333333  0.666667  0.492554  1
  Rh  Rh16  1  0.000000  0.000000  0.250000  1
  Rh  Rh17  1  0.000000  0.000000  0.750000  1
