# generated using pymatgen
data_DyEr7(BBr6)2
_symmetry_space_group_name_H-M   'P 1'
_cell_length_a   3.92385700
_cell_length_b   13.06802923
_cell_length_c   13.52951945
_cell_angle_alpha   90.11189186
_cell_angle_beta   90.00000000
_cell_angle_gamma   90.00000000
_symmetry_Int_Tables_number   1
_chemical_formula_structural   DyEr7(BBr6)2
_chemical_formula_sum   'Dy1 Er7 B2 Br12'
_cell_volume   693.75290081
_cell_formula_units_Z   1
loop_
 _symmetry_equiv_pos_site_id
 _symmetry_equiv_pos_as_xyz
  1  'x, y, z'
loop_
 _atom_site_type_symbol
 _atom_site_label
 _atom_site_symmetry_multiplicity
 _atom_site_fract_x
 _atom_site_fract_y
 _atom_site_fract_z
 _atom_site_occupancy
  Dy  Dy0  1  0.500000  0.122711  0.855719  1
  Er  Er1  1  0.000000  0.100799  0.080430  1
  Er  Er2  1  0.000000  0.898853  0.919980  1
  Er  Er3  1  0.000000  0.601048  0.419758  1
  Er  Er4  1  0.000000  0.399081  0.580127  1
  Er  Er5  1  0.500000  0.877820  0.143651  1
  Er  Er6  1  0.500000  0.622139  0.643579  1
  Er  Er7  1  0.500000  0.377889  0.356409  1
  B  B8  1  0.500000  0.999399  0.000701  1
  B  B9  1  0.500000  0.500114  0.499894  1
  Br  Br10  1  0.500000  0.268936  0.681176  1
  Br  Br11  1  0.500000  0.731822  0.317911  1
  Br  Br12  1  0.500000  0.767896  0.817788  1
  Br  Br13  1  0.500000  0.231960  0.182344  1
  Br  Br14  1  0.000000  0.262332  0.932592  1
  Br  Br15  1  0.000000  0.738967  0.069050  1
  Br  Br16  1  0.000000  0.480377  0.239386  1
  Br  Br17  1  0.000000  0.519676  0.760569  1
  Br  Br18  1  0.000000  0.980503  0.260795  1
  Br  Br19  1  0.000000  0.017668  0.738230  1
  Br  Br20  1  0.000000  0.239138  0.430790  1
  Br  Br21  1  0.000000  0.760871  0.569121  1
