# generated using pymatgen
data_Yb3Pa(B6Ru)2
_symmetry_space_group_name_H-M   'P 1'
_cell_length_a   3.67363100
_cell_length_b   9.09854385
_cell_length_c   11.42551800
_cell_angle_alpha   90.49667010
_cell_angle_beta   90.00000000
_cell_angle_gamma   90.00000000
_symmetry_Int_Tables_number   1
_chemical_formula_structural   Yb3Pa(B6Ru)2
_chemical_formula_sum   'Yb6 Pa2 B24 Ru4'
_cell_volume   381.88008005
_cell_formula_units_Z   2
loop_
 _symmetry_equiv_pos_site_id
 _symmetry_equiv_pos_as_xyz
  1  'x, y, z'
loop_
 _atom_site_type_symbol
 _atom_site_label
 _atom_site_symmetry_multiplicity
 _atom_site_fract_x
 _atom_site_fract_y
 _atom_site_fract_z
 _atom_site_occupancy
  Yb  Yb0  1  0.000000  0.825458  0.085613  1
  Yb  Yb1  1  0.000000  0.174542  0.914387  1
  Yb  Yb2  1  0.000000  0.945424  0.373301  1
  Yb  Yb3  1  0.000000  0.054576  0.626699  1
  Yb  Yb4  1  0.000000  0.441567  0.130423  1
  Yb  Yb5  1  0.000000  0.558433  0.869577  1
  Pa  Pa6  1  0.000000  0.318402  0.411396  1
  Pa  Pa7  1  0.000000  0.681598  0.588604  1
  B  B8  1  0.500000  0.553422  0.432884  1
  B  B9  1  0.500000  0.446578  0.567116  1
  B  B10  1  0.500000  0.054859  0.068351  1
  B  B11  1  0.500000  0.945141  0.931649  1
  B  B12  1  0.500000  0.749193  0.419644  1
  B  B13  1  0.500000  0.250807  0.580356  1
  B  B14  1  0.500000  0.249136  0.081198  1
  B  B15  1  0.500000  0.750864  0.918802  1
  B  B16  1  0.500000  0.791127  0.266734  1
  B  B17  1  0.500000  0.208873  0.733266  1
  B  B18  1  0.500000  0.291866  0.233862  1
  B  B19  1  0.500000  0.708134  0.766138  1
  B  B20  1  0.500000  0.630230  0.185928  1
  B  B21  1  0.500000  0.369770  0.814072  1
  B  B22  1  0.500000  0.132472  0.314953  1
  B  B23  1  0.500000  0.867528  0.685047  1
  B  B24  1  0.500000  0.983897  0.212283  1
  B  B25  1  0.500000  0.016103  0.787717  1
  B  B26  1  0.500000  0.483687  0.287750  1
  B  B27  1  0.500000  0.516313  0.712250  1
  B  B28  1  0.500000  0.594483  0.026594  1
  B  B29  1  0.500000  0.405517  0.973406  1
  B  B30  1  0.500000  0.114467  0.468740  1
  B  B31  1  0.500000  0.885533  0.531260  1
  Ru  Ru32  1  0.000000  0.635504  0.324392  1
  Ru  Ru33  1  0.000000  0.364496  0.675608  1
  Ru  Ru34  1  0.000000  0.142789  0.183418  1
  Ru  Ru35  1  0.000000  0.857211  0.816582  1
