# generated using pymatgen
data_PrHo4(MnB3)2
_symmetry_space_group_name_H-M   'P 1'
_cell_length_a   8.32524434
_cell_length_b   8.32524416
_cell_length_c   8.32524320
_cell_angle_alpha   38.03378171
_cell_angle_beta   38.03378625
_cell_angle_gamma   38.03377513
_symmetry_Int_Tables_number   1
_chemical_formula_structural   PrHo4(MnB3)2
_chemical_formula_sum   'Pr1 Ho4 Mn2 B6'
_cell_volume   196.63531835
_cell_formula_units_Z   1
loop_
 _symmetry_equiv_pos_site_id
 _symmetry_equiv_pos_as_xyz
  1  'x, y, z'
loop_
 _atom_site_type_symbol
 _atom_site_label
 _atom_site_symmetry_multiplicity
 _atom_site_fract_x
 _atom_site_fract_y
 _atom_site_fract_z
 _atom_site_occupancy
  Pr  Pr0  1  0.000000  0.000000  0.000000  1
  Ho  Ho1  1  0.582211  0.582211  0.582211  1
  Ho  Ho2  1  0.417789  0.417789  0.417789  1
  Ho  Ho3  1  0.750477  0.750477  0.750477  1
  Ho  Ho4  1  0.249523  0.249523  0.249523  1
  Mn  Mn5  1  0.884792  0.884792  0.884792  1
  Mn  Mn6  1  0.115208  0.115208  0.115208  1
  B  B7  1  0.500000  0.833526  0.166474  1
  B  B8  1  0.166474  0.500000  0.833526  1
  B  B9  1  0.833526  0.166474  0.500000  1
  B  B10  1  0.500000  0.166474  0.833526  1
  B  B11  1  0.833526  0.500000  0.166474  1
  B  B12  1  0.166474  0.833526  0.500000  1
