# generated using pymatgen
data_AcBe2Au5
_symmetry_space_group_name_H-M   'P 1'
_cell_length_a   6.58128400
_cell_length_b   8.88371800
_cell_length_c   10.26758400
_cell_angle_alpha   90.00000000
_cell_angle_beta   90.00000000
_cell_angle_gamma   90.00000000
_symmetry_Int_Tables_number   1
_chemical_formula_structural   AcBe2Au5
_chemical_formula_sum   'Ac4 Be8 Au20'
_cell_volume   600.30735003
_cell_formula_units_Z   4
loop_
 _symmetry_equiv_pos_site_id
 _symmetry_equiv_pos_as_xyz
  1  'x, y, z'
loop_
 _atom_site_type_symbol
 _atom_site_label
 _atom_site_symmetry_multiplicity
 _atom_site_fract_x
 _atom_site_fract_y
 _atom_site_fract_z
 _atom_site_occupancy
  Ac  Ac0  1  0.250000  0.258234  0.127809  1
  Ac  Ac1  1  0.250000  0.758234  0.372191  1
  Ac  Ac2  1  0.750000  0.741766  0.872191  1
  Ac  Ac3  1  0.750000  0.241766  0.627809  1
  Be  Be4  1  0.250000  0.065081  0.586936  1
  Be  Be5  1  0.250000  0.565081  0.913064  1
  Be  Be6  1  0.750000  0.934919  0.413064  1
  Be  Be7  1  0.750000  0.434919  0.086936  1
  Be  Be8  1  0.250000  0.334053  0.484423  1
  Be  Be9  1  0.250000  0.834053  0.015577  1
  Be  Be10  1  0.750000  0.665947  0.515577  1
  Be  Be11  1  0.750000  0.165947  0.984423  1
  Au  Au12  1  0.034203  0.105276  0.393414  1
  Au  Au13  1  0.465797  0.605276  0.106586  1
  Au  Au14  1  0.534203  0.894724  0.606586  1
  Au  Au15  1  0.965797  0.394724  0.893414  1
  Au  Au16  1  0.965797  0.894724  0.606586  1
  Au  Au17  1  0.534203  0.394724  0.893414  1
  Au  Au18  1  0.465797  0.105276  0.393414  1
  Au  Au19  1  0.034203  0.605276  0.106586  1
  Au  Au20  1  0.019688  0.057120  0.866765  1
  Au  Au21  1  0.480312  0.557120  0.633235  1
  Au  Au22  1  0.519688  0.942880  0.133235  1
  Au  Au23  1  0.980312  0.442880  0.366765  1
  Au  Au24  1  0.980312  0.942880  0.133235  1
  Au  Au25  1  0.519688  0.442880  0.366765  1
  Au  Au26  1  0.480312  0.057120  0.866765  1
  Au  Au27  1  0.019688  0.557120  0.633235  1
  Au  Au28  1  0.250000  0.280476  0.707973  1
  Au  Au29  1  0.250000  0.780476  0.792027  1
  Au  Au30  1  0.750000  0.719524  0.292027  1
  Au  Au31  1  0.750000  0.219524  0.207973  1
