# generated using pymatgen
data_LuZr(Ga2Pt)2
_symmetry_space_group_name_H-M   'P 1'
_cell_length_a   5.43995072
_cell_length_b   5.43995026
_cell_length_c   6.52607800
_cell_angle_alpha   90.00000000
_cell_angle_beta   90.00000000
_cell_angle_gamma   133.08637984
_symmetry_Int_Tables_number   1
_chemical_formula_structural   LuZr(Ga2Pt)2
_chemical_formula_sum   'Lu1 Zr1 Ga4 Pt2'
_cell_volume   141.04514198
_cell_formula_units_Z   1
loop_
 _symmetry_equiv_pos_site_id
 _symmetry_equiv_pos_as_xyz
  1  'x, y, z'
loop_
 _atom_site_type_symbol
 _atom_site_label
 _atom_site_symmetry_multiplicity
 _atom_site_fract_x
 _atom_site_fract_y
 _atom_site_fract_z
 _atom_site_occupancy
  Lu  Lu0  1  0.415442  0.584558  0.750000  1
  Zr  Zr1  1  0.585830  0.414170  0.250000  1
  Ga  Ga2  1  0.871827  0.128173  0.448247  1
  Ga  Ga3  1  0.125863  0.874137  0.543853  1
  Ga  Ga4  1  0.871827  0.128173  0.051753  1
  Ga  Ga5  1  0.125863  0.874137  0.956147  1
  Pt  Pt6  1  0.299937  0.700063  0.250000  1
  Pt  Pt7  1  0.703411  0.296589  0.750000  1
