# generated using pymatgen
data_Dy6Co13Ni3(P6Ru)2
_symmetry_space_group_name_H-M   'P 1'
_cell_length_a   3.73812300
_cell_length_b   10.52357186
_cell_length_c   12.28264901
_cell_angle_alpha   89.95361232
_cell_angle_beta   90.00000000
_cell_angle_gamma   90.00000000
_symmetry_Int_Tables_number   1
_chemical_formula_structural   Dy6Co13Ni3(P6Ru)2
_chemical_formula_sum   'Dy6 Co13 Ni3 P12 Ru2'
_cell_volume   483.17967526
_cell_formula_units_Z   1
loop_
 _symmetry_equiv_pos_site_id
 _symmetry_equiv_pos_as_xyz
  1  'x, y, z'
loop_
 _atom_site_type_symbol
 _atom_site_label
 _atom_site_symmetry_multiplicity
 _atom_site_fract_x
 _atom_site_fract_y
 _atom_site_fract_z
 _atom_site_occupancy
  Dy  Dy0  1  0.000000  0.499994  0.522933  1
  Dy  Dy1  1  0.500000  0.999905  0.476810  1
  Dy  Dy2  1  0.500000  0.815279  0.206345  1
  Dy  Dy3  1  0.500000  0.184304  0.206606  1
  Dy  Dy4  1  0.000000  0.684919  0.793659  1
  Dy  Dy5  1  0.000000  0.315317  0.792937  1
  Co  Co6  1  0.000000  0.499355  0.986416  1
  Co  Co7  1  0.500000  0.999642  0.014346  1
  Co  Co8  1  0.500000  0.668164  0.991054  1
  Co  Co9  1  0.000000  0.168317  0.009696  1
  Co  Co10  1  0.000000  0.832691  0.009625  1
  Co  Co11  1  0.500000  0.299084  0.431054  1
  Co  Co12  1  0.500000  0.700942  0.431033  1
  Co  Co13  1  0.000000  0.200657  0.569274  1
  Co  Co14  1  0.000000  0.799163  0.569123  1
  Co  Co15  1  0.500000  0.879162  0.708866  1
  Co  Co16  1  0.500000  0.120500  0.708053  1
  Co  Co17  1  0.000000  0.621125  0.291039  1
  Co  Co18  1  0.000000  0.379532  0.292339  1
  Ni  Ni19  1  0.500000  0.500054  0.702552  1
  Ni  Ni20  1  0.000000  0.000031  0.296731  1
  Ni  Ni21  1  0.500000  0.330853  0.989521  1
  P  P22  1  0.500000  0.502029  0.881562  1
  P  P23  1  0.000000  0.000264  0.117236  1
  P  P24  1  0.500000  0.500540  0.349331  1
  P  P25  1  0.000000  0.999706  0.650594  1
  P  P26  1  0.500000  0.310320  0.614938  1
  P  P27  1  0.500000  0.690137  0.615178  1
  P  P28  1  0.000000  0.189963  0.384890  1
  P  P29  1  0.000000  0.809752  0.384651  1
  P  P30  1  0.500000  0.846770  0.894130  1
  P  P31  1  0.500000  0.150509  0.892162  1
  P  P32  1  0.000000  0.652984  0.105945  1
  P  P33  1  0.000000  0.348222  0.109162  1
  Ru  Ru34  1  0.500000  0.499280  0.158830  1
  Ru  Ru35  1  0.000000  0.000535  0.841379  1
