# generated using pymatgen
data_Li3Tb3InGeAs
_symmetry_space_group_name_H-M   'P 1'
_cell_length_a   7.19811500
_cell_length_b   7.19811623
_cell_length_c   4.29495200
_cell_angle_alpha   90.00000000
_cell_angle_beta   90.00000000
_cell_angle_gamma   120.00000815
_symmetry_Int_Tables_number   1
_chemical_formula_structural   Li3Tb3InGeAs
_chemical_formula_sum   'Li3 Tb3 In1 Ge1 As1'
_cell_volume   192.71989319
_cell_formula_units_Z   1
loop_
 _symmetry_equiv_pos_site_id
 _symmetry_equiv_pos_as_xyz
  1  'x, y, z'
loop_
 _atom_site_type_symbol
 _atom_site_label
 _atom_site_symmetry_multiplicity
 _atom_site_fract_x
 _atom_site_fract_y
 _atom_site_fract_z
 _atom_site_occupancy
  Li  Li0  1  0.750634  0.750357  0.500000  1
  Li  Li1  1  0.249643  0.000276  0.500000  1
  Li  Li2  1  0.999724  0.249366  0.500000  1
  Tb  Tb3  1  0.435686  0.440119  0.000000  1
  Tb  Tb4  1  0.559881  0.995567  0.000000  1
  Tb  Tb5  1  0.004433  0.564314  0.000000  1
  In  In6  1  0.000000  0.000000  0.000000  1
  Ge  Ge7  1  0.333333  0.666667  0.500000  1
  As  As8  1  0.666667  0.333333  0.500000  1
