# generated using pymatgen
data_Ho11Th5(InRu)4
_symmetry_space_group_name_H-M   'P 1'
_cell_length_a   9.67030197
_cell_length_b   9.75199450
_cell_length_c   9.75187856
_cell_angle_alpha   60.00545030
_cell_angle_beta   60.27636349
_cell_angle_gamma   60.27677952
_symmetry_Int_Tables_number   1
_chemical_formula_structural   Ho11Th5(InRu)4
_chemical_formula_sum   'Ho11 Th5 In4 Ru4'
_cell_volume   653.02186772
_cell_formula_units_Z   1
loop_
 _symmetry_equiv_pos_site_id
 _symmetry_equiv_pos_as_xyz
  1  'x, y, z'
loop_
 _atom_site_type_symbol
 _atom_site_label
 _atom_site_symmetry_multiplicity
 _atom_site_fract_x
 _atom_site_fract_y
 _atom_site_fract_z
 _atom_site_occupancy
  Ho  Ho0  1  0.188185  0.811791  0.811836  1
  Ho  Ho1  1  0.193493  0.807260  0.187217  1
  Ho  Ho2  1  0.812013  0.187226  0.807262  1
  Ho  Ho3  1  0.193496  0.187226  0.807264  1
  Ho  Ho4  1  0.812033  0.807255  0.187216  1
  Ho  Ho5  1  0.935012  0.565007  0.564976  1
  Ho  Ho6  1  0.561714  0.938271  0.938285  1
  Ho  Ho7  1  0.560511  0.938349  0.562610  1
  Ho  Ho8  1  0.938559  0.562588  0.938385  1
  Ho  Ho9  1  0.560470  0.562614  0.938375  1
  Ho  Ho10  1  0.938542  0.938356  0.562591  1
  Th  Th11  1  0.342793  0.350031  0.350036  1
  Th  Th12  1  0.347150  0.349312  0.956386  1
  Th  Th13  1  0.347140  0.956402  0.349318  1
  Th  Th14  1  0.957146  0.350024  0.350037  1
  Th  Th15  1  0.815570  0.184436  0.184426  1
  In  In16  1  0.583944  0.583646  0.583645  1
  In  In17  1  0.582987  0.586258  0.247766  1
  In  In18  1  0.582979  0.247787  0.586251  1
  In  In19  1  0.248766  0.583644  0.583646  1
  Ru  Ru20  1  0.128806  0.146188  0.146176  1
  Ru  Ru21  1  0.144930  0.141148  0.568985  1
  Ru  Ru22  1  0.144937  0.568989  0.141131  1
  Ru  Ru23  1  0.578820  0.146193  0.146179  1
