# generated using pymatgen
data_V4ZnSe8
_symmetry_space_group_name_H-M   'P 1'
_cell_length_a   7.28642598
_cell_length_b   7.28642607
_cell_length_c   7.28642700
_cell_angle_alpha   60.00000030
_cell_angle_beta   59.99999993
_cell_angle_gamma   60.00000033
_symmetry_Int_Tables_number   1
_chemical_formula_structural   V4ZnSe8
_chemical_formula_sum   'V4 Zn1 Se8'
_cell_volume   273.54497577
_cell_formula_units_Z   1
loop_
 _symmetry_equiv_pos_site_id
 _symmetry_equiv_pos_as_xyz
  1  'x, y, z'
loop_
 _atom_site_type_symbol
 _atom_site_label
 _atom_site_symmetry_multiplicity
 _atom_site_fract_x
 _atom_site_fract_y
 _atom_site_fract_z
 _atom_site_occupancy
  V  V0  1  0.424154  0.858615  0.858615  1
  V  V1  1  0.858615  0.424154  0.858615  1
  V  V2  1  0.858615  0.858615  0.858615  1
  V  V3  1  0.858615  0.858615  0.424154  1
  Zn  Zn4  1  0.250000  0.250000  0.250000  1
  Se  Se5  1  0.621443  0.621443  0.135669  1
  Se  Se6  1  0.621443  0.621443  0.621443  1
  Se  Se7  1  0.112881  0.112881  0.661356  1
  Se  Se8  1  0.112881  0.112881  0.112881  1
  Se  Se9  1  0.621443  0.135669  0.621443  1
  Se  Se10  1  0.135669  0.621443  0.621443  1
  Se  Se11  1  0.112881  0.661356  0.112881  1
  Se  Se12  1  0.661356  0.112881  0.112881  1
