# generated using pymatgen
data_CdHg9(AsI2)4
_symmetry_space_group_name_H-M   'P 1'
_cell_length_a   13.63608857
_cell_length_b   8.20116041
_cell_length_c   8.27034734
_cell_angle_alpha   63.00479394
_cell_angle_beta   89.99874100
_cell_angle_gamma   89.96986496
_symmetry_Int_Tables_number   1
_chemical_formula_structural   CdHg9(AsI2)4
_chemical_formula_sum   'Cd1 Hg9 As4 I8'
_cell_volume   824.11571048
_cell_formula_units_Z   1
loop_
 _symmetry_equiv_pos_site_id
 _symmetry_equiv_pos_as_xyz
  1  'x, y, z'
loop_
 _atom_site_type_symbol
 _atom_site_label
 _atom_site_symmetry_multiplicity
 _atom_site_fract_x
 _atom_site_fract_y
 _atom_site_fract_z
 _atom_site_occupancy
  Cd  Cd0  1  0.836500  0.996205  0.003551  1
  Hg  Hg1  1  0.335753  0.002821  0.997454  1
  Hg  Hg2  1  0.791334  0.675536  0.666844  1
  Hg  Hg3  1  0.549920  0.028111  0.574308  1
  Hg  Hg4  1  0.049814  0.971982  0.425848  1
  Hg  Hg5  1  0.551642  0.516303  0.052709  1
  Hg  Hg6  1  0.291407  0.324473  0.333134  1
  Hg  Hg7  1  0.025677  0.473561  0.448706  1
  Hg  Hg8  1  0.525695  0.526255  0.551511  1
  Hg  Hg9  1  0.051589  0.483478  0.947277  1
  As  As10  1  0.477890  0.349153  0.373996  1
  As  As11  1  0.605312  0.691394  0.718213  1
  As  As12  1  0.977859  0.651028  0.625909  1
  As  As13  1  0.105358  0.308576  0.281762  1
  I  I14  1  0.238530  0.324988  0.742019  1
  I  I15  1  0.313875  0.705369  0.914986  1
  I  I16  1  0.038473  0.881979  0.068962  1
  I  I17  1  0.739092  0.677346  0.256637  1
  I  I18  1  0.540643  0.119641  0.930091  1
  I  I19  1  0.814284  0.292902  0.083343  1
  I  I20  1  0.808486  0.109490  0.631067  1
  I  I21  1  0.308332  0.889407  0.371671  1
