# generated using pymatgen
data_Dy3Y2(CoO6)2
_symmetry_space_group_name_H-M   'P 1'
_cell_length_a   6.77632432
_cell_length_b   6.77632595
_cell_length_c   7.22604400
_cell_angle_alpha   74.56270420
_cell_angle_beta   74.56269162
_cell_angle_gamma   50.47490824
_symmetry_Int_Tables_number   1
_chemical_formula_structural   Dy3Y2(CoO6)2
_chemical_formula_sum   'Dy3 Y2 Co2 O12'
_cell_volume   244.60744013
_cell_formula_units_Z   1
loop_
 _symmetry_equiv_pos_site_id
 _symmetry_equiv_pos_as_xyz
  1  'x, y, z'
loop_
 _atom_site_type_symbol
 _atom_site_label
 _atom_site_symmetry_multiplicity
 _atom_site_fract_x
 _atom_site_fract_y
 _atom_site_fract_z
 _atom_site_occupancy
  Dy  Dy0  1  0.999956  0.999956  0.999991  1
  Dy  Dy1  1  0.306067  0.306067  0.855968  1
  Dy  Dy2  1  0.307813  0.307813  0.335453  1
  Y  Y3  1  0.692177  0.692177  0.664641  1
  Y  Y4  1  0.693784  0.693784  0.144121  1
  Co  Co5  1  0.243926  0.755864  0.499941  1
  Co  Co6  1  0.755864  0.243926  0.499941  1
  O  O7  1  0.400794  0.904199  0.923600  1
  O  O8  1  0.582615  0.100131  0.578492  1
  O  O9  1  0.901552  0.416291  0.421284  1
  O  O10  1  0.097523  0.597718  0.076638  1
  O  O11  1  0.000461  0.000461  0.329030  1
  O  O12  1  0.499696  0.499696  0.673903  1
  O  O13  1  0.904199  0.400794  0.923600  1
  O  O14  1  0.100131  0.582615  0.578492  1
  O  O15  1  0.416291  0.901552  0.421284  1
  O  O16  1  0.597718  0.097523  0.076638  1
  O  O17  1  0.499688  0.499688  0.326509  1
  O  O18  1  0.999744  0.999744  0.670478  1
