# generated using pymatgen
data_DyY5(Co3P2)6
_symmetry_space_group_name_H-M   'P 1'
_cell_length_a   3.70342100
_cell_length_b   10.51791201
_cell_length_c   12.18594901
_cell_angle_alpha   90.00362344
_cell_angle_beta   90.00000000
_cell_angle_gamma   90.00000000
_symmetry_Int_Tables_number   1
_chemical_formula_structural   DyY5(Co3P2)6
_chemical_formula_sum   'Dy1 Y5 Co18 P12'
_cell_volume   474.67020673
_cell_formula_units_Z   1
loop_
 _symmetry_equiv_pos_site_id
 _symmetry_equiv_pos_as_xyz
  1  'x, y, z'
loop_
 _atom_site_type_symbol
 _atom_site_label
 _atom_site_symmetry_multiplicity
 _atom_site_fract_x
 _atom_site_fract_y
 _atom_site_fract_z
 _atom_site_occupancy
  Dy  Dy0  1  0.500000  0.817378  0.205855  1
  Y  Y1  1  0.000000  0.499907  0.521746  1
  Y  Y2  1  0.500000  0.000035  0.478251  1
  Y  Y3  1  0.500000  0.182794  0.205899  1
  Y  Y4  1  0.000000  0.682788  0.794142  1
  Y  Y5  1  0.000000  0.317185  0.794115  1
  Co  Co6  1  0.500000  0.500149  0.158633  1
  Co  Co7  1  0.000000  0.999947  0.841387  1
  Co  Co8  1  0.500000  0.500010  0.703347  1
  Co  Co9  1  0.000000  0.999673  0.296567  1
  Co  Co10  1  0.000000  0.500164  0.986190  1
  Co  Co11  1  0.500000  0.999880  0.014027  1
  Co  Co12  1  0.500000  0.333439  0.994719  1
  Co  Co13  1  0.500000  0.666703  0.994813  1
  Co  Co14  1  0.000000  0.166556  0.005430  1
  Co  Co15  1  0.000000  0.833335  0.005412  1
  Co  Co16  1  0.500000  0.297417  0.430536  1
  Co  Co17  1  0.500000  0.702588  0.430381  1
  Co  Co18  1  0.000000  0.202506  0.569456  1
  Co  Co19  1  0.000000  0.797466  0.569399  1
  Co  Co20  1  0.500000  0.879546  0.709737  1
  Co  Co21  1  0.500000  0.120437  0.709762  1
  Co  Co22  1  0.000000  0.620615  0.290047  1
  Co  Co23  1  0.000000  0.379548  0.290202  1
  P  P24  1  0.500000  0.500058  0.882831  1
  P  P25  1  0.000000  0.999758  0.117299  1
  P  P26  1  0.500000  0.500045  0.343254  1
  P  P27  1  0.000000  0.999972  0.656659  1
  P  P28  1  0.500000  0.310187  0.615883  1
  P  P29  1  0.500000  0.689790  0.615827  1
  P  P30  1  0.000000  0.189703  0.384077  1
  P  P31  1  0.000000  0.810128  0.383914  1
  P  P32  1  0.500000  0.847637  0.893436  1
  P  P33  1  0.500000  0.152313  0.893472  1
  P  P34  1  0.000000  0.652644  0.106672  1
  P  P35  1  0.000000  0.347700  0.106620  1
