# generated using pymatgen
data_ThCrOs2C
_symmetry_space_group_name_H-M   'P 1'
_cell_length_a   3.98029400
_cell_length_b   5.93857366
_cell_length_c   7.25286500
_cell_angle_alpha   90.00000000
_cell_angle_beta   90.00000000
_cell_angle_gamma   70.42003989
_symmetry_Int_Tables_number   1
_chemical_formula_structural   ThCrOs2C
_chemical_formula_sum   'Th2 Cr2 Os4 C2'
_cell_volume   161.52447669
_cell_formula_units_Z   2
loop_
 _symmetry_equiv_pos_site_id
 _symmetry_equiv_pos_as_xyz
  1  'x, y, z'
loop_
 _atom_site_type_symbol
 _atom_site_label
 _atom_site_symmetry_multiplicity
 _atom_site_fract_x
 _atom_site_fract_y
 _atom_site_fract_z
 _atom_site_occupancy
  Th  Th0  1  0.954938  0.090124  0.250001  1
  Th  Th1  1  0.045063  0.909877  0.750000  1
  Cr  Cr2  1  0.222000  0.556002  0.250001  1
  Cr  Cr3  1  0.778001  0.443997  0.750000  1
  Os  Os4  1  0.668706  0.662587  0.054218  1
  Os  Os5  1  0.668706  0.662587  0.445782  1
  Os  Os6  1  0.331295  0.337413  0.554218  1
  Os  Os7  1  0.331295  0.337413  0.945783  1
  C  C8  1  0.500001  0.000000  0.000000  1
  C  C9  1  0.500001  0.000000  0.500000  1
