# generated using pymatgen
data_NdHo(NiP)2
_symmetry_space_group_name_H-M   'P 1'
_cell_length_a   3.93235700
_cell_length_b   3.93235707
_cell_length_c   15.78248400
_cell_angle_alpha   90.00000000
_cell_angle_beta   90.00000000
_cell_angle_gamma   119.99997422
_symmetry_Int_Tables_number   1
_chemical_formula_structural   NdHo(NiP)2
_chemical_formula_sum   'Nd2 Ho2 Ni4 P4'
_cell_volume   211.35473724
_cell_formula_units_Z   2
loop_
 _symmetry_equiv_pos_site_id
 _symmetry_equiv_pos_as_xyz
  1  'x, y, z'
loop_
 _atom_site_type_symbol
 _atom_site_label
 _atom_site_symmetry_multiplicity
 _atom_site_fract_x
 _atom_site_fract_y
 _atom_site_fract_z
 _atom_site_occupancy
  Nd  Nd0  1  0.000000  0.000000  0.500000  1
  Nd  Nd1  1  0.000000  0.000000  0.000000  1
  Ho  Ho2  1  0.000000  0.000000  0.250000  1
  Ho  Ho3  1  0.000000  0.000000  0.750000  1
  Ni  Ni4  1  0.333333  0.666667  0.367441  1
  Ni  Ni5  1  0.666667  0.333333  0.632559  1
  Ni  Ni6  1  0.666667  0.333333  0.867441  1
  Ni  Ni7  1  0.333333  0.666667  0.132559  1
  P  P8  1  0.333333  0.666667  0.872045  1
  P  P9  1  0.666667  0.333333  0.127955  1
  P  P10  1  0.666667  0.333333  0.372045  1
  P  P11  1  0.333333  0.666667  0.627955  1
