# generated using pymatgen
data_Yb2TmTh(Al8Pt3)3
_symmetry_space_group_name_H-M   'P 1'
_cell_length_a   7.55354665
_cell_length_b   7.57459488
_cell_length_c   13.23627038
_cell_angle_alpha   84.55832851
_cell_angle_beta   79.08610387
_cell_angle_gamma   59.94229343
_symmetry_Int_Tables_number   1
_chemical_formula_structural   Yb2TmTh(Al8Pt3)3
_chemical_formula_sum   'Yb2 Tm1 Th1 Al24 Pt9'
_cell_volume   643.61578502
_cell_formula_units_Z   1
loop_
 _symmetry_equiv_pos_site_id
 _symmetry_equiv_pos_as_xyz
  1  'x, y, z'
loop_
 _atom_site_type_symbol
 _atom_site_label
 _atom_site_symmetry_multiplicity
 _atom_site_fract_x
 _atom_site_fract_y
 _atom_site_fract_z
 _atom_site_occupancy
  Yb  Yb0  1  0.605801  0.830997  0.193508  1
  Yb  Yb1  1  0.733676  0.499242  0.807566  1
  Tm  Tm2  1  0.266086  0.501472  0.193691  1
  Th  Th3  1  0.394794  0.167463  0.807733  1
  Al  Al4  1  0.687081  0.830558  0.948033  1
  Al  Al5  1  0.315290  0.166627  0.058819  1
  Al  Al6  1  0.147235  0.832308  0.560082  1
  Al  Al7  1  0.853742  0.167962  0.437874  1
  Al  Al8  1  0.480708  0.166356  0.556520  1
  Al  Al9  1  0.520660  0.832628  0.440226  1
  Al  Al10  1  0.217795  0.164899  0.328738  1
  Al  Al11  1  0.787568  0.830222  0.667556  1
  Al  Al12  1  0.438449  0.510635  0.667794  1
  Al  Al13  1  0.563065  0.494150  0.328475  1
  Al  Al14  1  0.106173  0.160406  0.666085  1
  Al  Al15  1  0.890207  0.839813  0.330132  1
  Al  Al16  1  0.351713  0.502887  0.947316  1
  Al  Al17  1  0.645826  0.501356  0.056040  1
  Al  Al18  1  0.011758  0.167578  0.957059  1
  Al  Al19  1  0.984139  0.830909  0.048864  1
  Al  Al20  1  0.186192  0.499778  0.440673  1
  Al  Al21  1  0.813411  0.500770  0.558413  1
  Al  Al22  1  0.732310  0.167017  0.183145  1
  Al  Al23  1  0.263969  0.833650  0.816940  1
  Al  Al24  1  0.059737  0.634445  0.815853  1
  Al  Al25  1  0.939779  0.368846  0.184394  1
  Al  Al26  1  0.858515  0.040011  0.816618  1
  Al  Al27  1  0.143445  0.956795  0.183717  1
  Pt  Pt28  1  0.121713  0.491340  0.638048  1
  Pt  Pt29  1  0.881061  0.507258  0.361380  1
  Pt  Pt30  1  0.657143  0.171431  0.000000  1
  Pt  Pt31  1  0.342105  0.829759  0.000246  1
  Pt  Pt32  1  0.537529  0.167613  0.361083  1
  Pt  Pt33  1  0.461347  0.834618  0.637787  1
  Pt  Pt34  1  0.778059  0.174123  0.636753  1
  Pt  Pt35  1  0.220451  0.825072  0.362688  1
  Pt  Pt36  1  0.001466  0.499010  0.000147  1
