# generated using pymatgen
data_La5Nd(BePd5)2
_symmetry_space_group_name_H-M   'P 1'
_cell_length_a   8.38404829
_cell_length_b   8.37589548
_cell_length_c   8.37589449
_cell_angle_alpha   126.55559931
_cell_angle_beta   125.87189886
_cell_angle_gamma   79.51542395
_symmetry_Int_Tables_number   1
_chemical_formula_structural   La5Nd(BePd5)2
_chemical_formula_sum   'La5 Nd1 Be2 Pd10'
_cell_volume   370.04282963
_cell_formula_units_Z   1
loop_
 _symmetry_equiv_pos_site_id
 _symmetry_equiv_pos_as_xyz
  1  'x, y, z'
loop_
 _atom_site_type_symbol
 _atom_site_label
 _atom_site_symmetry_multiplicity
 _atom_site_fract_x
 _atom_site_fract_y
 _atom_site_fract_z
 _atom_site_occupancy
  La  La0  1  0.218189  0.448120  0.770070  1
  La  La1  1  0.177487  0.948328  0.229159  1
  La  La2  1  0.395248  0.249853  0.145395  1
  La  La3  1  0.781788  0.551748  0.230038  1
  La  La4  1  0.605057  0.750389  0.854668  1
  Nd  Nd5  1  0.821862  0.051829  0.770032  1
  Be  Be6  1  0.208224  0.750034  0.458190  1
  Be  Be7  1  0.792244  0.249647  0.542596  1
  Pd  Pd8  1  0.826462  0.585398  0.639299  1
  Pd  Pd9  1  0.554624  0.312704  0.639387  1
  Pd  Pd10  1  0.445781  0.084700  0.758451  1
  Pd  Pd11  1  0.826462  0.187163  0.241063  1
  Pd  Pd12  1  0.173144  0.414795  0.359995  1
  Pd  Pd13  1  0.445781  0.687331  0.361080  1
  Pd  Pd14  1  0.554624  0.915236  0.241919  1
  Pd  Pd15  1  0.173144  0.813149  0.758350  1
  Pd  Pd16  1  0.999941  0.999928  0.500293  1
  Pd  Pd17  1  0.999941  0.499648  0.000012  1
