# generated using pymatgen
data_Ho2LuIn3CuPt2
_symmetry_space_group_name_H-M   'P 1'
_cell_length_a   7.68955761
_cell_length_b   7.68955824
_cell_length_c   3.70227800
_cell_angle_alpha   90.00000000
_cell_angle_beta   90.00000000
_cell_angle_gamma   119.80087216
_symmetry_Int_Tables_number   1
_chemical_formula_structural   Ho2LuIn3CuPt2
_chemical_formula_sum   'Ho2 Lu1 In3 Cu1 Pt2'
_cell_volume   189.96357843
_cell_formula_units_Z   1
loop_
 _symmetry_equiv_pos_site_id
 _symmetry_equiv_pos_as_xyz
  1  'x, y, z'
loop_
 _atom_site_type_symbol
 _atom_site_label
 _atom_site_symmetry_multiplicity
 _atom_site_fract_x
 _atom_site_fract_y
 _atom_site_fract_z
 _atom_site_occupancy
  Ho  Ho0  1  0.999927  0.588433  0.500000  1
  Ho  Ho1  1  0.588433  0.999927  0.500000  1
  Lu  Lu2  1  0.412328  0.412328  0.500000  1
  In  In3  1  0.000844  0.255074  0.000000  1
  In  In4  1  0.255074  0.000844  0.000000  1
  In  In5  1  0.744707  0.744707  0.000000  1
  Cu  Cu6  1  0.000326  0.000326  0.500000  1
  Pt  Pt7  1  0.664223  0.334138  0.000000  1
  Pt  Pt8  1  0.334138  0.664223  0.000000  1
