# generated using pymatgen
data_Ca3DyHo2(Si3Ru)8
_symmetry_space_group_name_H-M   'P 1'
_cell_length_a   10.16912707
_cell_length_b   10.16915129
_cell_length_c   8.15130501
_cell_angle_alpha   89.98602582
_cell_angle_beta   89.99680993
_cell_angle_gamma   132.72925864
_symmetry_Int_Tables_number   1
_chemical_formula_structural   Ca3DyHo2(Si3Ru)8
_chemical_formula_sum   'Ca3 Dy1 Ho2 Si24 Ru8'
_cell_volume   619.19524458
_cell_formula_units_Z   1
loop_
 _symmetry_equiv_pos_site_id
 _symmetry_equiv_pos_as_xyz
  1  'x, y, z'
loop_
 _atom_site_type_symbol
 _atom_site_label
 _atom_site_symmetry_multiplicity
 _atom_site_fract_x
 _atom_site_fract_y
 _atom_site_fract_z
 _atom_site_occupancy
  Ca  Ca0  1  0.500078  0.499913  0.499998  1
  Ca  Ca1  1  0.500890  0.000750  0.749810  1
  Ca  Ca2  1  0.999257  0.499116  0.250187  1
  Dy  Dy3  1  0.001530  0.501551  0.749853  1
  Ho  Ho4  1  0.999941  0.000037  0.000007  1
  Ho  Ho5  1  0.498465  0.998487  0.250152  1
  Si  Si6  1  0.794977  0.204881  0.499926  1
  Si  Si7  1  0.294279  0.705882  0.000084  1
  Si  Si8  1  0.205599  0.794559  0.499915  1
  Si  Si9  1  0.705206  0.294653  0.000072  1
  Si  Si10  1  0.331694  0.336927  0.831791  1
  Si  Si11  1  0.663066  0.668319  0.168211  1
  Si  Si12  1  0.170321  0.165342  0.334065  1
  Si  Si13  1  0.834651  0.829689  0.665932  1
  Si  Si14  1  0.122704  0.889273  0.728171  1
  Si  Si15  1  0.110772  0.877324  0.271840  1
  Si  Si16  1  0.608634  0.375640  0.229349  1
  Si  Si17  1  0.624307  0.391339  0.770637  1
  Si  Si18  1  0.875056  0.108456  0.271696  1
  Si  Si19  1  0.891520  0.124893  0.728318  1
  Si  Si20  1  0.389313  0.622507  0.770623  1
  Si  Si21  1  0.377522  0.610733  0.229364  1
  Si  Si22  1  0.346181  0.112781  0.504970  1
  Si  Si23  1  0.887209  0.653822  0.494992  1
  Si  Si24  1  0.388655  0.155411  0.006829  1
  Si  Si25  1  0.844589  0.611373  0.993211  1
  Si  Si26  1  0.653782  0.886472  0.492324  1
  Si  Si27  1  0.113556  0.346220  0.507634  1
  Si  Si28  1  0.610662  0.844469  0.996548  1
  Si  Si29  1  0.155533  0.389324  0.003494  1
  Ru  Ru30  1  0.670722  0.329103  0.499924  1
  Ru  Ru31  1  0.168908  0.831254  0.000085  1
  Ru  Ru32  1  0.330093  0.670061  0.499919  1
  Ru  Ru33  1  0.830228  0.169603  0.000071  1
  Ru  Ru34  1  0.124531  0.125161  0.627473  1
  Ru  Ru35  1  0.874824  0.875446  0.372538  1
  Ru  Ru36  1  0.372525  0.371774  0.124665  1
  Ru  Ru37  1  0.628219  0.627457  0.875325  1
