# generated using pymatgen
data_LiPa5(Ni3As4)2
_symmetry_space_group_name_H-M   'P 1'
_cell_length_a   7.74162741
_cell_length_b   7.74218899
_cell_length_c   7.74155989
_cell_angle_alpha   108.64054618
_cell_angle_beta   109.88818366
_cell_angle_gamma   109.89941748
_symmetry_Int_Tables_number   1
_chemical_formula_structural   LiPa5(Ni3As4)2
_chemical_formula_sum   'Li1 Pa5 Ni6 As8'
_cell_volume   357.08629865
_cell_formula_units_Z   1
loop_
 _symmetry_equiv_pos_site_id
 _symmetry_equiv_pos_as_xyz
  1  'x, y, z'
loop_
 _atom_site_type_symbol
 _atom_site_label
 _atom_site_symmetry_multiplicity
 _atom_site_fract_x
 _atom_site_fract_y
 _atom_site_fract_z
 _atom_site_occupancy
  Li  Li0  1  0.749930  0.374933  0.624885  1
  Pa  Pa1  1  0.130711  0.878057  0.250344  1
  Pa  Pa2  1  0.369195  0.619644  0.747159  1
  Pa  Pa3  1  0.872177  0.252532  0.121635  1
  Pa  Pa4  1  0.627454  0.749443  0.380060  1
  Pa  Pa5  1  0.249959  0.124891  0.874978  1
  Ni  Ni6  1  0.621197  0.367775  0.246337  1
  Ni  Ni7  1  0.879601  0.125288  0.746495  1
  Ni  Ni8  1  0.378234  0.253623  0.633210  1
  Ni  Ni9  1  0.121375  0.753772  0.875077  1
  Ni  Ni10  1  0.249897  0.625038  0.375161  1
  Ni  Ni11  1  0.750279  0.875157  0.125191  1
  As  As12  1  0.346067  0.338183  0.342675  1
  As  As13  1  0.153953  0.496577  0.992115  1
  As  As14  1  0.002569  0.163981  0.497023  1
  As  As15  1  0.833156  0.838509  0.835811  1
  As  As16  1  0.497398  0.994658  0.161379  1
  As  As17  1  0.666842  0.502827  0.005390  1
  As  As18  1  0.504419  0.007748  0.661669  1
  As  As19  1  0.995586  0.657366  0.503403  1
