# generated using pymatgen
data_Nb3Mo(AsO4)6
_symmetry_space_group_name_H-M   'P 1'
_cell_length_a   9.48256788
_cell_length_b   9.48256715
_cell_length_c   9.48256651
_cell_angle_alpha   56.85793454
_cell_angle_beta   56.85793576
_cell_angle_gamma   56.85794330
_symmetry_Int_Tables_number   1
_chemical_formula_structural   Nb3Mo(AsO4)6
_chemical_formula_sum   'Nb3 Mo1 As6 O24'
_cell_volume   559.21266855
_cell_formula_units_Z   1
loop_
 _symmetry_equiv_pos_site_id
 _symmetry_equiv_pos_as_xyz
  1  'x, y, z'
loop_
 _atom_site_type_symbol
 _atom_site_label
 _atom_site_symmetry_multiplicity
 _atom_site_fract_x
 _atom_site_fract_y
 _atom_site_fract_z
 _atom_site_occupancy
  Nb  Nb0  1  0.855840  0.855840  0.855840  1
  Nb  Nb1  1  0.641801  0.641801  0.641801  1
  Nb  Nb2  1  0.360268  0.360268  0.360268  1
  Mo  Mo3  1  0.145217  0.145217  0.145217  1
  As  As4  1  0.254664  0.523009  0.968626  1
  As  As5  1  0.968626  0.254664  0.523009  1
  As  As6  1  0.523009  0.968626  0.254664  1
  As  As7  1  0.469446  0.030245  0.753479  1
  As  As8  1  0.030245  0.753479  0.469446  1
  As  As9  1  0.753479  0.469446  0.030245  1
  O  O10  1  0.685152  0.512757  0.871990  1
  O  O11  1  0.512757  0.871990  0.685152  1
  O  O12  1  0.047091  0.691926  0.964302  1
  O  O13  1  0.871990  0.685152  0.512757  1
  O  O14  1  0.408088  0.606284  0.768420  1
  O  O15  1  0.289465  0.325380  0.975335  1
  O  O16  1  0.964302  0.047091  0.691926  1
  O  O17  1  0.768420  0.408088  0.606284  1
  O  O18  1  0.606284  0.768420  0.408088  1
  O  O19  1  0.670520  0.009672  0.736286  1
  O  O20  1  0.311736  0.003694  0.960110  1
  O  O21  1  0.009672  0.736286  0.670520  1
  O  O22  1  0.975335  0.289465  0.325380  1
  O  O23  1  0.691926  0.964302  0.047091  1
  O  O24  1  0.325380  0.975335  0.289465  1
  O  O25  1  0.408216  0.232302  0.586937  1
  O  O26  1  0.232302  0.586937  0.408216  1
  O  O27  1  0.003694  0.960110  0.311736  1
  O  O28  1  0.736286  0.670520  0.009672  1
  O  O29  1  0.586937  0.408216  0.232302  1
  O  O30  1  0.141526  0.286787  0.503429  1
  O  O31  1  0.960110  0.311736  0.003694  1
  O  O32  1  0.503429  0.141526  0.286787  1
  O  O33  1  0.286787  0.503429  0.141526  1
