# generated using pymatgen
data_Ca6MnCrN6
_symmetry_space_group_name_H-M   'P 1'
_cell_length_a   6.64949801
_cell_length_b   6.64949827
_cell_length_c   5.05056800
_cell_angle_alpha   90.00000000
_cell_angle_beta   90.00000000
_cell_angle_gamma   101.36386230
_symmetry_Int_Tables_number   1
_chemical_formula_structural   Ca6MnCrN6
_chemical_formula_sum   'Ca6 Mn1 Cr1 N6'
_cell_volume   218.93708643
_cell_formula_units_Z   1
loop_
 _symmetry_equiv_pos_site_id
 _symmetry_equiv_pos_as_xyz
  1  'x, y, z'
loop_
 _atom_site_type_symbol
 _atom_site_label
 _atom_site_symmetry_multiplicity
 _atom_site_fract_x
 _atom_site_fract_y
 _atom_site_fract_z
 _atom_site_occupancy
  Ca  Ca0  1  0.595299  0.831884  0.250000  1
  Ca  Ca1  1  0.892044  0.107956  0.750000  1
  Ca  Ca2  1  0.828425  0.596916  0.750000  1
  Ca  Ca3  1  0.105650  0.894350  0.250000  1
  Ca  Ca4  1  0.403084  0.171575  0.750000  1
  Ca  Ca5  1  0.168116  0.404701  0.250000  1
  Mn  Mn6  1  0.302343  0.697657  0.750000  1
  Cr  Cr7  1  0.695582  0.304418  0.250000  1
  N  N8  1  0.567693  0.815884  0.750000  1
  N  N9  1  0.874976  0.125024  0.250000  1
  N  N10  1  0.127630  0.872370  0.750000  1
  N  N11  1  0.819603  0.564560  0.250000  1
  N  N12  1  0.435440  0.180397  0.250000  1
  N  N13  1  0.184116  0.432307  0.750000  1
