# generated using pymatgen
data_Ho4Lu4VOs3C8
_symmetry_space_group_name_H-M   'P 1'
_cell_length_a   5.01324500
_cell_length_b   6.48854864
_cell_length_c   9.68090336
_cell_angle_alpha   89.88536953
_cell_angle_beta   90.00000000
_cell_angle_gamma   90.00000000
_symmetry_Int_Tables_number   1
_chemical_formula_structural   Ho4Lu4VOs3C8
_chemical_formula_sum   'Ho4 Lu4 V1 Os3 C8'
_cell_volume   314.90641634
_cell_formula_units_Z   1
loop_
 _symmetry_equiv_pos_site_id
 _symmetry_equiv_pos_as_xyz
  1  'x, y, z'
loop_
 _atom_site_type_symbol
 _atom_site_label
 _atom_site_symmetry_multiplicity
 _atom_site_fract_x
 _atom_site_fract_y
 _atom_site_fract_z
 _atom_site_occupancy
  Ho  Ho0  1  0.250000  0.534815  0.212613  1
  Ho  Ho1  1  0.750000  0.465369  0.782248  1
  Ho  Ho2  1  0.750000  0.972372  0.715228  1
  Ho  Ho3  1  0.250000  0.031490  0.283248  1
  Lu  Lu4  1  0.250000  0.678647  0.560964  1
  Lu  Lu5  1  0.750000  0.325084  0.442191  1
  Lu  Lu6  1  0.750000  0.823967  0.056487  1
  Lu  Lu7  1  0.250000  0.170447  0.940541  1
  V  V8  1  0.250000  0.722697  0.867400  1
  Os  Os9  1  0.750000  0.278396  0.133071  1
  Os  Os10  1  0.750000  0.778234  0.366439  1
  Os  Os11  1  0.250000  0.224526  0.633400  1
  C  C12  1  0.250000  0.457112  0.763699  1
  C  C13  1  0.750000  0.544641  0.241219  1
  C  C14  1  0.750000  0.044993  0.259934  1
  C  C15  1  0.250000  0.953366  0.740194  1
  C  C16  1  0.250000  0.824830  0.052044  1
  C  C17  1  0.750000  0.169164  0.949280  1
  C  C18  1  0.750000  0.671324  0.552112  1
  C  C19  1  0.250000  0.328527  0.447689  1
