# generated using pymatgen
data_Dy2Er5Co6Sn22Hg
_symmetry_space_group_name_H-M   'P 1'
_cell_length_a   9.65442357
_cell_length_b   9.66064786
_cell_length_c   9.99362904
_cell_angle_alpha   90.00000117
_cell_angle_beta   90.14705268
_cell_angle_gamma   120.02132542
_symmetry_Int_Tables_number   1
_chemical_formula_structural   Dy2Er5Co6Sn22Hg
_chemical_formula_sum   'Dy2 Er5 Co6 Sn22 Hg1'
_cell_volume   807.03279611
_cell_formula_units_Z   1
loop_
 _symmetry_equiv_pos_site_id
 _symmetry_equiv_pos_as_xyz
  1  'x, y, z'
loop_
 _atom_site_type_symbol
 _atom_site_label
 _atom_site_symmetry_multiplicity
 _atom_site_fract_x
 _atom_site_fract_y
 _atom_site_fract_z
 _atom_site_occupancy
  Dy  Dy0  1  0.000375  0.000187  0.000043  1
  Dy  Dy1  1  0.958979  0.479490  0.693160  1
  Er  Er2  1  0.479850  0.519991  0.306089  1
  Er  Er3  1  0.520348  0.480021  0.693665  1
  Er  Er4  1  0.479850  0.959859  0.306089  1
  Er  Er5  1  0.520348  0.040327  0.693665  1
  Er  Er6  1  0.039761  0.519880  0.306616  1
  Co  Co7  1  0.831492  0.168566  0.197581  1
  Co  Co8  1  0.168832  0.832043  0.802620  1
  Co  Co9  1  0.831492  0.662925  0.197581  1
  Co  Co10  1  0.168832  0.336789  0.802620  1
  Co  Co11  1  0.337077  0.168538  0.197722  1
  Co  Co12  1  0.662558  0.831280  0.802663  1
  Sn  Sn13  1  0.346672  0.000144  0.000179  1
  Sn  Sn14  1  0.653560  0.000077  0.000116  1
  Sn  Sn15  1  0.999978  0.346394  0.000078  1
  Sn  Sn16  1  0.999978  0.653584  0.000078  1
  Sn  Sn17  1  0.653560  0.653484  0.000116  1
  Sn  Sn18  1  0.346672  0.346527  0.000179  1
  Sn  Sn19  1  0.333443  0.666722  0.818741  1
  Sn  Sn20  1  0.666842  0.333421  0.181354  1
  Sn  Sn21  1  0.782052  0.216726  0.453723  1
  Sn  Sn22  1  0.218296  0.783265  0.545363  1
  Sn  Sn23  1  0.782052  0.565327  0.453723  1
  Sn  Sn24  1  0.218296  0.435030  0.545363  1
  Sn  Sn25  1  0.435243  0.217622  0.454177  1
  Sn  Sn26  1  0.564807  0.782403  0.545559  1
  Sn  Sn27  1  0.332965  0.666483  0.122398  1
  Sn  Sn28  1  0.665382  0.332690  0.878791  1
  Sn  Sn29  1  0.117073  0.882795  0.269758  1
  Sn  Sn30  1  0.882798  0.116622  0.730293  1
  Sn  Sn31  1  0.117073  0.234276  0.269758  1
  Sn  Sn32  1  0.882798  0.766176  0.730293  1
  Sn  Sn33  1  0.765709  0.882854  0.269562  1
  Sn  Sn34  1  0.234825  0.117413  0.730446  1
  Hg  Hg35  1  0.000135  0.000068  0.499835  1
