# generated using pymatgen
data_Tb5Sn2Ir
_symmetry_space_group_name_H-M   'P 1'
_cell_length_a   7.84053700
_cell_length_b   9.09454800
_cell_length_c   12.28775200
_cell_angle_alpha   90.00000000
_cell_angle_beta   90.00000000
_cell_angle_gamma   90.00000000
_symmetry_Int_Tables_number   1
_chemical_formula_structural   Tb5Sn2Ir
_chemical_formula_sum   'Tb20 Sn8 Ir4'
_cell_volume   876.19216553
_cell_formula_units_Z   4
loop_
 _symmetry_equiv_pos_site_id
 _symmetry_equiv_pos_as_xyz
  1  'x, y, z'
loop_
 _atom_site_type_symbol
 _atom_site_label
 _atom_site_symmetry_multiplicity
 _atom_site_fract_x
 _atom_site_fract_y
 _atom_site_fract_z
 _atom_site_occupancy
  Tb  Tb0  1  0.844409  0.750000  0.785092  1
  Tb  Tb1  1  0.155591  0.250000  0.214908  1
  Tb  Tb2  1  0.344409  0.250000  0.714908  1
  Tb  Tb3  1  0.655591  0.750000  0.285092  1
  Tb  Tb4  1  0.374830  0.750000  0.699005  1
  Tb  Tb5  1  0.625170  0.250000  0.300995  1
  Tb  Tb6  1  0.874830  0.250000  0.800995  1
  Tb  Tb7  1  0.125170  0.750000  0.199005  1
  Tb  Tb8  1  0.955772  0.750000  0.502374  1
  Tb  Tb9  1  0.044228  0.250000  0.497626  1
  Tb  Tb10  1  0.455772  0.250000  0.997626  1
  Tb  Tb11  1  0.544228  0.750000  0.002374  1
  Tb  Tb12  1  0.680170  0.036296  0.571140  1
  Tb  Tb13  1  0.319830  0.963704  0.428860  1
  Tb  Tb14  1  0.180170  0.963704  0.928860  1
  Tb  Tb15  1  0.319830  0.536296  0.428860  1
  Tb  Tb16  1  0.819830  0.036296  0.071140  1
  Tb  Tb17  1  0.680170  0.463704  0.571140  1
  Tb  Tb18  1  0.819830  0.463704  0.071140  1
  Tb  Tb19  1  0.180170  0.536296  0.928860  1
  Sn  Sn20  1  0.575057  0.494631  0.830624  1
  Sn  Sn21  1  0.424943  0.505369  0.169376  1
  Sn  Sn22  1  0.075057  0.505369  0.669376  1
  Sn  Sn23  1  0.424943  0.994631  0.169376  1
  Sn  Sn24  1  0.924943  0.494631  0.330624  1
  Sn  Sn25  1  0.575057  0.005369  0.830624  1
  Sn  Sn26  1  0.924943  0.005369  0.330624  1
  Sn  Sn27  1  0.075057  0.994631  0.669376  1
  Ir  Ir28  1  0.573550  0.750000  0.508586  1
  Ir  Ir29  1  0.426450  0.250000  0.491414  1
  Ir  Ir30  1  0.073550  0.250000  0.991414  1
  Ir  Ir31  1  0.926450  0.750000  0.008586  1
