# generated using pymatgen
data_LiB12Ru12W11
_symmetry_space_group_name_H-M   'P 1'
_cell_length_a   2.99142900
_cell_length_b   9.01408538
_cell_length_c   15.78391900
_cell_angle_alpha   89.91305918
_cell_angle_beta   90.00000000
_cell_angle_gamma   90.00000000
_symmetry_Int_Tables_number   1
_chemical_formula_structural   LiB12Ru12W11
_chemical_formula_sum   'Li1 B12 Ru12 W11'
_cell_volume   425.61282913
_cell_formula_units_Z   1
loop_
 _symmetry_equiv_pos_site_id
 _symmetry_equiv_pos_as_xyz
  1  'x, y, z'
loop_
 _atom_site_type_symbol
 _atom_site_label
 _atom_site_symmetry_multiplicity
 _atom_site_fract_x
 _atom_site_fract_y
 _atom_site_fract_z
 _atom_site_occupancy
  Li  Li0  1  0.000000  0.803930  0.702196  1
  B  B1  1  0.500000  0.598631  0.495676  1
  B  B2  1  0.500000  0.390279  0.505790  1
  B  B3  1  0.500000  0.104665  0.004246  1
  B  B4  1  0.500000  0.897573  0.996013  1
  B  B5  1  0.000000  0.608637  0.828029  1
  B  B6  1  0.000000  0.400280  0.167234  1
  B  B7  1  0.000000  0.090166  0.668038  1
  B  B8  1  0.000000  0.896925  0.331592  1
  B  B9  1  0.500000  0.709226  0.594153  1
  B  B10  1  0.500000  0.280580  0.407360  1
  B  B11  1  0.500000  0.214596  0.902695  1
  B  B12  1  0.500000  0.785555  0.093472  1
  Ru  Ru13  1  0.500000  0.723181  0.346544  1
  Ru  Ru14  1  0.500000  0.272839  0.649548  1
  Ru  Ru15  1  0.500000  0.225359  0.151820  1
  Ru  Ru16  1  0.500000  0.777411  0.854535  1
  Ru  Ru17  1  0.500000  0.518400  0.086740  1
  Ru  Ru18  1  0.500000  0.482245  0.909597  1
  Ru  Ru19  1  0.500000  0.015631  0.411241  1
  Ru  Ru20  1  0.500000  0.976839  0.589815  1
  Ru  Ru21  1  0.500000  0.541789  0.736366  1
  Ru  Ru22  1  0.500000  0.466317  0.260032  1
  Ru  Ru23  1  0.500000  0.054550  0.766976  1
  Ru  Ru24  1  0.500000  0.967137  0.238870  1
  W  W25  1  0.000000  0.786609  0.492220  1
  W  W26  1  0.000000  0.198757  0.510850  1
  W  W27  1  0.000000  0.292163  0.006499  1
  W  W28  1  0.000000  0.708884  0.990376  1
  W  W29  1  0.000000  0.510565  0.592737  1
  W  W30  1  0.000000  0.479298  0.408492  1
  W  W31  1  0.000000  0.015381  0.907694  1
  W  W32  1  0.000000  0.984452  0.092115  1
  W  W33  1  0.000000  0.709330  0.193864  1
  W  W34  1  0.000000  0.301738  0.801123  1
  W  W35  1  0.000000  0.210080  0.305452  1
