# generated using pymatgen
data_LiPa3(Al8Pt3)3
_symmetry_space_group_name_H-M   'P 1'
_cell_length_a   7.56310377
_cell_length_b   7.56893682
_cell_length_c   13.08405488
_cell_angle_alpha   84.48589819
_cell_angle_beta   78.93943287
_cell_angle_gamma   59.88409082
_symmetry_Int_Tables_number   1
_chemical_formula_structural   LiPa3(Al8Pt3)3
_chemical_formula_sum   'Li1 Pa3 Al24 Pt9'
_cell_volume   635.85277904
_cell_formula_units_Z   1
loop_
 _symmetry_equiv_pos_site_id
 _symmetry_equiv_pos_as_xyz
  1  'x, y, z'
loop_
 _atom_site_type_symbol
 _atom_site_label
 _atom_site_symmetry_multiplicity
 _atom_site_fract_x
 _atom_site_fract_y
 _atom_site_fract_z
 _atom_site_occupancy
  Li  Li0  1  0.399591  0.170323  0.788279  1
  Pa  Pa1  1  0.605411  0.833540  0.192353  1
  Pa  Pa2  1  0.733275  0.499502  0.804637  1
  Pa  Pa3  1  0.266114  0.500258  0.192521  1
  Al  Al4  1  0.675330  0.842451  0.938550  1
  Al  Al5  1  0.315746  0.166173  0.048310  1
  Al  Al6  1  0.145161  0.833248  0.565165  1
  Al  Al7  1  0.852808  0.165077  0.441669  1
  Al  Al8  1  0.479952  0.166941  0.562243  1
  Al  Al9  1  0.517368  0.834499  0.443474  1
  Al  Al10  1  0.213834  0.166027  0.331922  1
  Al  Al11  1  0.775116  0.843808  0.675181  1
  Al  Al12  1  0.432747  0.499939  0.675298  1
  Al  Al13  1  0.564166  0.491524  0.331073  1
  Al  Al14  1  0.117916  0.156450  0.674413  1
  Al  Al15  1  0.889833  0.842800  0.332177  1
  Al  Al16  1  0.355889  0.488547  0.938929  1
  Al  Al17  1  0.650139  0.497438  0.054026  1
  Al  Al18  1  0.025636  0.170619  0.943995  1
  Al  Al19  1  0.986615  0.834567  0.041723  1
  Al  Al20  1  0.186669  0.500705  0.443246  1
  Al  Al21  1  0.814056  0.499611  0.559157  1
  Al  Al22  1  0.738137  0.162872  0.183316  1
  Al  Al23  1  0.269500  0.831661  0.819249  1
  Al  Al24  1  0.055826  0.630601  0.817840  1
  Al  Al25  1  0.940992  0.365450  0.184393  1
  Al  Al26  1  0.855077  0.045405  0.818844  1
  Al  Al27  1  0.143272  0.959807  0.183624  1
  Pt  Pt28  1  0.116491  0.493898  0.640470  1
  Pt  Pt29  1  0.879043  0.510316  0.360482  1
  Pt  Pt30  1  0.657953  0.170327  0.002994  1
  Pt  Pt31  1  0.342438  0.823704  0.003289  1
  Pt  Pt32  1  0.536257  0.167477  0.360755  1
  Pt  Pt33  1  0.463710  0.828868  0.640752  1
  Pt  Pt34  1  0.781536  0.176031  0.639623  1
  Pt  Pt35  1  0.221511  0.824723  0.362683  1
  Pt  Pt36  1  0.994889  0.504810  0.003346  1
