# generated using pymatgen
data_TmTh11(GePd)12
_symmetry_space_group_name_H-M   'P 1'
_cell_length_a   4.43069900
_cell_length_b   7.65318380
_cell_length_c   23.15479300
_cell_angle_alpha   89.93584792
_cell_angle_beta   90.00000000
_cell_angle_gamma   90.00000000
_symmetry_Int_Tables_number   1
_chemical_formula_structural   TmTh11(GePd)12
_chemical_formula_sum   'Tm1 Th11 Ge12 Pd12'
_cell_volume   785.15431386
_cell_formula_units_Z   1
loop_
 _symmetry_equiv_pos_site_id
 _symmetry_equiv_pos_as_xyz
  1  'x, y, z'
loop_
 _atom_site_type_symbol
 _atom_site_label
 _atom_site_symmetry_multiplicity
 _atom_site_fract_x
 _atom_site_fract_y
 _atom_site_fract_z
 _atom_site_occupancy
  Tm  Tm0  1  0.250000  0.749298  0.500163  1
  Th  Th1  1  0.250000  0.750363  0.336537  1
  Th  Th2  1  0.750000  0.249121  0.664545  1
  Th  Th3  1  0.750000  0.251487  0.167199  1
  Th  Th4  1  0.250000  0.748865  0.832687  1
  Th  Th5  1  0.250000  0.750764  0.167169  1
  Th  Th6  1  0.750000  0.250243  0.832576  1
  Th  Th7  1  0.750000  0.250249  0.335314  1
  Th  Th8  1  0.250000  0.749227  0.663521  1
  Th  Th9  1  0.250000  0.751182  0.999817  1
  Th  Th10  1  0.750000  0.249991  0.999867  1
  Th  Th11  1  0.750000  0.248983  0.500005  1
  Ge  Ge12  1  0.250000  0.084459  0.079844  1
  Ge  Ge13  1  0.750000  0.916736  0.920491  1
  Ge  Ge14  1  0.750000  0.586905  0.418755  1
  Ge  Ge15  1  0.250000  0.418489  0.583530  1
  Ge  Ge16  1  0.250000  0.084225  0.249198  1
  Ge  Ge17  1  0.750000  0.915286  0.752526  1
  Ge  Ge18  1  0.750000  0.584970  0.248699  1
  Ge  Ge19  1  0.250000  0.415832  0.751275  1
  Ge  Ge20  1  0.250000  0.080294  0.417870  1
  Ge  Ge21  1  0.750000  0.912166  0.583060  1
  Ge  Ge22  1  0.750000  0.584432  0.079488  1
  Ge  Ge23  1  0.250000  0.416351  0.920675  1
  Pd  Pd24  1  0.250000  0.417876  0.253352  1
  Pd  Pd25  1  0.750000  0.582118  0.746617  1
  Pd  Pd26  1  0.750000  0.918111  0.252471  1
  Pd  Pd27  1  0.250000  0.082188  0.746342  1
  Pd  Pd28  1  0.250000  0.417602  0.421125  1
  Pd  Pd29  1  0.750000  0.581548  0.577215  1
  Pd  Pd30  1  0.750000  0.917900  0.086643  1
  Pd  Pd31  1  0.250000  0.082837  0.912702  1
  Pd  Pd32  1  0.250000  0.418180  0.086567  1
  Pd  Pd33  1  0.750000  0.583031  0.913654  1
  Pd  Pd34  1  0.750000  0.917333  0.420967  1
  Pd  Pd35  1  0.250000  0.081361  0.577534  1
