# generated using pymatgen
data_Tm20Ir7Ru4Pt
_symmetry_space_group_name_H-M   'P 1'
_cell_length_a   10.69984975
_cell_length_b   10.69984975
_cell_length_c   6.36835893
_cell_angle_alpha   90.08991487
_cell_angle_beta   90.08991487
_cell_angle_gamma   89.87395524
_symmetry_Int_Tables_number   1
_chemical_formula_structural   Tm20Ir7Ru4Pt
_chemical_formula_sum   'Tm20 Ir7 Ru4 Pt1'
_cell_volume   729.08938143
_cell_formula_units_Z   1
loop_
 _symmetry_equiv_pos_site_id
 _symmetry_equiv_pos_as_xyz
  1  'x, y, z'
loop_
 _atom_site_type_symbol
 _atom_site_label
 _atom_site_symmetry_multiplicity
 _atom_site_fract_x
 _atom_site_fract_y
 _atom_site_fract_z
 _atom_site_occupancy
  Tm  Tm0  1  0.292716  0.085799  0.376298  1
  Tm  Tm1  1  0.293744  0.913913  0.876231  1
  Tm  Tm2  1  0.704458  0.084653  0.871693  1
  Tm  Tm3  1  0.705059  0.910848  0.378647  1
  Tm  Tm4  1  0.585925  0.793147  0.876625  1
  Tm  Tm5  1  0.582514  0.206828  0.376686  1
  Tm  Tm6  1  0.413430  0.793011  0.376849  1
  Tm  Tm7  1  0.413585  0.206836  0.877196  1
  Tm  Tm8  1  0.206853  0.414075  0.623375  1
  Tm  Tm9  1  0.206989  0.586570  0.123151  1
  Tm  Tm10  1  0.793172  0.417486  0.123314  1
  Tm  Tm11  1  0.793164  0.586415  0.622804  1
  Tm  Tm12  1  0.914201  0.707284  0.123702  1
  Tm  Tm13  1  0.915347  0.295542  0.628307  1
  Tm  Tm14  1  0.086087  0.706256  0.623769  1
  Tm  Tm15  1  0.089152  0.294941  0.121353  1
  Tm  Tm16  1  0.001305  0.998098  0.501534  1
  Tm  Tm17  1  0.001902  0.998695  0.998466  1
  Tm  Tm18  1  0.499837  0.500014  0.999876  1
  Tm  Tm19  1  0.499986  0.500163  0.500124  1
  Ir  Ir20  1  0.847666  0.848156  0.750347  1
  Ir  Ir21  1  0.151844  0.152334  0.749653  1
  Ir  Ir22  1  0.152497  0.847503  0.250000  1
  Ir  Ir23  1  0.653332  0.346668  0.750000  1
  Ir  Ir24  1  0.652639  0.652546  0.249917  1
  Ir  Ir25  1  0.347454  0.347361  0.250083  1
  Ir  Ir26  1  0.347385  0.652615  0.750000  1
  Ru  Ru27  1  0.500211  0.999925  0.124600  1
  Ru  Ru28  1  0.500241  0.999836  0.623798  1
  Ru  Ru29  1  0.000164  0.499759  0.876202  1
  Ru  Ru30  1  0.000075  0.499789  0.375400  1
  Pt  Pt31  1  0.847067  0.152933  0.250000  1
