# generated using pymatgen
data_ErLu2Al3Ga2Pd
_symmetry_space_group_name_H-M   'P 1'
_cell_length_a   6.87250910
_cell_length_b   6.87250833
_cell_length_c   4.29267800
_cell_angle_alpha   90.00000000
_cell_angle_beta   90.00000000
_cell_angle_gamma   120.19338083
_symmetry_Int_Tables_number   1
_chemical_formula_structural   ErLu2Al3Ga2Pd
_chemical_formula_sum   'Er1 Lu2 Al3 Ga2 Pd1'
_cell_volume   175.24270948
_cell_formula_units_Z   1
loop_
 _symmetry_equiv_pos_site_id
 _symmetry_equiv_pos_as_xyz
  1  'x, y, z'
loop_
 _atom_site_type_symbol
 _atom_site_label
 _atom_site_symmetry_multiplicity
 _atom_site_fract_x
 _atom_site_fract_y
 _atom_site_fract_z
 _atom_site_occupancy
  Er  Er0  1  0.579724  0.579724  0.500000  1
  Lu  Lu1  1  0.419178  0.999551  0.500000  1
  Lu  Lu2  1  0.999551  0.419178  0.500000  1
  Al  Al3  1  0.761817  0.999660  0.000000  1
  Al  Al4  1  0.999660  0.761817  0.000000  1
  Al  Al5  1  0.237370  0.237370  0.000000  1
  Ga  Ga6  1  0.332042  0.667162  0.000000  1
  Ga  Ga7  1  0.667162  0.332042  0.000000  1
  Pd  Pd8  1  0.003497  0.003497  0.500000  1
