# generated using pymatgen
data_Lu4B12OsW
_symmetry_space_group_name_H-M   'P 1'
_cell_length_a   3.57227300
_cell_length_b   9.11720905
_cell_length_c   11.49939164
_cell_angle_alpha   89.82999576
_cell_angle_beta   90.00000000
_cell_angle_gamma   90.00000000
_symmetry_Int_Tables_number   1
_chemical_formula_structural   Lu4B12OsW
_chemical_formula_sum   'Lu8 B24 Os2 W2'
_cell_volume   374.52387422
_cell_formula_units_Z   2
loop_
 _symmetry_equiv_pos_site_id
 _symmetry_equiv_pos_as_xyz
  1  'x, y, z'
loop_
 _atom_site_type_symbol
 _atom_site_label
 _atom_site_symmetry_multiplicity
 _atom_site_fract_x
 _atom_site_fract_y
 _atom_site_fract_z
 _atom_site_occupancy
  Lu  Lu0  1  0.000000  0.321544  0.413967  1
  Lu  Lu1  1  0.000000  0.678456  0.586033  1
  Lu  Lu2  1  0.000000  0.820762  0.086537  1
  Lu  Lu3  1  0.000000  0.179238  0.913463  1
  Lu  Lu4  1  0.000000  0.945210  0.371838  1
  Lu  Lu5  1  0.000000  0.054790  0.628162  1
  Lu  Lu6  1  0.000000  0.442876  0.127108  1
  Lu  Lu7  1  0.000000  0.557124  0.872892  1
  B  B8  1  0.500000  0.551013  0.434917  1
  B  B9  1  0.500000  0.448987  0.565083  1
  B  B10  1  0.500000  0.053834  0.065847  1
  B  B11  1  0.500000  0.946166  0.934153  1
  B  B12  1  0.500000  0.752265  0.422184  1
  B  B13  1  0.500000  0.247735  0.577816  1
  B  B14  1  0.500000  0.249568  0.079990  1
  B  B15  1  0.500000  0.750432  0.920010  1
  B  B16  1  0.500000  0.796828  0.262455  1
  B  B17  1  0.500000  0.203172  0.737544  1
  B  B18  1  0.500000  0.291058  0.233750  1
  B  B19  1  0.500000  0.708942  0.766251  1
  B  B20  1  0.500000  0.631618  0.180935  1
  B  B21  1  0.500000  0.368382  0.819065  1
  B  B22  1  0.500000  0.130238  0.314191  1
  B  B23  1  0.500000  0.869762  0.685809  1
  B  B24  1  0.500000  0.982245  0.211514  1
  B  B25  1  0.500000  0.017755  0.788486  1
  B  B26  1  0.500000  0.476539  0.286040  1
  B  B27  1  0.500000  0.523461  0.713960  1
  B  B28  1  0.500000  0.602925  0.027411  1
  B  B29  1  0.500000  0.397075  0.972589  1
  B  B30  1  0.500000  0.102209  0.470793  1
  B  B31  1  0.500000  0.897791  0.529207  1
  Os  Os32  1  0.000000  0.137902  0.177858  1
  Os  Os33  1  0.000000  0.862098  0.822142  1
  W  W34  1  0.000000  0.639070  0.319307  1
  W  W35  1  0.000000  0.360930  0.680693  1
