# generated using pymatgen
data_Tb3Dy2Er3(CdIr)2
_symmetry_space_group_name_H-M   'P 1'
_cell_length_a   9.61344784
_cell_length_b   9.61344754
_cell_length_c   9.61344900
_cell_angle_alpha   59.99999842
_cell_angle_beta   59.99999945
_cell_angle_gamma   60.00000059
_symmetry_Int_Tables_number   1
_chemical_formula_structural   Tb3Dy2Er3(CdIr)2
_chemical_formula_sum   'Tb6 Dy4 Er6 Cd4 Ir4'
_cell_volume   628.23562315
_cell_formula_units_Z   2
loop_
 _symmetry_equiv_pos_site_id
 _symmetry_equiv_pos_as_xyz
  1  'x, y, z'
loop_
 _atom_site_type_symbol
 _atom_site_label
 _atom_site_symmetry_multiplicity
 _atom_site_fract_x
 _atom_site_fract_y
 _atom_site_fract_z
 _atom_site_occupancy
  Tb  Tb0  1  0.188348  0.811652  0.811652  1
  Tb  Tb1  1  0.811652  0.188348  0.188348  1
  Tb  Tb2  1  0.811652  0.188348  0.811652  1
  Tb  Tb3  1  0.188348  0.811652  0.188348  1
  Tb  Tb4  1  0.811652  0.811652  0.188348  1
  Tb  Tb5  1  0.188348  0.188348  0.811652  1
  Dy  Dy6  1  0.599216  0.599216  0.599216  1
  Dy  Dy7  1  0.599216  0.599216  0.202354  1
  Dy  Dy8  1  0.599216  0.202354  0.599216  1
  Dy  Dy9  1  0.202354  0.599216  0.599216  1
  Er  Er10  1  0.061670  0.438330  0.438330  1
  Er  Er11  1  0.438330  0.061670  0.061670  1
  Er  Er12  1  0.438330  0.061670  0.438330  1
  Er  Er13  1  0.061670  0.438330  0.061670  1
  Er  Er14  1  0.438330  0.438330  0.061670  1
  Er  Er15  1  0.061670  0.061670  0.438330  1
  Cd  Cd16  1  0.830728  0.830728  0.830728  1
  Cd  Cd17  1  0.830728  0.830728  0.507818  1
  Cd  Cd18  1  0.830728  0.507818  0.830728  1
  Cd  Cd19  1  0.507818  0.830728  0.830728  1
  Ir  Ir20  1  0.391341  0.391341  0.391341  1
  Ir  Ir21  1  0.391341  0.391341  0.825976  1
  Ir  Ir22  1  0.391341  0.825976  0.391341  1
  Ir  Ir23  1  0.825976  0.391341  0.391341  1
