# generated using pymatgen
data_Tm2Th(AlNi)3
_symmetry_space_group_name_H-M   'P 1'
_cell_length_a   7.01632957
_cell_length_b   7.12981086
_cell_length_c   3.83108000
_cell_angle_alpha   90.00000000
_cell_angle_beta   90.00000000
_cell_angle_gamma   120.53649071
_symmetry_Int_Tables_number   1
_chemical_formula_structural   Tm2Th(AlNi)3
_chemical_formula_sum   'Tm2 Th1 Al3 Ni3'
_cell_volume   165.06939276
_cell_formula_units_Z   1
loop_
 _symmetry_equiv_pos_site_id
 _symmetry_equiv_pos_as_xyz
  1  'x, y, z'
loop_
 _atom_site_type_symbol
 _atom_site_label
 _atom_site_symmetry_multiplicity
 _atom_site_fract_x
 _atom_site_fract_y
 _atom_site_fract_z
 _atom_site_occupancy
  Tm  Tm0  1  0.583939  0.583350  0.500000  1
  Tm  Tm1  1  0.416061  0.999412  0.500000  1
  Th  Th2  1  0.000000  0.422646  0.500000  1
  Al  Al3  1  0.000000  0.775041  0.000000  1
  Al  Al4  1  0.246203  0.235448  0.000000  1
  Al  Al5  1  0.753797  0.989245  0.000000  1
  Ni  Ni6  1  0.326750  0.658996  0.000000  1
  Ni  Ni7  1  0.673250  0.332246  0.000000  1
  Ni  Ni8  1  0.000000  0.003616  0.500000  1
