# generated using pymatgen
data_Tb9DyB2I15
_symmetry_space_group_name_H-M   'P 1'
_cell_length_a   9.65187446
_cell_length_b   10.39436490
_cell_length_c   11.34586848
_cell_angle_alpha   91.75323110
_cell_angle_beta   114.41558478
_cell_angle_gamma   110.43303959
_symmetry_Int_Tables_number   1
_chemical_formula_structural   Tb9DyB2I15
_chemical_formula_sum   'Tb9 Dy1 B2 I15'
_cell_volume   950.64359303
_cell_formula_units_Z   1
loop_
 _symmetry_equiv_pos_site_id
 _symmetry_equiv_pos_as_xyz
  1  'x, y, z'
loop_
 _atom_site_type_symbol
 _atom_site_label
 _atom_site_symmetry_multiplicity
 _atom_site_fract_x
 _atom_site_fract_y
 _atom_site_fract_z
 _atom_site_occupancy
  Tb  Tb0  1  0.784853  0.393878  0.268012  1
  Tb  Tb1  1  0.215078  0.606065  0.731963  1
  Tb  Tb2  1  0.663495  0.751974  0.825394  1
  Tb  Tb3  1  0.336403  0.248039  0.174609  1
  Tb  Tb4  1  0.523164  0.712547  0.086014  1
  Tb  Tb5  1  0.476737  0.287416  0.913965  1
  Tb  Tb6  1  0.580599  0.043575  0.309332  1
  Tb  Tb7  1  0.419332  0.956405  0.690651  1
  Tb  Tb8  1  0.708102  0.070112  0.045684  1
  Dy  Dy9  1  0.292524  0.930036  0.954417  1
  B  B10  1  0.468286  0.822920  0.880104  1
  B  B11  1  0.531178  0.176892  0.119775  1
  I  I12  1  0.000128  0.999941  0.999960  1
  I  I13  1  0.638635  0.882449  0.582915  1
  I  I14  1  0.361364  0.117543  0.417089  1
  I  I15  1  0.884787  0.299220  0.531191  1
  I  I16  1  0.115204  0.700776  0.468800  1
  I  I17  1  0.284385  0.760123  0.177327  1
  I  I18  1  0.715504  0.240003  0.822437  1
  I  I19  1  0.054945  0.340251  0.225680  1
  I  I20  1  0.159898  0.055863  0.702068  1
  I  I21  1  0.840106  0.943984  0.298142  1
  I  I22  1  0.227997  0.409772  0.942012  1
  I  I23  1  0.772000  0.590228  0.057987  1
  I  I24  1  0.409732  0.459480  0.659803  1
  I  I25  1  0.590272  0.540523  0.340196  1
  I  I26  1  0.945295  0.659982  0.774476  1
