# generated using pymatgen
data_Hf3Sc(Co3Os)2
_symmetry_space_group_name_H-M   'P 1'
_cell_length_a   4.90410500
_cell_length_b   4.90410431
_cell_length_c   8.19612800
_cell_angle_alpha   90.00000000
_cell_angle_beta   90.00000000
_cell_angle_gamma   119.99999794
_symmetry_Int_Tables_number   1
_chemical_formula_structural   Hf3Sc(Co3Os)2
_chemical_formula_sum   'Hf3 Sc1 Co6 Os2'
_cell_volume   170.70994866
_cell_formula_units_Z   1
loop_
 _symmetry_equiv_pos_site_id
 _symmetry_equiv_pos_as_xyz
  1  'x, y, z'
loop_
 _atom_site_type_symbol
 _atom_site_label
 _atom_site_symmetry_multiplicity
 _atom_site_fract_x
 _atom_site_fract_y
 _atom_site_fract_z
 _atom_site_occupancy
  Hf  Hf0  1  0.666667  0.333333  0.563682  1
  Hf  Hf1  1  0.666667  0.333333  0.930456  1
  Hf  Hf2  1  0.333333  0.666667  0.070173  1
  Sc  Sc3  1  0.333333  0.666667  0.434068  1
  Co  Co4  1  0.828440  0.171560  0.249611  1
  Co  Co5  1  0.828440  0.656881  0.249611  1
  Co  Co6  1  0.343119  0.171560  0.249611  1
  Co  Co7  1  0.171271  0.828729  0.750726  1
  Co  Co8  1  0.171271  0.342543  0.750726  1
  Co  Co9  1  0.657457  0.828729  0.750726  1
  Os  Os10  1  0.000000  0.000000  0.500108  1
  Os  Os11  1  0.000000  0.000000  0.000501  1
