# generated using pymatgen
data_LaNd11(IrI3)4
_symmetry_space_group_name_H-M   'P 1'
_cell_length_a   10.87398001
_cell_length_b   10.87397987
_cell_length_c   10.92291533
_cell_angle_alpha   109.74282129
_cell_angle_beta   109.74282060
_cell_angle_gamma   109.02174180
_symmetry_Int_Tables_number   1
_chemical_formula_structural   LaNd11(IrI3)4
_chemical_formula_sum   'La1 Nd11 Ir4 I12'
_cell_volume   993.05483124
_cell_formula_units_Z   1
loop_
 _symmetry_equiv_pos_site_id
 _symmetry_equiv_pos_as_xyz
  1  'x, y, z'
loop_
 _atom_site_type_symbol
 _atom_site_label
 _atom_site_symmetry_multiplicity
 _atom_site_fract_x
 _atom_site_fract_y
 _atom_site_fract_z
 _atom_site_occupancy
  La  La0  1  0.225353  0.274647  0.750000  1
  Nd  Nd1  1  0.455834  0.475786  0.229305  1
  Nd  Nd2  1  0.755072  0.228954  0.276539  1
  Nd  Nd3  1  0.745924  0.019670  0.475751  1
  Nd  Nd4  1  0.228726  0.456416  0.476704  1
  Nd  Nd5  1  0.271046  0.744928  0.223461  1
  Nd  Nd6  1  0.043584  0.271274  0.023296  1
  Nd  Nd7  1  0.024214  0.044166  0.270695  1
  Nd  Nd8  1  0.480330  0.754076  0.024249  1
  Nd  Nd9  1  0.478485  0.227251  0.455731  1
  Nd  Nd10  1  0.020298  0.479702  0.750000  1
  Nd  Nd11  1  0.272749  0.021515  0.044269  1
  Ir  Ir12  1  0.250145  0.249855  0.250000  1
  Ir  Ir13  1  0.500074  0.999926  0.250000  1
  Ir  Ir14  1  0.000851  0.250378  0.501779  1
  Ir  Ir15  1  0.249622  0.499149  0.998221  1
  I  I16  1  0.249507  0.757633  0.742282  1
  I  I17  1  0.517270  0.511893  0.757570  1
  I  I18  1  0.983901  0.742316  0.991595  1
  I  I19  1  0.742367  0.250493  0.757718  1
  I  I20  1  0.988107  0.982730  0.742430  1
  I  I21  1  0.250560  0.991231  0.505254  1
  I  I22  1  0.757684  0.516099  0.508405  1
  I  I23  1  0.508769  0.249440  0.994746  1
  I  I24  1  0.758083  0.741917  0.250000  1
  I  I25  1  0.741979  0.992079  0.983808  1
  I  I26  1  0.991548  0.508452  0.250000  1
  I  I27  1  0.507921  0.758021  0.516192  1
