# generated using pymatgen
data_Zr2(CdIn)3
_symmetry_space_group_name_H-M   'P 1'
_cell_length_a   4.36519700
_cell_length_b   4.44416100
_cell_length_c   9.02821900
_cell_angle_alpha   90.00000000
_cell_angle_beta   90.00000000
_cell_angle_gamma   90.00000000
_symmetry_Int_Tables_number   1
_chemical_formula_structural   Zr2(CdIn)3
_chemical_formula_sum   'Zr2 Cd3 In3'
_cell_volume   175.14418277
_cell_formula_units_Z   1
loop_
 _symmetry_equiv_pos_site_id
 _symmetry_equiv_pos_as_xyz
  1  'x, y, z'
loop_
 _atom_site_type_symbol
 _atom_site_label
 _atom_site_symmetry_multiplicity
 _atom_site_fract_x
 _atom_site_fract_y
 _atom_site_fract_z
 _atom_site_occupancy
  Zr  Zr0  1  0.000000  0.000000  0.754550  1
  Zr  Zr1  1  0.000000  0.000000  0.245450  1
  Cd  Cd2  1  0.500000  0.000000  0.500000  1
  Cd  Cd3  1  0.000000  0.500000  0.000000  1
  Cd  Cd4  1  0.000000  0.500000  0.500000  1
  In  In5  1  0.500000  0.500000  0.743644  1
  In  In6  1  0.500000  0.500000  0.256356  1
  In  In7  1  0.500000  0.000000  0.000000  1
