# generated using pymatgen
data_Ba8TcIr3O20
_symmetry_space_group_name_H-M   'P 1'
_cell_length_a   5.78184200
_cell_length_b   7.47039058
_cell_length_c   11.69380254
_cell_angle_alpha   90.44683107
_cell_angle_beta   90.00000000
_cell_angle_gamma   90.00000000
_symmetry_Int_Tables_number   1
_chemical_formula_structural   Ba8TcIr3O20
_chemical_formula_sum   'Ba8 Tc1 Ir3 O20'
_cell_volume   505.07058667
_cell_formula_units_Z   1
loop_
 _symmetry_equiv_pos_site_id
 _symmetry_equiv_pos_as_xyz
  1  'x, y, z'
loop_
 _atom_site_type_symbol
 _atom_site_label
 _atom_site_symmetry_multiplicity
 _atom_site_fract_x
 _atom_site_fract_y
 _atom_site_fract_z
 _atom_site_occupancy
  Ba  Ba0  1  0.750000  0.163887  0.575941  1
  Ba  Ba1  1  0.250000  0.834385  0.420288  1
  Ba  Ba2  1  0.750000  0.678605  0.919928  1
  Ba  Ba3  1  0.250000  0.338915  0.083438  1
  Ba  Ba4  1  0.250000  0.017490  0.786152  1
  Ba  Ba5  1  0.750000  0.970345  0.211004  1
  Ba  Ba6  1  0.250000  0.526255  0.707977  1
  Ba  Ba7  1  0.750000  0.477107  0.292159  1
  Tc  Tc8  1  0.750000  0.178474  0.935572  1
  Ir  Ir9  1  0.250000  0.328021  0.438267  1
  Ir  Ir10  1  0.750000  0.671179  0.563563  1
  Ir  Ir11  1  0.250000  0.832084  0.059950  1
  O  O12  1  0.491154  0.675289  0.113125  1
  O  O13  1  0.984271  0.324010  0.885431  1
  O  O14  1  0.007740  0.175211  0.384199  1
  O  O15  1  0.508750  0.825716  0.618082  1
  O  O16  1  0.515729  0.324010  0.885431  1
  O  O17  1  0.008846  0.675289  0.113125  1
  O  O18  1  0.991250  0.825716  0.618082  1
  O  O19  1  0.492260  0.175211  0.384199  1
  O  O20  1  0.750000  0.272270  0.087622  1
  O  O21  1  0.250000  0.713704  0.906185  1
  O  O22  1  0.750000  0.786447  0.410780  1
  O  O23  1  0.250000  0.213113  0.591577  1
  O  O24  1  0.999492  0.500096  0.500116  1
  O  O25  1  0.500508  0.500096  0.500116  1
  O  O26  1  0.497193  0.002135  0.998698  1
  O  O27  1  0.002807  0.002135  0.998698  1
  O  O28  1  0.250000  0.467275  0.301528  1
  O  O29  1  0.750000  0.529576  0.699417  1
  O  O30  1  0.250000  0.970861  0.197923  1
  O  O31  1  0.750000  0.025090  0.811428  1
