# generated using pymatgen
data_Y2LuTa3(B2Ru5)2
_symmetry_space_group_name_H-M   'P 1'
_cell_length_a   9.59515799
_cell_length_b   9.59515792
_cell_length_c   3.11697000
_cell_angle_alpha   90.00000000
_cell_angle_beta   90.00000000
_cell_angle_gamma   90.55998801
_symmetry_Int_Tables_number   1
_chemical_formula_structural   Y2LuTa3(B2Ru5)2
_chemical_formula_sum   'Y2 Lu1 Ta3 B4 Ru10'
_cell_volume   286.95654600
_cell_formula_units_Z   1
loop_
 _symmetry_equiv_pos_site_id
 _symmetry_equiv_pos_as_xyz
  1  'x, y, z'
loop_
 _atom_site_type_symbol
 _atom_site_label
 _atom_site_symmetry_multiplicity
 _atom_site_fract_x
 _atom_site_fract_y
 _atom_site_fract_z
 _atom_site_occupancy
  Y  Y0  1  0.823742  0.675431  0.000000  1
  Y  Y1  1  0.175431  0.323742  0.000000  1
  Lu  Lu2  1  0.325900  0.825900  0.000000  1
  Ta  Ta3  1  0.675052  0.175052  0.000000  1
  Ta  Ta4  1  0.497847  0.503361  0.000000  1
  Ta  Ta5  1  0.003361  0.997847  0.000000  1
  B  B6  1  0.622270  0.881417  0.000000  1
  B  B7  1  0.381417  0.122270  0.000000  1
  B  B8  1  0.120067  0.620067  0.000000  1
  B  B9  1  0.875935  0.375935  0.000000  1
  Ru  Ru10  1  0.568693  0.722710  0.500000  1
  Ru  Ru11  1  0.441342  0.279909  0.500000  1
  Ru  Ru12  1  0.072072  0.781392  0.500000  1
  Ru  Ru13  1  0.915185  0.212959  0.500000  1
  Ru  Ru14  1  0.281392  0.572072  0.500000  1
  Ru  Ru15  1  0.712959  0.415185  0.500000  1
  Ru  Ru16  1  0.222710  0.068693  0.500000  1
  Ru  Ru17  1  0.779909  0.941342  0.500000  1
  Ru  Ru18  1  0.508448  0.008448  0.500000  1
  Ru  Ru19  1  0.996266  0.496266  0.500000  1
