# generated using pymatgen
data_Be8ReTcRu2
_symmetry_space_group_name_H-M   'P 1'
_cell_length_a   4.35231800
_cell_length_b   4.35231717
_cell_length_c   7.09193700
_cell_angle_alpha   90.00000000
_cell_angle_beta   90.00000000
_cell_angle_gamma   120.00000628
_symmetry_Int_Tables_number   1
_chemical_formula_structural   Be8ReTcRu2
_chemical_formula_sum   'Be8 Re1 Tc1 Ru2'
_cell_volume   116.34202791
_cell_formula_units_Z   1
loop_
 _symmetry_equiv_pos_site_id
 _symmetry_equiv_pos_as_xyz
  1  'x, y, z'
loop_
 _atom_site_type_symbol
 _atom_site_label
 _atom_site_symmetry_multiplicity
 _atom_site_fract_x
 _atom_site_fract_y
 _atom_site_fract_z
 _atom_site_occupancy
  Be  Be0  1  0.000000  0.000000  0.499632  1
  Be  Be1  1  0.000000  0.000000  0.999436  1
  Be  Be2  1  0.831107  0.168893  0.244975  1
  Be  Be3  1  0.831107  0.662213  0.244975  1
  Be  Be4  1  0.337787  0.168893  0.244975  1
  Be  Be5  1  0.169068  0.830932  0.755223  1
  Be  Be6  1  0.169068  0.338136  0.755223  1
  Be  Be7  1  0.661864  0.830932  0.755223  1
  Re  Re8  1  0.333333  0.666667  0.442136  1
  Tc  Tc9  1  0.666667  0.333333  0.555848  1
  Ru  Ru10  1  0.666667  0.333333  0.933450  1
  Ru  Ru11  1  0.333333  0.666667  0.068904  1
