# generated using pymatgen
data_Y3Ho2Bi2Ru
_symmetry_space_group_name_H-M   'P 1'
_cell_length_a   7.99487600
_cell_length_b   8.99435900
_cell_length_c   12.52004100
_cell_angle_alpha   90.00000000
_cell_angle_beta   90.00000000
_cell_angle_gamma   90.00000000
_symmetry_Int_Tables_number   1
_chemical_formula_structural   Y3Ho2Bi2Ru
_chemical_formula_sum   'Y12 Ho8 Bi8 Ru4'
_cell_volume   900.30093526
_cell_formula_units_Z   4
loop_
 _symmetry_equiv_pos_site_id
 _symmetry_equiv_pos_as_xyz
  1  'x, y, z'
loop_
 _atom_site_type_symbol
 _atom_site_label
 _atom_site_symmetry_multiplicity
 _atom_site_fract_x
 _atom_site_fract_y
 _atom_site_fract_z
 _atom_site_occupancy
  Y  Y0  1  0.343971  0.750000  0.708027  1
  Y  Y1  1  0.656029  0.250000  0.291973  1
  Y  Y2  1  0.843971  0.250000  0.791973  1
  Y  Y3  1  0.156029  0.750000  0.208027  1
  Y  Y4  1  0.876416  0.750000  0.807089  1
  Y  Y5  1  0.123584  0.250000  0.192911  1
  Y  Y6  1  0.376416  0.250000  0.692911  1
  Y  Y7  1  0.623584  0.750000  0.307089  1
  Y  Y8  1  0.052755  0.750000  0.495969  1
  Y  Y9  1  0.947245  0.250000  0.504031  1
  Y  Y10  1  0.552755  0.250000  0.004031  1
  Y  Y11  1  0.447245  0.750000  0.995969  1
  Ho  Ho12  1  0.674346  0.541289  0.563594  1
  Ho  Ho13  1  0.325654  0.458711  0.436406  1
  Ho  Ho14  1  0.174346  0.458711  0.936406  1
  Ho  Ho15  1  0.325654  0.041289  0.436406  1
  Ho  Ho16  1  0.825654  0.541289  0.063594  1
  Ho  Ho17  1  0.674346  0.958711  0.563594  1
  Ho  Ho18  1  0.825654  0.958711  0.063594  1
  Ho  Ho19  1  0.174346  0.041289  0.936406  1
  Bi  Bi20  1  0.570383  0.507504  0.827610  1
  Bi  Bi21  1  0.429617  0.492496  0.172390  1
  Bi  Bi22  1  0.070383  0.492496  0.672390  1
  Bi  Bi23  1  0.429617  0.007504  0.172390  1
  Bi  Bi24  1  0.929617  0.507504  0.327610  1
  Bi  Bi25  1  0.570383  0.992496  0.827610  1
  Bi  Bi26  1  0.929617  0.992496  0.327610  1
  Bi  Bi27  1  0.070383  0.007504  0.672390  1
  Ru  Ru28  1  0.071688  0.750000  0.989462  1
  Ru  Ru29  1  0.928312  0.250000  0.010538  1
  Ru  Ru30  1  0.571688  0.250000  0.510538  1
  Ru  Ru31  1  0.428312  0.750000  0.489462  1
