# generated using pymatgen
data_Sr6Sc4MoIrO18
_symmetry_space_group_name_H-M   'P 1'
_cell_length_a   9.93333680
_cell_length_b   9.93333749
_cell_length_c   5.71426600
_cell_angle_alpha   73.25219145
_cell_angle_beta   73.25219550
_cell_angle_gamma   48.87509447
_symmetry_Int_Tables_number   1
_chemical_formula_structural   Sr6Sc4MoIrO18
_chemical_formula_sum   'Sr6 Sc4 Mo1 Ir1 O18'
_cell_volume   402.88693845
_cell_formula_units_Z   1
loop_
 _symmetry_equiv_pos_site_id
 _symmetry_equiv_pos_as_xyz
  1  'x, y, z'
loop_
 _atom_site_type_symbol
 _atom_site_label
 _atom_site_symmetry_multiplicity
 _atom_site_fract_x
 _atom_site_fract_y
 _atom_site_fract_z
 _atom_site_occupancy
  Sr  Sr0  1  0.918556  0.402511  0.844560  1
  Sr  Sr1  1  0.236528  0.762755  0.500403  1
  Sr  Sr2  1  0.596510  0.083091  0.155117  1
  Sr  Sr3  1  0.762755  0.236528  0.500403  1
  Sr  Sr4  1  0.083091  0.596510  0.155117  1
  Sr  Sr5  1  0.402511  0.918556  0.844560  1
  Sc  Sc6  1  0.500002  0.500002  0.999667  1
  Sc  Sc7  1  0.833834  0.833834  0.662667  1
  Sc  Sc8  1  0.166353  0.166353  0.337319  1
  Sc  Sc9  1  0.999978  0.999978  0.000255  1
  Mo  Mo10  1  0.666914  0.666914  0.336417  1
  Ir  Ir11  1  0.333279  0.333279  0.664161  1
  O  O12  1  0.431805  0.908068  0.329600  1
  O  O13  1  0.746031  0.253920  0.999982  1
  O  O14  1  0.091419  0.569014  0.669828  1
  O  O15  1  0.908068  0.431805  0.329600  1
  O  O16  1  0.253920  0.746031  0.999982  1
  O  O17  1  0.569014  0.091419  0.669828  1
  O  O18  1  0.072279  0.072279  0.225024  1
  O  O19  1  0.397555  0.397555  0.883823  1
  O  O20  1  0.726148  0.726148  0.565723  1
  O  O21  1  0.602259  0.602259  0.116990  1
  O  O22  1  0.927984  0.927984  0.774955  1
  O  O23  1  0.273388  0.273388  0.434488  1
  O  O24  1  0.571441  0.571441  0.617652  1
  O  O25  1  0.897493  0.897493  0.307561  1
  O  O26  1  0.239216  0.239216  0.950541  1
  O  O27  1  0.102611  0.102611  0.691912  1
  O  O28  1  0.428755  0.428755  0.381208  1
  O  O29  1  0.760305  0.760305  0.050657  1
