# generated using pymatgen
data_Er4Tm8Ru3Rh
_symmetry_space_group_name_H-M   'P 1'
_cell_length_a   6.25417913
_cell_length_b   7.24878298
_cell_length_c   9.04634700
_cell_angle_alpha   90.00000000
_cell_angle_beta   90.00000000
_cell_angle_gamma   90.01798751
_symmetry_Int_Tables_number   1
_chemical_formula_structural   Er4Tm8Ru3Rh
_chemical_formula_sum   'Er4 Tm8 Ru3 Rh1'
_cell_volume   410.11781509
_cell_formula_units_Z   1
loop_
 _symmetry_equiv_pos_site_id
 _symmetry_equiv_pos_as_xyz
  1  'x, y, z'
loop_
 _atom_site_type_symbol
 _atom_site_label
 _atom_site_symmetry_multiplicity
 _atom_site_fract_x
 _atom_site_fract_y
 _atom_site_fract_z
 _atom_site_occupancy
  Er  Er0  1  0.632084  0.038099  0.250000  1
  Er  Er1  1  0.368648  0.960009  0.750000  1
  Er  Er2  1  0.131944  0.460540  0.750000  1
  Er  Er3  1  0.868738  0.540336  0.250000  1
  Tm  Tm4  1  0.167729  0.174858  0.062595  1
  Tm  Tm5  1  0.830056  0.823502  0.935763  1
  Tm  Tm6  1  0.672145  0.323073  0.933959  1
  Tm  Tm7  1  0.830056  0.823502  0.564237  1
  Tm  Tm8  1  0.329772  0.678719  0.062409  1
  Tm  Tm9  1  0.167729  0.174858  0.437405  1
  Tm  Tm10  1  0.329772  0.678719  0.437591  1
  Tm  Tm11  1  0.672145  0.323073  0.566041  1
  Ru  Ru12  1  0.538189  0.614541  0.750000  1
  Ru  Ru13  1  0.962418  0.115586  0.750000  1
  Ru  Ru14  1  0.040433  0.885014  0.250000  1
  Rh  Rh15  1  0.458143  0.385569  0.250000  1
