# generated using pymatgen
data_YU8S17
_symmetry_space_group_name_H-M   'P 1'
_cell_length_a   7.91824114
_cell_length_b   7.91530974
_cell_length_c   10.69194820
_cell_angle_alpha   79.81782158
_cell_angle_beta   79.90996223
_cell_angle_gamma   64.57307438
_symmetry_Int_Tables_number   1
_chemical_formula_structural   YU8S17
_chemical_formula_sum   'Y1 U8 S17'
_cell_volume   591.94953420
_cell_formula_units_Z   1
loop_
 _symmetry_equiv_pos_site_id
 _symmetry_equiv_pos_as_xyz
  1  'x, y, z'
loop_
 _atom_site_type_symbol
 _atom_site_label
 _atom_site_symmetry_multiplicity
 _atom_site_fract_x
 _atom_site_fract_y
 _atom_site_fract_z
 _atom_site_occupancy
  Y  Y0  1  0.000000  0.000000  0.000000  1
  U  U1  1  0.795833  0.795144  0.464390  1
  U  U2  1  0.204167  0.204856  0.535610  1
  U  U3  1  0.696839  0.183193  0.694674  1
  U  U4  1  0.182837  0.697015  0.694863  1
  U  U5  1  0.817163  0.302985  0.305137  1
  U  U6  1  0.674826  0.675155  0.987410  1
  U  U7  1  0.325174  0.324845  0.012590  1
  U  U8  1  0.303161  0.816807  0.305326  1
  S  S9  1  0.480127  0.479864  0.169456  1
  S  S10  1  0.695929  0.695553  0.250484  1
  S  S11  1  0.568805  0.177734  0.467295  1
  S  S12  1  0.054098  0.662998  0.952330  1
  S  S13  1  0.211799  0.211190  0.279522  1
  S  S14  1  0.431195  0.822266  0.532705  1
  S  S15  1  0.519873  0.520136  0.830544  1
  S  S16  1  0.663048  0.054175  0.952402  1
  S  S17  1  0.937538  0.937848  0.244781  1
  S  S18  1  0.062462  0.062152  0.755219  1
  S  S19  1  0.304071  0.304447  0.749516  1
  S  S20  1  0.336952  0.945825  0.047598  1
  S  S21  1  0.822781  0.430976  0.532751  1
  S  S22  1  0.945902  0.337002  0.047670  1
  S  S23  1  0.177219  0.569024  0.467249  1
  S  S24  1  0.000000  0.000000  0.500000  1
  S  S25  1  0.788201  0.788810  0.720478  1
