# generated using pymatgen
data_Er3Lu5(CoAg)2
_symmetry_space_group_name_H-M   'P 1'
_cell_length_a   9.26670617
_cell_length_b   9.26670631
_cell_length_c   9.26670700
_cell_angle_alpha   60.00000109
_cell_angle_beta   60.00000060
_cell_angle_gamma   59.99999883
_symmetry_Int_Tables_number   1
_chemical_formula_structural   Er3Lu5(CoAg)2
_chemical_formula_sum   'Er6 Lu10 Co4 Ag4'
_cell_volume   562.67967357
_cell_formula_units_Z   2
loop_
 _symmetry_equiv_pos_site_id
 _symmetry_equiv_pos_as_xyz
  1  'x, y, z'
loop_
 _atom_site_type_symbol
 _atom_site_label
 _atom_site_symmetry_multiplicity
 _atom_site_fract_x
 _atom_site_fract_y
 _atom_site_fract_z
 _atom_site_occupancy
  Er  Er0  1  0.938377  0.561623  0.561623  1
  Er  Er1  1  0.561623  0.938377  0.938377  1
  Er  Er2  1  0.561623  0.938377  0.561623  1
  Er  Er3  1  0.938377  0.561623  0.938377  1
  Er  Er4  1  0.561623  0.561623  0.938377  1
  Er  Er5  1  0.938377  0.938377  0.561623  1
  Lu  Lu6  1  0.347435  0.347435  0.347435  1
  Lu  Lu7  1  0.347435  0.347435  0.957697  1
  Lu  Lu8  1  0.347435  0.957697  0.347435  1
  Lu  Lu9  1  0.957697  0.347435  0.347435  1
  Lu  Lu10  1  0.812502  0.187498  0.187498  1
  Lu  Lu11  1  0.187498  0.812502  0.812502  1
  Lu  Lu12  1  0.187498  0.812502  0.187498  1
  Lu  Lu13  1  0.812502  0.187498  0.812502  1
  Lu  Lu14  1  0.187498  0.187498  0.812502  1
  Lu  Lu15  1  0.812502  0.812502  0.187498  1
  Co  Co16  1  0.141288  0.141288  0.141288  1
  Co  Co17  1  0.141288  0.141288  0.576137  1
  Co  Co18  1  0.141288  0.576137  0.141288  1
  Co  Co19  1  0.576137  0.141288  0.141288  1
  Ag  Ag20  1  0.581196  0.581196  0.581196  1
  Ag  Ag21  1  0.581196  0.581196  0.256411  1
  Ag  Ag22  1  0.581196  0.256411  0.581196  1
  Ag  Ag23  1  0.256411  0.581196  0.581196  1
