# generated using pymatgen
data_UCr3(AgSe4)2
_symmetry_space_group_name_H-M   'P 1'
_cell_length_a   7.80963762
_cell_length_b   7.80963776
_cell_length_c   7.80963775
_cell_angle_alpha   58.96453693
_cell_angle_beta   58.96453303
_cell_angle_gamma   58.96452487
_symmetry_Int_Tables_number   1
_chemical_formula_structural   UCr3(AgSe4)2
_chemical_formula_sum   'U1 Cr3 Ag2 Se8'
_cell_volume   328.84752651
_cell_formula_units_Z   1
loop_
 _symmetry_equiv_pos_site_id
 _symmetry_equiv_pos_as_xyz
  1  'x, y, z'
loop_
 _atom_site_type_symbol
 _atom_site_label
 _atom_site_symmetry_multiplicity
 _atom_site_fract_x
 _atom_site_fract_y
 _atom_site_fract_z
 _atom_site_occupancy
  U  U0  1  0.500000  0.500000  0.500000  1
  Cr  Cr1  1  0.500000  0.000000  0.500000  1
  Cr  Cr2  1  0.500000  0.500000  0.000000  1
  Cr  Cr3  1  0.000000  0.500000  0.500000  1
  Ag  Ag4  1  0.132886  0.132886  0.132886  1
  Ag  Ag5  1  0.867114  0.867114  0.867114  1
  Se  Se6  1  0.247699  0.717793  0.247699  1
  Se  Se7  1  0.752301  0.752301  0.282207  1
  Se  Se8  1  0.282207  0.752301  0.752301  1
  Se  Se9  1  0.733323  0.733323  0.733323  1
  Se  Se10  1  0.717793  0.247699  0.247699  1
  Se  Se11  1  0.266677  0.266677  0.266677  1
  Se  Se12  1  0.752301  0.282207  0.752301  1
  Se  Se13  1  0.247699  0.247699  0.717793  1
