# generated using pymatgen
data_Dy2ErIn4CoRh
_symmetry_space_group_name_H-M   'P 1'
_cell_length_a   7.96158221
_cell_length_b   7.97158262
_cell_length_c   3.63351600
_cell_angle_alpha   90.00000000
_cell_angle_beta   90.00000000
_cell_angle_gamma   119.93211772
_symmetry_Int_Tables_number   1
_chemical_formula_structural   Dy2ErIn4CoRh
_chemical_formula_sum   'Dy2 Er1 In4 Co1 Rh1'
_cell_volume   199.84730998
_cell_formula_units_Z   1
loop_
 _symmetry_equiv_pos_site_id
 _symmetry_equiv_pos_as_xyz
  1  'x, y, z'
loop_
 _atom_site_type_symbol
 _atom_site_label
 _atom_site_symmetry_multiplicity
 _atom_site_fract_x
 _atom_site_fract_y
 _atom_site_fract_z
 _atom_site_occupancy
  Dy  Dy0  1  0.702068  0.955645  0.500000  1
  Dy  Dy1  1  0.254149  0.298205  0.500000  1
  Er  Er2  1  0.043068  0.745949  0.500000  1
  In  In3  1  0.922108  0.338608  0.000000  1
  In  In4  1  0.415448  0.077753  0.000000  1
  In  In5  1  0.663200  0.584568  0.000000  1
  In  In6  1  0.332588  0.667057  0.000000  1
  Co  Co7  1  0.666752  0.333604  0.500000  1
  Rh  Rh8  1  0.000621  0.998610  0.000000  1
