# generated using pymatgen
data_Ce2Tm13Lu(CdRu)4
_symmetry_space_group_name_H-M   'P 1'
_cell_length_a   9.60134305
_cell_length_b   9.51385513
_cell_length_c   9.51654361
_cell_angle_alpha   59.61209047
_cell_angle_beta   59.54298325
_cell_angle_gamma   59.56142963
_symmetry_Int_Tables_number   1
_chemical_formula_structural   Ce2Tm13Lu(CdRu)4
_chemical_formula_sum   'Ce2 Tm13 Lu1 Cd4 Ru4'
_cell_volume   608.70643728
_cell_formula_units_Z   1
loop_
 _symmetry_equiv_pos_site_id
 _symmetry_equiv_pos_as_xyz
  1  'x, y, z'
loop_
 _atom_site_type_symbol
 _atom_site_label
 _atom_site_symmetry_multiplicity
 _atom_site_fract_x
 _atom_site_fract_y
 _atom_site_fract_z
 _atom_site_occupancy
  Ce  Ce0  1  0.969197  0.341651  0.341606  1
  Ce  Ce1  1  0.348965  0.340795  0.341202  1
  Tm  Tm2  1  0.563362  0.563398  0.936853  1
  Tm  Tm3  1  0.936808  0.562985  0.937220  1
  Tm  Tm4  1  0.560031  0.939799  0.939798  1
  Tm  Tm5  1  0.936993  0.937466  0.562784  1
  Tm  Tm6  1  0.563268  0.937075  0.563171  1
  Tm  Tm7  1  0.938862  0.561302  0.561043  1
  Tm  Tm8  1  0.189586  0.187757  0.812639  1
  Tm  Tm9  1  0.809138  0.187366  0.812756  1
  Tm  Tm10  1  0.188057  0.811388  0.811318  1
  Tm  Tm11  1  0.808908  0.812509  0.187662  1
  Tm  Tm12  1  0.189770  0.812635  0.187944  1
  Tm  Tm13  1  0.811520  0.187954  0.188037  1
  Tm  Tm14  1  0.348514  0.351261  0.951670  1
  Lu  Lu15  1  0.348340  0.952315  0.351022  1
  Cd  Cd16  1  0.582005  0.579868  0.255866  1
  Cd  Cd17  1  0.582104  0.255787  0.579664  1
  Cd  Cd18  1  0.258386  0.580570  0.580284  1
  Cd  Cd19  1  0.580297  0.580379  0.579994  1
  Ru  Ru20  1  0.138583  0.150568  0.574083  1
  Ru  Ru21  1  0.138198  0.574328  0.150992  1
  Ru  Ru22  1  0.572729  0.145938  0.146670  1
  Ru  Ru23  1  0.136375  0.144904  0.145720  1
