# generated using pymatgen
data_Li4BePd3
_symmetry_space_group_name_H-M   'P 1'
_cell_length_a   6.81132746
_cell_length_b   6.81132778
_cell_length_c   6.81132648
_cell_angle_alpha   59.27505241
_cell_angle_beta   59.27505230
_cell_angle_gamma   59.27505326
_symmetry_Int_Tables_number   1
_chemical_formula_structural   Li4BePd3
_chemical_formula_sum   'Li8 Be2 Pd6'
_cell_volume   219.76087568
_cell_formula_units_Z   2
loop_
 _symmetry_equiv_pos_site_id
 _symmetry_equiv_pos_as_xyz
  1  'x, y, z'
loop_
 _atom_site_type_symbol
 _atom_site_label
 _atom_site_symmetry_multiplicity
 _atom_site_fract_x
 _atom_site_fract_y
 _atom_site_fract_z
 _atom_site_occupancy
  Li  Li0  1  0.273507  0.273507  0.273507  1
  Li  Li1  1  0.726493  0.726493  0.726493  1
  Li  Li2  1  0.563855  0.838390  0.339360  1
  Li  Li3  1  0.339360  0.563855  0.838390  1
  Li  Li4  1  0.838390  0.339360  0.563855  1
  Li  Li5  1  0.660640  0.161610  0.436145  1
  Li  Li6  1  0.161610  0.436145  0.660640  1
  Li  Li7  1  0.436145  0.660640  0.161610  1
  Be  Be8  1  0.901868  0.901868  0.901868  1
  Be  Be9  1  0.098132  0.098132  0.098132  1
  Pd  Pd10  1  0.907776  0.500000  0.092224  1
  Pd  Pd11  1  0.092224  0.907776  0.500000  1
  Pd  Pd12  1  0.500000  0.092224  0.907776  1
  Pd  Pd13  1  0.251574  0.000000  0.748426  1
  Pd  Pd14  1  0.748426  0.251574  0.000000  1
  Pd  Pd15  1  0.000000  0.748426  0.251574  1
