# generated using pymatgen
data_Y4Er8Co5Sb
_symmetry_space_group_name_H-M   'P 1'
_cell_length_a   8.23568653
_cell_length_b   8.23568563
_cell_length_c   8.23568663
_cell_angle_alpha   110.86234866
_cell_angle_beta   110.60209473
_cell_angle_gamma   106.97773834
_symmetry_Int_Tables_number   1
_chemical_formula_structural   Y4Er8Co5Sb
_chemical_formula_sum   'Y4 Er8 Co5 Sb1'
_cell_volume   429.39914828
_cell_formula_units_Z   1
loop_
 _symmetry_equiv_pos_site_id
 _symmetry_equiv_pos_as_xyz
  1  'x, y, z'
loop_
 _atom_site_type_symbol
 _atom_site_label
 _atom_site_symmetry_multiplicity
 _atom_site_fract_x
 _atom_site_fract_y
 _atom_site_fract_z
 _atom_site_occupancy
  Y  Y0  1  0.288033  0.186234  0.474267  1
  Y  Y1  1  0.711967  0.813766  0.525733  1
  Y  Y2  1  0.288033  0.813766  0.101799  1
  Y  Y3  1  0.711967  0.186234  0.898201  1
  Er  Er4  1  0.621412  0.312190  0.309222  1
  Er  Er5  1  0.378588  0.687810  0.690778  1
  Er  Er6  1  0.002968  0.312190  0.690778  1
  Er  Er7  1  0.997032  0.687810  0.309222  1
  Er  Er8  1  0.209274  0.402804  0.193529  1
  Er  Er9  1  0.790726  0.597196  0.806471  1
  Er  Er10  1  0.209274  0.015745  0.806471  1
  Er  Er11  1  0.790726  0.984255  0.193529  1
  Co  Co12  1  0.000000  0.375163  0.375163  1
  Co  Co13  1  0.000000  0.624837  0.624837  1
  Co  Co14  1  0.387690  0.887690  0.500000  1
  Co  Co15  1  0.612310  0.112310  0.500000  1
  Co  Co16  1  0.000000  0.000000  0.000000  1
  Sb  Sb17  1  0.500000  0.500000  0.000000  1
