# generated using pymatgen
data_Er20Cd3Ir2Au3
_symmetry_space_group_name_H-M   'P 1'
_cell_length_a   9.48628800
_cell_length_b   9.48628679
_cell_length_c   9.52412200
_cell_angle_alpha   90.00000000
_cell_angle_beta   90.00000000
_cell_angle_gamma   120.00000421
_symmetry_Int_Tables_number   1
_chemical_formula_structural   Er20Cd3Ir2Au3
_chemical_formula_sum   'Er20 Cd3 Ir2 Au3'
_cell_volume   742.24643245
_cell_formula_units_Z   1
loop_
 _symmetry_equiv_pos_site_id
 _symmetry_equiv_pos_as_xyz
  1  'x, y, z'
loop_
 _atom_site_type_symbol
 _atom_site_label
 _atom_site_symmetry_multiplicity
 _atom_site_fract_x
 _atom_site_fract_y
 _atom_site_fract_z
 _atom_site_occupancy
  Er  Er0  1  0.000000  0.000000  0.460929  1
  Er  Er1  1  0.000000  0.000000  0.039071  1
  Er  Er2  1  0.208875  0.791125  0.441697  1
  Er  Er3  1  0.208875  0.417753  0.441697  1
  Er  Er4  1  0.582247  0.791125  0.441697  1
  Er  Er5  1  0.792173  0.207827  0.556732  1
  Er  Er6  1  0.792173  0.584343  0.556732  1
  Er  Er7  1  0.415657  0.207827  0.556732  1
  Er  Er8  1  0.792173  0.207827  0.943268  1
  Er  Er9  1  0.792173  0.584343  0.943268  1
  Er  Er10  1  0.415657  0.207827  0.943268  1
  Er  Er11  1  0.208875  0.791125  0.058303  1
  Er  Er12  1  0.208875  0.417753  0.058303  1
  Er  Er13  1  0.582247  0.791125  0.058303  1
  Er  Er14  1  0.540254  0.459746  0.250000  1
  Er  Er15  1  0.540254  0.080506  0.250000  1
  Er  Er16  1  0.919494  0.459746  0.250000  1
  Er  Er17  1  0.458695  0.541305  0.750000  1
  Er  Er18  1  0.458695  0.917391  0.750000  1
  Er  Er19  1  0.082609  0.541305  0.750000  1
  Cd  Cd20  1  0.109637  0.890363  0.750000  1
  Cd  Cd21  1  0.109637  0.219273  0.750000  1
  Cd  Cd22  1  0.780727  0.890363  0.750000  1
  Ir  Ir23  1  0.333333  0.666667  0.250000  1
  Ir  Ir24  1  0.666667  0.333333  0.750000  1
  Au  Au25  1  0.870440  0.129560  0.250000  1
  Au  Au26  1  0.870440  0.740879  0.250000  1
  Au  Au27  1  0.259121  0.129560  0.250000  1
