# generated using pymatgen
data_Y20Zn3Cd3Fe2
_symmetry_space_group_name_H-M   'P 1'
_cell_length_a   9.53545000
_cell_length_b   9.53545005
_cell_length_c   9.71109200
_cell_angle_alpha   90.00000000
_cell_angle_beta   90.00000000
_cell_angle_gamma   119.99999981
_symmetry_Int_Tables_number   1
_chemical_formula_structural   Y20Zn3Cd3Fe2
_chemical_formula_sum   'Y20 Zn3 Cd3 Fe2'
_cell_volume   764.68239202
_cell_formula_units_Z   1
loop_
 _symmetry_equiv_pos_site_id
 _symmetry_equiv_pos_as_xyz
  1  'x, y, z'
loop_
 _atom_site_type_symbol
 _atom_site_label
 _atom_site_symmetry_multiplicity
 _atom_site_fract_x
 _atom_site_fract_y
 _atom_site_fract_z
 _atom_site_occupancy
  Y  Y0  1  0.000000  0.000000  0.474435  1
  Y  Y1  1  0.000000  0.000000  0.025565  1
  Y  Y2  1  0.210477  0.789523  0.435093  1
  Y  Y3  1  0.210477  0.420954  0.435093  1
  Y  Y4  1  0.579046  0.789523  0.435093  1
  Y  Y5  1  0.788761  0.211239  0.561596  1
  Y  Y6  1  0.788761  0.577523  0.561596  1
  Y  Y7  1  0.422477  0.211239  0.561596  1
  Y  Y8  1  0.788761  0.211239  0.938404  1
  Y  Y9  1  0.788761  0.577523  0.938404  1
  Y  Y10  1  0.422477  0.211239  0.938404  1
  Y  Y11  1  0.210477  0.789523  0.064907  1
  Y  Y12  1  0.210477  0.420954  0.064907  1
  Y  Y13  1  0.579046  0.789523  0.064907  1
  Y  Y14  1  0.541832  0.458168  0.250000  1
  Y  Y15  1  0.541832  0.083663  0.250000  1
  Y  Y16  1  0.916337  0.458168  0.250000  1
  Y  Y17  1  0.458746  0.541254  0.750000  1
  Y  Y18  1  0.458746  0.917492  0.750000  1
  Y  Y19  1  0.082508  0.541254  0.750000  1
  Zn  Zn20  1  0.878525  0.121475  0.250000  1
  Zn  Zn21  1  0.878525  0.757052  0.250000  1
  Zn  Zn22  1  0.242948  0.121475  0.250000  1
  Cd  Cd23  1  0.110045  0.889955  0.750000  1
  Cd  Cd24  1  0.110045  0.220089  0.750000  1
  Cd  Cd25  1  0.779911  0.889955  0.750000  1
  Fe  Fe26  1  0.333333  0.666667  0.250000  1
  Fe  Fe27  1  0.666667  0.333333  0.750000  1
