# generated using pymatgen
data_Mn17Cr4(WC3)2
_symmetry_space_group_name_H-M   'P 1'
_cell_length_a   7.42605723
_cell_length_b   7.44006179
_cell_length_c   7.42605723
_cell_angle_alpha   120.06240993
_cell_angle_beta   89.78367255
_cell_angle_gamma   120.06240993
_symmetry_Int_Tables_number   1
_chemical_formula_structural   Mn17Cr4(WC3)2
_chemical_formula_sum   'Mn17 Cr4 W2 C6'
_cell_volume   290.11823132
_cell_formula_units_Z   1
loop_
 _symmetry_equiv_pos_site_id
 _symmetry_equiv_pos_as_xyz
  1  'x, y, z'
loop_
 _atom_site_type_symbol
 _atom_site_label
 _atom_site_symmetry_multiplicity
 _atom_site_fract_x
 _atom_site_fract_y
 _atom_site_fract_z
 _atom_site_occupancy
  Mn  Mn0  1  0.000000  0.000000  0.000000  1
  Mn  Mn1  1  0.338279  0.000000  0.002129  1
  Mn  Mn2  1  0.661722  0.000000  0.997871  1
  Mn  Mn3  1  0.338279  0.340408  0.002129  1
  Mn  Mn4  1  0.661722  0.659593  0.997871  1
  Mn  Mn5  1  0.386272  0.769485  0.152699  1
  Mn  Mn6  1  0.002129  0.000000  0.338279  1
  Mn  Mn7  1  0.002129  0.340408  0.338279  1
  Mn  Mn8  1  0.152699  0.769485  0.386272  1
  Mn  Mn9  1  0.616786  0.769485  0.383213  1
  Mn  Mn10  1  0.616786  0.230514  0.383213  1
  Mn  Mn11  1  0.383213  0.769485  0.616786  1
  Mn  Mn12  1  0.383213  0.230514  0.616786  1
  Mn  Mn13  1  0.847301  0.230514  0.613728  1
  Mn  Mn14  1  0.997871  0.659593  0.661722  1
  Mn  Mn15  1  0.997871  0.000000  0.661722  1
  Mn  Mn16  1  0.613728  0.230514  0.847301  1
  Cr  Cr17  1  0.000000  0.335359  0.000000  1
  Cr  Cr18  1  0.000000  0.664642  0.000000  1
  Cr  Cr19  1  0.335359  0.335359  0.335359  1
  Cr  Cr20  1  0.664642  0.664642  0.664642  1
  W  W21  1  0.749999  0.500000  0.250000  1
  W  W22  1  0.250000  0.500000  0.749999  1
  C  C23  1  0.727979  0.000000  0.272020  1
  C  C24  1  0.279215  0.558429  0.279215  1
  C  C25  1  0.279215  0.000000  0.279215  1
  C  C26  1  0.720785  0.441572  0.720785  1
  C  C27  1  0.272020  0.000000  0.727979  1
  C  C28  1  0.720785  0.000000  0.720785  1
