# generated using pymatgen
data_Ho20Sn7Pb9
_symmetry_space_group_name_H-M   'P 1'
_cell_length_a   8.13434415
_cell_length_b   8.18775709
_cell_length_c   15.53407300
_cell_angle_alpha   90.00000000
_cell_angle_beta   90.00000000
_cell_angle_gamma   90.01952516
_symmetry_Int_Tables_number   1
_chemical_formula_structural   Ho20Sn7Pb9
_chemical_formula_sum   'Ho20 Sn7 Pb9'
_cell_volume   1034.60079786
_cell_formula_units_Z   1
loop_
 _symmetry_equiv_pos_site_id
 _symmetry_equiv_pos_as_xyz
  1  'x, y, z'
loop_
 _atom_site_type_symbol
 _atom_site_label
 _atom_site_symmetry_multiplicity
 _atom_site_fract_x
 _atom_site_fract_y
 _atom_site_fract_z
 _atom_site_occupancy
  Ho  Ho0  1  0.380143  0.838527  0.876699  1
  Ho  Ho1  1  0.880436  0.661022  0.623420  1
  Ho  Ho2  1  0.619826  0.161095  0.377215  1
  Ho  Ho3  1  0.119653  0.337430  0.122950  1
  Ho  Ho4  1  0.619826  0.161095  0.122785  1
  Ho  Ho5  1  0.119653  0.337430  0.377050  1
  Ho  Ho6  1  0.380143  0.838527  0.623301  1
  Ho  Ho7  1  0.880436  0.661022  0.876580  1
  Ho  Ho8  1  0.537840  0.324856  0.895848  1
  Ho  Ho9  1  0.038315  0.174583  0.604372  1
  Ho  Ho10  1  0.464795  0.675183  0.397145  1
  Ho  Ho11  1  0.960021  0.827055  0.101582  1
  Ho  Ho12  1  0.464795  0.675183  0.102855  1
  Ho  Ho13  1  0.960021  0.827055  0.398418  1
  Ho  Ho14  1  0.537840  0.324856  0.604152  1
  Ho  Ho15  1  0.038315  0.174583  0.895628  1
  Ho  Ho16  1  0.210954  0.503438  0.750000  1
  Ho  Ho17  1  0.710909  0.996440  0.750000  1
  Ho  Ho18  1  0.787340  0.494858  0.250000  1
  Ho  Ho19  1  0.291235  0.006488  0.250000  1
  Sn  Sn20  1  0.575855  0.622655  0.750000  1
  Sn  Sn21  1  0.076115  0.876714  0.750000  1
  Sn  Sn22  1  0.424727  0.376458  0.250000  1
  Sn  Sn23  1  0.923877  0.121740  0.250000  1
  Sn  Sn24  1  0.345809  0.149171  0.750000  1
  Sn  Sn25  1  0.845738  0.351020  0.750000  1
  Sn  Sn26  1  0.655332  0.850515  0.250000  1
  Pb  Pb27  1  0.280353  0.031715  0.040931  1
  Pb  Pb28  1  0.781583  0.467425  0.459163  1
  Pb  Pb29  1  0.718407  0.968472  0.541968  1
  Pb  Pb30  1  0.218949  0.531454  0.958788  1
  Pb  Pb31  1  0.718407  0.968472  0.958032  1
  Pb  Pb32  1  0.218949  0.531454  0.541212  1
  Pb  Pb33  1  0.280353  0.031715  0.459069  1
  Pb  Pb34  1  0.781583  0.467425  0.040837  1
  Pb  Pb35  1  0.151461  0.652867  0.250000  1
