# generated using pymatgen
data_UNi3(AgO2)4
_symmetry_space_group_name_H-M   'P 1'
_cell_length_a   5.41803319
_cell_length_b   6.33611464
_cell_length_c   7.36465539
_cell_angle_alpha   64.02607329
_cell_angle_beta   105.00120121
_cell_angle_gamma   90.02799019
_symmetry_Int_Tables_number   1
_chemical_formula_structural   UNi3(AgO2)4
_chemical_formula_sum   'U1 Ni3 Ag4 O8'
_cell_volume   217.67807446
_cell_formula_units_Z   1
loop_
 _symmetry_equiv_pos_site_id
 _symmetry_equiv_pos_as_xyz
  1  'x, y, z'
loop_
 _atom_site_type_symbol
 _atom_site_label
 _atom_site_symmetry_multiplicity
 _atom_site_fract_x
 _atom_site_fract_y
 _atom_site_fract_z
 _atom_site_occupancy
  U  U0  1  0.500000  0.749962  0.500013  1
  Ni  Ni1  1  0.999852  0.017040  0.499936  1
  Ni  Ni2  1  0.499953  0.250452  0.499924  1
  Ni  Ni3  1  0.000157  0.482892  0.500078  1
  Ag  Ag4  1  0.996307  0.005272  0.989195  1
  Ag  Ag5  1  0.499924  0.249950  0.000021  1
  Ag  Ag6  1  0.003696  0.494739  0.010796  1
  Ag  Ag7  1  0.500068  0.749936  0.000006  1
  O  O8  1  0.891303  0.662369  0.671843  1
  O  O9  1  0.391938  0.911733  0.669606  1
  O  O10  1  0.881894  0.167673  0.661629  1
  O  O11  1  0.392052  0.414811  0.669598  1
  O  O12  1  0.108695  0.837620  0.328161  1
  O  O13  1  0.607944  0.085045  0.330433  1
  O  O14  1  0.118133  0.332374  0.338362  1
  O  O15  1  0.608087  0.588134  0.330400  1
