# generated using pymatgen
data_Pr8Sc12Si15Ru
_symmetry_space_group_name_H-M   'P 1'
_cell_length_a   7.23879329
_cell_length_b   7.55289323
_cell_length_c   14.24726800
_cell_angle_alpha   90.00000000
_cell_angle_beta   90.00000000
_cell_angle_gamma   90.30247699
_symmetry_Int_Tables_number   1
_chemical_formula_structural   Pr8Sc12Si15Ru
_chemical_formula_sum   'Pr8 Sc12 Si15 Ru1'
_cell_volume   778.94189503
_cell_formula_units_Z   1
loop_
 _symmetry_equiv_pos_site_id
 _symmetry_equiv_pos_as_xyz
  1  'x, y, z'
loop_
 _atom_site_type_symbol
 _atom_site_label
 _atom_site_symmetry_multiplicity
 _atom_site_fract_x
 _atom_site_fract_y
 _atom_site_fract_z
 _atom_site_occupancy
  Pr  Pr0  1  0.012555  0.172296  0.401625  1
  Pr  Pr1  1  0.511630  0.329642  0.402581  1
  Pr  Pr2  1  0.482367  0.676025  0.901045  1
  Pr  Pr3  1  0.482367  0.676025  0.598955  1
  Pr  Pr4  1  0.992005  0.827157  0.599154  1
  Pr  Pr5  1  0.992005  0.827157  0.900846  1
  Pr  Pr6  1  0.511630  0.329642  0.097419  1
  Pr  Pr7  1  0.012555  0.172296  0.098375  1
  Sc  Sc8  1  0.329156  0.171322  0.627037  1
  Sc  Sc9  1  0.671698  0.822882  0.375669  1
  Sc  Sc10  1  0.647225  0.993953  0.750000  1
  Sc  Sc11  1  0.170301  0.675622  0.374778  1
  Sc  Sc12  1  0.829121  0.324353  0.875737  1
  Sc  Sc13  1  0.829121  0.324353  0.624263  1
  Sc  Sc14  1  0.840996  0.503702  0.250000  1
  Sc  Sc15  1  0.340858  0.999383  0.250000  1
  Sc  Sc16  1  0.329156  0.171322  0.872963  1
  Sc  Sc17  1  0.170301  0.675622  0.125222  1
  Sc  Sc18  1  0.671698  0.822882  0.124331  1
  Sc  Sc19  1  0.163411  0.497617  0.750000  1
  Si  Si20  1  0.465292  0.627105  0.250000  1
  Si  Si21  1  0.031535  0.126256  0.750000  1
  Si  Si22  1  0.539267  0.376569  0.750000  1
  Si  Si23  1  0.150630  0.461481  0.539489  1
  Si  Si24  1  0.965492  0.875143  0.250000  1
  Si  Si25  1  0.712205  0.117031  0.250000  1
  Si  Si26  1  0.849831  0.535134  0.040400  1
  Si  Si27  1  0.351321  0.963849  0.040526  1
  Si  Si28  1  0.150630  0.461481  0.960511  1
  Si  Si29  1  0.653358  0.039719  0.538568  1
  Si  Si30  1  0.351321  0.963849  0.459474  1
  Si  Si31  1  0.849831  0.535134  0.459600  1
  Si  Si32  1  0.787117  0.608969  0.750000  1
  Si  Si33  1  0.212460  0.382994  0.250000  1
  Si  Si34  1  0.653358  0.039719  0.961432  1
  Ru  Ru35  1  0.286194  0.892311  0.750000  1
