# generated using pymatgen
data_CaNd(SiPd2)2
_symmetry_space_group_name_H-M   'P 1'
_cell_length_a   5.63720151
_cell_length_b   6.99142300
_cell_length_c   7.49487022
_cell_angle_alpha   90.00000000
_cell_angle_beta   89.44526225
_cell_angle_gamma   90.00000000
_symmetry_Int_Tables_number   1
_chemical_formula_structural   CaNd(SiPd2)2
_chemical_formula_sum   'Ca2 Nd2 Si4 Pd8'
_cell_volume   295.37443203
_cell_formula_units_Z   2
loop_
 _symmetry_equiv_pos_site_id
 _symmetry_equiv_pos_as_xyz
  1  'x, y, z'
loop_
 _atom_site_type_symbol
 _atom_site_label
 _atom_site_symmetry_multiplicity
 _atom_site_fract_x
 _atom_site_fract_y
 _atom_site_fract_z
 _atom_site_occupancy
  Ca  Ca0  1  0.135298  0.750000  0.526569  1
  Ca  Ca1  1  0.864702  0.250000  0.473431  1
  Nd  Nd2  1  0.642921  0.250000  0.970983  1
  Nd  Nd3  1  0.357079  0.750000  0.029017  1
  Si  Si4  1  0.857920  0.750000  0.871774  1
  Si  Si5  1  0.142080  0.250000  0.128226  1
  Si  Si6  1  0.360820  0.250000  0.621279  1
  Si  Si7  1  0.639180  0.750000  0.378721  1
  Pd  Pd8  1  0.593102  0.552747  0.671577  1
  Pd  Pd9  1  0.406898  0.447253  0.328423  1
  Pd  Pd10  1  0.099344  0.446379  0.826165  1
  Pd  Pd11  1  0.406898  0.052747  0.328423  1
  Pd  Pd12  1  0.900656  0.553621  0.173835  1
  Pd  Pd13  1  0.593102  0.947253  0.671577  1
  Pd  Pd14  1  0.900656  0.946379  0.173835  1
  Pd  Pd15  1  0.099344  0.053621  0.826165  1
