# generated using pymatgen
data_Y3Th(Al3Rh)6
_symmetry_space_group_name_H-M   'P 1'
_cell_length_a   7.58228028
_cell_length_b   7.59384486
_cell_length_c   9.49607000
_cell_angle_alpha   90.00000000
_cell_angle_beta   90.00000000
_cell_angle_gamma   119.38431182
_symmetry_Int_Tables_number   1
_chemical_formula_structural   Y3Th(Al3Rh)6
_chemical_formula_sum   'Y3 Th1 Al18 Rh6'
_cell_volume   476.42791179
_cell_formula_units_Z   1
loop_
 _symmetry_equiv_pos_site_id
 _symmetry_equiv_pos_as_xyz
  1  'x, y, z'
loop_
 _atom_site_type_symbol
 _atom_site_label
 _atom_site_symmetry_multiplicity
 _atom_site_fract_x
 _atom_site_fract_y
 _atom_site_fract_z
 _atom_site_occupancy
  Y  Y0  1  0.004747  0.328400  0.750000  1
  Y  Y1  1  0.671538  0.994541  0.250000  1
  Y  Y2  1  0.328313  0.005177  0.750000  1
  Th  Th3  1  0.994928  0.671165  0.250000  1
  Al  Al4  1  0.131036  0.132395  0.250000  1
  Al  Al5  1  0.872108  0.874136  0.750000  1
  Al  Al6  1  0.001271  0.331158  0.072179  1
  Al  Al7  1  0.998829  0.664278  0.918671  1
  Al  Al8  1  0.998829  0.664278  0.581329  1
  Al  Al9  1  0.339909  0.005049  0.427615  1
  Al  Al10  1  0.001271  0.331158  0.427821  1
  Al  Al11  1  0.664602  0.000292  0.575924  1
  Al  Al12  1  0.664602  0.000292  0.924076  1
  Al  Al13  1  0.339909  0.005049  0.072385  1
  Al  Al14  1  0.332510  0.332547  0.552974  1
  Al  Al15  1  0.663484  0.666653  0.455215  1
  Al  Al16  1  0.663484  0.666653  0.044785  1
  Al  Al17  1  0.332510  0.332547  0.947026  1
  Al  Al18  1  0.343036  0.548526  0.250000  1
  Al  Al19  1  0.658181  0.448426  0.750000  1
  Al  Al20  1  0.545183  0.337120  0.250000  1
  Al  Al21  1  0.449584  0.660668  0.750000  1
  Rh  Rh22  1  0.672882  0.329398  0.000353  1
  Rh  Rh23  1  0.326841  0.671526  0.000566  1
  Rh  Rh24  1  0.326841  0.671526  0.499434  1
  Rh  Rh25  1  0.672882  0.329398  0.499647  1
  Rh  Rh26  1  0.000345  0.998822  0.000615  1
  Rh  Rh27  1  0.000345  0.998822  0.499385  1
