# generated using pymatgen
data_Y2ErMg3IrPb2
_symmetry_space_group_name_H-M   'P 1'
_cell_length_a   7.48552908
_cell_length_b   7.48553049
_cell_length_c   4.54100600
_cell_angle_alpha   90.00000000
_cell_angle_beta   90.00000000
_cell_angle_gamma   119.97808085
_symmetry_Int_Tables_number   1
_chemical_formula_structural   Y2ErMg3IrPb2
_chemical_formula_sum   'Y2 Er1 Mg3 Ir1 Pb2'
_cell_volume   220.40613230
_cell_formula_units_Z   1
loop_
 _symmetry_equiv_pos_site_id
 _symmetry_equiv_pos_as_xyz
  1  'x, y, z'
loop_
 _atom_site_type_symbol
 _atom_site_label
 _atom_site_symmetry_multiplicity
 _atom_site_fract_x
 _atom_site_fract_y
 _atom_site_fract_z
 _atom_site_occupancy
  Y  Y0  1  0.611278  0.000164  0.000000  1
  Y  Y1  1  0.000164  0.611278  0.000000  1
  Er  Er2  1  0.383501  0.383501  0.000000  1
  Mg  Mg3  1  0.224612  0.999431  0.500000  1
  Mg  Mg4  1  0.999431  0.224612  0.500000  1
  Mg  Mg5  1  0.776419  0.776419  0.500000  1
  Ir  Ir6  1  0.004123  0.004123  0.000000  1
  Pb  Pb7  1  0.334730  0.665744  0.500000  1
  Pb  Pb8  1  0.665744  0.334730  0.500000  1
