# generated using pymatgen
data_CoMoF6
_symmetry_space_group_name_H-M   'P 1'
_cell_length_a   5.64857832
_cell_length_b   5.63195961
_cell_length_c   5.61511625
_cell_angle_alpha   56.18971828
_cell_angle_beta   56.30444154
_cell_angle_gamma   56.47939586
_symmetry_Int_Tables_number   1
_chemical_formula_structural   CoMoF6
_chemical_formula_sum   'Co1 Mo1 F6'
_cell_volume   115.57025322
_cell_formula_units_Z   1
loop_
 _symmetry_equiv_pos_site_id
 _symmetry_equiv_pos_as_xyz
  1  'x, y, z'
loop_
 _atom_site_type_symbol
 _atom_site_label
 _atom_site_symmetry_multiplicity
 _atom_site_fract_x
 _atom_site_fract_y
 _atom_site_fract_z
 _atom_site_occupancy
  Co  Co0  1  0.000000  0.000000  0.000000  1
  Mo  Mo1  1  0.500000  0.500000  0.500000  1
  F  F2  1  0.261729  0.859544  0.631328  1
  F  F3  1  0.633161  0.256594  0.861032  1
  F  F4  1  0.139537  0.367303  0.741244  1
  F  F5  1  0.366839  0.743406  0.138968  1
  F  F6  1  0.738271  0.140456  0.368672  1
  F  F7  1  0.860463  0.632697  0.258756  1
