# generated using pymatgen
data_SeSI
_symmetry_space_group_name_H-M   'P 1'
_cell_length_a   7.71100000
_cell_length_b   7.71100000
_cell_length_c   8.45569300
_cell_angle_alpha   90.00000000
_cell_angle_beta   90.00000000
_cell_angle_gamma   90.00000000
_symmetry_Int_Tables_number   1
_chemical_formula_structural   SeSI
_chemical_formula_sum   'Se4 S4 I4'
_cell_volume   502.77145550
_cell_formula_units_Z   4
loop_
 _symmetry_equiv_pos_site_id
 _symmetry_equiv_pos_as_xyz
  1  'x, y, z'
loop_
 _atom_site_type_symbol
 _atom_site_label
 _atom_site_symmetry_multiplicity
 _atom_site_fract_x
 _atom_site_fract_y
 _atom_site_fract_z
 _atom_site_occupancy
  Se  Se0  1  0.000000  0.213019  0.000000  1
  Se  Se1  1  0.000000  0.786982  0.000000  1
  Se  Se2  1  0.213019  0.000000  0.500000  1
  Se  Se3  1  0.786982  0.000000  0.500000  1
  S  S4  1  0.205602  0.000000  0.000000  1
  S  S5  1  0.794399  0.000000  0.000000  1
  S  S6  1  0.000000  0.205602  0.500000  1
  S  S7  1  0.000000  0.794399  0.500000  1
  I  I8  1  0.259780  0.500000  0.000000  1
  I  I9  1  0.740220  0.500000  0.000000  1
  I  I10  1  0.500000  0.259780  0.500000  1
  I  I11  1  0.500000  0.740220  0.500000  1
