# generated using pymatgen
data_Sm2YCo8ReP6
_symmetry_space_group_name_H-M   'P 1'
_cell_length_a   3.74890400
_cell_length_b   10.56975800
_cell_length_c   12.29489200
_cell_angle_alpha   90.00000000
_cell_angle_beta   90.00000000
_cell_angle_gamma   90.00000000
_symmetry_Int_Tables_number   1
_chemical_formula_structural   Sm2YCo8ReP6
_chemical_formula_sum   'Sm4 Y2 Co16 Re2 P12'
_cell_volume   487.18519442
_cell_formula_units_Z   2
loop_
 _symmetry_equiv_pos_site_id
 _symmetry_equiv_pos_as_xyz
  1  'x, y, z'
loop_
 _atom_site_type_symbol
 _atom_site_label
 _atom_site_symmetry_multiplicity
 _atom_site_fract_x
 _atom_site_fract_y
 _atom_site_fract_z
 _atom_site_occupancy
  Sm  Sm0  1  0.000000  0.500000  0.523188  1
  Sm  Sm1  1  0.500000  0.000000  0.475895  1
  Sm  Sm2  1  0.000000  0.682324  0.794456  1
  Sm  Sm3  1  0.000000  0.317676  0.794456  1
  Y  Y4  1  0.500000  0.817983  0.205446  1
  Y  Y5  1  0.500000  0.182017  0.205446  1
  Co  Co6  1  0.500000  0.500000  0.703025  1
  Co  Co7  1  0.000000  0.000000  0.296226  1
  Co  Co8  1  0.000000  0.500000  0.989411  1
  Co  Co9  1  0.500000  0.000000  0.013295  1
  Co  Co10  1  0.500000  0.331841  0.991828  1
  Co  Co11  1  0.500000  0.668159  0.991828  1
  Co  Co12  1  0.000000  0.166997  0.011090  1
  Co  Co13  1  0.000000  0.833003  0.011090  1
  Co  Co14  1  0.500000  0.296288  0.429112  1
  Co  Co15  1  0.500000  0.703712  0.429112  1
  Co  Co16  1  0.000000  0.203377  0.568389  1
  Co  Co17  1  0.000000  0.796623  0.568389  1
  Co  Co18  1  0.500000  0.880635  0.709452  1
  Co  Co19  1  0.500000  0.119365  0.709452  1
  Co  Co20  1  0.000000  0.620308  0.289491  1
  Co  Co21  1  0.000000  0.379692  0.289491  1
  Re  Re22  1  0.500000  0.500000  0.155150  1
  Re  Re23  1  0.000000  0.000000  0.845384  1
  P  P24  1  0.500000  0.500000  0.883339  1
  P  P25  1  0.000000  0.000000  0.119726  1
  P  P26  1  0.500000  0.500000  0.346090  1
  P  P27  1  0.000000  0.000000  0.653543  1
  P  P28  1  0.500000  0.308926  0.614353  1
  P  P29  1  0.500000  0.691074  0.614353  1
  P  P30  1  0.000000  0.189929  0.382629  1
  P  P31  1  0.000000  0.810071  0.382629  1
  P  P32  1  0.500000  0.847448  0.894424  1
  P  P33  1  0.500000  0.152552  0.894424  1
  P  P34  1  0.000000  0.654327  0.107195  1
  P  P35  1  0.000000  0.345673  0.107195  1
