# generated using pymatgen
data_Nd3Be(SiRh3)2
_symmetry_space_group_name_H-M   'P 1'
_cell_length_a   5.62423500
_cell_length_b   5.62423491
_cell_length_c   14.96910200
_cell_angle_alpha   90.00000000
_cell_angle_beta   90.00000000
_cell_angle_gamma   120.00000638
_symmetry_Int_Tables_number   1
_chemical_formula_structural   Nd3Be(SiRh3)2
_chemical_formula_sum   'Nd6 Be2 Si4 Rh12'
_cell_volume   410.06552829
_cell_formula_units_Z   2
loop_
 _symmetry_equiv_pos_site_id
 _symmetry_equiv_pos_as_xyz
  1  'x, y, z'
loop_
 _atom_site_type_symbol
 _atom_site_label
 _atom_site_symmetry_multiplicity
 _atom_site_fract_x
 _atom_site_fract_y
 _atom_site_fract_z
 _atom_site_occupancy
  Nd  Nd0  1  0.333333  0.666667  0.538041  1
  Nd  Nd1  1  0.666667  0.333333  0.461959  1
  Nd  Nd2  1  0.666667  0.333333  0.038041  1
  Nd  Nd3  1  0.333333  0.666667  0.961959  1
  Nd  Nd4  1  0.333333  0.666667  0.750000  1
  Nd  Nd5  1  0.666667  0.333333  0.250000  1
  Be  Be6  1  0.000000  0.000000  0.250000  1
  Be  Be7  1  0.000000  0.000000  0.750000  1
  Si  Si8  1  0.333333  0.666667  0.250000  1
  Si  Si9  1  0.666667  0.333333  0.750000  1
  Si  Si10  1  0.000000  0.000000  0.000000  1
  Si  Si11  1  0.000000  0.000000  0.500000  1
  Rh  Rh12  1  0.163610  0.327222  0.134193  1
  Rh  Rh13  1  0.836390  0.672778  0.865807  1
  Rh  Rh14  1  0.672778  0.836390  0.134193  1
  Rh  Rh15  1  0.836390  0.672778  0.634193  1
  Rh  Rh16  1  0.327222  0.163610  0.865807  1
  Rh  Rh17  1  0.163610  0.327222  0.365807  1
  Rh  Rh18  1  0.163610  0.836390  0.134193  1
  Rh  Rh19  1  0.327222  0.163610  0.634193  1
  Rh  Rh20  1  0.836390  0.163610  0.865807  1
  Rh  Rh21  1  0.672778  0.836390  0.365807  1
  Rh  Rh22  1  0.836390  0.163610  0.634193  1
  Rh  Rh23  1  0.163610  0.836390  0.365807  1
