# generated using pymatgen
data_La3Nd3(BiO7)2
_symmetry_space_group_name_H-M   'P 1'
_cell_length_a   6.79548148
_cell_length_b   6.83238461
_cell_length_c   8.01099207
_cell_angle_alpha   106.91458985
_cell_angle_beta   89.89254613
_cell_angle_gamma   98.44214866
_symmetry_Int_Tables_number   1
_chemical_formula_structural   La3Nd3(BiO7)2
_chemical_formula_sum   'La3 Nd3 Bi2 O14'
_cell_volume   351.67086194
_cell_formula_units_Z   1
loop_
 _symmetry_equiv_pos_site_id
 _symmetry_equiv_pos_as_xyz
  1  'x, y, z'
loop_
 _atom_site_type_symbol
 _atom_site_label
 _atom_site_symmetry_multiplicity
 _atom_site_fract_x
 _atom_site_fract_y
 _atom_site_fract_z
 _atom_site_occupancy
  La  La0  1  0.732592  0.468047  0.117724  1
  La  La1  1  0.739707  0.484213  0.619358  1
  La  La2  1  0.258877  0.515962  0.382116  1
  Nd  Nd3  1  0.461485  0.003281  0.252686  1
  Nd  Nd4  1  0.537580  0.996684  0.747334  1
  Nd  Nd5  1  0.267194  0.536260  0.882274  1
  Bi  Bi6  1  0.000666  0.001158  0.501039  1
  Bi  Bi7  1  0.001100  0.999984  0.999229  1
  O  O8  1  0.439837  0.644891  0.164928  1
  O  O9  1  0.554354  0.354781  0.833892  1
  O  O10  1  0.296391  0.926341  0.954086  1
  O  O11  1  0.704460  0.067737  0.045536  1
  O  O12  1  0.293150  0.929136  0.511892  1
  O  O13  1  0.707360  0.070802  0.487894  1
  O  O14  1  0.545625  0.362757  0.344940  1
  O  O15  1  0.452796  0.637749  0.656431  1
  O  O16  1  0.927490  0.673494  0.951427  1
  O  O17  1  0.079082  0.324180  0.043266  1
  O  O18  1  0.075836  0.334139  0.616968  1
  O  O19  1  0.925318  0.667145  0.386710  1
  O  O20  1  0.887335  0.919763  0.729336  1
  O  O21  1  0.111768  0.081495  0.270933  1
