# generated using pymatgen
data_Nd2TmLu(NiAs2)2
_symmetry_space_group_name_H-M   'P 1'
_cell_length_a   4.19331900
_cell_length_b   4.19331857
_cell_length_c   13.82433900
_cell_angle_alpha   90.00000000
_cell_angle_beta   90.00000000
_cell_angle_gamma   120.00001125
_symmetry_Int_Tables_number   1
_chemical_formula_structural   Nd2TmLu(NiAs2)2
_chemical_formula_sum   'Nd2 Tm1 Lu1 Ni2 As4'
_cell_volume   210.51871830
_cell_formula_units_Z   1
loop_
 _symmetry_equiv_pos_site_id
 _symmetry_equiv_pos_as_xyz
  1  'x, y, z'
loop_
 _atom_site_type_symbol
 _atom_site_label
 _atom_site_symmetry_multiplicity
 _atom_site_fract_x
 _atom_site_fract_y
 _atom_site_fract_z
 _atom_site_occupancy
  Nd  Nd0  1  0.333333  0.666667  0.883155  1
  Nd  Nd1  1  0.666667  0.333333  0.381132  1
  Tm  Tm2  1  0.333333  0.666667  0.617373  1
  Lu  Lu3  1  0.666667  0.333333  0.116790  1
  Ni  Ni4  1  0.000000  0.000000  0.722132  1
  Ni  Ni5  1  0.000000  0.000000  0.214065  1
  As  As6  1  0.000000  0.000000  0.514716  1
  As  As7  1  0.000000  0.000000  0.016987  1
  As  As8  1  0.666667  0.333333  0.751340  1
  As  As9  1  0.333333  0.666667  0.249649  1
