# generated using pymatgen
data_Ca2Tb4Al13Si11Os8
_symmetry_space_group_name_H-M   'P 1'
_cell_length_a   8.75862200
_cell_length_b   8.73506357
_cell_length_c   9.26195219
_cell_angle_alpha   90.05040601
_cell_angle_beta   90.00000000
_cell_angle_gamma   120.08925609
_symmetry_Int_Tables_number   1
_chemical_formula_structural   Ca2Tb4Al13Si11Os8
_chemical_formula_sum   'Ca2 Tb4 Al13 Si11 Os8'
_cell_volume   613.11718150
_cell_formula_units_Z   1
loop_
 _symmetry_equiv_pos_site_id
 _symmetry_equiv_pos_as_xyz
  1  'x, y, z'
loop_
 _atom_site_type_symbol
 _atom_site_label
 _atom_site_symmetry_multiplicity
 _atom_site_fract_x
 _atom_site_fract_y
 _atom_site_fract_z
 _atom_site_occupancy
  Ca  Ca0  1  0.192112  0.384224  0.249546  1
  Ca  Ca1  1  0.807753  0.615507  0.750468  1
  Tb  Tb2  1  0.617870  0.808967  0.248799  1
  Tb  Tb3  1  0.383278  0.191777  0.750363  1
  Tb  Tb4  1  0.191098  0.808967  0.248799  1
  Tb  Tb5  1  0.808498  0.191777  0.750363  1
  Al  Al6  1  0.332828  0.665657  0.468718  1
  Al  Al7  1  0.166054  0.332108  0.577090  1
  Al  Al8  1  0.832875  0.665750  0.422179  1
  Al  Al9  1  0.668556  0.834049  0.579079  1
  Al  Al10  1  0.832867  0.665737  0.077542  1
  Al  Al11  1  0.333254  0.166625  0.419729  1
  Al  Al12  1  0.167671  0.335340  0.921216  1
  Al  Al13  1  0.165495  0.834049  0.579079  1
  Al  Al14  1  0.333289  0.166689  0.079764  1
  Al  Al15  1  0.833371  0.166625  0.419729  1
  Al  Al16  1  0.665665  0.832899  0.918833  1
  Al  Al17  1  0.833399  0.166689  0.079764  1
  Al  Al18  1  0.167234  0.832899  0.918833  1
  Si  Si19  1  0.333030  0.666060  0.049422  1
  Si  Si20  1  0.667108  0.334215  0.954082  1
  Si  Si21  1  0.666974  0.333947  0.544869  1
  Si  Si22  1  0.561606  0.123210  0.249691  1
  Si  Si23  1  0.438861  0.877722  0.747994  1
  Si  Si24  1  0.879445  0.438667  0.249875  1
  Si  Si25  1  0.119591  0.560881  0.748206  1
  Si  Si26  1  0.559223  0.438667  0.249875  1
  Si  Si27  1  0.441290  0.560881  0.748206  1
  Si  Si28  1  0.999390  0.998780  0.249330  1
  Si  Si29  1  0.000422  0.000845  0.749648  1
  Os  Os30  1  0.500569  0.001138  0.998516  1
  Os  Os31  1  0.999162  0.499626  0.998852  1
  Os  Os32  1  0.503529  0.007057  0.501088  1
  Os  Os33  1  0.500464  0.499626  0.998852  1
  Os  Os34  1  0.992557  0.496176  0.501420  1
  Os  Os35  1  0.503620  0.496176  0.501420  1
  Os  Os36  1  0.000004  0.000008  0.999443  1
  Os  Os37  1  0.999991  0.999982  0.499313  1
