# generated using pymatgen
data_HfZrTi3Si4
_symmetry_space_group_name_H-M   'P 1'
_cell_length_a   6.83107502
_cell_length_b   6.83111503
_cell_length_c   12.50667807
_cell_angle_alpha   89.98981893
_cell_angle_beta   90.00682694
_cell_angle_gamma   90.00493215
_symmetry_Int_Tables_number   1
_chemical_formula_structural   HfZrTi3Si4
_chemical_formula_sum   'Hf4 Zr4 Ti12 Si16'
_cell_volume   583.60984972
_cell_formula_units_Z   4
loop_
 _symmetry_equiv_pos_site_id
 _symmetry_equiv_pos_as_xyz
  1  'x, y, z'
loop_
 _atom_site_type_symbol
 _atom_site_label
 _atom_site_symmetry_multiplicity
 _atom_site_fract_x
 _atom_site_fract_y
 _atom_site_fract_z
 _atom_site_occupancy
  Hf  Hf0  1  0.000545  0.654504  0.032299  1
  Hf  Hf1  1  0.999357  0.345770  0.533042  1
  Hf  Hf2  1  0.654653  0.000523  0.967433  1
  Hf  Hf3  1  0.154194  0.499516  0.782870  1
  Zr  Zr4  1  0.845544  0.500280  0.282702  1
  Zr  Zr5  1  0.499732  0.154596  0.216966  1
  Zr  Zr6  1  0.500208  0.845140  0.717743  1
  Zr  Zr7  1  0.345122  0.999620  0.467509  1
  Ti  Ti8  1  0.347258  0.503517  0.377118  1
  Ti  Ti9  1  0.847739  0.996162  0.373129  1
  Ti  Ti10  1  0.003785  0.151860  0.126519  1
  Ti  Ti11  1  0.996212  0.847744  0.627333  1
  Ti  Ti12  1  0.652183  0.496584  0.877151  1
  Ti  Ti13  1  0.503413  0.347822  0.623350  1
  Ti  Ti14  1  0.496511  0.652587  0.122565  1
  Ti  Ti15  1  0.151671  0.003710  0.873209  1
  Ti  Ti16  1  0.671867  0.671348  0.500115  1
  Ti  Ti17  1  0.828616  0.171941  0.750204  1
  Ti  Ti18  1  0.171561  0.828203  0.249543  1
  Ti  Ti19  1  0.328280  0.328584  0.999616  1
  Si  Si20  1  0.046580  0.707017  0.436641  1
  Si  Si21  1  0.953691  0.293022  0.936085  1
  Si  Si22  1  0.708696  0.047258  0.563749  1
  Si  Si23  1  0.207421  0.454055  0.185619  1
  Si  Si24  1  0.793661  0.545777  0.686084  1
  Si  Si25  1  0.453540  0.208007  0.814387  1
  Si  Si26  1  0.546738  0.791878  0.313708  1
  Si  Si27  1  0.292330  0.952839  0.063340  1
  Si  Si28  1  0.864209  0.795022  0.823207  1
  Si  Si29  1  0.135556  0.205223  0.322553  1
  Si  Si30  1  0.795537  0.863577  0.176763  1
  Si  Si31  1  0.294231  0.635125  0.572647  1
  Si  Si32  1  0.705472  0.363959  0.072037  1
  Si  Si33  1  0.636731  0.295074  0.427902  1
  Si  Si34  1  0.363054  0.704709  0.927384  1
  Si  Si35  1  0.204104  0.137447  0.677478  1
