# generated using pymatgen
data_HoZrReB6
_symmetry_space_group_name_H-M   'P 1'
_cell_length_a   3.61100800
_cell_length_b   9.03958500
_cell_length_c   11.42299700
_cell_angle_alpha   90.00000000
_cell_angle_beta   90.00000000
_cell_angle_gamma   90.00000000
_symmetry_Int_Tables_number   1
_chemical_formula_structural   HoZrReB6
_chemical_formula_sum   'Ho4 Zr4 Re4 B24'
_cell_volume   372.86962516
_cell_formula_units_Z   4
loop_
 _symmetry_equiv_pos_site_id
 _symmetry_equiv_pos_as_xyz
  1  'x, y, z'
loop_
 _atom_site_type_symbol
 _atom_site_label
 _atom_site_symmetry_multiplicity
 _atom_site_fract_x
 _atom_site_fract_y
 _atom_site_fract_z
 _atom_site_occupancy
  Ho  Ho0  1  0.000000  0.322717  0.413935  1
  Ho  Ho1  1  0.000000  0.677283  0.586065  1
  Ho  Ho2  1  0.000000  0.822717  0.086065  1
  Ho  Ho3  1  0.000000  0.177283  0.913935  1
  Zr  Zr4  1  0.000000  0.944729  0.372403  1
  Zr  Zr5  1  0.000000  0.055271  0.627597  1
  Zr  Zr6  1  0.000000  0.444729  0.127597  1
  Zr  Zr7  1  0.000000  0.555271  0.872403  1
  Re  Re8  1  0.000000  0.639908  0.318551  1
  Re  Re9  1  0.000000  0.360092  0.681449  1
  Re  Re10  1  0.000000  0.139908  0.181449  1
  Re  Re11  1  0.000000  0.860092  0.818551  1
  B  B12  1  0.500000  0.554004  0.433417  1
  B  B13  1  0.500000  0.445996  0.566583  1
  B  B14  1  0.500000  0.054004  0.066583  1
  B  B15  1  0.500000  0.945996  0.933417  1
  B  B16  1  0.500000  0.751409  0.418468  1
  B  B17  1  0.500000  0.248591  0.581532  1
  B  B18  1  0.500000  0.251409  0.081532  1
  B  B19  1  0.500000  0.748591  0.918468  1
  B  B20  1  0.500000  0.794313  0.264325  1
  B  B21  1  0.500000  0.205687  0.735675  1
  B  B22  1  0.500000  0.294313  0.235675  1
  B  B23  1  0.500000  0.705687  0.764325  1
  B  B24  1  0.500000  0.630632  0.183430  1
  B  B25  1  0.500000  0.369368  0.816570  1
  B  B26  1  0.500000  0.130632  0.316570  1
  B  B27  1  0.500000  0.869368  0.683430  1
  B  B28  1  0.500000  0.981854  0.213126  1
  B  B29  1  0.500000  0.018146  0.786874  1
  B  B30  1  0.500000  0.481854  0.286874  1
  B  B31  1  0.500000  0.518146  0.713126  1
  B  B32  1  0.500000  0.601121  0.027131  1
  B  B33  1  0.500000  0.398879  0.972869  1
  B  B34  1  0.500000  0.101121  0.472869  1
  B  B35  1  0.500000  0.898879  0.527131  1
