# generated using pymatgen
data_Bi24Ir3Rh3Br4
_symmetry_space_group_name_H-M   'P 1'
_cell_length_a   18.33850520
_cell_length_b   16.70285912
_cell_length_c   9.28979249
_cell_angle_alpha   84.47122722
_cell_angle_beta   64.88069547
_cell_angle_gamma   29.93961974
_symmetry_Int_Tables_number   1
_chemical_formula_structural   Bi24Ir3Rh3Br4
_chemical_formula_sum   'Bi24 Ir3 Rh3 Br4'
_cell_volume   1027.87211210
_cell_formula_units_Z   1
loop_
 _symmetry_equiv_pos_site_id
 _symmetry_equiv_pos_as_xyz
  1  'x, y, z'
loop_
 _atom_site_type_symbol
 _atom_site_label
 _atom_site_symmetry_multiplicity
 _atom_site_fract_x
 _atom_site_fract_y
 _atom_site_fract_z
 _atom_site_occupancy
  Bi  Bi0  1  0.434826  0.459211  0.312571  1
  Bi  Bi1  1  0.371471  0.852748  0.048338  1
  Bi  Bi2  1  0.309039  0.794847  0.436167  1
  Bi  Bi3  1  0.940961  0.455153  0.813833  1
  Bi  Bi4  1  0.721961  0.053247  0.855726  1
  Bi  Bi5  1  0.794239  0.813698  0.452363  1
  Bi  Bi6  1  0.106836  0.784876  0.788394  1
  Bi  Bi7  1  0.143164  0.465124  0.461606  1
  Bi  Bi8  1  0.782901  0.110155  0.321397  1
  Bi  Bi9  1  0.196066  0.527427  0.881151  1
  Bi  Bi10  1  0.930144  0.464762  0.466662  1
  Bi  Bi11  1  0.528039  0.196753  0.394274  1
  Bi  Bi12  1  0.793953  0.310338  0.463824  1
  Bi  Bi13  1  0.396294  0.878547  0.522026  1
  Bi  Bi14  1  0.784371  0.321459  0.116611  1
  Bi  Bi15  1  0.456047  0.939662  0.786176  1
  Bi  Bi16  1  0.455761  0.436302  0.797637  1
  Bi  Bi17  1  0.053934  0.722573  0.368849  1
  Bi  Bi18  1  0.853706  0.371453  0.727974  1
  Bi  Bi19  1  0.815174  0.790789  0.937429  1
  Bi  Bi20  1  0.467099  0.139845  0.928603  1
  Bi  Bi21  1  0.878529  0.397252  0.201662  1
  Bi  Bi22  1  0.319856  0.785238  0.783338  1
  Bi  Bi23  1  0.465629  0.928541  0.133389  1
  Ir  Ir24  1  0.752413  0.748410  0.745975  1
  Ir  Ir25  1  0.625000  0.625000  0.625000  1
  Ir  Ir26  1  0.497587  0.501590  0.504025  1
  Rh  Rh27  1  0.625000  0.625000  0.125000  1
  Rh  Rh28  1  0.625000  0.125000  0.625000  1
  Rh  Rh29  1  0.125000  0.625000  0.625000  1
  Br  Br30  1  0.802072  0.199033  0.790650  1
  Br  Br31  1  0.211481  0.793094  0.194151  1
  Br  Br32  1  0.038519  0.456906  0.055849  1
  Br  Br33  1  0.447928  0.050967  0.459350  1
