# generated using pymatgen
data_TbMg(NbSe2)8
_symmetry_space_group_name_H-M   'P 1'
_cell_length_a   7.01952900
_cell_length_b   7.01953110
_cell_length_c   14.15813700
_cell_angle_alpha   90.00000000
_cell_angle_beta   90.00000000
_cell_angle_gamma   120.00000422
_symmetry_Int_Tables_number   1
_chemical_formula_structural   TbMg(NbSe2)8
_chemical_formula_sum   'Tb1 Mg1 Nb8 Se16'
_cell_volume   604.16115563
_cell_formula_units_Z   1
loop_
 _symmetry_equiv_pos_site_id
 _symmetry_equiv_pos_as_xyz
  1  'x, y, z'
loop_
 _atom_site_type_symbol
 _atom_site_label
 _atom_site_symmetry_multiplicity
 _atom_site_fract_x
 _atom_site_fract_y
 _atom_site_fract_z
 _atom_site_occupancy
  Tb  Tb0  1  0.000000  0.000000  0.000000  1
  Mg  Mg1  1  0.000000  0.000000  0.500000  1
  Nb  Nb2  1  0.000000  0.000000  0.251447  1
  Nb  Nb3  1  0.000000  0.000000  0.748553  1
  Nb  Nb4  1  0.507089  0.014179  0.254510  1
  Nb  Nb5  1  0.492911  0.985821  0.745490  1
  Nb  Nb6  1  0.985821  0.492911  0.254510  1
  Nb  Nb7  1  0.014179  0.507089  0.745490  1
  Nb  Nb8  1  0.507089  0.492911  0.254510  1
  Nb  Nb9  1  0.492911  0.507089  0.745490  1
  Se  Se10  1  0.333333  0.666667  0.624491  1
  Se  Se11  1  0.666667  0.333333  0.375509  1
  Se  Se12  1  0.666667  0.333333  0.131805  1
  Se  Se13  1  0.333333  0.666667  0.868195  1
  Se  Se14  1  0.170746  0.341492  0.136580  1
  Se  Se15  1  0.829254  0.658508  0.863420  1
  Se  Se16  1  0.658508  0.829254  0.136580  1
  Se  Se17  1  0.833000  0.665999  0.629534  1
  Se  Se18  1  0.341492  0.170746  0.863420  1
  Se  Se19  1  0.167000  0.334001  0.370466  1
  Se  Se20  1  0.170746  0.829254  0.136580  1
  Se  Se21  1  0.334001  0.167000  0.629534  1
  Se  Se22  1  0.829254  0.170746  0.863420  1
  Se  Se23  1  0.665999  0.833000  0.370466  1
  Se  Se24  1  0.833000  0.167000  0.629534  1
  Se  Se25  1  0.167000  0.833000  0.370466  1
