# generated using pymatgen
data_Yb3AlSiPt2
_symmetry_space_group_name_H-M   'P 1'
_cell_length_a   5.67479800
_cell_length_b   8.01541100
_cell_length_c   13.53127700
_cell_angle_alpha   90.00000000
_cell_angle_beta   90.00000000
_cell_angle_gamma   90.00000000
_symmetry_Int_Tables_number   1
_chemical_formula_structural   Yb3AlSiPt2
_chemical_formula_sum   'Yb12 Al4 Si4 Pt8'
_cell_volume   615.48147778
_cell_formula_units_Z   4
loop_
 _symmetry_equiv_pos_site_id
 _symmetry_equiv_pos_as_xyz
  1  'x, y, z'
loop_
 _atom_site_type_symbol
 _atom_site_label
 _atom_site_symmetry_multiplicity
 _atom_site_fract_x
 _atom_site_fract_y
 _atom_site_fract_z
 _atom_site_occupancy
  Yb  Yb0  1  0.648705  0.246183  0.250000  1
  Yb  Yb1  1  0.351295  0.753817  0.750000  1
  Yb  Yb2  1  0.351295  0.746183  0.250000  1
  Yb  Yb3  1  0.648705  0.253817  0.750000  1
  Yb  Yb4  1  0.143084  0.393014  0.102374  1
  Yb  Yb5  1  0.856916  0.606986  0.897626  1
  Yb  Yb6  1  0.856916  0.606986  0.602374  1
  Yb  Yb7  1  0.856916  0.893014  0.397626  1
  Yb  Yb8  1  0.143084  0.393014  0.397626  1
  Yb  Yb9  1  0.143084  0.106986  0.602374  1
  Yb  Yb10  1  0.143084  0.106986  0.897626  1
  Yb  Yb11  1  0.856916  0.893014  0.102374  1
  Al  Al12  1  0.622763  0.250000  0.000000  1
  Al  Al13  1  0.377237  0.750000  0.000000  1
  Al  Al14  1  0.377237  0.750000  0.500000  1
  Al  Al15  1  0.622763  0.250000  0.500000  1
  Si  Si16  1  0.157636  0.098073  0.250000  1
  Si  Si17  1  0.842364  0.901927  0.750000  1
  Si  Si18  1  0.842364  0.598073  0.250000  1
  Si  Si19  1  0.157636  0.401927  0.750000  1
  Pt  Pt20  1  0.369867  0.033015  0.094309  1
  Pt  Pt21  1  0.630133  0.966985  0.905691  1
  Pt  Pt22  1  0.630133  0.966985  0.594309  1
  Pt  Pt23  1  0.630133  0.533015  0.405691  1
  Pt  Pt24  1  0.369867  0.033015  0.405691  1
  Pt  Pt25  1  0.369867  0.466985  0.594309  1
  Pt  Pt26  1  0.369867  0.466985  0.905691  1
  Pt  Pt27  1  0.630133  0.533015  0.094309  1
