# generated using pymatgen
data_TbPr17(PaRh8)2
_symmetry_space_group_name_H-M   'P 1'
_cell_length_a   7.69642803
_cell_length_b   7.68880167
_cell_length_c   14.98825400
_cell_angle_alpha   90.29464736
_cell_angle_beta   89.99465488
_cell_angle_gamma   89.99954312
_symmetry_Int_Tables_number   1
_chemical_formula_structural   TbPr17(PaRh8)2
_chemical_formula_sum   'Tb1 Pr17 Pa2 Rh16'
_cell_volume   886.93781373
_cell_formula_units_Z   1
loop_
 _symmetry_equiv_pos_site_id
 _symmetry_equiv_pos_as_xyz
  1  'x, y, z'
loop_
 _atom_site_type_symbol
 _atom_site_label
 _atom_site_symmetry_multiplicity
 _atom_site_fract_x
 _atom_site_fract_y
 _atom_site_fract_z
 _atom_site_occupancy
  Tb  Tb0  1  0.674975  0.010818  0.249267  1
  Pr  Pr1  1  0.338178  0.837028  0.120994  1
  Pr  Pr2  1  0.835592  0.666144  0.378926  1
  Pr  Pr3  1  0.336365  0.835323  0.378879  1
  Pr  Pr4  1  0.833946  0.667943  0.121282  1
  Pr  Pr5  1  0.662307  0.164914  0.879815  1
  Pr  Pr6  1  0.162121  0.334640  0.620211  1
  Pr  Pr7  1  0.515747  0.682121  0.593740  1
  Pr  Pr8  1  0.015993  0.817814  0.906188  1
  Pr  Pr9  1  0.489903  0.315332  0.097648  1
  Pr  Pr10  1  0.986583  0.181892  0.402118  1
  Pr  Pr11  1  0.486142  0.318154  0.406767  1
  Pr  Pr12  1  0.983642  0.179027  0.093268  1
  Pr  Pr13  1  0.511187  0.678322  0.908027  1
  Pr  Pr14  1  0.011533  0.821255  0.592121  1
  Pr  Pr15  1  0.820878  0.516177  0.748880  1
  Pr  Pr16  1  0.320703  0.983614  0.751219  1
  Pr  Pr17  1  0.174653  0.490452  0.249471  1
  Pa  Pa18  1  0.659218  0.157320  0.624296  1
  Pa  Pa19  1  0.159359  0.342668  0.875849  1
  Rh  Rh20  1  0.692795  0.978597  0.475793  1
  Rh  Rh21  1  0.192582  0.521269  0.023138  1
  Rh  Rh22  1  0.296659  0.070703  0.956162  1
  Rh  Rh23  1  0.796574  0.429058  0.543680  1
  Rh  Rh24  1  0.343663  0.033748  0.549616  1
  Rh  Rh25  1  0.843257  0.466571  0.950759  1
  Rh  Rh26  1  0.666345  0.969820  0.045170  1
  Rh  Rh27  1  0.165951  0.531113  0.456840  1
  Rh  Rh28  1  0.466896  0.366267  0.744851  1
  Rh  Rh29  1  0.966479  0.134175  0.755202  1
  Rh  Rh30  1  0.540781  0.606568  0.251462  1
  Rh  Rh31  1  0.035436  0.898324  0.248472  1
  Rh  Rh32  1  0.704728  0.886784  0.737425  1
  Rh  Rh33  1  0.204744  0.613406  0.762525  1
  Rh  Rh34  1  0.305858  0.140201  0.250531  1
  Rh  Rh35  1  0.798231  0.352439  0.249409  1
