# generated using pymatgen
data_Dy13Ho3In3AgRh4
_symmetry_space_group_name_H-M   'P 1'
_cell_length_a   9.63120153
_cell_length_b   9.62571515
_cell_length_c   9.61065007
_cell_angle_alpha   59.94632917
_cell_angle_beta   59.93012295
_cell_angle_gamma   59.98255238
_symmetry_Int_Tables_number   1
_chemical_formula_structural   Dy13Ho3In3AgRh4
_chemical_formula_sum   'Dy13 Ho3 In3 Ag1 Rh4'
_cell_volume   629.34370936
_cell_formula_units_Z   1
loop_
 _symmetry_equiv_pos_site_id
 _symmetry_equiv_pos_as_xyz
  1  'x, y, z'
loop_
 _atom_site_type_symbol
 _atom_site_label
 _atom_site_symmetry_multiplicity
 _atom_site_fract_x
 _atom_site_fract_y
 _atom_site_fract_z
 _atom_site_occupancy
  Dy  Dy0  1  0.937199  0.937420  0.557492  1
  Dy  Dy1  1  0.149991  0.148861  0.551158  1
  Dy  Dy2  1  0.567893  0.937423  0.557491  1
  Dy  Dy3  1  0.151682  0.150085  0.149050  1
  Dy  Dy4  1  0.309403  0.310553  0.690227  1
  Dy  Dy5  1  0.938201  0.566679  0.556921  1
  Dy  Dy6  1  0.564136  0.563718  0.935628  1
  Dy  Dy7  1  0.564432  0.936390  0.934757  1
  Dy  Dy8  1  0.936522  0.563717  0.935624  1
  Dy  Dy9  1  0.150350  0.551297  0.148001  1
  Dy  Dy10  1  0.309627  0.690228  0.690512  1
  Dy  Dy11  1  0.689820  0.310554  0.690222  1
  Dy  Dy12  1  0.549187  0.150084  0.149049  1
  Ho  Ho13  1  0.688517  0.312046  0.310901  1
  Ho  Ho14  1  0.688292  0.688544  0.311915  1
  Ho  Ho15  1  0.311254  0.688533  0.311914  1
  In  In16  1  0.244883  0.917215  0.921629  1
  In  In17  1  0.916343  0.244731  0.922579  1
  In  In18  1  0.916275  0.917213  0.921628  1
  Ag  Ag19  1  0.916382  0.915945  0.251291  1
  Rh  Rh20  1  0.357192  0.357494  0.358097  1
  Rh  Rh21  1  0.927214  0.357501  0.358100  1
  Rh  Rh22  1  0.357453  0.357381  0.927712  1
  Rh  Rh23  1  0.357751  0.926390  0.358105  1
