# generated using pymatgen
data_Pr2P24PdRu7
_symmetry_space_group_name_H-M   'P 1'
_cell_length_a   8.12792448
_cell_length_b   8.12792448
_cell_length_c   8.12792448
_cell_angle_alpha   89.93668025
_cell_angle_beta   89.93668025
_cell_angle_gamma   89.93668025
_symmetry_Int_Tables_number   1
_chemical_formula_structural   Pr2P24PdRu7
_chemical_formula_sum   'Pr2 P24 Pd1 Ru7'
_cell_volume   536.95536284
_cell_formula_units_Z   1
loop_
 _symmetry_equiv_pos_site_id
 _symmetry_equiv_pos_as_xyz
  1  'x, y, z'
loop_
 _atom_site_type_symbol
 _atom_site_label
 _atom_site_symmetry_multiplicity
 _atom_site_fract_x
 _atom_site_fract_y
 _atom_site_fract_z
 _atom_site_occupancy
  Pr  Pr0  1  0.991988  0.991988  0.991988  1
  Pr  Pr1  1  0.508011  0.508011  0.508011  1
  P  P2  1  0.358602  0.139939  0.993908  1
  P  P3  1  0.644162  0.144229  0.000039  1
  P  P4  1  0.355318  0.856049  0.999417  1
  P  P5  1  0.643137  0.855444  0.000031  1
  P  P6  1  0.360060  0.506093  0.141398  1
  P  P7  1  0.643952  0.500582  0.144682  1
  P  P8  1  0.993908  0.358602  0.139939  1
  P  P9  1  0.000039  0.644162  0.144229  1
  P  P10  1  0.506093  0.141398  0.360060  1
  P  P11  1  0.499961  0.855839  0.355768  1
  P  P12  1  0.139939  0.993908  0.358602  1
  P  P13  1  0.856049  0.999417  0.355318  1
  P  P14  1  0.141398  0.360060  0.506093  1
  P  P15  1  0.855839  0.355768  0.499961  1
  P  P16  1  0.144682  0.643952  0.500582  1
  P  P17  1  0.856862  0.644558  0.499969  1
  P  P18  1  0.144229  0.000039  0.644162  1
  P  P19  1  0.855444  0.000031  0.643137  1
  P  P20  1  0.500582  0.144682  0.643952  1
  P  P21  1  0.499969  0.856862  0.644558  1
  P  P22  1  0.999417  0.355318  0.856049  1
  P  P23  1  0.000031  0.643137  0.855444  1
  P  P24  1  0.355768  0.499961  0.855839  1
  P  P25  1  0.644558  0.499969  0.856862  1
  Pd  Pd26  1  0.250001  0.250001  0.250001  1
  Ru  Ru27  1  0.750001  0.249997  0.249999  1
  Ru  Ru28  1  0.249999  0.750001  0.249997  1
  Ru  Ru29  1  0.750002  0.750000  0.249999  1
  Ru  Ru30  1  0.249997  0.249999  0.750001  1
  Ru  Ru31  1  0.750000  0.249999  0.750002  1
  Ru  Ru32  1  0.249999  0.750002  0.750000  1
  Ru  Ru33  1  0.750001  0.750001  0.750001  1
