# generated using pymatgen
data_LiHo4Co4(P4Rh5)3
_symmetry_space_group_name_H-M   'P 1'
_cell_length_a   3.83810800
_cell_length_b   10.73035603
_cell_length_c   12.42846504
_cell_angle_alpha   89.99155387
_cell_angle_beta   90.00000000
_cell_angle_gamma   90.00000000
_symmetry_Int_Tables_number   1
_chemical_formula_structural   LiHo4Co4(P4Rh5)3
_chemical_formula_sum   'Li1 Ho4 Co4 P12 Rh15'
_cell_volume   511.85719589
_cell_formula_units_Z   1
loop_
 _symmetry_equiv_pos_site_id
 _symmetry_equiv_pos_as_xyz
  1  'x, y, z'
loop_
 _atom_site_type_symbol
 _atom_site_label
 _atom_site_symmetry_multiplicity
 _atom_site_fract_x
 _atom_site_fract_y
 _atom_site_fract_z
 _atom_site_occupancy
  Li  Li0  1  0.250000  0.705509  0.987173  1
  Ho  Ho1  1  0.250000  0.583833  0.708081  1
  Ho  Ho2  1  0.250000  0.916372  0.208489  1
  Ho  Ho3  1  0.750000  0.416225  0.292362  1
  Ho  Ho4  1  0.750000  0.079933  0.793387  1
  Co  Co5  1  0.250000  0.463726  0.934705  1
  Co  Co6  1  0.250000  0.035681  0.432922  1
  Co  Co7  1  0.750000  0.536844  0.063932  1
  Co  Co8  1  0.750000  0.964684  0.565005  1
  P  P9  1  0.250000  0.426541  0.107037  1
  P  P10  1  0.250000  0.076399  0.604875  1
  P  P11  1  0.750000  0.574530  0.890918  1
  P  P12  1  0.750000  0.924250  0.393326  1
  P  P13  1  0.250000  0.269796  0.870754  1
  P  P14  1  0.250000  0.228708  0.372092  1
  P  P15  1  0.750000  0.731008  0.131635  1
  P  P16  1  0.750000  0.772292  0.629224  1
  P  P17  1  0.250000  0.598998  0.386906  1
  P  P18  1  0.250000  0.899203  0.888914  1
  P  P19  1  0.750000  0.400757  0.613144  1
  P  P20  1  0.750000  0.097912  0.110587  1
  Rh  Rh21  1  0.250000  0.782902  0.488184  1
  Rh  Rh22  1  0.750000  0.289491  0.016545  1
  Rh  Rh23  1  0.750000  0.217475  0.510944  1
  Rh  Rh24  1  0.250000  0.408754  0.479357  1
  Rh  Rh25  1  0.250000  0.094820  0.980920  1
  Rh  Rh26  1  0.750000  0.592075  0.522496  1
  Rh  Rh27  1  0.750000  0.906106  0.018933  1
  Rh  Rh28  1  0.250000  0.230512  0.179399  1
  Rh  Rh29  1  0.250000  0.272463  0.676530  1
  Rh  Rh30  1  0.750000  0.773424  0.821779  1
  Rh  Rh31  1  0.750000  0.726090  0.324373  1
  Rh  Rh32  1  0.250000  0.887822  0.696756  1
  Rh  Rh33  1  0.250000  0.618405  0.195663  1
  Rh  Rh34  1  0.750000  0.112934  0.299987  1
  Rh  Rh35  1  0.750000  0.383525  0.802669  1
