# generated using pymatgen
data_Er3Tm13MgCo4Ag3
_symmetry_space_group_name_H-M   'P 1'
_cell_length_a   9.32421619
_cell_length_b   9.33473800
_cell_length_c   9.33473800
_cell_angle_alpha   60.00000709
_cell_angle_beta   59.96267162
_cell_angle_gamma   59.96267021
_symmetry_Int_Tables_number   1
_chemical_formula_structural   Er3Tm13MgCo4Ag3
_chemical_formula_sum   'Er3 Tm13 Mg1 Co4 Ag3'
_cell_volume   574.19096422
_cell_formula_units_Z   1
loop_
 _symmetry_equiv_pos_site_id
 _symmetry_equiv_pos_as_xyz
  1  'x, y, z'
loop_
 _atom_site_type_symbol
 _atom_site_label
 _atom_site_symmetry_multiplicity
 _atom_site_fract_x
 _atom_site_fract_y
 _atom_site_fract_z
 _atom_site_occupancy
  Er  Er0  1  0.346481  0.345524  0.345524  1
  Er  Er1  1  0.346481  0.345524  0.962472  1
  Er  Er2  1  0.346481  0.962472  0.345524  1
  Tm  Tm3  1  0.952129  0.349291  0.349291  1
  Tm  Tm4  1  0.809808  0.189143  0.189143  1
  Tm  Tm5  1  0.185744  0.813840  0.813840  1
  Tm  Tm6  1  0.185744  0.813840  0.186577  1
  Tm  Tm7  1  0.809808  0.189143  0.811907  1
  Tm  Tm8  1  0.185744  0.186577  0.813840  1
  Tm  Tm9  1  0.809808  0.811907  0.189143  1
  Tm  Tm10  1  0.934970  0.562775  0.562775  1
  Tm  Tm11  1  0.562220  0.936978  0.936978  1
  Tm  Tm12  1  0.562220  0.936978  0.563823  1
  Tm  Tm13  1  0.934970  0.562775  0.939479  1
  Tm  Tm14  1  0.562220  0.563823  0.936978  1
  Tm  Tm15  1  0.934970  0.939479  0.562775  1
  Mg  Mg16  1  0.287757  0.570747  0.570747  1
  Co  Co17  1  0.138271  0.142583  0.142583  1
  Co  Co18  1  0.138271  0.142583  0.576564  1
  Co  Co19  1  0.138271  0.576564  0.142583  1
  Co  Co20  1  0.576430  0.141190  0.141190  1
  Ag  Ag21  1  0.583736  0.582862  0.582862  1
  Ag  Ag22  1  0.583736  0.582862  0.250538  1
  Ag  Ag23  1  0.583736  0.250538  0.582862  1
