# generated using pymatgen
data_TbHoLu6(WO6)4
_symmetry_space_group_name_H-M   'P 1'
_cell_length_a   5.32325400
_cell_length_b   7.60394508
_cell_length_c   11.33439221
_cell_angle_alpha   75.21285294
_cell_angle_beta   90.00000000
_cell_angle_gamma   90.00000000
_symmetry_Int_Tables_number   1
_chemical_formula_structural   TbHoLu6(WO6)4
_chemical_formula_sum   'Tb1 Ho1 Lu6 W4 O24'
_cell_volume   443.59564526
_cell_formula_units_Z   1
loop_
 _symmetry_equiv_pos_site_id
 _symmetry_equiv_pos_as_xyz
  1  'x, y, z'
loop_
 _atom_site_type_symbol
 _atom_site_label
 _atom_site_symmetry_multiplicity
 _atom_site_fract_x
 _atom_site_fract_y
 _atom_site_fract_z
 _atom_site_occupancy
  Tb  Tb0  1  0.685101  0.500000  0.750000  1
  Ho  Ho1  1  0.315048  0.500000  0.250000  1
  Lu  Lu2  1  0.739839  0.000000  0.750000  1
  Lu  Lu3  1  0.260573  0.000000  0.250000  1
  Lu  Lu4  1  0.186487  0.797804  0.578307  1
  Lu  Lu5  1  0.813764  0.797259  0.078740  1
  Lu  Lu6  1  0.186487  0.202196  0.921693  1
  Lu  Lu7  1  0.813764  0.202741  0.421260  1
  W  W8  1  0.254297  0.724598  0.886241  1
  W  W9  1  0.745640  0.724325  0.385664  1
  W  W10  1  0.254297  0.275402  0.613759  1
  W  W11  1  0.745640  0.275675  0.114336  1
  O  O12  1  0.037790  0.942686  0.895718  1
  O  O13  1  0.536479  0.849441  0.931318  1
  O  O14  1  0.961899  0.942987  0.395009  1
  O  O15  1  0.460312  0.794166  0.725713  1
  O  O16  1  0.464217  0.849572  0.431166  1
  O  O17  1  0.982419  0.715098  0.769017  1
  O  O18  1  0.538989  0.793354  0.225557  1
  O  O19  1  0.857095  0.636402  0.549365  1
  O  O20  1  0.357033  0.486842  0.888108  1
  O  O21  1  0.019071  0.713215  0.269293  1
  O  O22  1  0.357033  0.513158  0.611892  1
  O  O23  1  0.857095  0.363598  0.950635  1
  O  O24  1  0.143896  0.636480  0.050469  1
  O  O25  1  0.640331  0.486908  0.387265  1
  O  O26  1  0.982419  0.284902  0.730983  1
  O  O27  1  0.640331  0.513092  0.112735  1
  O  O28  1  0.143896  0.363520  0.449531  1
  O  O29  1  0.460312  0.205834  0.774287  1
  O  O30  1  0.019071  0.286785  0.230707  1
  O  O31  1  0.536479  0.150559  0.568682  1
  O  O32  1  0.538989  0.206646  0.274443  1
  O  O33  1  0.037790  0.057314  0.604282  1
  O  O34  1  0.464217  0.150428  0.068834  1
  O  O35  1  0.961899  0.057013  0.104991  1
