# generated using pymatgen
data_Hf15Sc3Re6(PW)2
_symmetry_space_group_name_H-M   'P 1'
_cell_length_a   8.64344200
_cell_length_b   8.64344120
_cell_length_c   8.53546600
_cell_angle_alpha   90.00000000
_cell_angle_beta   90.00000000
_cell_angle_gamma   119.99999541
_symmetry_Int_Tables_number   1
_chemical_formula_structural   Hf15Sc3Re6(PW)2
_chemical_formula_sum   'Hf15 Sc3 Re6 P2 W2'
_cell_volume   552.24436413
_cell_formula_units_Z   1
loop_
 _symmetry_equiv_pos_site_id
 _symmetry_equiv_pos_as_xyz
  1  'x, y, z'
loop_
 _atom_site_type_symbol
 _atom_site_label
 _atom_site_symmetry_multiplicity
 _atom_site_fract_x
 _atom_site_fract_y
 _atom_site_fract_z
 _atom_site_occupancy
  Hf  Hf0  1  0.196067  0.803933  0.451209  1
  Hf  Hf1  1  0.196067  0.392132  0.451209  1
  Hf  Hf2  1  0.607868  0.803933  0.451209  1
  Hf  Hf3  1  0.803689  0.196311  0.548839  1
  Hf  Hf4  1  0.803689  0.607379  0.548839  1
  Hf  Hf5  1  0.392621  0.196311  0.548839  1
  Hf  Hf6  1  0.803689  0.196311  0.951161  1
  Hf  Hf7  1  0.803689  0.607379  0.951161  1
  Hf  Hf8  1  0.392621  0.196311  0.951161  1
  Hf  Hf9  1  0.196067  0.803933  0.048791  1
  Hf  Hf10  1  0.196067  0.392132  0.048791  1
  Hf  Hf11  1  0.607868  0.803933  0.048791  1
  Hf  Hf12  1  0.459662  0.540338  0.750000  1
  Hf  Hf13  1  0.459662  0.919325  0.750000  1
  Hf  Hf14  1  0.080675  0.540338  0.750000  1
  Sc  Sc15  1  0.540418  0.459582  0.250000  1
  Sc  Sc16  1  0.540418  0.080834  0.250000  1
  Sc  Sc17  1  0.919166  0.459582  0.250000  1
  Re  Re18  1  0.889246  0.110754  0.250000  1
  Re  Re19  1  0.889246  0.778493  0.250000  1
  Re  Re20  1  0.221507  0.110754  0.250000  1
  Re  Re21  1  0.110146  0.889854  0.750000  1
  Re  Re22  1  0.110146  0.220293  0.750000  1
  Re  Re23  1  0.779707  0.889854  0.750000  1
  P  P24  1  0.333333  0.666667  0.250000  1
  P  P25  1  0.666667  0.333333  0.750000  1
  W  W26  1  0.000000  0.000000  0.498021  1
  W  W27  1  0.000000  0.000000  0.001979  1
