# generated using pymatgen
data_Y10AgPb6Se
_symmetry_space_group_name_H-M   'P 1'
_cell_length_a   9.26745000
_cell_length_b   9.26741324
_cell_length_c   6.70947000
_cell_angle_alpha   89.99885624
_cell_angle_beta   89.99902317
_cell_angle_gamma   119.99626910
_symmetry_Int_Tables_number   1
_chemical_formula_structural   Y10AgPb6Se
_chemical_formula_sum   'Y10 Ag1 Pb6 Se1'
_cell_volume   499.06136866
_cell_formula_units_Z   1
loop_
 _symmetry_equiv_pos_site_id
 _symmetry_equiv_pos_as_xyz
  1  'x, y, z'
loop_
 _atom_site_type_symbol
 _atom_site_label
 _atom_site_symmetry_multiplicity
 _atom_site_fract_x
 _atom_site_fract_y
 _atom_site_fract_z
 _atom_site_occupancy
  Y  Y0  1  0.258981  0.999936  0.239470  1
  Y  Y1  1  0.741019  0.000064  0.760530  1
  Y  Y2  1  0.999900  0.259114  0.239272  1
  Y  Y3  1  0.000100  0.740886  0.760728  1
  Y  Y4  1  0.741048  0.740925  0.239699  1
  Y  Y5  1  0.258952  0.259075  0.760301  1
  Y  Y6  1  0.333457  0.666872  0.000174  1
  Y  Y7  1  0.666543  0.333128  0.999826  1
  Y  Y8  1  0.666314  0.333099  0.499895  1
  Y  Y9  1  0.333686  0.666901  0.500105  1
  Ag  Ag10  1  0.000000  0.000000  0.500000  1
  Pb  Pb11  1  0.609192  0.999982  0.250472  1
  Pb  Pb12  1  0.390808  0.000018  0.749528  1
  Pb  Pb13  1  0.000004  0.609137  0.250802  1
  Pb  Pb14  1  0.999996  0.390863  0.749198  1
  Pb  Pb15  1  0.390720  0.390876  0.250338  1
  Pb  Pb16  1  0.609280  0.609124  0.749662  1
  Se  Se17  1  0.000000  0.000000  0.000000  1
