# generated using pymatgen
data_TbNd6Ho9(CdIr)4
_symmetry_space_group_name_H-M   'P 1'
_cell_length_a   9.73131419
_cell_length_b   9.73131437
_cell_length_c   9.73131402
_cell_angle_alpha   59.99432047
_cell_angle_beta   59.99432081
_cell_angle_gamma   59.99432354
_symmetry_Int_Tables_number   1
_chemical_formula_structural   TbNd6Ho9(CdIr)4
_chemical_formula_sum   'Tb1 Nd6 Ho9 Cd4 Ir4'
_cell_volume   651.54372783
_cell_formula_units_Z   1
loop_
 _symmetry_equiv_pos_site_id
 _symmetry_equiv_pos_as_xyz
  1  'x, y, z'
loop_
 _atom_site_type_symbol
 _atom_site_label
 _atom_site_symmetry_multiplicity
 _atom_site_fract_x
 _atom_site_fract_y
 _atom_site_fract_z
 _atom_site_occupancy
  Tb  Tb0  1  0.347518  0.347518  0.347518  1
  Nd  Nd1  1  0.940320  0.559482  0.559482  1
  Nd  Nd2  1  0.558751  0.941059  0.941059  1
  Nd  Nd3  1  0.559482  0.940320  0.559482  1
  Nd  Nd4  1  0.941059  0.558751  0.941059  1
  Nd  Nd5  1  0.559482  0.559482  0.940320  1
  Nd  Nd6  1  0.941059  0.941059  0.558751  1
  Ho  Ho7  1  0.347877  0.347877  0.957349  1
  Ho  Ho8  1  0.347877  0.957349  0.347877  1
  Ho  Ho9  1  0.957349  0.347877  0.347877  1
  Ho  Ho10  1  0.812070  0.187265  0.187265  1
  Ho  Ho11  1  0.186405  0.812585  0.812585  1
  Ho  Ho12  1  0.187265  0.812070  0.187265  1
  Ho  Ho13  1  0.812585  0.186405  0.812585  1
  Ho  Ho14  1  0.187265  0.187265  0.812070  1
  Ho  Ho15  1  0.812585  0.812585  0.186405  1
  Cd  Cd16  1  0.579263  0.579263  0.579263  1
  Cd  Cd17  1  0.579767  0.579767  0.261066  1
  Cd  Cd18  1  0.579767  0.261066  0.579767  1
  Cd  Cd19  1  0.261066  0.579767  0.579767  1
  Ir  Ir20  1  0.141460  0.141460  0.141460  1
  Ir  Ir21  1  0.141453  0.141453  0.576820  1
  Ir  Ir22  1  0.141453  0.576820  0.141453  1
  Ir  Ir23  1  0.576820  0.141453  0.141453  1
