# generated using pymatgen
data_Er10Ga3Sn2Bi
_symmetry_space_group_name_H-M   'P 1'
_cell_length_a   8.71558661
_cell_length_b   8.72936807
_cell_length_c   6.53077700
_cell_angle_alpha   90.00000000
_cell_angle_beta   90.00000000
_cell_angle_gamma   120.01758187
_symmetry_Int_Tables_number   1
_chemical_formula_structural   Er10Ga3Sn2Bi
_chemical_formula_sum   'Er10 Ga3 Sn2 Bi1'
_cell_volume   430.22728042
_cell_formula_units_Z   1
loop_
 _symmetry_equiv_pos_site_id
 _symmetry_equiv_pos_as_xyz
  1  'x, y, z'
loop_
 _atom_site_type_symbol
 _atom_site_label
 _atom_site_symmetry_multiplicity
 _atom_site_fract_x
 _atom_site_fract_y
 _atom_site_fract_z
 _atom_site_occupancy
  Er  Er0  1  0.983190  0.748376  0.750000  1
  Er  Er1  1  0.010080  0.242627  0.250000  1
  Er  Er2  1  0.756930  0.757627  0.250000  1
  Er  Er3  1  0.767757  0.000234  0.750000  1
  Er  Er4  1  0.232128  0.248677  0.750000  1
  Er  Er5  1  0.241325  0.011847  0.250000  1
  Er  Er6  1  0.335670  0.645823  0.500483  1
  Er  Er7  1  0.669698  0.348251  0.999489  1
  Er  Er8  1  0.669698  0.348251  0.500511  1
  Er  Er9  1  0.335670  0.645823  0.999517  1
  Ga  Ga10  1  0.401771  0.397330  0.250000  1
  Ga  Ga11  1  0.994069  0.397184  0.750000  1
  Ga  Ga12  1  0.599850  0.600637  0.750000  1
  Sn  Sn13  1  0.008020  0.608496  0.250000  1
  Sn  Sn14  1  0.603057  0.002875  0.250000  1
  Bi  Bi15  1  0.391087  0.995944  0.750000  1
