# generated using pymatgen
data_Yb6ZnGe3Pt4
_symmetry_space_group_name_H-M   'P 1'
_cell_length_a   5.58066300
_cell_length_b   8.12963300
_cell_length_c   13.34781500
_cell_angle_alpha   90.00000000
_cell_angle_beta   90.00000000
_cell_angle_gamma   90.00000000
_symmetry_Int_Tables_number   1
_chemical_formula_structural   Yb6ZnGe3Pt4
_chemical_formula_sum   'Yb12 Zn2 Ge6 Pt8'
_cell_volume   605.57357616
_cell_formula_units_Z   2
loop_
 _symmetry_equiv_pos_site_id
 _symmetry_equiv_pos_as_xyz
  1  'x, y, z'
loop_
 _atom_site_type_symbol
 _atom_site_label
 _atom_site_symmetry_multiplicity
 _atom_site_fract_x
 _atom_site_fract_y
 _atom_site_fract_z
 _atom_site_occupancy
  Yb  Yb0  1  0.147637  0.606043  0.100029  1
  Yb  Yb1  1  0.147637  0.893957  0.899971  1
  Yb  Yb2  1  0.852363  0.106043  0.399971  1
  Yb  Yb3  1  0.852363  0.393957  0.600029  1
  Yb  Yb4  1  0.858053  0.387946  0.901119  1
  Yb  Yb5  1  0.858053  0.112054  0.098881  1
  Yb  Yb6  1  0.141947  0.887946  0.598881  1
  Yb  Yb7  1  0.141947  0.612054  0.401119  1
  Yb  Yb8  1  0.362455  0.247600  0.250031  1
  Yb  Yb9  1  0.362455  0.252400  0.749969  1
  Yb  Yb10  1  0.637545  0.747600  0.249969  1
  Yb  Yb11  1  0.637545  0.752400  0.750031  1
  Zn  Zn12  1  0.641134  0.750000  0.000000  1
  Zn  Zn13  1  0.358866  0.250000  0.500000  1
  Ge  Ge14  1  0.352726  0.250000  0.000000  1
  Ge  Ge15  1  0.647274  0.750000  0.500000  1
  Ge  Ge16  1  0.866936  0.398856  0.250192  1
  Ge  Ge17  1  0.866936  0.101144  0.749808  1
  Ge  Ge18  1  0.133064  0.898856  0.249808  1
  Ge  Ge19  1  0.133064  0.601144  0.750192  1
  Pt  Pt20  1  0.628869  0.463301  0.092171  1
  Pt  Pt21  1  0.628869  0.036699  0.907829  1
  Pt  Pt22  1  0.371131  0.963301  0.407829  1
  Pt  Pt23  1  0.371131  0.536699  0.592171  1
  Pt  Pt24  1  0.367992  0.533597  0.905330  1
  Pt  Pt25  1  0.367992  0.966403  0.094670  1
  Pt  Pt26  1  0.632008  0.033597  0.594670  1
  Pt  Pt27  1  0.632008  0.466403  0.405330  1
