# generated using pymatgen
data_Tm4Al18Os2Pt3Rh
_symmetry_space_group_name_H-M   'P 1'
_cell_length_a   7.56144058
_cell_length_b   7.56144081
_cell_length_c   9.42628600
_cell_angle_alpha   90.00075967
_cell_angle_beta   90.00075924
_cell_angle_gamma   119.09269651
_symmetry_Int_Tables_number   1
_chemical_formula_structural   Tm4Al18Os2Pt3Rh
_chemical_formula_sum   'Tm4 Al18 Os2 Pt3 Rh1'
_cell_volume   470.95428798
_cell_formula_units_Z   1
loop_
 _symmetry_equiv_pos_site_id
 _symmetry_equiv_pos_as_xyz
  1  'x, y, z'
loop_
 _atom_site_type_symbol
 _atom_site_label
 _atom_site_symmetry_multiplicity
 _atom_site_fract_x
 _atom_site_fract_y
 _atom_site_fract_z
 _atom_site_occupancy
  Tm  Tm0  1  0.994605  0.679201  0.250573  1
  Tm  Tm1  1  0.007258  0.322284  0.749730  1
  Tm  Tm2  1  0.677716  0.992742  0.250270  1
  Tm  Tm3  1  0.320799  0.005395  0.749427  1
  Al  Al4  1  0.130650  0.131612  0.250368  1
  Al  Al5  1  0.868388  0.869350  0.749632  1
  Al  Al6  1  0.999877  0.333394  0.078038  1
  Al  Al7  1  0.998895  0.666915  0.921725  1
  Al  Al8  1  0.996647  0.663142  0.577033  1
  Al  Al9  1  0.336858  0.003353  0.422967  1
  Al  Al10  1  0.995730  0.332811  0.423154  1
  Al  Al11  1  0.667189  0.004270  0.576846  1
  Al  Al12  1  0.666606  0.000123  0.921962  1
  Al  Al13  1  0.333085  0.001105  0.078275  1
  Al  Al14  1  0.331210  0.327833  0.549874  1
  Al  Al15  1  0.672167  0.668790  0.450126  1
  Al  Al16  1  0.671672  0.671675  0.052991  1
  Al  Al17  1  0.328325  0.328328  0.947009  1
  Al  Al18  1  0.344070  0.550007  0.250420  1
  Al  Al19  1  0.655885  0.445816  0.746762  1
  Al  Al20  1  0.554184  0.344115  0.253238  1
  Al  Al21  1  0.449993  0.655930  0.749580  1
  Os  Os22  1  0.999664  0.000336  0.000000  1
  Os  Os23  1  0.000029  0.999971  0.500000  1
  Pt  Pt24  1  0.671514  0.328486  0.000000  1
  Pt  Pt25  1  0.327624  0.672376  0.000000  1
  Pt  Pt26  1  0.327671  0.672329  0.500000  1
  Rh  Rh27  1  0.671690  0.328310  0.500000  1
