# generated using pymatgen
data_Pr10InSi5
_symmetry_space_group_name_H-M   'P 1'
_cell_length_a   7.85139774
_cell_length_b   7.85139775
_cell_length_c   9.24035616
_cell_angle_alpha   115.14072074
_cell_angle_beta   115.14072184
_cell_angle_gamma   89.99999838
_symmetry_Int_Tables_number   1
_chemical_formula_structural   Pr10InSi5
_chemical_formula_sum   'Pr10 In1 Si5'
_cell_volume   455.34321811
_cell_formula_units_Z   1
loop_
 _symmetry_equiv_pos_site_id
 _symmetry_equiv_pos_as_xyz
  1  'x, y, z'
loop_
 _atom_site_type_symbol
 _atom_site_label
 _atom_site_symmetry_multiplicity
 _atom_site_fract_x
 _atom_site_fract_y
 _atom_site_fract_z
 _atom_site_occupancy
  Pr  Pr0  1  0.525902  0.525902  0.051805  1
  Pr  Pr1  1  0.974098  0.974098  0.948195  1
  Pr  Pr2  1  0.977157  0.829744  0.279832  1
  Pr  Pr3  1  0.302675  0.450088  0.279832  1
  Pr  Pr4  1  0.829744  0.302675  0.279832  1
  Pr  Pr5  1  0.450088  0.977157  0.279832  1
  Pr  Pr6  1  0.049912  0.197325  0.720168  1
  Pr  Pr7  1  0.670256  0.522843  0.720168  1
  Pr  Pr8  1  0.197325  0.670256  0.720168  1
  Pr  Pr9  1  0.522843  0.049912  0.720168  1
  In  In10  1  0.750000  0.750000  0.500000  1
  Si  Si11  1  0.250000  0.250000  0.500000  1
  Si  Si12  1  0.614337  0.885663  0.000000  1
  Si  Si13  1  0.385663  0.114337  0.000000  1
  Si  Si14  1  0.885663  0.385663  0.000000  1
  Si  Si15  1  0.114337  0.614337  0.000000  1
