# generated using pymatgen
data_Y4Al17Si(Pd2Ru)2
_symmetry_space_group_name_H-M   'P 1'
_cell_length_a   7.60393080
_cell_length_b   7.60393018
_cell_length_c   9.42479600
_cell_angle_alpha   90.00000000
_cell_angle_beta   90.00000000
_cell_angle_gamma   119.59569794
_symmetry_Int_Tables_number   1
_chemical_formula_structural   Y4Al17Si(Pd2Ru)2
_chemical_formula_sum   'Y4 Al17 Si1 Pd4 Ru2'
_cell_volume   473.84228269
_cell_formula_units_Z   1
loop_
 _symmetry_equiv_pos_site_id
 _symmetry_equiv_pos_as_xyz
  1  'x, y, z'
loop_
 _atom_site_type_symbol
 _atom_site_label
 _atom_site_symmetry_multiplicity
 _atom_site_fract_x
 _atom_site_fract_y
 _atom_site_fract_z
 _atom_site_occupancy
  Y  Y0  1  0.994487  0.672861  0.250000  1
  Y  Y1  1  0.003966  0.331659  0.750000  1
  Y  Y2  1  0.672861  0.994487  0.250000  1
  Y  Y3  1  0.331659  0.003966  0.750000  1
  Al  Al4  1  0.878556  0.878556  0.750000  1
  Al  Al5  1  0.000863  0.331208  0.077129  1
  Al  Al6  1  0.999589  0.671318  0.924315  1
  Al  Al7  1  0.999589  0.671318  0.575685  1
  Al  Al8  1  0.331208  0.000863  0.422871  1
  Al  Al9  1  0.000863  0.331208  0.422871  1
  Al  Al10  1  0.671318  0.999589  0.575685  1
  Al  Al11  1  0.671318  0.999589  0.924315  1
  Al  Al12  1  0.331208  0.000863  0.077129  1
  Al  Al13  1  0.327998  0.327998  0.556609  1
  Al  Al14  1  0.669263  0.669263  0.447324  1
  Al  Al15  1  0.669263  0.669263  0.052676  1
  Al  Al16  1  0.327998  0.327998  0.943391  1
  Al  Al17  1  0.337962  0.545006  0.250000  1
  Al  Al18  1  0.659553  0.454064  0.750000  1
  Al  Al19  1  0.545006  0.337962  0.250000  1
  Al  Al20  1  0.454064  0.659553  0.750000  1
  Si  Si21  1  0.124015  0.124015  0.250000  1
  Pd  Pd22  1  0.671275  0.326562  0.000513  1
  Pd  Pd23  1  0.326562  0.671275  0.000513  1
  Pd  Pd24  1  0.326562  0.671275  0.499487  1
  Pd  Pd25  1  0.671275  0.326562  0.499487  1
  Ru  Ru26  1  0.000860  0.000860  0.007546  1
  Ru  Ru27  1  0.000860  0.000860  0.492454  1
