# generated using pymatgen
data_K4Ti6FeBr18
_symmetry_space_group_name_H-M   'P 1'
_cell_length_a   10.33294549
_cell_length_b   10.52355514
_cell_length_c   10.64363140
_cell_angle_alpha   118.46378384
_cell_angle_beta   100.23271632
_cell_angle_gamma   103.87125074
_symmetry_Int_Tables_number   1
_chemical_formula_structural   K4Ti6FeBr18
_chemical_formula_sum   'K4 Ti6 Fe1 Br18'
_cell_volume   928.23064262
_cell_formula_units_Z   1
loop_
 _symmetry_equiv_pos_site_id
 _symmetry_equiv_pos_as_xyz
  1  'x, y, z'
loop_
 _atom_site_type_symbol
 _atom_site_label
 _atom_site_symmetry_multiplicity
 _atom_site_fract_x
 _atom_site_fract_y
 _atom_site_fract_z
 _atom_site_occupancy
  K  K0  1  0.651679  0.535999  0.226663  1
  K  K1  1  0.348321  0.464001  0.773337  1
  K  K2  1  0.687464  0.226860  0.564579  1
  K  K3  1  0.312536  0.773140  0.435421  1
  Ti  Ti4  1  0.150046  0.054846  0.226907  1
  Ti  Ti5  1  0.849954  0.945154  0.773093  1
  Ti  Ti6  1  0.863200  0.125110  0.131384  1
  Ti  Ti7  1  0.136800  0.874890  0.868616  1
  Ti  Ti8  1  0.145022  0.235691  0.044215  1
  Ti  Ti9  1  0.854978  0.764309  0.955785  1
  Fe  Fe10  1  0.000000  0.000000  0.000000  1
  Br  Br11  1  0.009395  0.396203  0.190116  1
  Br  Br12  1  0.990605  0.603797  0.809884  1
  Br  Br13  1  0.321531  0.321954  0.300308  1
  Br  Br14  1  0.678469  0.678046  0.699692  1
  Br  Br15  1  0.318392  0.512420  0.098049  1
  Br  Br16  1  0.681608  0.487580  0.901951  1
  Br  Br17  1  0.004526  0.801851  0.202213  1
  Br  Br18  1  0.995474  0.198149  0.797787  1
  Br  Br19  1  0.708729  0.270054  0.282443  1
  Br  Br20  1  0.291271  0.729946  0.717557  1
  Br  Br21  1  0.307970  0.122880  0.906026  1
  Br  Br22  1  0.692030  0.877120  0.093974  1
  Br  Br23  1  0.016121  0.197367  0.394087  1
  Br  Br24  1  0.983879  0.802633  0.605913  1
  Br  Br25  1  0.311994  0.925013  0.105902  1
  Br  Br26  1  0.688006  0.074987  0.894098  1
  Br  Br27  1  0.330580  0.119681  0.492947  1
  Br  Br28  1  0.669420  0.880319  0.507053  1
