# generated using pymatgen
data_NaTm4Bi3C
_symmetry_space_group_name_H-M   'P 1'
_cell_length_a   9.02097000
_cell_length_b   9.02096847
_cell_length_c   6.47448900
_cell_angle_alpha   90.00000000
_cell_angle_beta   90.00000000
_cell_angle_gamma   119.99999827
_symmetry_Int_Tables_number   1
_chemical_formula_structural   NaTm4Bi3C
_chemical_formula_sum   'Na2 Tm8 Bi6 C2'
_cell_volume   456.29166971
_cell_formula_units_Z   2
loop_
 _symmetry_equiv_pos_site_id
 _symmetry_equiv_pos_as_xyz
  1  'x, y, z'
loop_
 _atom_site_type_symbol
 _atom_site_label
 _atom_site_symmetry_multiplicity
 _atom_site_fract_x
 _atom_site_fract_y
 _atom_site_fract_z
 _atom_site_occupancy
  Na  Na0  1  0.666667  0.333333  0.000000  1
  Na  Na1  1  0.333333  0.666667  0.000000  1
  Tm  Tm2  1  0.333333  0.666667  0.500000  1
  Tm  Tm3  1  0.666667  0.333333  0.500000  1
  Tm  Tm4  1  0.793977  0.793977  0.750122  1
  Tm  Tm5  1  0.206023  0.000000  0.750122  1
  Tm  Tm6  1  0.000000  0.206023  0.750122  1
  Tm  Tm7  1  0.206023  0.206023  0.249878  1
  Tm  Tm8  1  0.793977  0.000000  0.249878  1
  Tm  Tm9  1  0.000000  0.793977  0.249878  1
  Bi  Bi10  1  0.401488  0.401488  0.750029  1
  Bi  Bi11  1  0.598512  0.000000  0.750029  1
  Bi  Bi12  1  0.000000  0.598512  0.750029  1
  Bi  Bi13  1  0.598512  0.598512  0.249971  1
  Bi  Bi14  1  0.401488  0.000000  0.249971  1
  Bi  Bi15  1  0.000000  0.401488  0.249971  1
  C  C16  1  0.000000  0.000000  0.000000  1
  C  C17  1  0.000000  0.000000  0.500000  1
