# generated using pymatgen
data_Zr5InGeSb2
_symmetry_space_group_name_H-M   'P 1'
_cell_length_a   8.70699004
_cell_length_b   8.71216904
_cell_length_c   5.90506100
_cell_angle_alpha   90.00000000
_cell_angle_beta   90.00000000
_cell_angle_gamma   120.01962770
_symmetry_Int_Tables_number   1
_chemical_formula_structural   Zr5InGeSb2
_chemical_formula_sum   'Zr10 In2 Ge2 Sb4'
_cell_volume   387.84967482
_cell_formula_units_Z   2
loop_
 _symmetry_equiv_pos_site_id
 _symmetry_equiv_pos_as_xyz
  1  'x, y, z'
loop_
 _atom_site_type_symbol
 _atom_site_label
 _atom_site_symmetry_multiplicity
 _atom_site_fract_x
 _atom_site_fract_y
 _atom_site_fract_z
 _atom_site_occupancy
  Zr  Zr0  1  0.262836  0.000801  0.250000  1
  Zr  Zr1  1  0.262837  0.262037  0.750000  1
  Zr  Zr2  1  0.001276  0.735945  0.750000  1
  Zr  Zr3  1  0.001275  0.265330  0.250000  1
  Zr  Zr4  1  0.737117  0.735770  0.250000  1
  Zr  Zr5  1  0.737115  0.001346  0.750000  1
  Zr  Zr6  1  0.329936  0.664968  0.999999  1
  Zr  Zr7  1  0.667767  0.333884  0.500000  1
  Zr  Zr8  1  0.667767  0.333884  0.000000  1
  Zr  Zr9  1  0.329936  0.664968  0.500001  1
  In  In10  1  0.608471  0.998655  0.250000  1
  In  In11  1  0.608472  0.609817  0.750000  1
  Ge  Ge12  1  0.997259  0.998629  0.999999  1
  Ge  Ge13  1  0.997259  0.998629  0.500001  1
  Sb  Sb14  1  0.998580  0.392123  0.750000  1
  Sb  Sb15  1  0.998580  0.606457  0.250000  1
  Sb  Sb16  1  0.396758  0.396983  0.250000  1
  Sb  Sb17  1  0.396758  0.999774  0.750000  1
