# generated using pymatgen
data_Tb4Nd5YBi6
_symmetry_space_group_name_H-M   'P 1'
_cell_length_a   6.51463800
_cell_length_b   9.37149701
_cell_length_c   9.35638743
_cell_angle_alpha   120.05342885
_cell_angle_beta   89.99989210
_cell_angle_gamma   90.00020605
_symmetry_Int_Tables_number   1
_chemical_formula_structural   Tb4Nd5YBi6
_chemical_formula_sum   'Tb4 Nd5 Y1 Bi6'
_cell_volume   494.42909455
_cell_formula_units_Z   1
loop_
 _symmetry_equiv_pos_site_id
 _symmetry_equiv_pos_as_xyz
  1  'x, y, z'
loop_
 _atom_site_type_symbol
 _atom_site_label
 _atom_site_symmetry_multiplicity
 _atom_site_fract_x
 _atom_site_fract_y
 _atom_site_fract_z
 _atom_site_occupancy
  Tb  Tb0  1  0.499947  0.333146  0.665284  1
  Tb  Tb1  1  0.499947  0.667861  0.334716  1
  Tb  Tb2  1  0.000052  0.667861  0.334714  1
  Tb  Tb3  1  0.000052  0.333146  0.665286  1
  Nd  Nd4  1  0.750003  0.753944  0.755049  1
  Nd  Nd5  1  0.750003  0.998895  0.244951  1
  Nd  Nd6  1  0.250000  0.751765  0.000000  1
  Nd  Nd7  1  0.249998  0.245415  0.244087  1
  Nd  Nd8  1  0.249998  0.001327  0.755913  1
  Y  Y9  1  0.750000  0.247553  0.000000  1
  Bi  Bi10  1  0.750000  0.604064  0.000000  1
  Bi  Bi11  1  0.749998  0.390294  0.387176  1
  Bi  Bi12  1  0.749998  0.003118  0.612824  1
  Bi  Bi13  1  0.250000  0.392316  0.000000  1
  Bi  Bi14  1  0.250000  0.608535  0.607774  1
  Bi  Bi15  1  0.250000  0.000760  0.392226  1
