# generated using pymatgen
data_Pr3Nd13MgHg3Ru4
_symmetry_space_group_name_H-M   'P 1'
_cell_length_a   9.95374085
_cell_length_b   9.95505067
_cell_length_c   9.95858276
_cell_angle_alpha   59.83386576
_cell_angle_beta   59.83990706
_cell_angle_gamma   59.81823962
_symmetry_Int_Tables_number   1
_chemical_formula_structural   Pr3Nd13MgHg3Ru4
_chemical_formula_sum   'Pr3 Nd13 Mg1 Hg3 Ru4'
_cell_volume   695.08836733
_cell_formula_units_Z   1
loop_
 _symmetry_equiv_pos_site_id
 _symmetry_equiv_pos_as_xyz
  1  'x, y, z'
loop_
 _atom_site_type_symbol
 _atom_site_label
 _atom_site_symmetry_multiplicity
 _atom_site_fract_x
 _atom_site_fract_y
 _atom_site_fract_z
 _atom_site_occupancy
  Pr  Pr0  1  0.557840  0.557322  0.942011  1
  Pr  Pr1  1  0.187210  0.813669  0.187308  1
  Pr  Pr2  1  0.809769  0.810026  0.188141  1
  Nd  Nd3  1  0.187253  0.187538  0.812687  1
  Nd  Nd4  1  0.404809  0.786903  0.405079  1
  Nd  Nd5  1  0.810304  0.188362  0.809561  1
  Nd  Nd6  1  0.938125  0.938358  0.559687  1
  Nd  Nd7  1  0.812712  0.187677  0.187522  1
  Nd  Nd8  1  0.938649  0.559246  0.938177  1
  Nd  Nd9  1  0.787127  0.404567  0.404917  1
  Nd  Nd10  1  0.559615  0.938645  0.937985  1
  Nd  Nd11  1  0.188335  0.810309  0.809281  1
  Nd  Nd12  1  0.557557  0.942200  0.557638  1
  Nd  Nd13  1  0.402046  0.401941  0.402605  1
  Nd  Nd14  1  0.942110  0.557365  0.557961  1
  Nd  Nd15  1  0.404769  0.404670  0.786925  1
  Mg  Mg16  1  0.180262  0.180437  0.180235  1
  Hg  Hg17  1  0.165116  0.500082  0.164922  1
  Hg  Hg18  1  0.164819  0.164800  0.501108  1
  Hg  Hg19  1  0.500487  0.165120  0.164952  1
  Ru  Ru20  1  0.163819  0.612387  0.612810  1
  Ru  Ru21  1  0.612770  0.612302  0.164175  1
  Ru  Ru22  1  0.612013  0.612168  0.611886  1
  Ru  Ru23  1  0.612479  0.163905  0.612427  1
