# generated using pymatgen
data_ErLuGa4
_symmetry_space_group_name_H-M   'P 1'
_cell_length_a   5.73532327
_cell_length_b   5.73532374
_cell_length_c   5.73532305
_cell_angle_alpha   136.56742416
_cell_angle_beta   106.37741067
_cell_angle_gamma   89.53319755
_symmetry_Int_Tables_number   1
_chemical_formula_structural   ErLuGa4
_chemical_formula_sum   'Er1 Lu1 Ga4'
_cell_volume   118.78278866
_cell_formula_units_Z   1
loop_
 _symmetry_equiv_pos_site_id
 _symmetry_equiv_pos_as_xyz
  1  'x, y, z'
loop_
 _atom_site_type_symbol
 _atom_site_label
 _atom_site_symmetry_multiplicity
 _atom_site_fract_x
 _atom_site_fract_y
 _atom_site_fract_z
 _atom_site_occupancy
  Er  Er0  1  0.189263  0.439263  0.750000  1
  Lu  Lu1  1  0.811149  0.561149  0.250000  1
  Ga  Ga2  1  0.390694  0.839556  0.551138  1
  Ga  Ga3  1  0.609965  0.160239  0.449726  1
  Ga  Ga4  1  0.210513  0.160239  0.050274  1
  Ga  Ga5  1  0.788417  0.839556  0.948862  1
