# generated using pymatgen
data_TbY(MnNi4)2
_symmetry_space_group_name_H-M   'P 1'
_cell_length_a   4.00251800
_cell_length_b   4.91320026
_cell_length_c   8.58867474
_cell_angle_alpha   88.73381200
_cell_angle_beta   90.00000000
_cell_angle_gamma   90.00000000
_symmetry_Int_Tables_number   1
_chemical_formula_structural   TbY(MnNi4)2
_chemical_formula_sum   'Tb1 Y1 Mn2 Ni8'
_cell_volume   168.85652907
_cell_formula_units_Z   1
loop_
 _symmetry_equiv_pos_site_id
 _symmetry_equiv_pos_as_xyz
  1  'x, y, z'
loop_
 _atom_site_type_symbol
 _atom_site_label
 _atom_site_symmetry_multiplicity
 _atom_site_fract_x
 _atom_site_fract_y
 _atom_site_fract_z
 _atom_site_occupancy
  Tb  Tb0  1  0.000000  0.500000  0.000000  1
  Y  Y1  1  0.000000  0.000000  0.500000  1
  Mn  Mn2  1  0.500000  0.750011  0.250058  1
  Mn  Mn3  1  0.500000  0.249989  0.749942  1
  Ni  Ni4  1  0.000000  0.499695  0.333285  1
  Ni  Ni5  1  0.000000  0.999398  0.833974  1
  Ni  Ni6  1  0.000000  0.000602  0.166026  1
  Ni  Ni7  1  0.000000  0.500305  0.666715  1
  Ni  Ni8  1  0.500000  0.500000  0.500000  1
  Ni  Ni9  1  0.500000  0.000000  0.000000  1
  Ni  Ni10  1  0.500000  0.250146  0.249944  1
  Ni  Ni11  1  0.500000  0.749854  0.750056  1
