# generated using pymatgen
data_TaBe7SiW3
_symmetry_space_group_name_H-M   'P 1'
_cell_length_a   4.51491800
_cell_length_b   4.51491791
_cell_length_c   7.49151300
_cell_angle_alpha   90.00000000
_cell_angle_beta   90.00000000
_cell_angle_gamma   120.00001533
_symmetry_Int_Tables_number   1
_chemical_formula_structural   TaBe7SiW3
_chemical_formula_sum   'Ta1 Be7 Si1 W3'
_cell_volume   132.25126272
_cell_formula_units_Z   1
loop_
 _symmetry_equiv_pos_site_id
 _symmetry_equiv_pos_as_xyz
  1  'x, y, z'
loop_
 _atom_site_type_symbol
 _atom_site_label
 _atom_site_symmetry_multiplicity
 _atom_site_fract_x
 _atom_site_fract_y
 _atom_site_fract_z
 _atom_site_occupancy
  Ta  Ta0  1  0.333333  0.666667  0.437249  1
  Be  Be1  1  0.000000  0.000000  0.998202  1
  Be  Be2  1  0.828773  0.171227  0.240164  1
  Be  Be3  1  0.828773  0.657547  0.240164  1
  Be  Be4  1  0.342453  0.171227  0.240164  1
  Be  Be5  1  0.171398  0.828602  0.759450  1
  Be  Be6  1  0.171398  0.342797  0.759450  1
  Be  Be7  1  0.657203  0.828602  0.759450  1
  Si  Si8  1  0.000000  0.000000  0.501334  1
  W  W9  1  0.666667  0.333333  0.566071  1
  W  W10  1  0.666667  0.333333  0.938516  1
  W  W11  1  0.333333  0.666667  0.059786  1
