# generated using pymatgen
data_Y4Sc4Tc3B24Ir
_symmetry_space_group_name_H-M   'P 1'
_cell_length_a   3.58215400
_cell_length_b   8.99574359
_cell_length_c   11.38886774
_cell_angle_alpha   90.04318993
_cell_angle_beta   90.00000000
_cell_angle_gamma   90.00000000
_symmetry_Int_Tables_number   1
_chemical_formula_structural   Y4Sc4Tc3B24Ir
_chemical_formula_sum   'Y4 Sc4 Tc3 B24 Ir1'
_cell_volume   366.99635161
_cell_formula_units_Z   1
loop_
 _symmetry_equiv_pos_site_id
 _symmetry_equiv_pos_as_xyz
  1  'x, y, z'
loop_
 _atom_site_type_symbol
 _atom_site_label
 _atom_site_symmetry_multiplicity
 _atom_site_fract_x
 _atom_site_fract_y
 _atom_site_fract_z
 _atom_site_occupancy
  Y  Y0  1  0.500000  0.317124  0.415887  1
  Y  Y1  1  0.500000  0.679926  0.589909  1
  Y  Y2  1  0.500000  0.178793  0.912726  1
  Y  Y3  1  0.500000  0.823956  0.081955  1
  Sc  Sc4  1  0.500000  0.440494  0.126991  1
  Sc  Sc5  1  0.500000  0.556222  0.870925  1
  Sc  Sc6  1  0.500000  0.055295  0.628985  1
  Sc  Sc7  1  0.500000  0.947337  0.371328  1
  Tc  Tc8  1  0.500000  0.140433  0.182875  1
  Tc  Tc9  1  0.500000  0.859788  0.818440  1
  Tc  Tc10  1  0.500000  0.360278  0.680492  1
  B  B11  1  0.000000  0.096248  0.473663  1
  B  B12  1  0.000000  0.901782  0.526162  1
  B  B13  1  0.000000  0.403074  0.973885  1
  B  B14  1  0.000000  0.597275  0.026849  1
  B  B15  1  0.000000  0.128631  0.317284  1
  B  B16  1  0.000000  0.871175  0.683332  1
  B  B17  1  0.000000  0.371869  0.816495  1
  B  B18  1  0.000000  0.628574  0.182066  1
  B  B19  1  0.000000  0.054519  0.067324  1
  B  B20  1  0.000000  0.946010  0.932097  1
  B  B21  1  0.000000  0.445575  0.567445  1
  B  B22  1  0.000000  0.554995  0.433352  1
  B  B23  1  0.000000  0.481561  0.285803  1
  B  B24  1  0.000000  0.519117  0.714277  1
  B  B25  1  0.000000  0.018880  0.785280  1
  B  B26  1  0.000000  0.981372  0.214046  1
  B  B27  1  0.000000  0.253426  0.081904  1
  B  B28  1  0.000000  0.746743  0.918146  1
  B  B29  1  0.000000  0.245961  0.582165  1
  B  B30  1  0.000000  0.753801  0.419051  1
  B  B31  1  0.000000  0.294287  0.235475  1
  B  B32  1  0.000000  0.705799  0.765428  1
  B  B33  1  0.000000  0.205978  0.734814  1
  B  B34  1  0.000000  0.793768  0.264732  1
  Ir  Ir35  1  0.500000  0.639935  0.318415  1
