# generated using pymatgen
data_TbY6BeI12
_symmetry_space_group_name_H-M   'P 1'
_cell_length_a   9.70366050
_cell_length_b   9.70431511
_cell_length_c   9.70442763
_cell_angle_alpha   107.52711611
_cell_angle_beta   107.52262317
_cell_angle_gamma   107.55327125
_symmetry_Int_Tables_number   1
_chemical_formula_structural   TbY6BeI12
_chemical_formula_sum   'Tb1 Y6 Be1 I12'
_cell_volume   749.68526216
_cell_formula_units_Z   1
loop_
 _symmetry_equiv_pos_site_id
 _symmetry_equiv_pos_as_xyz
  1  'x, y, z'
loop_
 _atom_site_type_symbol
 _atom_site_label
 _atom_site_symmetry_multiplicity
 _atom_site_fract_x
 _atom_site_fract_y
 _atom_site_fract_z
 _atom_site_occupancy
  Tb  Tb0  1  0.299904  0.098161  0.027440  1
  Y  Y1  1  0.499442  0.499549  0.499614  1
  Y  Y2  1  0.901871  0.972448  0.700215  1
  Y  Y3  1  0.972435  0.700279  0.902015  1
  Y  Y4  1  0.700208  0.902074  0.972597  1
  Y  Y5  1  0.098051  0.027655  0.299622  1
  Y  Y6  1  0.027796  0.299725  0.098139  1
  Be  Be7  1  0.999952  0.999912  0.999889  1
  I  I8  1  0.533664  0.845362  0.613991  1
  I  I9  1  0.844834  0.613693  0.533492  1
  I  I10  1  0.614007  0.533631  0.845412  1
  I  I11  1  0.466512  0.154573  0.386509  1
  I  I12  1  0.154676  0.386274  0.466663  1
  I  I13  1  0.386231  0.467324  0.154941  1
  I  I14  1  0.680761  0.228043  0.073252  1
  I  I15  1  0.227383  0.072669  0.679305  1
  I  I16  1  0.072913  0.679871  0.227823  1
  I  I17  1  0.319937  0.771515  0.926742  1
  I  I18  1  0.772383  0.927097  0.320150  1
  I  I19  1  0.927039  0.320145  0.772187  1
