# generated using pymatgen
data_TbEr18TmSn16
_symmetry_space_group_name_H-M   'P 1'
_cell_length_a   7.98924898
_cell_length_b   8.10560854
_cell_length_c   15.35702311
_cell_angle_alpha   90.00510326
_cell_angle_beta   89.89239159
_cell_angle_gamma   89.94221221
_symmetry_Int_Tables_number   1
_chemical_formula_structural   TbEr18TmSn16
_chemical_formula_sum   'Tb1 Er18 Tm1 Sn16'
_cell_volume   994.48361274
_cell_formula_units_Z   1
loop_
 _symmetry_equiv_pos_site_id
 _symmetry_equiv_pos_as_xyz
  1  'x, y, z'
loop_
 _atom_site_type_symbol
 _atom_site_label
 _atom_site_symmetry_multiplicity
 _atom_site_fract_x
 _atom_site_fract_y
 _atom_site_fract_z
 _atom_site_occupancy
  Tb  Tb0  1  0.020687  0.179452  0.903415  1
  Er  Er1  1  0.367698  0.837099  0.877217  1
  Er  Er2  1  0.868243  0.662988  0.622212  1
  Er  Er3  1  0.631549  0.162715  0.377357  1
  Er  Er4  1  0.132577  0.337519  0.122962  1
  Er  Er5  1  0.632528  0.162776  0.122906  1
  Er  Er6  1  0.131782  0.337221  0.377398  1
  Er  Er7  1  0.368438  0.837039  0.622395  1
  Er  Er8  1  0.867976  0.662661  0.877353  1
  Er  Er9  1  0.522072  0.321224  0.902953  1
  Er  Er10  1  0.022520  0.179248  0.597286  1
  Er  Er11  1  0.477666  0.679029  0.402897  1
  Er  Er12  1  0.978354  0.820463  0.097177  1
  Er  Er13  1  0.478139  0.679292  0.097132  1
  Er  Er14  1  0.977767  0.820966  0.402927  1
  Er  Er15  1  0.522347  0.321117  0.596651  1
  Er  Er16  1  0.198635  0.503581  0.749669  1
  Er  Er17  1  0.698379  0.996269  0.749578  1
  Er  Er18  1  0.801509  0.496513  0.250163  1
  Tm  Tm19  1  0.301530  0.003475  0.250181  1
  Sn  Sn20  1  0.293563  0.035566  0.042354  1
  Sn  Sn21  1  0.791956  0.463764  0.458420  1
  Sn  Sn22  1  0.708142  0.964193  0.541406  1
  Sn  Sn23  1  0.208176  0.537326  0.958806  1
  Sn  Sn24  1  0.705449  0.961977  0.958917  1
  Sn  Sn25  1  0.207993  0.536223  0.541342  1
  Sn  Sn26  1  0.292032  0.036125  0.458388  1
  Sn  Sn27  1  0.792439  0.463553  0.041509  1
  Sn  Sn28  1  0.565036  0.618748  0.749877  1
  Sn  Sn29  1  0.065003  0.880700  0.749868  1
  Sn  Sn30  1  0.435044  0.381356  0.250091  1
  Sn  Sn31  1  0.935471  0.118611  0.250176  1
  Sn  Sn32  1  0.332288  0.149085  0.749749  1
  Sn  Sn33  1  0.830489  0.351650  0.749228  1
  Sn  Sn34  1  0.668237  0.850845  0.249978  1
  Sn  Sn35  1  0.168285  0.649631  0.250062  1
