# generated using pymatgen
data_Ta6Be15GaCo5Ni2
_symmetry_space_group_name_H-M   'P 1'
_cell_length_a   7.57380616
_cell_length_b   7.58156477
_cell_length_c   7.58110838
_cell_angle_alpha   60.02375505
_cell_angle_beta   59.99663128
_cell_angle_gamma   59.99961459
_symmetry_Int_Tables_number   1
_chemical_formula_structural   Ta6Be15GaCo5Ni2
_chemical_formula_sum   'Ta6 Be15 Ga1 Co5 Ni2'
_cell_volume   307.86216766
_cell_formula_units_Z   1
loop_
 _symmetry_equiv_pos_site_id
 _symmetry_equiv_pos_as_xyz
  1  'x, y, z'
loop_
 _atom_site_type_symbol
 _atom_site_label
 _atom_site_symmetry_multiplicity
 _atom_site_fract_x
 _atom_site_fract_y
 _atom_site_fract_z
 _atom_site_occupancy
  Ta  Ta0  1  0.691558  0.301489  0.301440  1
  Ta  Ta1  1  0.287179  0.708946  0.708982  1
  Ta  Ta2  1  0.297886  0.687940  0.305287  1
  Ta  Ta3  1  0.712596  0.292299  0.704589  1
  Ta  Ta4  1  0.297884  0.305314  0.687964  1
  Ta  Ta5  1  0.712739  0.704693  0.292145  1
  Be  Be6  1  0.322439  0.324730  0.324651  1
  Be  Be7  1  0.677353  0.673491  0.673426  1
  Be  Be8  1  0.332017  0.334136  0.015595  1
  Be  Be9  1  0.332095  0.015459  0.334109  1
  Be  Be10  1  0.674304  0.673053  0.980515  1
  Be  Be11  1  0.674312  0.980512  0.673026  1
  Be  Be12  1  0.018925  0.332485  0.332397  1
  Be  Be13  1  0.976360  0.674363  0.674332  1
  Be  Be14  1  0.504920  0.999005  0.998969  1
  Be  Be15  1  0.000060  0.501101  0.500821  1
  Be  Be16  1  0.998118  0.505935  0.998907  1
  Be  Be17  1  0.501826  0.999416  0.501210  1
  Be  Be18  1  0.998085  0.998879  0.505865  1
  Be  Be19  1  0.501644  0.501324  0.999447  1
  Be  Be20  1  0.991655  0.991870  0.992476  1
  Ga  Ga21  1  0.119054  0.117913  0.117967  1
  Co  Co22  1  0.875073  0.876175  0.876161  1
  Co  Co23  1  0.124495  0.122512  0.630880  1
  Co  Co24  1  0.124553  0.630782  0.122539  1
  Co  Co25  1  0.878841  0.880092  0.363732  1
  Co  Co26  1  0.878806  0.363714  0.880087  1
  Ni  Ni27  1  0.629930  0.123621  0.123606  1
  Ni  Ni28  1  0.365294  0.878752  0.878876  1
