# generated using pymatgen
data_Yb3Er2Sc3(B6Ru)4
_symmetry_space_group_name_H-M   'P 1'
_cell_length_a   3.56507700
_cell_length_b   9.00529513
_cell_length_c   11.38874103
_cell_angle_alpha   89.95621044
_cell_angle_beta   90.00000000
_cell_angle_gamma   90.00000000
_symmetry_Int_Tables_number   1
_chemical_formula_structural   Yb3Er2Sc3(B6Ru)4
_chemical_formula_sum   'Yb3 Er2 Sc3 B24 Ru4'
_cell_volume   365.63053281
_cell_formula_units_Z   1
loop_
 _symmetry_equiv_pos_site_id
 _symmetry_equiv_pos_as_xyz
  1  'x, y, z'
loop_
 _atom_site_type_symbol
 _atom_site_label
 _atom_site_symmetry_multiplicity
 _atom_site_fract_x
 _atom_site_fract_y
 _atom_site_fract_z
 _atom_site_occupancy
  Yb  Yb0  1  0.000000  0.323970  0.414887  1
  Yb  Yb1  1  0.000000  0.675685  0.585565  1
  Yb  Yb2  1  0.000000  0.821502  0.084704  1
  Er  Er3  1  0.000000  0.177830  0.914929  1
  Er  Er4  1  0.000000  0.942513  0.369279  1
  Sc  Sc5  1  0.000000  0.058027  0.633266  1
  Sc  Sc6  1  0.000000  0.443959  0.130473  1
  Sc  Sc7  1  0.000000  0.557550  0.869407  1
  B  B8  1  0.500000  0.552241  0.432690  1
  B  B9  1  0.500000  0.444770  0.568447  1
  B  B10  1  0.500000  0.055274  0.065908  1
  B  B11  1  0.500000  0.945506  0.932734  1
  B  B12  1  0.500000  0.747602  0.416881  1
  B  B13  1  0.500000  0.247926  0.583568  1
  B  B14  1  0.500000  0.253862  0.081021  1
  B  B15  1  0.500000  0.747501  0.917703  1
  B  B16  1  0.500000  0.790256  0.262815  1
  B  B17  1  0.500000  0.206553  0.736846  1
  B  B18  1  0.500000  0.295028  0.234208  1
  B  B19  1  0.500000  0.706853  0.764674  1
  B  B20  1  0.500000  0.628119  0.182670  1
  B  B21  1  0.500000  0.370877  0.817575  1
  B  B22  1  0.500000  0.132623  0.313716  1
  B  B23  1  0.500000  0.870846  0.683919  1
  B  B24  1  0.500000  0.983736  0.210182  1
  B  B25  1  0.500000  0.018029  0.787364  1
  B  B26  1  0.500000  0.480973  0.286528  1
  B  B27  1  0.500000  0.517996  0.713655  1
  B  B28  1  0.500000  0.595458  0.025562  1
  B  B29  1  0.500000  0.404345  0.973453  1
  B  B30  1  0.500000  0.097740  0.477214  1
  B  B31  1  0.500000  0.905606  0.529330  1
  Ru  Ru32  1  0.000000  0.636548  0.317463  1
  Ru  Ru33  1  0.000000  0.359043  0.683762  1
  Ru  Ru34  1  0.000000  0.142681  0.178536  1
  Ru  Ru35  1  0.000000  0.860977  0.819065  1
