# generated using pymatgen
data_Tm12In2Co2SiPd
_symmetry_space_group_name_H-M   'P 1'
_cell_length_a   8.35235800
_cell_length_b   8.35235819
_cell_length_c   8.35235840
_cell_angle_alpha   113.03764901
_cell_angle_beta   110.66896930
_cell_angle_gamma   104.81482860
_symmetry_Int_Tables_number   1
_chemical_formula_structural   Tm12In2Co2SiPd
_chemical_formula_sum   'Tm12 In2 Co2 Si1 Pd1'
_cell_volume   446.13796419
_cell_formula_units_Z   1
loop_
 _symmetry_equiv_pos_site_id
 _symmetry_equiv_pos_as_xyz
  1  'x, y, z'
loop_
 _atom_site_type_symbol
 _atom_site_label
 _atom_site_symmetry_multiplicity
 _atom_site_fract_x
 _atom_site_fract_y
 _atom_site_fract_z
 _atom_site_occupancy
  Tm  Tm0  1  0.444808  0.242208  0.202600  1
  Tm  Tm1  1  0.561443  0.759944  0.801499  1
  Tm  Tm2  1  0.041555  0.240056  0.801499  1
  Tm  Tm3  1  0.960391  0.757792  0.202600  1
  Tm  Tm4  1  0.184781  0.290933  0.475714  1
  Tm  Tm5  1  0.814124  0.711345  0.525468  1
  Tm  Tm6  1  0.184781  0.709067  0.893847  1
  Tm  Tm7  1  0.814124  0.288655  0.102779  1
  Tm  Tm8  1  0.309020  0.616710  0.312660  1
  Tm  Tm9  1  0.695949  0.383290  0.692310  1
  Tm  Tm10  1  0.309020  0.996361  0.692310  1
  Tm  Tm11  1  0.695949  0.003639  0.312660  1
  In  In12  1  0.500895  0.500000  0.000895  1
  In  In13  1  0.004010  0.000000  0.004010  1
  Co  Co14  1  0.105220  0.610411  0.494809  1
  Co  Co15  1  0.884398  0.389589  0.494809  1
  Si  Si16  1  0.641279  0.000000  0.641279  1
  Pd  Pd17  1  0.348251  0.000000  0.348251  1
