# generated using pymatgen
data_Tm6Al13V3Os7
_symmetry_space_group_name_H-M   'P 1'
_cell_length_a   8.91509554
_cell_length_b   8.91509668
_cell_length_c   8.91509819
_cell_angle_alpha   59.54886459
_cell_angle_beta   59.54885874
_cell_angle_gamma   59.54886283
_symmetry_Int_Tables_number   1
_chemical_formula_structural   Tm6Al13V3Os7
_chemical_formula_sum   'Tm6 Al13 V3 Os7'
_cell_volume   495.89030049
_cell_formula_units_Z   1
loop_
 _symmetry_equiv_pos_site_id
 _symmetry_equiv_pos_as_xyz
  1  'x, y, z'
loop_
 _atom_site_type_symbol
 _atom_site_label
 _atom_site_symmetry_multiplicity
 _atom_site_fract_x
 _atom_site_fract_y
 _atom_site_fract_z
 _atom_site_occupancy
  Tm  Tm0  1  0.710120  0.710120  0.286085  1
  Tm  Tm1  1  0.289489  0.713064  0.289489  1
  Tm  Tm2  1  0.713064  0.289489  0.289489  1
  Tm  Tm3  1  0.289489  0.289489  0.713064  1
  Tm  Tm4  1  0.710120  0.286085  0.710120  1
  Tm  Tm5  1  0.286085  0.710120  0.710120  1
  Al  Al6  1  0.881280  0.881280  0.881280  1
  Al  Al7  1  0.120594  0.120594  0.642810  1
  Al  Al8  1  0.120594  0.642810  0.120594  1
  Al  Al9  1  0.642810  0.120594  0.120594  1
  Al  Al10  1  0.120869  0.120869  0.120869  1
  Al  Al11  1  0.668471  0.668471  0.992945  1
  Al  Al12  1  0.668471  0.992945  0.668471  1
  Al  Al13  1  0.992945  0.668471  0.668471  1
  Al  Al14  1  0.667915  0.667915  0.667915  1
  Al  Al15  1  0.331897  0.331897  0.006515  1
  Al  Al16  1  0.331897  0.006515  0.331897  1
  Al  Al17  1  0.006515  0.331897  0.331897  1
  Al  Al18  1  0.332669  0.332669  0.332669  1
  V  V19  1  0.877323  0.877323  0.360882  1
  V  V20  1  0.877323  0.360882  0.877323  1
  V  V21  1  0.360882  0.877323  0.877323  1
  Os  Os22  1  0.004655  0.004655  0.004655  1
  Os  Os23  1  0.997860  0.997860  0.497631  1
  Os  Os24  1  0.502747  0.995677  0.502747  1
  Os  Os25  1  0.995677  0.502747  0.502747  1
  Os  Os26  1  0.502747  0.502747  0.995677  1
  Os  Os27  1  0.997860  0.497631  0.997860  1
  Os  Os28  1  0.497631  0.997860  0.997860  1
