# generated using pymatgen
data_Dy11Er(TcRh)2
_symmetry_space_group_name_H-M   'P 1'
_cell_length_a   6.32177136
_cell_length_b   7.31666337
_cell_length_c   9.20568416
_cell_angle_alpha   89.96686134
_cell_angle_beta   89.88304909
_cell_angle_gamma   90.01534699
_symmetry_Int_Tables_number   1
_chemical_formula_structural   Dy11Er(TcRh)2
_chemical_formula_sum   'Dy11 Er1 Tc2 Rh2'
_cell_volume   425.80125440
_cell_formula_units_Z   1
loop_
 _symmetry_equiv_pos_site_id
 _symmetry_equiv_pos_as_xyz
  1  'x, y, z'
loop_
 _atom_site_type_symbol
 _atom_site_label
 _atom_site_symmetry_multiplicity
 _atom_site_fract_x
 _atom_site_fract_y
 _atom_site_fract_z
 _atom_site_occupancy
  Dy  Dy0  1  0.670514  0.176281  0.065892  1
  Dy  Dy1  1  0.170799  0.323635  0.934660  1
  Dy  Dy2  1  0.831690  0.679325  0.438245  1
  Dy  Dy3  1  0.332463  0.821204  0.561452  1
  Dy  Dy4  1  0.332126  0.820846  0.938252  1
  Dy  Dy5  1  0.831886  0.679151  0.061803  1
  Dy  Dy6  1  0.170857  0.323502  0.565049  1
  Dy  Dy7  1  0.866846  0.960381  0.749627  1
  Dy  Dy8  1  0.367611  0.539813  0.250214  1
  Dy  Dy9  1  0.631544  0.461385  0.749804  1
  Dy  Dy10  1  0.131137  0.038705  0.250398  1
  Er  Er11  1  0.670624  0.175917  0.434191  1
  Tc  Tc12  1  0.039553  0.611712  0.750134  1
  Tc  Tc13  1  0.539607  0.888529  0.250285  1
  Rh  Rh14  1  0.456804  0.116184  0.749502  1
  Rh  Rh15  1  0.955938  0.383429  0.250493  1
