# generated using pymatgen
data_YbZn10Au
_symmetry_space_group_name_H-M   'P 1'
_cell_length_a   8.26915046
_cell_length_b   8.26915104
_cell_length_c   8.31852089
_cell_angle_alpha   99.38020734
_cell_angle_beta   100.09541463
_cell_angle_gamma   131.27757212
_symmetry_Int_Tables_number   1
_chemical_formula_structural   YbZn10Au
_chemical_formula_sum   'Yb2 Zn20 Au2'
_cell_volume   389.87461745
_cell_formula_units_Z   2
loop_
 _symmetry_equiv_pos_site_id
 _symmetry_equiv_pos_as_xyz
  1  'x, y, z'
loop_
 _atom_site_type_symbol
 _atom_site_label
 _atom_site_symmetry_multiplicity
 _atom_site_fract_x
 _atom_site_fract_y
 _atom_site_fract_z
 _atom_site_occupancy
  Yb  Yb0  1  0.494558  0.494558  0.000000  1
  Yb  Yb1  1  0.749003  0.249003  0.500000  1
  Zn  Zn2  1  0.261352  0.678966  0.824924  1
  Zn  Zn3  1  0.854042  0.436428  0.175076  1
  Zn  Zn4  1  0.925447  0.600531  0.918230  1
  Zn  Zn5  1  0.682302  0.007219  0.081770  1
  Zn  Zn6  1  0.330718  0.745182  0.177357  1
  Zn  Zn7  1  0.567825  0.153361  0.822643  1
  Zn  Zn8  1  0.845535  0.672057  0.415029  1
  Zn  Zn9  1  0.257028  0.430506  0.584971  1
  Zn  Zn10  1  0.990131  0.072288  0.667346  1
  Zn  Zn11  1  0.404942  0.322786  0.332654  1
  Zn  Zn12  1  0.326329  0.152722  0.584540  1
  Zn  Zn13  1  0.568181  0.741789  0.415460  1
  Zn  Zn14  1  0.918225  0.005317  0.325389  1
  Zn  Zn15  1  0.679928  0.592836  0.674611  1
  Zn  Zn16  1  0.249004  0.749004  0.500000  1
  Zn  Zn17  1  0.001371  0.001371  0.000000  1
  Zn  Zn18  1  0.120265  0.869795  0.744179  1
  Zn  Zn19  1  0.125615  0.376086  0.255821  1
  Zn  Zn20  1  0.120173  0.874531  0.251790  1
  Zn  Zn21  1  0.622742  0.868383  0.748210  1
  Au  Au22  1  0.405519  0.085484  0.085720  1
  Au  Au23  1  0.999764  0.319799  0.914280  1
