# generated using pymatgen
data_Lu3Sc2Pb3
_symmetry_space_group_name_H-M   'P 1'
_cell_length_a   8.78576400
_cell_length_b   8.78576329
_cell_length_c   6.29608700
_cell_angle_alpha   90.00000000
_cell_angle_beta   90.00000000
_cell_angle_gamma   120.00000266
_symmetry_Int_Tables_number   1
_chemical_formula_structural   Lu3Sc2Pb3
_chemical_formula_sum   'Lu6 Sc4 Pb6'
_cell_volume   420.88201898
_cell_formula_units_Z   2
loop_
 _symmetry_equiv_pos_site_id
 _symmetry_equiv_pos_as_xyz
  1  'x, y, z'
loop_
 _atom_site_type_symbol
 _atom_site_label
 _atom_site_symmetry_multiplicity
 _atom_site_fract_x
 _atom_site_fract_y
 _atom_site_fract_z
 _atom_site_occupancy
  Lu  Lu0  1  0.236139  0.000000  0.250000  1
  Lu  Lu1  1  0.236139  0.236139  0.750000  1
  Lu  Lu2  1  0.000000  0.763861  0.750000  1
  Lu  Lu3  1  0.000000  0.236139  0.250000  1
  Lu  Lu4  1  0.763861  0.763861  0.250000  1
  Lu  Lu5  1  0.763861  0.000000  0.750000  1
  Sc  Sc6  1  0.333333  0.666667  0.000000  1
  Sc  Sc7  1  0.666667  0.333333  0.500000  1
  Sc  Sc8  1  0.666667  0.333333  0.000000  1
  Sc  Sc9  1  0.333333  0.666667  0.500000  1
  Pb  Pb10  1  0.603102  0.000000  0.250000  1
  Pb  Pb11  1  0.603102  0.603102  0.750000  1
  Pb  Pb12  1  0.000000  0.396898  0.750000  1
  Pb  Pb13  1  0.000000  0.603102  0.250000  1
  Pb  Pb14  1  0.396898  0.396898  0.250000  1
  Pb  Pb15  1  0.396898  0.000000  0.750000  1
