# generated using pymatgen
data_Er6Zn11Ag12Se
_symmetry_space_group_name_H-M   'P 1'
_cell_length_a   9.25567503
_cell_length_b   9.25567469
_cell_length_c   9.25567600
_cell_angle_alpha   60.00000247
_cell_angle_beta   60.00000367
_cell_angle_gamma   60.00000331
_symmetry_Int_Tables_number   1
_chemical_formula_structural   Er6Zn11Ag12Se
_chemical_formula_sum   'Er6 Zn11 Ag12 Se1'
_cell_volume   560.67263094
_cell_formula_units_Z   1
loop_
 _symmetry_equiv_pos_site_id
 _symmetry_equiv_pos_as_xyz
  1  'x, y, z'
loop_
 _atom_site_type_symbol
 _atom_site_label
 _atom_site_symmetry_multiplicity
 _atom_site_fract_x
 _atom_site_fract_y
 _atom_site_fract_z
 _atom_site_occupancy
  Er  Er0  1  0.715165  0.284835  0.284835  1
  Er  Er1  1  0.715165  0.284835  0.715165  1
  Er  Er2  1  0.715165  0.715165  0.284835  1
  Er  Er3  1  0.284835  0.715165  0.715165  1
  Er  Er4  1  0.284835  0.715165  0.284835  1
  Er  Er5  1  0.284835  0.284835  0.715165  1
  Zn  Zn6  1  0.503470  0.996530  0.996530  1
  Zn  Zn7  1  0.503470  0.996530  0.503470  1
  Zn  Zn8  1  0.503470  0.503470  0.996530  1
  Zn  Zn9  1  0.996530  0.503470  0.503470  1
  Zn  Zn10  1  0.996530  0.503470  0.996530  1
  Zn  Zn11  1  0.996530  0.996530  0.503470  1
  Zn  Zn12  1  0.000000  0.000000  0.000000  1
  Zn  Zn13  1  0.992611  0.669130  0.669130  1
  Zn  Zn14  1  0.669130  0.992611  0.669130  1
  Zn  Zn15  1  0.669130  0.669130  0.992611  1
  Zn  Zn16  1  0.669130  0.669130  0.669130  1
  Ag  Ag17  1  0.646393  0.117869  0.117869  1
  Ag  Ag18  1  0.117869  0.646393  0.117869  1
  Ag  Ag19  1  0.117869  0.117869  0.646393  1
  Ag  Ag20  1  0.117869  0.117869  0.117869  1
  Ag  Ag21  1  0.368542  0.877152  0.877152  1
  Ag  Ag22  1  0.877152  0.368542  0.877152  1
  Ag  Ag23  1  0.877152  0.877152  0.368542  1
  Ag  Ag24  1  0.877152  0.877152  0.877152  1
  Ag  Ag25  1  0.996958  0.334347  0.334347  1
  Ag  Ag26  1  0.334347  0.996958  0.334347  1
  Ag  Ag27  1  0.334347  0.334347  0.996958  1
  Ag  Ag28  1  0.334347  0.334347  0.334347  1
  Se  Se29  1  0.500000  0.500000  0.500000  1
