# generated using pymatgen
data_Tb8Hf9Zr3Si15Sn
_symmetry_space_group_name_H-M   'P 1'
_cell_length_a   7.32842605
_cell_length_b   7.35632619
_cell_length_c   13.48757526
_cell_angle_alpha   89.75050779
_cell_angle_beta   89.99180167
_cell_angle_gamma   89.83966982
_symmetry_Int_Tables_number   1
_chemical_formula_structural   Tb8Hf9Zr3Si15Sn
_chemical_formula_sum   'Tb8 Hf9 Zr3 Si15 Sn1'
_cell_volume   727.10938017
_cell_formula_units_Z   1
loop_
 _symmetry_equiv_pos_site_id
 _symmetry_equiv_pos_as_xyz
  1  'x, y, z'
loop_
 _atom_site_type_symbol
 _atom_site_label
 _atom_site_symmetry_multiplicity
 _atom_site_fract_x
 _atom_site_fract_y
 _atom_site_fract_z
 _atom_site_occupancy
  Tb  Tb0  1  0.988718  0.344972  0.212427  1
  Tb  Tb1  1  0.004744  0.655942  0.716115  1
  Tb  Tb2  1  0.148783  0.504884  0.470466  1
  Tb  Tb3  1  0.505650  0.842701  0.032893  1
  Tb  Tb4  1  0.844521  0.503822  0.963963  1
  Tb  Tb5  1  0.498201  0.153669  0.539090  1
  Tb  Tb6  1  0.343807  0.995716  0.784958  1
  Tb  Tb7  1  0.661807  0.997758  0.283471  1
  Hf  Hf8  1  0.675026  0.324907  0.750266  1
  Hf  Hf9  1  0.142437  0.987351  0.374023  1
  Hf  Hf10  1  0.851735  0.004163  0.873809  1
  Hf  Hf11  1  0.503865  0.650222  0.624773  1
  Hf  Hf12  1  0.350839  0.495196  0.875606  1
  Hf  Hf13  1  0.496441  0.351225  0.118558  1
  Hf  Hf14  1  0.660382  0.514705  0.379612  1
  Hf  Hf15  1  0.994415  0.149452  0.626707  1
  Hf  Hf16  1  0.003127  0.849230  0.123943  1
  Zr  Zr17  1  0.174326  0.174946  0.999001  1
  Zr  Zr18  1  0.825514  0.826659  0.501230  1
  Zr  Zr19  1  0.326100  0.680983  0.248185  1
  Si  Si20  1  0.636949  0.704767  0.816585  1
  Si  Si21  1  0.205700  0.864703  0.567971  1
  Si  Si22  1  0.137382  0.793864  0.932537  1
  Si  Si23  1  0.794513  0.136230  0.065180  1
  Si  Si24  1  0.862400  0.205410  0.433698  1
  Si  Si25  1  0.295458  0.363325  0.683883  1
  Si  Si26  1  0.703926  0.636324  0.182803  1
  Si  Si27  1  0.294547  0.042934  0.181453  1
  Si  Si28  1  0.705551  0.950293  0.687227  1
  Si  Si29  1  0.449661  0.796717  0.436446  1
  Si  Si30  1  0.204530  0.549719  0.063621  1
  Si  Si31  1  0.550007  0.204288  0.933817  1
  Si  Si32  1  0.792961  0.449490  0.566726  1
  Si  Si33  1  0.048743  0.294826  0.813771  1
  Si  Si34  1  0.952275  0.702684  0.312409  1
  Sn  Sn35  1  0.364957  0.295924  0.322776  1
