# generated using pymatgen
data_TbBiMo2O7
_symmetry_space_group_name_H-M   'P 1'
_cell_length_a   7.46127401
_cell_length_b   7.46127382
_cell_length_c   7.57476600
_cell_angle_alpha   59.49554107
_cell_angle_beta   59.49554195
_cell_angle_gamma   58.87867858
_symmetry_Int_Tables_number   1
_chemical_formula_structural   TbBiMo2O7
_chemical_formula_sum   'Tb2 Bi2 Mo4 O14'
_cell_volume   293.33663255
_cell_formula_units_Z   2
loop_
 _symmetry_equiv_pos_site_id
 _symmetry_equiv_pos_as_xyz
  1  'x, y, z'
loop_
 _atom_site_type_symbol
 _atom_site_label
 _atom_site_symmetry_multiplicity
 _atom_site_fract_x
 _atom_site_fract_y
 _atom_site_fract_z
 _atom_site_occupancy
  Tb  Tb0  1  0.125000  0.125000  0.125000  1
  Tb  Tb1  1  0.125000  0.125000  0.625000  1
  Bi  Bi2  1  0.625000  0.125000  0.125000  1
  Bi  Bi3  1  0.125000  0.625000  0.125000  1
  Mo  Mo4  1  0.625000  0.625000  0.625000  1
  Mo  Mo5  1  0.125000  0.625000  0.625000  1
  Mo  Mo6  1  0.625000  0.625000  0.125000  1
  Mo  Mo7  1  0.625000  0.125000  0.625000  1
  O  O8  1  0.011557  0.011557  0.988443  1
  O  O9  1  0.238443  0.238443  0.261557  1
  O  O10  1  0.290584  0.290584  0.709416  1
  O  O11  1  0.539600  0.539600  0.960400  1
  O  O12  1  0.710396  0.289049  0.709732  1
  O  O13  1  0.710396  0.289049  0.290822  1
  O  O14  1  0.289049  0.710396  0.709732  1
  O  O15  1  0.289049  0.710396  0.290822  1
  O  O16  1  0.710400  0.710400  0.289600  1
  O  O17  1  0.960951  0.539604  0.540268  1
  O  O18  1  0.539604  0.960951  0.959178  1
  O  O19  1  0.959416  0.959416  0.540584  1
  O  O20  1  0.960951  0.539604  0.959178  1
  O  O21  1  0.539604  0.960951  0.540268  1
