# generated using pymatgen
data_Tb3Dy(Al3Ir)6
_symmetry_space_group_name_H-M   'P 1'
_cell_length_a   7.55398900
_cell_length_b   7.55317180
_cell_length_c   9.49882100
_cell_angle_alpha   90.00000000
_cell_angle_beta   90.00000000
_cell_angle_gamma   119.31357274
_symmetry_Int_Tables_number   1
_chemical_formula_structural   Tb3Dy(Al3Ir)6
_chemical_formula_sum   'Tb3 Dy1 Al18 Ir6'
_cell_volume   472.57272197
_cell_formula_units_Z   1
loop_
 _symmetry_equiv_pos_site_id
 _symmetry_equiv_pos_as_xyz
  1  'x, y, z'
loop_
 _atom_site_type_symbol
 _atom_site_label
 _atom_site_symmetry_multiplicity
 _atom_site_fract_x
 _atom_site_fract_y
 _atom_site_fract_z
 _atom_site_occupancy
  Tb  Tb0  1  0.005302  0.329301  0.750000  1
  Tb  Tb1  1  0.670723  0.994666  0.250000  1
  Tb  Tb2  1  0.329289  0.005273  0.750000  1
  Dy  Dy3  1  0.994711  0.670723  0.250000  1
  Al  Al4  1  0.129010  0.128849  0.250000  1
  Al  Al5  1  0.870945  0.870869  0.750000  1
  Al  Al6  1  0.001273  0.335179  0.073864  1
  Al  Al7  1  0.998734  0.664990  0.926630  1
  Al  Al8  1  0.998734  0.664990  0.573370  1
  Al  Al9  1  0.334883  0.001144  0.426160  1
  Al  Al10  1  0.001273  0.335179  0.426136  1
  Al  Al11  1  0.664981  0.998730  0.573597  1
  Al  Al12  1  0.664981  0.998730  0.926403  1
  Al  Al13  1  0.334883  0.001144  0.073840  1
  Al  Al14  1  0.333630  0.333628  0.551019  1
  Al  Al15  1  0.666477  0.666355  0.448602  1
  Al  Al16  1  0.666477  0.666355  0.051398  1
  Al  Al17  1  0.333630  0.333628  0.948981  1
  Al  Al18  1  0.338958  0.547669  0.250000  1
  Al  Al19  1  0.660891  0.452391  0.750000  1
  Al  Al20  1  0.547900  0.339450  0.250000  1
  Al  Al21  1  0.452305  0.660799  0.750000  1
  Ir  Ir22  1  0.671849  0.328278  0.000103  1
  Ir  Ir23  1  0.328210  0.671808  0.000088  1
  Ir  Ir24  1  0.328210  0.671808  0.499912  1
  Ir  Ir25  1  0.671849  0.328278  0.499897  1
  Ir  Ir26  1  0.999946  0.999894  0.000117  1
  Ir  Ir27  1  0.999946  0.999894  0.499883  1
