# generated using pymatgen
data_TmScCo12AsP6
_symmetry_space_group_name_H-M   'P 1'
_cell_length_a   9.03416100
_cell_length_b   9.03416131
_cell_length_c   3.54751600
_cell_angle_alpha   90.00000000
_cell_angle_beta   90.00000000
_cell_angle_gamma   120.00000252
_symmetry_Int_Tables_number   1
_chemical_formula_structural   TmScCo12AsP6
_chemical_formula_sum   'Tm1 Sc1 Co12 As1 P6'
_cell_volume   250.74405822
_cell_formula_units_Z   1
loop_
 _symmetry_equiv_pos_site_id
 _symmetry_equiv_pos_as_xyz
  1  'x, y, z'
loop_
 _atom_site_type_symbol
 _atom_site_label
 _atom_site_symmetry_multiplicity
 _atom_site_fract_x
 _atom_site_fract_y
 _atom_site_fract_z
 _atom_site_occupancy
  Tm  Tm0  1  0.000000  0.000000  0.500000  1
  Sc  Sc1  1  0.666667  0.333333  0.000000  1
  Co  Co2  1  0.770914  0.726571  0.000000  1
  Co  Co3  1  0.273429  0.044341  0.000000  1
  Co  Co4  1  0.955659  0.229086  0.000000  1
  Co  Co5  1  0.717007  0.107778  0.500000  1
  Co  Co6  1  0.892222  0.609228  0.500000  1
  Co  Co7  1  0.390772  0.282993  0.500000  1
  Co  Co8  1  0.493183  0.951418  0.000000  1
  Co  Co9  1  0.048582  0.541766  0.000000  1
  Co  Co10  1  0.458234  0.506817  0.000000  1
  Co  Co11  1  0.585448  0.776633  0.500000  1
  Co  Co12  1  0.223367  0.808815  0.500000  1
  Co  Co13  1  0.191185  0.414552  0.500000  1
  As  As14  1  0.333333  0.666667  0.000000  1
  P  P15  1  0.450639  0.076360  0.500000  1
  P  P16  1  0.923640  0.374278  0.500000  1
  P  P17  1  0.625722  0.549361  0.500000  1
  P  P18  1  0.740911  0.959591  0.000000  1
  P  P19  1  0.040409  0.781319  0.000000  1
  P  P20  1  0.218681  0.259089  0.000000  1
