# generated using pymatgen
data_Y2Al9Os2Rh
_symmetry_space_group_name_H-M   'P 1'
_cell_length_a   7.55566510
_cell_length_b   7.55566567
_cell_length_c   9.61426800
_cell_angle_alpha   90.00000000
_cell_angle_beta   90.00000000
_cell_angle_gamma   119.65226570
_symmetry_Int_Tables_number   1
_chemical_formula_structural   Y2Al9Os2Rh
_chemical_formula_sum   'Y4 Al18 Os4 Rh2'
_cell_volume   476.98356680
_cell_formula_units_Z   2
loop_
 _symmetry_equiv_pos_site_id
 _symmetry_equiv_pos_as_xyz
  1  'x, y, z'
loop_
 _atom_site_type_symbol
 _atom_site_label
 _atom_site_symmetry_multiplicity
 _atom_site_fract_x
 _atom_site_fract_y
 _atom_site_fract_z
 _atom_site_occupancy
  Y  Y0  1  0.996442  0.667743  0.250000  1
  Y  Y1  1  0.003558  0.332257  0.750000  1
  Y  Y2  1  0.667743  0.996442  0.250000  1
  Y  Y3  1  0.332257  0.003558  0.750000  1
  Al  Al4  1  0.127753  0.127753  0.250000  1
  Al  Al5  1  0.872247  0.872247  0.750000  1
  Al  Al6  1  0.002953  0.335795  0.071695  1
  Al  Al7  1  0.997047  0.664205  0.928305  1
  Al  Al8  1  0.997047  0.664205  0.571695  1
  Al  Al9  1  0.335795  0.002953  0.428305  1
  Al  Al10  1  0.002953  0.335795  0.428305  1
  Al  Al11  1  0.664205  0.997047  0.571695  1
  Al  Al12  1  0.664205  0.997047  0.928305  1
  Al  Al13  1  0.335795  0.002953  0.071695  1
  Al  Al14  1  0.336976  0.336976  0.549766  1
  Al  Al15  1  0.663024  0.663024  0.450234  1
  Al  Al16  1  0.663024  0.663024  0.049766  1
  Al  Al17  1  0.336976  0.336976  0.950234  1
  Al  Al18  1  0.336826  0.547615  0.250000  1
  Al  Al19  1  0.663174  0.452385  0.750000  1
  Al  Al20  1  0.547615  0.336826  0.250000  1
  Al  Al21  1  0.452385  0.663174  0.750000  1
  Os  Os22  1  0.672775  0.327225  0.000000  1
  Os  Os23  1  0.327225  0.672775  0.000000  1
  Os  Os24  1  0.327225  0.672775  0.500000  1
  Os  Os25  1  0.672775  0.327225  0.500000  1
  Rh  Rh26  1  0.000000  0.000000  0.000000  1
  Rh  Rh27  1  0.000000  0.000000  0.500000  1
