# generated using pymatgen
data_La3Gd(MoO6)2
_symmetry_space_group_name_H-M   'P 1'
_cell_length_a   5.60285206
_cell_length_b   10.32312126
_cell_length_c   10.32311125
_cell_angle_alpha   68.71889741
_cell_angle_beta   75.21574004
_cell_angle_gamma   75.21570190
_symmetry_Int_Tables_number   1
_chemical_formula_structural   La3Gd(MoO6)2
_chemical_formula_sum   'La6 Gd2 Mo4 O24'
_cell_volume   529.11496461
_cell_formula_units_Z   2
loop_
 _symmetry_equiv_pos_site_id
 _symmetry_equiv_pos_as_xyz
  1  'x, y, z'
loop_
 _atom_site_type_symbol
 _atom_site_label
 _atom_site_symmetry_multiplicity
 _atom_site_fract_x
 _atom_site_fract_y
 _atom_site_fract_z
 _atom_site_occupancy
  La  La0  1  0.618406  0.787262  0.553246  1
  La  La1  1  0.118418  0.553242  0.787257  1
  La  La2  1  0.381585  0.212748  0.446746  1
  La  La3  1  0.881585  0.446748  0.212752  1
  La  La4  1  0.749986  0.863808  0.136204  1
  La  La5  1  0.250006  0.136194  0.863803  1
  Gd  Gd6  1  0.750007  0.395855  0.604145  1
  Gd  Gd7  1  0.249989  0.604145  0.395859  1
  Mo  Mo8  1  0.064079  0.007058  0.297845  1
  Mo  Mo9  1  0.435920  0.702152  0.992941  1
  Mo  Mo10  1  0.935930  0.992939  0.702156  1
  Mo  Mo11  1  0.564073  0.297848  0.007059  1
  O  O12  1  0.925208  0.571730  0.605599  1
  O  O13  1  0.574788  0.394404  0.428273  1
  O  O14  1  0.074792  0.428270  0.394401  1
  O  O15  1  0.425209  0.605600  0.571722  1
  O  O16  1  0.935252  0.808514  0.336876  1
  O  O17  1  0.564744  0.663123  0.191487  1
  O  O18  1  0.064750  0.191487  0.663123  1
  O  O19  1  0.435257  0.336873  0.808514  1
  O  O20  1  0.368431  0.889065  0.329012  1
  O  O21  1  0.131566  0.670987  0.110938  1
  O  O22  1  0.631565  0.110940  0.670985  1
  O  O23  1  0.868437  0.329010  0.889065  1
  O  O24  1  0.633095  0.288978  0.174677  1
  O  O25  1  0.866908  0.825326  0.711020  1
  O  O26  1  0.366908  0.711021  0.825323  1
  O  O27  1  0.133093  0.174672  0.288975  1
  O  O28  1  0.520328  0.118729  0.044090  1
  O  O29  1  0.979675  0.955914  0.881269  1
  O  O30  1  0.768161  0.023304  0.426385  1
  O  O31  1  0.020327  0.044088  0.118731  1
  O  O32  1  0.268166  0.426382  0.023305  1
  O  O33  1  0.231840  0.976695  0.573617  1
  O  O34  1  0.731843  0.573617  0.976695  1
  O  O35  1  0.479676  0.881271  0.955910  1
