# generated using pymatgen
data_La12Fe(AuI4)3
_symmetry_space_group_name_H-M   'P 1'
_cell_length_a   11.03433983
_cell_length_b   11.03433950
_cell_length_c   11.03433946
_cell_angle_alpha   109.02349719
_cell_angle_beta   109.02349796
_cell_angle_gamma   109.02349118
_symmetry_Int_Tables_number   1
_chemical_formula_structural   La12Fe(AuI4)3
_chemical_formula_sum   'La12 Fe1 Au3 I12'
_cell_volume   1051.02441880
_cell_formula_units_Z   1
loop_
 _symmetry_equiv_pos_site_id
 _symmetry_equiv_pos_as_xyz
  1  'x, y, z'
loop_
 _atom_site_type_symbol
 _atom_site_label
 _atom_site_symmetry_multiplicity
 _atom_site_fract_x
 _atom_site_fract_y
 _atom_site_fract_z
 _atom_site_occupancy
  La  La0  1  0.456754  0.466882  0.238790  1
  La  La1  1  0.750000  0.234995  0.265005  1
  La  La2  1  0.750000  0.014676  0.485324  1
  La  La3  1  0.238790  0.456754  0.466882  1
  La  La4  1  0.265005  0.750000  0.234995  1
  La  La5  1  0.043246  0.261210  0.033118  1
  La  La6  1  0.033118  0.043246  0.261210  1
  La  La7  1  0.485324  0.750000  0.014676  1
  La  La8  1  0.466882  0.238790  0.456754  1
  La  La9  1  0.014676  0.485324  0.750000  1
  La  La10  1  0.261210  0.033118  0.043246  1
  La  La11  1  0.234995  0.265005  0.750000  1
  Fe  Fe12  1  0.250000  0.250000  0.250000  1
  Au  Au13  1  0.500067  0.999933  0.250000  1
  Au  Au14  1  0.999933  0.250000  0.500067  1
  Au  Au15  1  0.250000  0.500067  0.999933  1
  I  I16  1  0.250000  0.756483  0.743517  1
  I  I17  1  0.517127  0.508418  0.759117  1
  I  I18  1  0.982873  0.740883  0.991582  1
  I  I19  1  0.743517  0.250000  0.756483  1
  I  I20  1  0.991582  0.982873  0.740883  1
  I  I21  1  0.250000  0.991249  0.508751  1
  I  I22  1  0.759117  0.517127  0.508418  1
  I  I23  1  0.508751  0.250000  0.991249  1
  I  I24  1  0.756483  0.743517  0.250000  1
  I  I25  1  0.740883  0.991582  0.982873  1
  I  I26  1  0.991249  0.508751  0.250000  1
  I  I27  1  0.508418  0.759117  0.517127  1
