# generated using pymatgen
data_La3Mg2Pt3Au
_symmetry_space_group_name_H-M   'P 1'
_cell_length_a   7.57337439
_cell_length_b   7.74684084
_cell_length_c   4.16255000
_cell_angle_alpha   90.00000000
_cell_angle_beta   90.00000000
_cell_angle_gamma   120.76062047
_symmetry_Int_Tables_number   1
_chemical_formula_structural   La3Mg2Pt3Au
_chemical_formula_sum   'La3 Mg2 Pt3 Au1'
_cell_volume   209.85736179
_cell_formula_units_Z   1
loop_
 _symmetry_equiv_pos_site_id
 _symmetry_equiv_pos_as_xyz
  1  'x, y, z'
loop_
 _atom_site_type_symbol
 _atom_site_label
 _atom_site_symmetry_multiplicity
 _atom_site_fract_x
 _atom_site_fract_y
 _atom_site_fract_z
 _atom_site_occupancy
  La  La0  1  0.390462  0.403307  0.000000  1
  La  La1  1  0.609538  0.012845  0.000000  1
  La  La2  1  0.000000  0.580061  0.000000  1
  Mg  Mg3  1  0.758216  0.756393  0.500000  1
  Mg  Mg4  1  0.241784  0.998176  0.500000  1
  Pt  Pt5  1  0.350729  0.692381  0.500000  1
  Pt  Pt6  1  0.000000  0.969698  0.000000  1
  Pt  Pt7  1  0.649271  0.341652  0.500000  1
  Au  Au8  1  0.000000  0.245488  0.500000  1
