# generated using pymatgen
data_La10Cd(GeRu2)3
_symmetry_space_group_name_H-M   'P 1'
_cell_length_a   8.65515346
_cell_length_b   8.65515305
_cell_length_c   8.64138500
_cell_angle_alpha   109.43900249
_cell_angle_beta   109.43900152
_cell_angle_gamma   109.50342239
_symmetry_Int_Tables_number   1
_chemical_formula_structural   La10Cd(GeRu2)3
_chemical_formula_sum   'La10 Cd1 Ge3 Ru6'
_cell_volume   498.52105552
_cell_formula_units_Z   1
loop_
 _symmetry_equiv_pos_site_id
 _symmetry_equiv_pos_as_xyz
  1  'x, y, z'
loop_
 _atom_site_type_symbol
 _atom_site_label
 _atom_site_symmetry_multiplicity
 _atom_site_fract_x
 _atom_site_fract_y
 _atom_site_fract_z
 _atom_site_occupancy
  La  La0  1  0.245216  0.684715  0.439102  1
  La  La1  1  0.749851  0.799860  0.053391  1
  La  La2  1  0.439500  0.254784  0.693885  1
  La  La3  1  0.700140  0.449992  0.253531  1
  La  La4  1  0.050009  0.750149  0.803542  1
  La  La5  1  0.815285  0.060501  0.754386  1
  La  La6  1  0.219326  0.218492  0.219674  1
  La  La7  1  0.500001  0.000000  0.296257  1
  La  La8  1  0.281508  0.500835  0.001183  1
  La  La9  1  0.999166  0.280674  0.500349  1
  Cd  Cd10  1  0.500001  0.000000  0.916997  1
  Ge  Ge11  1  0.593934  0.593903  0.592108  1
  Ge  Ge12  1  0.906097  0.500032  0.998204  1
  Ge  Ge13  1  0.999969  0.906066  0.498175  1
  Ru  Ru14  1  0.234073  0.132128  0.860200  1
  Ru  Ru15  1  0.747981  0.384810  0.632536  1
  Ru  Ru16  1  0.898055  0.265929  0.126127  1
  Ru  Ru17  1  0.115189  0.863169  0.247726  1
  Ru  Ru18  1  0.636830  0.752019  0.384555  1
  Ru  Ru19  1  0.367871  0.601944  0.728072  1
