# generated using pymatgen
data_LiCo4As3Rh
_symmetry_space_group_name_H-M   'P 1'
_cell_length_a   3.69102500
_cell_length_b   10.63973600
_cell_length_c   12.26292400
_cell_angle_alpha   90.00000000
_cell_angle_beta   90.00000000
_cell_angle_gamma   90.00000000
_symmetry_Int_Tables_number   1
_chemical_formula_structural   LiCo4As3Rh
_chemical_formula_sum   'Li4 Co16 As12 Rh4'
_cell_volume   481.58380700
_cell_formula_units_Z   4
loop_
 _symmetry_equiv_pos_site_id
 _symmetry_equiv_pos_as_xyz
  1  'x, y, z'
loop_
 _atom_site_type_symbol
 _atom_site_label
 _atom_site_symmetry_multiplicity
 _atom_site_fract_x
 _atom_site_fract_y
 _atom_site_fract_z
 _atom_site_occupancy
  Li  Li0  1  0.250000  0.581751  0.704276  1
  Li  Li1  1  0.250000  0.918249  0.204276  1
  Li  Li2  1  0.750000  0.418249  0.295724  1
  Li  Li3  1  0.750000  0.081751  0.795724  1
  Co  Co4  1  0.250000  0.408303  0.488622  1
  Co  Co5  1  0.250000  0.091697  0.988622  1
  Co  Co6  1  0.750000  0.591697  0.511378  1
  Co  Co7  1  0.750000  0.908303  0.011378  1
  Co  Co8  1  0.250000  0.214410  0.174789  1
  Co  Co9  1  0.250000  0.285590  0.674789  1
  Co  Co10  1  0.750000  0.785590  0.825211  1
  Co  Co11  1  0.750000  0.714410  0.325211  1
  Co  Co12  1  0.250000  0.882536  0.699095  1
  Co  Co13  1  0.250000  0.617464  0.199095  1
  Co  Co14  1  0.750000  0.117464  0.300905  1
  Co  Co15  1  0.750000  0.382536  0.800905  1
  Co  Co16  1  0.250000  0.461642  0.933144  1
  Co  Co17  1  0.250000  0.038358  0.433144  1
  Co  Co18  1  0.750000  0.538358  0.066856  1
  Co  Co19  1  0.750000  0.961642  0.566856  1
  As  As20  1  0.250000  0.419388  0.119987  1
  As  As21  1  0.250000  0.080612  0.619987  1
  As  As22  1  0.750000  0.580612  0.880013  1
  As  As23  1  0.750000  0.919388  0.380013  1
  As  As24  1  0.250000  0.259197  0.862408  1
  As  As25  1  0.250000  0.240803  0.362408  1
  As  As26  1  0.750000  0.740803  0.137592  1
  As  As27  1  0.750000  0.759197  0.637592  1
  As  As28  1  0.250000  0.587393  0.384503  1
  As  As29  1  0.250000  0.912607  0.884503  1
  As  As30  1  0.750000  0.412607  0.615497  1
  As  As31  1  0.750000  0.087393  0.115497  1
  Rh  Rh32  1  0.250000  0.714921  0.988956  1
  Rh  Rh33  1  0.250000  0.785079  0.488956  1
  Rh  Rh34  1  0.750000  0.285079  0.011044  1
  Rh  Rh35  1  0.750000  0.214921  0.511044  1
