# generated using pymatgen
data_DyHo15Zn3InRh4
_symmetry_space_group_name_H-M   'P 1'
_cell_length_a   9.50296094
_cell_length_b   9.50235184
_cell_length_c   9.52097600
_cell_angle_alpha   59.93513712
_cell_angle_beta   59.93726291
_cell_angle_gamma   59.83476995
_symmetry_Int_Tables_number   1
_chemical_formula_structural   DyHo15Zn3InRh4
_chemical_formula_sum   'Dy1 Ho15 Zn3 In1 Rh4'
_cell_volume   606.58663608
_cell_formula_units_Z   1
loop_
 _symmetry_equiv_pos_site_id
 _symmetry_equiv_pos_as_xyz
  1  'x, y, z'
loop_
 _atom_site_type_symbol
 _atom_site_label
 _atom_site_symmetry_multiplicity
 _atom_site_fract_x
 _atom_site_fract_y
 _atom_site_fract_z
 _atom_site_occupancy
  Dy  Dy0  1  0.191060  0.180786  0.814077  1
  Ho  Ho1  1  0.602200  0.603653  0.192756  1
  Ho  Ho2  1  0.440225  0.059339  0.441034  1
  Ho  Ho3  1  0.441204  0.441206  0.058794  1
  Ho  Ho4  1  0.814251  0.181127  0.814378  1
  Ho  Ho5  1  0.186263  0.812999  0.185917  1
  Ho  Ho6  1  0.440225  0.059339  0.059402  1
  Ho  Ho7  1  0.186263  0.812999  0.814820  1
  Ho  Ho8  1  0.058551  0.440779  0.059556  1
  Ho  Ho9  1  0.815190  0.813478  0.185666  1
  Ho  Ho10  1  0.192228  0.604065  0.601854  1
  Ho  Ho11  1  0.058551  0.440779  0.441113  1
  Ho  Ho12  1  0.059121  0.059953  0.440463  1
  Ho  Ho13  1  0.814251  0.181127  0.190244  1
  Ho  Ho14  1  0.604608  0.188274  0.603559  1
  Ho  Ho15  1  0.602200  0.603653  0.601391  1
  Zn  Zn16  1  0.829898  0.833166  0.830135  1
  Zn  Zn17  1  0.829898  0.833166  0.506801  1
  Zn  Zn18  1  0.506091  0.833147  0.830381  1
  In  In19  1  0.827355  0.515609  0.828519  1
  Rh  Rh20  1  0.393426  0.820860  0.392857  1
  Rh  Rh21  1  0.393638  0.393441  0.393035  1
  Rh  Rh22  1  0.819667  0.393612  0.393361  1
  Rh  Rh23  1  0.393638  0.393441  0.819887  1
