# generated using pymatgen
data_Tb3CeGa12Fe
_symmetry_space_group_name_H-M   'P 1'
_cell_length_a   7.50759207
_cell_length_b   7.51631066
_cell_length_c   7.51502209
_cell_angle_alpha   109.88442058
_cell_angle_beta   109.82077014
_cell_angle_gamma   109.78736288
_symmetry_Int_Tables_number   1
_chemical_formula_structural   Tb3CeGa12Fe
_chemical_formula_sum   'Tb3 Ce1 Ga12 Fe1'
_cell_volume   322.02768304
_cell_formula_units_Z   1
loop_
 _symmetry_equiv_pos_site_id
 _symmetry_equiv_pos_as_xyz
  1  'x, y, z'
loop_
 _atom_site_type_symbol
 _atom_site_label
 _atom_site_symmetry_multiplicity
 _atom_site_fract_x
 _atom_site_fract_y
 _atom_site_fract_z
 _atom_site_occupancy
  Tb  Tb0  1  0.000244  0.000158  0.499909  1
  Tb  Tb1  1  0.999763  0.499825  0.999940  1
  Tb  Tb2  1  0.500065  0.999940  0.000011  1
  Ce  Ce3  1  0.500051  0.500032  0.500094  1
  Ga  Ga4  1  0.750309  0.249853  0.500051  1
  Ga  Ga5  1  0.750290  0.500077  0.249864  1
  Ga  Ga6  1  0.500048  0.249862  0.750268  1
  Ga  Ga7  1  0.249735  0.499979  0.750220  1
  Ga  Ga8  1  0.249749  0.750208  0.499977  1
  Ga  Ga9  1  0.499975  0.750160  0.249726  1
  Ga  Ga10  1  0.715670  0.715657  0.000036  1
  Ga  Ga11  1  0.284195  0.999872  0.284327  1
  Ga  Ga12  1  0.999946  0.284364  0.284261  1
  Ga  Ga13  1  0.284217  0.284309  0.999918  1
  Ga  Ga14  1  0.715733  0.000075  0.715708  1
  Ga  Ga15  1  0.000024  0.715632  0.715685  1
  Fe  Fe16  1  0.999987  0.999996  0.000005  1
