# generated using pymatgen
data_Tm6ScNb(Co4P3)4
_symmetry_space_group_name_H-M   'P 1'
_cell_length_a   3.69284800
_cell_length_b   10.62337700
_cell_length_c   12.29323500
_cell_angle_alpha   90.00000000
_cell_angle_beta   90.00000000
_cell_angle_gamma   90.00000000
_symmetry_Int_Tables_number   1
_chemical_formula_structural   Tm6ScNb(Co4P3)4
_chemical_formula_sum   'Tm6 Sc1 Nb1 Co16 P12'
_cell_volume   482.26995860
_cell_formula_units_Z   1
loop_
 _symmetry_equiv_pos_site_id
 _symmetry_equiv_pos_as_xyz
  1  'x, y, z'
loop_
 _atom_site_type_symbol
 _atom_site_label
 _atom_site_symmetry_multiplicity
 _atom_site_fract_x
 _atom_site_fract_y
 _atom_site_fract_z
 _atom_site_occupancy
  Tm  Tm0  1  0.000000  0.500000  0.527051  1
  Tm  Tm1  1  0.500000  0.000000  0.473122  1
  Tm  Tm2  1  0.500000  0.821594  0.205060  1
  Tm  Tm3  1  0.500000  0.178406  0.205060  1
  Tm  Tm4  1  0.000000  0.679680  0.794907  1
  Tm  Tm5  1  0.000000  0.320320  0.794907  1
  Sc  Sc6  1  0.500000  0.500000  0.155718  1
  Nb  Nb7  1  0.000000  0.000000  0.842468  1
  Co  Co8  1  0.500000  0.500000  0.701998  1
  Co  Co9  1  0.000000  0.000000  0.298217  1
  Co  Co10  1  0.000000  0.500000  0.984785  1
  Co  Co11  1  0.500000  0.000000  0.014082  1
  Co  Co12  1  0.500000  0.330581  0.992294  1
  Co  Co13  1  0.500000  0.669419  0.992294  1
  Co  Co14  1  0.000000  0.166437  0.007615  1
  Co  Co15  1  0.000000  0.833563  0.007615  1
  Co  Co16  1  0.500000  0.295112  0.433318  1
  Co  Co17  1  0.500000  0.704888  0.433318  1
  Co  Co18  1  0.000000  0.204355  0.567883  1
  Co  Co19  1  0.000000  0.795645  0.567883  1
  Co  Co20  1  0.500000  0.877026  0.703793  1
  Co  Co21  1  0.500000  0.122974  0.703793  1
  Co  Co22  1  0.000000  0.623500  0.296612  1
  Co  Co23  1  0.000000  0.376500  0.296612  1
  P  P24  1  0.500000  0.500000  0.882004  1
  P  P25  1  0.000000  0.000000  0.118834  1
  P  P26  1  0.500000  0.500000  0.359620  1
  P  P27  1  0.000000  0.000000  0.641728  1
  P  P28  1  0.500000  0.311824  0.615973  1
  P  P29  1  0.500000  0.688176  0.615973  1
  P  P30  1  0.000000  0.188525  0.384009  1
  P  P31  1  0.000000  0.811475  0.384009  1
  P  P32  1  0.500000  0.840320  0.891839  1
  P  P33  1  0.500000  0.159680  0.891839  1
  P  P34  1  0.000000  0.660623  0.106883  1
  P  P35  1  0.000000  0.339377  0.106883  1
