# generated using pymatgen
data_DyYTc2C3
_symmetry_space_group_name_H-M   'P 1'
_cell_length_a   6.05809862
_cell_length_b   6.05809822
_cell_length_c   5.68859630
_cell_angle_alpha   67.07902546
_cell_angle_beta   67.07902423
_cell_angle_gamma   31.99336639
_symmetry_Int_Tables_number   1
_chemical_formula_structural   DyYTc2C3
_chemical_formula_sum   'Dy1 Y1 Tc2 C3'
_cell_volume   101.12817644
_cell_formula_units_Z   1
loop_
 _symmetry_equiv_pos_site_id
 _symmetry_equiv_pos_as_xyz
  1  'x, y, z'
loop_
 _atom_site_type_symbol
 _atom_site_label
 _atom_site_symmetry_multiplicity
 _atom_site_fract_x
 _atom_site_fract_y
 _atom_site_fract_z
 _atom_site_occupancy
  Dy  Dy0  1  0.390888  0.390888  0.822097  1
  Y  Y1  1  0.608875  0.608875  0.178569  1
  Tc  Tc2  1  0.841623  0.841623  0.320613  1
  Tc  Tc3  1  0.158314  0.158314  0.679307  1
  C  C4  1  0.753276  0.753276  0.728108  1
  C  C5  1  0.247212  0.247212  0.271457  1
  C  C6  1  0.999811  0.999811  0.999849  1
