# generated using pymatgen
data_Dy3Ho(ErBi)6
_symmetry_space_group_name_H-M   'P 1'
_cell_length_a   8.23652900
_cell_length_b   9.48064300
_cell_length_c   12.04492700
_cell_angle_alpha   90.00000000
_cell_angle_beta   90.00000000
_cell_angle_gamma   90.00000000
_symmetry_Int_Tables_number   1
_chemical_formula_structural   Dy3Ho(ErBi)6
_chemical_formula_sum   'Dy6 Ho2 Er12 Bi12'
_cell_volume   940.55933330
_cell_formula_units_Z   2
loop_
 _symmetry_equiv_pos_site_id
 _symmetry_equiv_pos_as_xyz
  1  'x, y, z'
loop_
 _atom_site_type_symbol
 _atom_site_label
 _atom_site_symmetry_multiplicity
 _atom_site_fract_x
 _atom_site_fract_y
 _atom_site_fract_z
 _atom_site_occupancy
  Dy  Dy0  1  0.186487  0.750000  0.718721  1
  Dy  Dy1  1  0.686487  0.750000  0.781279  1
  Dy  Dy2  1  0.813426  0.250000  0.281311  1
  Dy  Dy3  1  0.313426  0.250000  0.218689  1
  Dy  Dy4  1  0.354028  0.750000  0.215997  1
  Dy  Dy5  1  0.854028  0.750000  0.284003  1
  Ho  Ho6  1  0.645907  0.250000  0.783905  1
  Ho  Ho7  1  0.145907  0.250000  0.716095  1
  Er  Er8  1  0.025592  0.750000  0.988803  1
  Er  Er9  1  0.525592  0.750000  0.511197  1
  Er  Er10  1  0.974457  0.250000  0.011256  1
  Er  Er11  1  0.474457  0.250000  0.488744  1
  Er  Er12  1  0.306491  0.435443  0.940283  1
  Er  Er13  1  0.806491  0.064557  0.559717  1
  Er  Er14  1  0.693410  0.935330  0.059807  1
  Er  Er15  1  0.193410  0.564670  0.440193  1
  Er  Er16  1  0.693410  0.564670  0.059807  1
  Er  Er17  1  0.193410  0.935330  0.440193  1
  Er  Er18  1  0.306491  0.064557  0.940283  1
  Er  Er19  1  0.806491  0.435443  0.559717  1
  Bi  Bi20  1  0.433663  0.004034  0.673333  1
  Bi  Bi21  1  0.933663  0.495966  0.826667  1
  Bi  Bi22  1  0.566441  0.503940  0.326693  1
  Bi  Bi23  1  0.066441  0.996060  0.173307  1
  Bi  Bi24  1  0.566441  0.996060  0.326693  1
  Bi  Bi25  1  0.066441  0.503940  0.173307  1
  Bi  Bi26  1  0.433663  0.495966  0.673333  1
  Bi  Bi27  1  0.933663  0.004034  0.826667  1
  Bi  Bi28  1  0.408150  0.750000  0.957836  1
  Bi  Bi29  1  0.908150  0.750000  0.542164  1
  Bi  Bi30  1  0.591945  0.250000  0.041998  1
  Bi  Bi31  1  0.091945  0.250000  0.458002  1
