# generated using pymatgen
data_Sc4Pa4Mn(CrB8)3
_symmetry_space_group_name_H-M   'P 1'
_cell_length_a   3.52804400
_cell_length_b   8.95808601
_cell_length_c   11.32063801
_cell_angle_alpha   89.99488065
_cell_angle_beta   90.00000000
_cell_angle_gamma   90.00000000
_symmetry_Int_Tables_number   1
_chemical_formula_structural   Sc4Pa4Mn(CrB8)3
_chemical_formula_sum   'Sc4 Pa4 Mn1 Cr3 B24'
_cell_volume   357.78334707
_cell_formula_units_Z   1
loop_
 _symmetry_equiv_pos_site_id
 _symmetry_equiv_pos_as_xyz
  1  'x, y, z'
loop_
 _atom_site_type_symbol
 _atom_site_label
 _atom_site_symmetry_multiplicity
 _atom_site_fract_x
 _atom_site_fract_y
 _atom_site_fract_z
 _atom_site_occupancy
  Sc  Sc0  1  0.000000  0.444262  0.127561  1
  Sc  Sc1  1  0.000000  0.555604  0.872612  1
  Sc  Sc2  1  0.000000  0.944156  0.372506  1
  Sc  Sc3  1  0.000000  0.055664  0.627341  1
  Pa  Pa4  1  0.000000  0.821218  0.085511  1
  Pa  Pa5  1  0.000000  0.178379  0.913828  1
  Pa  Pa6  1  0.000000  0.321883  0.414717  1
  Pa  Pa7  1  0.000000  0.678566  0.586014  1
  Mn  Mn8  1  0.000000  0.140875  0.180935  1
  Cr  Cr9  1  0.000000  0.859253  0.819085  1
  Cr  Cr10  1  0.000000  0.640933  0.318582  1
  Cr  Cr11  1  0.000000  0.358840  0.681132  1
  B  B12  1  0.500000  0.056187  0.069400  1
  B  B13  1  0.500000  0.944748  0.931806  1
  B  B14  1  0.500000  0.555214  0.431526  1
  B  B15  1  0.500000  0.444633  0.568421  1
  B  B16  1  0.500000  0.252334  0.082993  1
  B  B17  1  0.500000  0.747043  0.917913  1
  B  B18  1  0.500000  0.752994  0.417766  1
  B  B19  1  0.500000  0.247081  0.582097  1
  B  B20  1  0.500000  0.292349  0.234330  1
  B  B21  1  0.500000  0.706392  0.765182  1
  B  B22  1  0.500000  0.794002  0.265031  1
  B  B23  1  0.500000  0.206300  0.734840  1
  B  B24  1  0.500000  0.129565  0.315577  1
  B  B25  1  0.500000  0.870383  0.683787  1
  B  B26  1  0.500000  0.629860  0.183510  1
  B  B27  1  0.500000  0.370146  0.816346  1
  B  B28  1  0.500000  0.482801  0.285755  1
  B  B29  1  0.500000  0.517004  0.714131  1
  B  B30  1  0.500000  0.984484  0.213856  1
  B  B31  1  0.500000  0.017144  0.785976  1
  B  B32  1  0.500000  0.099870  0.472421  1
  B  B33  1  0.500000  0.900202  0.526991  1
  B  B34  1  0.500000  0.599799  0.027186  1
  B  B35  1  0.500000  0.399829  0.973334  1
