# generated using pymatgen
data_Si3(OF)4
_symmetry_space_group_name_H-M   'P 1'
_cell_length_a   5.15168484
_cell_length_b   7.63405351
_cell_length_c   7.41989488
_cell_angle_alpha   119.77772531
_cell_angle_beta   70.67866391
_cell_angle_gamma   133.52604458
_symmetry_Int_Tables_number   1
_chemical_formula_structural   Si3(OF)4
_chemical_formula_sum   'Si3 O4 F4'
_cell_volume   183.61482068
_cell_formula_units_Z   1
loop_
 _symmetry_equiv_pos_site_id
 _symmetry_equiv_pos_as_xyz
  1  'x, y, z'
loop_
 _atom_site_type_symbol
 _atom_site_label
 _atom_site_symmetry_multiplicity
 _atom_site_fract_x
 _atom_site_fract_y
 _atom_site_fract_z
 _atom_site_occupancy
  Si  Si0  1  0.341419  0.676227  0.031993  1
  Si  Si1  1  0.306642  0.604496  0.587463  1
  Si  Si2  1  0.540218  0.433011  0.142383  1
  O  O3  1  0.942387  0.535985  0.125750  1
  O  O4  1  0.335401  0.580753  0.782628  1
  O  O5  1  0.386722  0.437270  0.372826  1
  O  O6  1  0.540875  0.614724  0.088853  1
  F  F7  1  0.287158  0.137105  0.978614  1
  F  F8  1  0.916047  0.502488  0.578563  1
  F  F9  1  0.564434  0.986501  0.138490  1
  F  F10  1  0.584630  0.904591  0.615115  1
