# generated using pymatgen
data_Np3InSn2Pt3
_symmetry_space_group_name_H-M   'P 1'
_cell_length_a   7.68294000
_cell_length_b   7.68293931
_cell_length_c   3.89257000
_cell_angle_alpha   90.00000000
_cell_angle_beta   90.00000000
_cell_angle_gamma   120.06287618
_symmetry_Int_Tables_number   1
_chemical_formula_structural   Np3InSn2Pt3
_chemical_formula_sum   'Np3 In1 Sn2 Pt3'
_cell_volume   198.85952475
_cell_formula_units_Z   1
loop_
 _symmetry_equiv_pos_site_id
 _symmetry_equiv_pos_as_xyz
  1  'x, y, z'
loop_
 _atom_site_type_symbol
 _atom_site_label
 _atom_site_symmetry_multiplicity
 _atom_site_fract_x
 _atom_site_fract_y
 _atom_site_fract_z
 _atom_site_occupancy
  Np  Np0  1  0.407040  0.407040  0.500000  1
  Np  Np1  1  0.593572  0.998293  0.500000  1
  Np  Np2  1  0.998293  0.593572  0.500000  1
  In  In3  1  0.741924  0.741924  0.000000  1
  Sn  Sn4  1  0.256749  0.997932  0.000000  1
  Sn  Sn5  1  0.997932  0.256749  0.000000  1
  Pt  Pt6  1  0.666472  0.334777  0.000000  1
  Pt  Pt7  1  0.334777  0.666472  0.000000  1
  Pt  Pt8  1  0.003240  0.003240  0.500000  1
