# generated using pymatgen
data_Nd2Si(GeRh2)3
_symmetry_space_group_name_H-M   'P 1'
_cell_length_a   6.78636338
_cell_length_b   6.78718000
_cell_length_c   6.78636351
_cell_angle_alpha   130.52935412
_cell_angle_beta   113.65375026
_cell_angle_gamma   87.06987065
_symmetry_Int_Tables_number   1
_chemical_formula_structural   Nd2Si(GeRh2)3
_chemical_formula_sum   'Nd2 Si1 Ge3 Rh6'
_cell_volume   207.52812098
_cell_formula_units_Z   1
loop_
 _symmetry_equiv_pos_site_id
 _symmetry_equiv_pos_as_xyz
  1  'x, y, z'
loop_
 _atom_site_type_symbol
 _atom_site_label
 _atom_site_symmetry_multiplicity
 _atom_site_fract_x
 _atom_site_fract_y
 _atom_site_fract_z
 _atom_site_occupancy
  Nd  Nd0  1  0.751032  0.036549  0.285517  1
  Nd  Nd1  1  0.249176  0.956826  0.707650  1
  Si  Si2  1  0.921893  0.716849  0.794955  1
  Ge  Ge3  1  0.575171  0.371648  0.796478  1
  Ge  Ge4  1  0.416256  0.621055  0.204799  1
  Ge  Ge5  1  0.085787  0.287047  0.201260  1
  Rh  Rh6  1  0.212665  0.501861  0.715848  1
  Rh  Rh7  1  0.725175  0.997624  0.723586  1
  Rh  Rh8  1  0.786013  0.501861  0.289196  1
  Rh  Rh9  1  0.274039  0.997624  0.272450  1
  Rh  Rh10  1  0.513105  0.505527  0.515839  1
  Rh  Rh11  1  0.989689  0.505527  0.992422  1
