# generated using pymatgen
data_Gd4Al18Ir5Au
_symmetry_space_group_name_H-M   'P 1'
_cell_length_a   7.59433541
_cell_length_b   7.59433507
_cell_length_c   9.48641400
_cell_angle_alpha   89.98113110
_cell_angle_beta   89.98113110
_cell_angle_gamma   119.61370990
_symmetry_Int_Tables_number   1
_chemical_formula_structural   Gd4Al18Ir5Au
_chemical_formula_sum   'Gd4 Al18 Ir5 Au1'
_cell_volume   475.65220321
_cell_formula_units_Z   1
loop_
 _symmetry_equiv_pos_site_id
 _symmetry_equiv_pos_as_xyz
  1  'x, y, z'
loop_
 _atom_site_type_symbol
 _atom_site_label
 _atom_site_symmetry_multiplicity
 _atom_site_fract_x
 _atom_site_fract_y
 _atom_site_fract_z
 _atom_site_occupancy
  Gd  Gd0  1  0.995837  0.673348  0.250870  1
  Gd  Gd1  1  0.004163  0.326652  0.749130  1
  Gd  Gd2  1  0.673348  0.995837  0.250870  1
  Gd  Gd3  1  0.326652  0.004163  0.749130  1
  Al  Al4  1  0.135497  0.135497  0.256192  1
  Al  Al5  1  0.864503  0.864503  0.743808  1
  Al  Al6  1  0.001813  0.344197  0.078980  1
  Al  Al7  1  0.998187  0.655803  0.921020  1
  Al  Al8  1  0.999802  0.664296  0.573695  1
  Al  Al9  1  0.335704  0.000198  0.426305  1
  Al  Al10  1  0.000198  0.335704  0.426305  1
  Al  Al11  1  0.664296  0.999802  0.573695  1
  Al  Al12  1  0.655803  0.998187  0.921020  1
  Al  Al13  1  0.344197  0.001813  0.078980  1
  Al  Al14  1  0.333487  0.333487  0.551682  1
  Al  Al15  1  0.666513  0.666513  0.448318  1
  Al  Al16  1  0.657837  0.657837  0.058315  1
  Al  Al17  1  0.342163  0.342163  0.941685  1
  Al  Al18  1  0.339228  0.549728  0.251174  1
  Al  Al19  1  0.660772  0.450272  0.748826  1
  Al  Al20  1  0.549728  0.339228  0.251174  1
  Al  Al21  1  0.450272  0.660772  0.748826  1
  Ir  Ir22  1  0.671631  0.328369  0.000000  1
  Ir  Ir23  1  0.328369  0.671631  0.000000  1
  Ir  Ir24  1  0.328406  0.671594  0.500000  1
  Ir  Ir25  1  0.671594  0.328406  0.500000  1
  Ir  Ir26  1  0.000000  0.000000  0.500000  1
  Au  Au27  1  0.000000  0.000000  0.000000  1
