# generated using pymatgen
data_ErMnAl10Co
_symmetry_space_group_name_H-M   'P 1'
_cell_length_a   6.76155553
_cell_length_b   6.76155385
_cell_length_c   8.96728499
_cell_angle_alpha   90.58666359
_cell_angle_beta   90.58666514
_cell_angle_gamma   97.27948906
_symmetry_Int_Tables_number   1
_chemical_formula_structural   ErMnAl10Co
_chemical_formula_sum   'Er2 Mn2 Al20 Co2'
_cell_volume   406.61865980
_cell_formula_units_Z   2
loop_
 _symmetry_equiv_pos_site_id
 _symmetry_equiv_pos_as_xyz
  1  'x, y, z'
loop_
 _atom_site_type_symbol
 _atom_site_label
 _atom_site_symmetry_multiplicity
 _atom_site_fract_x
 _atom_site_fract_y
 _atom_site_fract_z
 _atom_site_occupancy
  Er  Er0  1  0.873742  0.126258  0.750000  1
  Er  Er1  1  0.126258  0.873742  0.250000  1
  Mn  Mn2  1  0.000000  0.500000  0.000000  1
  Mn  Mn3  1  0.500000  0.000000  0.500000  1
  Al  Al4  1  0.623598  0.373688  0.547578  1
  Al  Al5  1  0.376402  0.626312  0.452422  1
  Al  Al6  1  0.373688  0.623598  0.047578  1
  Al  Al7  1  0.626312  0.376402  0.952422  1
  Al  Al8  1  0.228040  0.226532  0.499776  1
  Al  Al9  1  0.771960  0.773468  0.500224  1
  Al  Al10  1  0.773468  0.771960  0.000224  1
  Al  Al11  1  0.226532  0.228040  0.999776  1
  Al  Al12  1  0.844962  0.157373  0.096520  1
  Al  Al13  1  0.155038  0.842627  0.903480  1
  Al  Al14  1  0.157373  0.844962  0.596520  1
  Al  Al15  1  0.842627  0.155038  0.403480  1
  Al  Al16  1  0.864979  0.586555  0.749997  1
  Al  Al17  1  0.135021  0.413445  0.250003  1
  Al  Al18  1  0.413445  0.135021  0.750003  1
  Al  Al19  1  0.586555  0.864979  0.249997  1
  Al  Al20  1  0.220651  0.477141  0.753006  1
  Al  Al21  1  0.779349  0.522859  0.246994  1
  Al  Al22  1  0.522859  0.779349  0.746994  1
  Al  Al23  1  0.477141  0.220651  0.253006  1
  Co  Co24  1  0.000000  0.500000  0.500000  1
  Co  Co25  1  0.500000  0.000000  0.000000  1
