# generated using pymatgen
data_Dy5Y5BiPb5
_symmetry_space_group_name_H-M   'P 1'
_cell_length_a   9.07811600
_cell_length_b   9.07523985
_cell_length_c   6.56128700
_cell_angle_alpha   90.00000000
_cell_angle_beta   90.00000000
_cell_angle_gamma   119.97784837
_symmetry_Int_Tables_number   1
_chemical_formula_structural   Dy5Y5BiPb5
_chemical_formula_sum   'Dy5 Y5 Bi1 Pb5'
_cell_volume   468.24204076
_cell_formula_units_Z   1
loop_
 _symmetry_equiv_pos_site_id
 _symmetry_equiv_pos_as_xyz
  1  'x, y, z'
loop_
 _atom_site_type_symbol
 _atom_site_label
 _atom_site_symmetry_multiplicity
 _atom_site_fract_x
 _atom_site_fract_y
 _atom_site_fract_z
 _atom_site_occupancy
  Dy  Dy0  1  0.331548  0.664583  0.999533  1
  Dy  Dy1  1  0.667023  0.335483  0.500457  1
  Dy  Dy2  1  0.667023  0.335483  0.999543  1
  Dy  Dy3  1  0.331548  0.664583  0.500467  1
  Dy  Dy4  1  0.763380  0.759838  0.250000  1
  Y  Y5  1  0.236512  0.999873  0.250000  1
  Y  Y6  1  0.237985  0.238543  0.750000  1
  Y  Y7  1  0.999365  0.761518  0.750000  1
  Y  Y8  1  0.003201  0.239940  0.250000  1
  Y  Y9  1  0.761852  0.000006  0.750000  1
  Bi  Bi10  1  0.606667  0.999793  0.250000  1
  Pb  Pb11  1  0.605277  0.606473  0.750000  1
  Pb  Pb12  1  0.998830  0.393533  0.750000  1
  Pb  Pb13  1  0.000120  0.605079  0.250000  1
  Pb  Pb14  1  0.395528  0.395245  0.250000  1
  Pb  Pb15  1  0.394144  0.000031  0.750000  1
