# generated using pymatgen
data_NdHo4Tl3InPd2
_symmetry_space_group_name_H-M   'P 1'
_cell_length_a   3.64291000
_cell_length_b   8.24381293
_cell_length_c   18.44111166
_cell_angle_alpha   89.90295002
_cell_angle_beta   90.00000000
_cell_angle_gamma   90.00000000
_symmetry_Int_Tables_number   1
_chemical_formula_structural   NdHo4Tl3InPd2
_chemical_formula_sum   'Nd2 Ho8 Tl6 In2 Pd4'
_cell_volume   553.81287097
_cell_formula_units_Z   2
loop_
 _symmetry_equiv_pos_site_id
 _symmetry_equiv_pos_as_xyz
  1  'x, y, z'
loop_
 _atom_site_type_symbol
 _atom_site_label
 _atom_site_symmetry_multiplicity
 _atom_site_fract_x
 _atom_site_fract_y
 _atom_site_fract_z
 _atom_site_occupancy
  Nd  Nd0  1  0.000000  0.500000  0.500000  1
  Nd  Nd1  1  0.000000  0.000000  0.000000  1
  Ho  Ho2  1  0.000000  0.739372  0.281550  1
  Ho  Ho3  1  0.000000  0.260628  0.718450  1
  Ho  Ho4  1  0.000000  0.760607  0.781911  1
  Ho  Ho5  1  0.000000  0.239393  0.218089  1
  Ho  Ho6  1  0.000000  0.620172  0.085422  1
  Ho  Ho7  1  0.000000  0.379828  0.914578  1
  Ho  Ho8  1  0.000000  0.881139  0.586292  1
  Ho  Ho9  1  0.000000  0.118861  0.413708  1
  Tl  Tl10  1  0.500000  0.701933  0.931971  1
  Tl  Tl11  1  0.500000  0.298067  0.068029  1
  Tl  Tl12  1  0.500000  0.800036  0.432674  1
  Tl  Tl13  1  0.500000  0.199964  0.567326  1
  Tl  Tl14  1  0.500000  0.584932  0.652563  1
  Tl  Tl15  1  0.500000  0.415068  0.347437  1
  In  In16  1  0.500000  0.914797  0.153320  1
  In  In17  1  0.500000  0.085203  0.846680  1
  Pd  Pd18  1  0.500000  0.528402  0.195971  1
  Pd  Pd19  1  0.500000  0.471598  0.804029  1
  Pd  Pd20  1  0.500000  0.975502  0.697591  1
  Pd  Pd21  1  0.500000  0.024498  0.302409  1
