# generated using pymatgen
data_Nb6AlGa3(NiC)2
_symmetry_space_group_name_H-M   'P 1'
_cell_length_a   8.26624575
_cell_length_b   8.25618569
_cell_length_c   8.27139853
_cell_angle_alpha   60.01332718
_cell_angle_beta   60.04732582
_cell_angle_gamma   59.97732760
_symmetry_Int_Tables_number   1
_chemical_formula_structural   Nb6AlGa3(NiC)2
_chemical_formula_sum   'Nb12 Al2 Ga6 Ni4 C4'
_cell_volume   399.27858688
_cell_formula_units_Z   2
loop_
 _symmetry_equiv_pos_site_id
 _symmetry_equiv_pos_as_xyz
  1  'x, y, z'
loop_
 _atom_site_type_symbol
 _atom_site_label
 _atom_site_symmetry_multiplicity
 _atom_site_fract_x
 _atom_site_fract_y
 _atom_site_fract_z
 _atom_site_occupancy
  Nb  Nb0  1  0.813637  0.813612  0.186486  1
  Nb  Nb1  1  0.187599  0.187655  0.812348  1
  Nb  Nb2  1  0.813476  0.186317  0.812659  1
  Nb  Nb3  1  0.186315  0.813474  0.187508  1
  Nb  Nb4  1  0.186250  0.813461  0.812659  1
  Nb  Nb5  1  0.813496  0.186218  0.187591  1
  Nb  Nb6  1  0.437283  0.437233  0.062826  1
  Nb  Nb7  1  0.062830  0.062929  0.437103  1
  Nb  Nb8  1  0.437207  0.062864  0.437548  1
  Nb  Nb9  1  0.062931  0.437182  0.062326  1
  Nb  Nb10  1  0.062821  0.437198  0.437542  1
  Nb  Nb11  1  0.437202  0.062840  0.062413  1
  Al  Al12  1  0.747221  0.417273  0.417499  1
  Al  Al13  1  0.417145  0.747239  0.417763  1
  Ga  Ga14  1  0.416936  0.416763  0.750595  1
  Ga  Ga15  1  0.416715  0.416737  0.416049  1
  Ga  Ga16  1  0.498255  0.833372  0.833967  1
  Ga  Ga17  1  0.833217  0.498334  0.834266  1
  Ga  Ga18  1  0.833385  0.833280  0.499493  1
  Ga  Ga19  1  0.833167  0.833285  0.834195  1
  Ni  Ni20  1  0.125737  0.626347  0.624824  1
  Ni  Ni21  1  0.626267  0.125506  0.624637  1
  Ni  Ni22  1  0.624930  0.625097  0.126788  1
  Ni  Ni23  1  0.625332  0.625267  0.621573  1
  C  C24  1  0.624362  0.125583  0.125033  1
  C  C25  1  0.125641  0.624326  0.125003  1
  C  C26  1  0.125285  0.125312  0.624840  1
  C  C27  1  0.125358  0.125299  0.124463  1
