# generated using pymatgen
data_ZrSc3(Al3Rh)6
_symmetry_space_group_name_H-M   'P 1'
_cell_length_a   7.46712565
_cell_length_b   7.47158812
_cell_length_c   9.29151000
_cell_angle_alpha   90.00000000
_cell_angle_beta   90.00000000
_cell_angle_gamma   119.66084767
_symmetry_Int_Tables_number   1
_chemical_formula_structural   ZrSc3(Al3Rh)6
_chemical_formula_sum   'Zr1 Sc3 Al18 Rh6'
_cell_volume   450.46121352
_cell_formula_units_Z   1
loop_
 _symmetry_equiv_pos_site_id
 _symmetry_equiv_pos_as_xyz
  1  'x, y, z'
loop_
 _atom_site_type_symbol
 _atom_site_label
 _atom_site_symmetry_multiplicity
 _atom_site_fract_x
 _atom_site_fract_y
 _atom_site_fract_z
 _atom_site_occupancy
  Zr  Zr0  1  0.329123  0.005311  0.750000  1
  Sc  Sc1  1  0.993362  0.670981  0.250000  1
  Sc  Sc2  1  0.005070  0.328004  0.750000  1
  Sc  Sc3  1  0.672142  0.993885  0.250000  1
  Al  Al4  1  0.123098  0.123276  0.250000  1
  Al  Al5  1  0.878644  0.877448  0.750000  1
  Al  Al6  1  0.997513  0.334938  0.077932  1
  Al  Al7  1  0.002249  0.664982  0.921664  1
  Al  Al8  1  0.002249  0.664982  0.578336  1
  Al  Al9  1  0.334941  0.997182  0.421755  1
  Al  Al10  1  0.997513  0.334938  0.422068  1
  Al  Al11  1  0.665328  0.002629  0.578291  1
  Al  Al12  1  0.665328  0.002629  0.921709  1
  Al  Al13  1  0.334941  0.997182  0.078245  1
  Al  Al14  1  0.330945  0.331240  0.557672  1
  Al  Al15  1  0.669033  0.669104  0.442346  1
  Al  Al16  1  0.669033  0.669104  0.057654  1
  Al  Al17  1  0.330945  0.331240  0.942328  1
  Al  Al18  1  0.339754  0.554917  0.250000  1
  Al  Al19  1  0.659160  0.444242  0.750000  1
  Al  Al20  1  0.554242  0.339451  0.250000  1
  Al  Al21  1  0.445602  0.662297  0.750000  1
  Rh  Rh22  1  0.672123  0.327119  0.999552  1
  Rh  Rh23  1  0.327373  0.672814  0.999209  1
  Rh  Rh24  1  0.327373  0.672814  0.500791  1
  Rh  Rh25  1  0.672123  0.327119  0.500448  1
  Rh  Rh26  1  0.000398  0.000086  0.999467  1
  Rh  Rh27  1  0.000398  0.000086  0.500533  1
