# generated using pymatgen
data_Ta11Nb2Sn3
_symmetry_space_group_name_H-M   'P 1'
_cell_length_a   5.34817200
_cell_length_b   5.30733800
_cell_length_c   10.59695900
_cell_angle_alpha   90.00000000
_cell_angle_beta   90.00000000
_cell_angle_gamma   90.00000000
_symmetry_Int_Tables_number   1
_chemical_formula_structural   Ta11Nb2Sn3
_chemical_formula_sum   'Ta11 Nb2 Sn3'
_cell_volume   300.78998132
_cell_formula_units_Z   1
loop_
 _symmetry_equiv_pos_site_id
 _symmetry_equiv_pos_as_xyz
  1  'x, y, z'
loop_
 _atom_site_type_symbol
 _atom_site_label
 _atom_site_symmetry_multiplicity
 _atom_site_fract_x
 _atom_site_fract_y
 _atom_site_fract_z
 _atom_site_occupancy
  Ta  Ta0  1  0.000000  0.500000  0.376591  1
  Ta  Ta1  1  0.000000  0.500000  0.873716  1
  Ta  Ta2  1  0.500000  0.244213  0.500000  1
  Ta  Ta3  1  0.753309  0.000000  0.255902  1
  Ta  Ta4  1  0.753309  0.000000  0.744098  1
  Ta  Ta5  1  0.000000  0.500000  0.126284  1
  Ta  Ta6  1  0.000000  0.500000  0.623409  1
  Ta  Ta7  1  0.500000  0.755787  0.500000  1
  Ta  Ta8  1  0.246691  0.000000  0.255902  1
  Ta  Ta9  1  0.246691  0.000000  0.744098  1
  Ta  Ta10  1  0.000000  0.000000  0.500000  1
  Nb  Nb11  1  0.500000  0.245875  0.000000  1
  Nb  Nb12  1  0.500000  0.754125  0.000000  1
  Sn  Sn13  1  0.500000  0.500000  0.249074  1
  Sn  Sn14  1  0.500000  0.500000  0.750926  1
  Sn  Sn15  1  0.000000  0.000000  0.000000  1
