# generated using pymatgen
data_YHo2(Al3Ni2)3
_symmetry_space_group_name_H-M   'P 1'
_cell_length_a   9.03119800
_cell_length_b   9.03119946
_cell_length_c   4.06182000
_cell_angle_alpha   90.00000000
_cell_angle_beta   90.00000000
_cell_angle_gamma   120.00000199
_symmetry_Int_Tables_number   1
_chemical_formula_structural   YHo2(Al3Ni2)3
_chemical_formula_sum   'Y1 Ho2 Al9 Ni6'
_cell_volume   286.90762767
_cell_formula_units_Z   1
loop_
 _symmetry_equiv_pos_site_id
 _symmetry_equiv_pos_as_xyz
  1  'x, y, z'
loop_
 _atom_site_type_symbol
 _atom_site_label
 _atom_site_symmetry_multiplicity
 _atom_site_fract_x
 _atom_site_fract_y
 _atom_site_fract_z
 _atom_site_occupancy
  Y  Y0  1  0.333333  0.666667  0.500000  1
  Ho  Ho1  1  0.666667  0.333333  0.500000  1
  Ho  Ho2  1  0.000000  0.000000  0.000000  1
  Al  Al3  1  0.500099  0.000199  0.000000  1
  Al  Al4  1  0.999801  0.499901  0.000000  1
  Al  Al5  1  0.500099  0.499901  0.000000  1
  Al  Al6  1  0.297821  0.000130  0.500000  1
  Al  Al7  1  0.702309  0.000130  0.500000  1
  Al  Al8  1  0.999870  0.297691  0.500000  1
  Al  Al9  1  0.999870  0.702179  0.500000  1
  Al  Al10  1  0.702309  0.702179  0.500000  1
  Al  Al11  1  0.297821  0.297691  0.500000  1
  Ni  Ni12  1  0.181018  0.362037  0.000000  1
  Ni  Ni13  1  0.818655  0.637311  0.000000  1
  Ni  Ni14  1  0.637963  0.818982  0.000000  1
  Ni  Ni15  1  0.362689  0.181345  0.000000  1
  Ni  Ni16  1  0.181018  0.818982  0.000000  1
  Ni  Ni17  1  0.818655  0.181345  0.000000  1
