# generated using pymatgen
data_Nd8CuSi7Cl6
_symmetry_space_group_name_H-M   'P 1'
_cell_length_a   11.54759669
_cell_length_b   11.54759585
_cell_length_c   11.93071200
_cell_angle_alpha   83.12563686
_cell_angle_beta   83.12563737
_cell_angle_gamma   20.07972822
_symmetry_Int_Tables_number   1
_chemical_formula_structural   Nd8CuSi7Cl6
_chemical_formula_sum   'Nd8 Cu1 Si7 Cl6'
_cell_volume   542.15773050
_cell_formula_units_Z   1
loop_
 _symmetry_equiv_pos_site_id
 _symmetry_equiv_pos_as_xyz
  1  'x, y, z'
loop_
 _atom_site_type_symbol
 _atom_site_label
 _atom_site_symmetry_multiplicity
 _atom_site_fract_x
 _atom_site_fract_y
 _atom_site_fract_z
 _atom_site_occupancy
  Nd  Nd0  1  0.498810  0.498810  0.163376  1
  Nd  Nd1  1  0.918006  0.918006  0.437094  1
  Nd  Nd2  1  0.346257  0.346257  0.037062  1
  Nd  Nd3  1  0.079431  0.079431  0.568561  1
  Nd  Nd4  1  0.653904  0.653904  0.963630  1
  Nd  Nd5  1  0.651258  0.651258  0.297935  1
  Nd  Nd6  1  0.349097  0.349097  0.703045  1
  Nd  Nd7  1  0.500647  0.500647  0.833009  1
  Cu  Cu8  1  0.531663  0.531663  0.411643  1
  Si  Si9  1  0.046337  0.046337  0.321245  1
  Si  Si10  1  0.053555  0.053555  0.980358  1
  Si  Si11  1  0.475015  0.475015  0.578767  1
  Si  Si12  1  0.893620  0.893620  0.860594  1
  Si  Si13  1  0.946088  0.946088  0.017359  1
  Si  Si14  1  0.951882  0.951882  0.677935  1
  Si  Si15  1  0.104065  0.104065  0.139956  1
  Cl  Cl16  1  0.244203  0.244203  0.878484  1
  Cl  Cl17  1  0.757124  0.757124  0.123931  1
  Cl  Cl18  1  0.799689  0.799689  0.567663  1
  Cl  Cl19  1  0.375121  0.375121  0.282148  1
  Cl  Cl20  1  0.197575  0.197575  0.432415  1
  Cl  Cl21  1  0.626651  0.626651  0.723788  1
