# generated using pymatgen
data_Er12Ni4HgPb
_symmetry_space_group_name_H-M   'P 1'
_cell_length_a   8.32321399
_cell_length_b   8.32321240
_cell_length_c   8.32321367
_cell_angle_alpha   112.92382395
_cell_angle_beta   109.19621352
_cell_angle_gamma   106.36102648
_symmetry_Int_Tables_number   1
_chemical_formula_structural   Er12Ni4HgPb
_chemical_formula_sum   'Er12 Ni4 Hg1 Pb1'
_cell_volume   442.39412294
_cell_formula_units_Z   1
loop_
 _symmetry_equiv_pos_site_id
 _symmetry_equiv_pos_as_xyz
  1  'x, y, z'
loop_
 _atom_site_type_symbol
 _atom_site_label
 _atom_site_symmetry_multiplicity
 _atom_site_fract_x
 _atom_site_fract_y
 _atom_site_fract_z
 _atom_site_occupancy
  Er  Er0  1  0.324530  0.134206  0.809675  1
  Er  Er1  1  0.675470  0.485146  0.809675  1
  Er  Er2  1  0.432231  0.728816  0.703416  1
  Er  Er3  1  0.567769  0.271184  0.296584  1
  Er  Er4  1  0.974600  0.271184  0.703416  1
  Er  Er5  1  0.025400  0.728816  0.296584  1
  Er  Er6  1  0.324530  0.514854  0.190325  1
  Er  Er7  1  0.675470  0.865794  0.190325  1
  Er  Er8  1  0.180681  0.791783  0.972465  1
  Er  Er9  1  0.819319  0.791783  0.611101  1
  Er  Er10  1  0.180681  0.208217  0.388899  1
  Er  Er11  1  0.819319  0.208217  0.027535  1
  Ni  Ni12  1  0.875734  0.875734  0.000000  1
  Ni  Ni13  1  0.124266  0.124266  0.000000  1
  Ni  Ni14  1  0.646891  0.500000  0.146891  1
  Ni  Ni15  1  0.353109  0.500000  0.853109  1
  Hg  Hg16  1  0.000000  0.500000  0.500000  1
  Pb  Pb17  1  0.500000  0.000000  0.500000  1
