# generated using pymatgen
data_SrCu4BiO8
_symmetry_space_group_name_H-M   'P 1'
_cell_length_a   6.40342869
_cell_length_b   6.40416498
_cell_length_c   6.40312580
_cell_angle_alpha   124.97929163
_cell_angle_beta   125.00053198
_cell_angle_gamma   81.54352472
_symmetry_Int_Tables_number   1
_chemical_formula_structural   SrCu4BiO8
_chemical_formula_sum   'Sr1 Cu4 Bi1 O8'
_cell_volume   169.65351292
_cell_formula_units_Z   1
loop_
 _symmetry_equiv_pos_site_id
 _symmetry_equiv_pos_as_xyz
  1  'x, y, z'
loop_
 _atom_site_type_symbol
 _atom_site_label
 _atom_site_symmetry_multiplicity
 _atom_site_fract_x
 _atom_site_fract_y
 _atom_site_fract_z
 _atom_site_occupancy
  Sr  Sr0  1  0.000027  0.000056  0.000094  1
  Cu  Cu1  1  0.872566  0.633782  0.256007  1
  Cu  Cu2  1  0.384009  0.127431  0.761353  1
  Cu  Cu3  1  0.365842  0.622471  0.238712  1
  Cu  Cu4  1  0.377335  0.615889  0.743470  1
  Bi  Bi5  1  0.750074  0.250076  0.500181  1
  O  O6  1  0.364856  0.970796  0.927512  1
  O  O7  1  0.680071  0.825499  0.405878  1
  O  O8  1  0.725374  0.320157  0.145115  1
  O  O9  1  0.562474  0.635096  0.605583  1
  O  O10  1  0.175186  0.580372  0.855045  1
  O  O11  1  0.029355  0.956875  0.394232  1
  O  O12  1  0.043056  0.437324  0.072212  1
  O  O13  1  0.419775  0.274175  0.594607  1
