# generated using pymatgen
data_Ho6TaFe7(Co5P6)2
_symmetry_space_group_name_H-M   'P 1'
_cell_length_a   3.70777600
_cell_length_b   10.57706200
_cell_length_c   12.16853200
_cell_angle_alpha   90.00000000
_cell_angle_beta   90.00000000
_cell_angle_gamma   90.00000000
_symmetry_Int_Tables_number   1
_chemical_formula_structural   Ho6TaFe7(Co5P6)2
_chemical_formula_sum   'Ho6 Ta1 Fe7 Co10 P12'
_cell_volume   477.21790253
_cell_formula_units_Z   1
loop_
 _symmetry_equiv_pos_site_id
 _symmetry_equiv_pos_as_xyz
  1  'x, y, z'
loop_
 _atom_site_type_symbol
 _atom_site_label
 _atom_site_symmetry_multiplicity
 _atom_site_fract_x
 _atom_site_fract_y
 _atom_site_fract_z
 _atom_site_occupancy
  Ho  Ho0  1  0.000000  0.500000  0.527368  1
  Ho  Ho1  1  0.500000  0.000000  0.475783  1
  Ho  Ho2  1  0.500000  0.822268  0.205925  1
  Ho  Ho3  1  0.500000  0.177732  0.205925  1
  Ho  Ho4  1  0.000000  0.680976  0.796717  1
  Ho  Ho5  1  0.000000  0.319024  0.796717  1
  Ta  Ta6  1  0.500000  0.500000  0.151392  1
  Fe  Fe7  1  0.000000  0.500000  0.985701  1
  Fe  Fe8  1  0.500000  0.000000  0.009730  1
  Fe  Fe9  1  0.500000  0.295584  0.432597  1
  Fe  Fe10  1  0.500000  0.704416  0.432597  1
  Fe  Fe11  1  0.500000  0.882109  0.708048  1
  Fe  Fe12  1  0.500000  0.117891  0.708048  1
  Fe  Fe13  1  0.000000  0.000000  0.845069  1
  Co  Co14  1  0.000000  0.200641  0.571601  1
  Co  Co15  1  0.000000  0.799359  0.571601  1
  Co  Co16  1  0.000000  0.622035  0.292431  1
  Co  Co17  1  0.000000  0.377965  0.292431  1
  Co  Co18  1  0.500000  0.327058  0.990145  1
  Co  Co19  1  0.500000  0.672942  0.990145  1
  Co  Co20  1  0.000000  0.165115  0.004337  1
  Co  Co21  1  0.000000  0.834885  0.004337  1
  Co  Co22  1  0.500000  0.500000  0.699881  1
  Co  Co23  1  0.000000  0.000000  0.299810  1
  P  P24  1  0.500000  0.307478  0.616991  1
  P  P25  1  0.500000  0.692522  0.616991  1
  P  P26  1  0.000000  0.192041  0.386606  1
  P  P27  1  0.000000  0.807959  0.386606  1
  P  P28  1  0.500000  0.500000  0.882451  1
  P  P29  1  0.000000  0.000000  0.115553  1
  P  P30  1  0.500000  0.851542  0.888023  1
  P  P31  1  0.500000  0.148458  0.888023  1
  P  P32  1  0.000000  0.660277  0.102552  1
  P  P33  1  0.000000  0.339723  0.102552  1
  P  P34  1  0.500000  0.500000  0.355785  1
  P  P35  1  0.000000  0.000000  0.659531  1
