# generated using pymatgen
data_Zr6Al7Zn5Cu3Pd8
_symmetry_space_group_name_H-M   'P 1'
_cell_length_a   8.69718152
_cell_length_b   8.69718194
_cell_length_c   8.68503525
_cell_angle_alpha   59.95372269
_cell_angle_beta   59.95372513
_cell_angle_gamma   59.99999378
_symmetry_Int_Tables_number   1
_chemical_formula_structural   Zr6Al7Zn5Cu3Pd8
_chemical_formula_sum   'Zr6 Al7 Zn5 Cu3 Pd8'
_cell_volume   464.20469598
_cell_formula_units_Z   1
loop_
 _symmetry_equiv_pos_site_id
 _symmetry_equiv_pos_as_xyz
  1  'x, y, z'
loop_
 _atom_site_type_symbol
 _atom_site_label
 _atom_site_symmetry_multiplicity
 _atom_site_fract_x
 _atom_site_fract_y
 _atom_site_fract_z
 _atom_site_occupancy
  Zr  Zr0  1  0.703381  0.703381  0.296610  1
  Zr  Zr1  1  0.296627  0.703381  0.296610  1
  Zr  Zr2  1  0.703381  0.296627  0.296610  1
  Zr  Zr3  1  0.296543  0.296543  0.703288  1
  Zr  Zr4  1  0.703626  0.296543  0.703288  1
  Zr  Zr5  1  0.296543  0.703626  0.703288  1
  Al  Al6  1  0.999930  0.999930  0.000209  1
  Al  Al7  1  0.006148  0.006148  0.493656  1
  Al  Al8  1  0.494047  0.006148  0.493656  1
  Al  Al9  1  0.006148  0.494047  0.493656  1
  Al  Al10  1  0.497145  0.497145  0.006672  1
  Al  Al11  1  0.999039  0.497145  0.006672  1
  Al  Al12  1  0.497145  0.999039  0.006672  1
  Zn  Zn13  1  0.667328  0.667328  0.998015  1
  Zn  Zn14  1  0.667110  0.999541  0.666239  1
  Zn  Zn15  1  0.999541  0.667110  0.666239  1
  Zn  Zn16  1  0.667110  0.667110  0.666239  1
  Zn  Zn17  1  0.329262  0.329262  0.012214  1
  Cu  Cu18  1  0.332549  0.003238  0.331663  1
  Cu  Cu19  1  0.003238  0.332549  0.331663  1
  Cu  Cu20  1  0.332549  0.332549  0.331663  1
  Pd  Pd21  1  0.879043  0.879043  0.362874  1
  Pd  Pd22  1  0.879280  0.362876  0.878565  1
  Pd  Pd23  1  0.362876  0.879280  0.878565  1
  Pd  Pd24  1  0.879280  0.879280  0.878565  1
  Pd  Pd25  1  0.119054  0.119054  0.642836  1
  Pd  Pd26  1  0.119621  0.642832  0.117924  1
  Pd  Pd27  1  0.642832  0.119621  0.117924  1
  Pd  Pd28  1  0.119621  0.119621  0.117924  1
