# generated using pymatgen
data_Ca3Th(Si3Ni5)4
_symmetry_space_group_name_H-M   'P 1'
_cell_length_a   3.80738500
_cell_length_b   6.63966300
_cell_length_c   18.83702811
_cell_angle_alpha   90.07910585
_cell_angle_beta   90.00000000
_cell_angle_gamma   90.00000000
_symmetry_Int_Tables_number   1
_chemical_formula_structural   Ca3Th(Si3Ni5)4
_chemical_formula_sum   'Ca3 Th1 Si12 Ni20'
_cell_volume   476.19497013
_cell_formula_units_Z   1
loop_
 _symmetry_equiv_pos_site_id
 _symmetry_equiv_pos_as_xyz
  1  'x, y, z'
loop_
 _atom_site_type_symbol
 _atom_site_label
 _atom_site_symmetry_multiplicity
 _atom_site_fract_x
 _atom_site_fract_y
 _atom_site_fract_z
 _atom_site_occupancy
  Ca  Ca0  1  0.750000  0.122824  0.643593  1
  Ca  Ca1  1  0.750000  0.376463  0.142800  1
  Ca  Ca2  1  0.250000  0.624235  0.857241  1
  Th  Th3  1  0.250000  0.874578  0.357067  1
  Si  Si4  1  0.250000  0.078969  0.085531  1
  Si  Si5  1  0.750000  0.922890  0.913674  1
  Si  Si6  1  0.750000  0.566606  0.414840  1
  Si  Si7  1  0.250000  0.425135  0.589346  1
  Si  Si8  1  0.250000  0.654636  0.072467  1
  Si  Si9  1  0.750000  0.342957  0.925201  1
  Si  Si10  1  0.750000  0.162531  0.429112  1
  Si  Si11  1  0.250000  0.842623  0.573711  1
  Si  Si12  1  0.250000  0.381112  0.261750  1
  Si  Si13  1  0.750000  0.621251  0.738151  1
  Si  Si14  1  0.750000  0.880578  0.233148  1
  Si  Si15  1  0.250000  0.120235  0.762593  1
  Ni  Ni16  1  0.250000  0.071679  0.205984  1
  Ni  Ni17  1  0.750000  0.932259  0.793002  1
  Ni  Ni18  1  0.750000  0.572343  0.291729  1
  Ni  Ni19  1  0.250000  0.432185  0.709405  1
  Ni  Ni20  1  0.250000  0.607488  0.485361  1
  Ni  Ni21  1  0.750000  0.387067  0.519642  1
  Ni  Ni22  1  0.750000  0.114885  0.014936  1
  Ni  Ni23  1  0.250000  0.886474  0.984042  1
  Ni  Ni24  1  0.250000  0.688028  0.197467  1
  Ni  Ni25  1  0.750000  0.312102  0.800675  1
  Ni  Ni26  1  0.750000  0.187088  0.301125  1
  Ni  Ni27  1  0.250000  0.812424  0.700049  1
  Ni  Ni28  1  0.250000  0.354493  0.383898  1
  Ni  Ni29  1  0.750000  0.647915  0.616869  1
  Ni  Ni30  1  0.750000  0.853977  0.112736  1
  Ni  Ni31  1  0.250000  0.142517  0.883924  1
  Ni  Ni32  1  0.250000  0.364630  0.002874  1
  Ni  Ni33  1  0.750000  0.633454  0.994625  1
  Ni  Ni34  1  0.750000  0.863397  0.495265  1
  Ni  Ni35  1  0.250000  0.137972  0.506165  1
