# generated using pymatgen
data_Y3Ga2Sn
_symmetry_space_group_name_H-M   'P 1'
_cell_length_a   6.39981200
_cell_length_b   9.35498800
_cell_length_c   9.91719800
_cell_angle_alpha   90.00000000
_cell_angle_beta   90.00000000
_cell_angle_gamma   90.00000000
_symmetry_Int_Tables_number   1
_chemical_formula_structural   Y3Ga2Sn
_chemical_formula_sum   'Y12 Ga8 Sn4'
_cell_volume   593.74427526
_cell_formula_units_Z   4
loop_
 _symmetry_equiv_pos_site_id
 _symmetry_equiv_pos_as_xyz
  1  'x, y, z'
loop_
 _atom_site_type_symbol
 _atom_site_label
 _atom_site_symmetry_multiplicity
 _atom_site_fract_x
 _atom_site_fract_y
 _atom_site_fract_z
 _atom_site_occupancy
  Y  Y0  1  0.000000  0.750000  0.123884  1
  Y  Y1  1  0.500000  0.250000  0.876116  1
  Y  Y2  1  0.000000  0.250000  0.876116  1
  Y  Y3  1  0.500000  0.750000  0.123884  1
  Y  Y4  1  0.750000  0.479203  0.606643  1
  Y  Y5  1  0.250000  0.520797  0.393357  1
  Y  Y6  1  0.750000  0.979203  0.393357  1
  Y  Y7  1  0.250000  0.020797  0.606643  1
  Y  Y8  1  0.750000  0.368390  0.207752  1
  Y  Y9  1  0.250000  0.631610  0.792248  1
  Y  Y10  1  0.750000  0.868390  0.792248  1
  Y  Y11  1  0.250000  0.131610  0.207752  1
  Ga  Ga12  1  0.000000  0.750000  0.547585  1
  Ga  Ga13  1  0.500000  0.250000  0.452415  1
  Ga  Ga14  1  0.000000  0.250000  0.452415  1
  Ga  Ga15  1  0.500000  0.750000  0.547585  1
  Ga  Ga16  1  0.750000  0.142996  0.644131  1
  Ga  Ga17  1  0.250000  0.857004  0.355869  1
  Ga  Ga18  1  0.750000  0.642996  0.355869  1
  Ga  Ga19  1  0.250000  0.357004  0.644131  1
  Sn  Sn20  1  0.750000  0.054031  0.088037  1
  Sn  Sn21  1  0.250000  0.945969  0.911963  1
  Sn  Sn22  1  0.750000  0.554031  0.911963  1
  Sn  Sn23  1  0.250000  0.445969  0.088037  1
