# generated using pymatgen
data_Dy3Er2CoBi2
_symmetry_space_group_name_H-M   'P 1'
_cell_length_a   7.93639100
_cell_length_b   8.88116100
_cell_length_c   12.36116100
_cell_angle_alpha   90.00000000
_cell_angle_beta   90.00000000
_cell_angle_gamma   90.00000000
_symmetry_Int_Tables_number   1
_chemical_formula_structural   Dy3Er2CoBi2
_chemical_formula_sum   'Dy12 Er8 Co4 Bi8'
_cell_volume   871.26859895
_cell_formula_units_Z   4
loop_
 _symmetry_equiv_pos_site_id
 _symmetry_equiv_pos_as_xyz
  1  'x, y, z'
loop_
 _atom_site_type_symbol
 _atom_site_label
 _atom_site_symmetry_multiplicity
 _atom_site_fract_x
 _atom_site_fract_y
 _atom_site_fract_z
 _atom_site_occupancy
  Dy  Dy0  1  0.346785  0.750000  0.699891  1
  Dy  Dy1  1  0.653215  0.250000  0.300109  1
  Dy  Dy2  1  0.846785  0.250000  0.800109  1
  Dy  Dy3  1  0.153215  0.750000  0.199891  1
  Dy  Dy4  1  0.884999  0.750000  0.811177  1
  Dy  Dy5  1  0.115001  0.250000  0.188823  1
  Dy  Dy6  1  0.384999  0.250000  0.688823  1
  Dy  Dy7  1  0.615001  0.750000  0.311177  1
  Dy  Dy8  1  0.052801  0.750000  0.497963  1
  Dy  Dy9  1  0.947199  0.250000  0.502037  1
  Dy  Dy10  1  0.552801  0.250000  0.002037  1
  Dy  Dy11  1  0.447199  0.750000  0.997963  1
  Er  Er12  1  0.674770  0.538349  0.562878  1
  Er  Er13  1  0.325230  0.461651  0.437122  1
  Er  Er14  1  0.174770  0.461651  0.937122  1
  Er  Er15  1  0.325230  0.038349  0.437122  1
  Er  Er16  1  0.825230  0.538349  0.062878  1
  Er  Er17  1  0.674770  0.961651  0.562878  1
  Er  Er18  1  0.825230  0.961651  0.062878  1
  Er  Er19  1  0.174770  0.038349  0.937122  1
  Co  Co20  1  0.066106  0.750000  0.991879  1
  Co  Co21  1  0.933894  0.250000  0.008121  1
  Co  Co22  1  0.566106  0.250000  0.508121  1
  Co  Co23  1  0.433894  0.750000  0.491879  1
  Bi  Bi24  1  0.571482  0.509756  0.826654  1
  Bi  Bi25  1  0.428518  0.490244  0.173346  1
  Bi  Bi26  1  0.071482  0.490244  0.673346  1
  Bi  Bi27  1  0.428518  0.009756  0.173346  1
  Bi  Bi28  1  0.928518  0.509756  0.326654  1
  Bi  Bi29  1  0.571482  0.990244  0.826654  1
  Bi  Bi30  1  0.928518  0.990244  0.326654  1
  Bi  Bi31  1  0.071482  0.009756  0.673346  1
