# generated using pymatgen
data_Ho3ZrAs6Ru7
_symmetry_space_group_name_H-M   'P 1'
_cell_length_a   7.19687231
_cell_length_b   7.18484662
_cell_length_c   7.18484641
_cell_angle_alpha   109.43729933
_cell_angle_beta   109.50512677
_cell_angle_gamma   109.50512459
_symmetry_Int_Tables_number   1
_chemical_formula_structural   Ho3ZrAs6Ru7
_chemical_formula_sum   'Ho3 Zr1 As6 Ru7'
_cell_volume   285.87420859
_cell_formula_units_Z   1
loop_
 _symmetry_equiv_pos_site_id
 _symmetry_equiv_pos_as_xyz
  1  'x, y, z'
loop_
 _atom_site_type_symbol
 _atom_site_label
 _atom_site_symmetry_multiplicity
 _atom_site_fract_x
 _atom_site_fract_y
 _atom_site_fract_z
 _atom_site_occupancy
  Ho  Ho0  1  0.000000  0.000000  0.500000  1
  Ho  Ho1  1  0.000000  0.500000  0.000000  1
  Ho  Ho2  1  0.500000  0.500000  0.500000  1
  Zr  Zr3  1  0.500000  0.000000  0.000000  1
  As  As4  1  0.316048  0.000000  0.314219  1
  As  As5  1  0.998170  0.314219  0.314219  1
  As  As6  1  0.001830  0.685781  0.685781  1
  As  As7  1  0.316048  0.314219  0.000000  1
  As  As8  1  0.683952  0.685781  0.000000  1
  As  As9  1  0.683952  0.000000  0.685781  1
  Ru  Ru10  1  0.745029  0.490060  0.245029  1
  Ru  Ru11  1  0.500000  0.754971  0.245029  1
  Ru  Ru12  1  0.500000  0.245029  0.754971  1
  Ru  Ru13  1  0.745029  0.245029  0.490060  1
  Ru  Ru14  1  0.254971  0.754971  0.509940  1
  Ru  Ru15  1  0.254971  0.509940  0.754971  1
  Ru  Ru16  1  0.000000  0.000000  0.000000  1
