# generated using pymatgen
data_Be5SiOs2
_symmetry_space_group_name_H-M   'P 1'
_cell_length_a   4.70434632
_cell_length_b   4.69095430
_cell_length_c   4.42925518
_cell_angle_alpha   121.97605986
_cell_angle_beta   95.01841917
_cell_angle_gamma   80.50089091
_symmetry_Int_Tables_number   1
_chemical_formula_structural   Be5SiOs2
_chemical_formula_sum   'Be5 Si1 Os2'
_cell_volume   81.77655880
_cell_formula_units_Z   1
loop_
 _symmetry_equiv_pos_site_id
 _symmetry_equiv_pos_as_xyz
  1  'x, y, z'
loop_
 _atom_site_type_symbol
 _atom_site_label
 _atom_site_symmetry_multiplicity
 _atom_site_fract_x
 _atom_site_fract_y
 _atom_site_fract_z
 _atom_site_occupancy
  Be  Be0  1  0.696036  0.679191  0.635185  1
  Be  Be1  1  0.501171  0.133230  0.141910  1
  Be  Be2  1  0.196054  0.680006  0.636899  1
  Be  Be3  1  0.695938  0.183858  0.644461  1
  Be  Be4  1  0.890812  0.731914  0.141910  1
  Si  Si5  1  0.195892  0.183075  0.642910  1
  Os  Os6  1  0.420259  0.653675  0.138166  1
  Os  Os7  1  0.971759  0.207674  0.138074  1
