# generated using pymatgen
data_TbSmNb3P7Rh9
_symmetry_space_group_name_H-M   'P 1'
_cell_length_a   3.94739900
_cell_length_b   9.66441316
_cell_length_c   9.68334201
_cell_angle_alpha   120.04033276
_cell_angle_beta   89.99854555
_cell_angle_gamma   89.99979424
_symmetry_Int_Tables_number   1
_chemical_formula_structural   TbSmNb3P7Rh9
_chemical_formula_sum   'Tb1 Sm1 Nb3 P7 Rh9'
_cell_volume   319.79065458
_cell_formula_units_Z   1
loop_
 _symmetry_equiv_pos_site_id
 _symmetry_equiv_pos_as_xyz
  1  'x, y, z'
loop_
 _atom_site_type_symbol
 _atom_site_label
 _atom_site_symmetry_multiplicity
 _atom_site_fract_x
 _atom_site_fract_y
 _atom_site_fract_z
 _atom_site_occupancy
  Tb  Tb0  1  0.762049  0.333496  0.666728  1
  Sm  Sm1  1  0.261731  0.666438  0.333299  1
  Nb  Nb2  1  0.762004  0.095684  0.874769  1
  Nb  Nb3  1  0.762014  0.125329  0.220801  1
  Nb  Nb4  1  0.762005  0.779086  0.904371  1
  P  P5  1  0.262198  0.999980  0.999996  1
  P  P6  1  0.761713  0.879048  0.591874  1
  P  P7  1  0.761721  0.408107  0.287267  1
  P  P8  1  0.761721  0.712960  0.121058  1
  P  P9  1  0.262140  0.116274  0.416014  1
  P  P10  1  0.262131  0.583801  0.700171  1
  P  P11  1  0.262137  0.299599  0.883545  1
  Rh  Rh12  1  0.261894  0.883653  0.162205  1
  Rh  Rh13  1  0.261899  0.837728  0.721798  1
  Rh  Rh14  1  0.261897  0.278536  0.116329  1
  Rh  Rh15  1  0.761822  0.610089  0.558419  1
  Rh  Rh16  1  0.761817  0.441884  0.051797  1
  Rh  Rh17  1  0.761824  0.948566  0.390214  1
  Rh  Rh18  1  0.261773  0.366930  0.438576  1
  Rh  Rh19  1  0.261722  0.561127  0.928312  1
  Rh  Rh20  1  0.261788  0.071686  0.632454  1
