# generated using pymatgen
data_Ta(Nb3P2)2
_symmetry_space_group_name_H-M   'P 1'
_cell_length_a   7.72410077
_cell_length_b   7.72410058
_cell_length_c   13.94706101
_cell_angle_alpha   75.55398073
_cell_angle_beta   75.55398154
_cell_angle_gamma   25.94395408
_symmetry_Int_Tables_number   1
_chemical_formula_structural   Ta(Nb3P2)2
_chemical_formula_sum   'Ta2 Nb12 P8'
_cell_volume   351.90837223
_cell_formula_units_Z   2
loop_
 _symmetry_equiv_pos_site_id
 _symmetry_equiv_pos_as_xyz
  1  'x, y, z'
loop_
 _atom_site_type_symbol
 _atom_site_label
 _atom_site_symmetry_multiplicity
 _atom_site_fract_x
 _atom_site_fract_y
 _atom_site_fract_z
 _atom_site_occupancy
  Ta  Ta0  1  0.500000  0.500000  0.500000  1
  Ta  Ta1  1  0.000000  0.000000  0.000000  1
  Nb  Nb2  1  0.661648  0.661648  0.027328  1
  Nb  Nb3  1  0.338352  0.338352  0.972672  1
  Nb  Nb4  1  0.996271  0.996271  0.665663  1
  Nb  Nb5  1  0.003729  0.003729  0.334337  1
  Nb  Nb6  1  0.826071  0.826071  0.540259  1
  Nb  Nb7  1  0.173929  0.173929  0.459741  1
  Nb  Nb8  1  0.210151  0.210151  0.199467  1
  Nb  Nb9  1  0.789849  0.789849  0.800533  1
  Nb  Nb10  1  0.194654  0.194654  0.687661  1
  Nb  Nb11  1  0.805346  0.805346  0.312339  1
  Nb  Nb12  1  0.431989  0.431989  0.172036  1
  Nb  Nb13  1  0.568011  0.568011  0.827964  1
  P  P14  1  0.064307  0.064307  0.149667  1
  P  P15  1  0.935693  0.935693  0.850333  1
  P  P16  1  0.369476  0.369476  0.664111  1
  P  P17  1  0.630524  0.630524  0.335889  1
  P  P18  1  0.374497  0.374497  0.398685  1
  P  P19  1  0.625503  0.625503  0.601315  1
  P  P20  1  0.173325  0.173325  0.887235  1
  P  P21  1  0.826675  0.826675  0.112765  1
