# generated using pymatgen
data_Y3In3Ag2Pd
_symmetry_space_group_name_H-M   'P 1'
_cell_length_a   7.99648800
_cell_length_b   7.99648822
_cell_length_c   3.75637500
_cell_angle_alpha   90.00000000
_cell_angle_beta   90.00000000
_cell_angle_gamma   119.99999910
_symmetry_Int_Tables_number   1
_chemical_formula_structural   Y3In3Ag2Pd
_chemical_formula_sum   'Y3 In3 Ag2 Pd1'
_cell_volume   208.01668383
_cell_formula_units_Z   1
loop_
 _symmetry_equiv_pos_site_id
 _symmetry_equiv_pos_as_xyz
  1  'x, y, z'
loop_
 _atom_site_type_symbol
 _atom_site_label
 _atom_site_symmetry_multiplicity
 _atom_site_fract_x
 _atom_site_fract_y
 _atom_site_fract_z
 _atom_site_occupancy
  Y  Y0  1  0.392737  0.410074  0.500000  1
  Y  Y1  1  0.589926  0.982663  0.500000  1
  Y  Y2  1  0.017337  0.607263  0.500000  1
  In  In3  1  0.730505  0.726649  0.000000  1
  In  In4  1  0.273351  0.003856  0.000000  1
  In  In5  1  0.996144  0.269495  0.000000  1
  Ag  Ag6  1  0.666667  0.333333  0.000000  1
  Ag  Ag7  1  0.000000  0.000000  0.500000  1
  Pd  Pd8  1  0.333333  0.666667  0.000000  1
