# generated using pymatgen
data_Zr6Zn21SiNiAu
_symmetry_space_group_name_H-M   'P 1'
_cell_length_a   8.76391854
_cell_length_b   8.83026552
_cell_length_c   8.76391673
_cell_angle_alpha   59.75000874
_cell_angle_beta   60.17510106
_cell_angle_gamma   59.74995018
_symmetry_Int_Tables_number   1
_chemical_formula_structural   Zr6Zn21SiNiAu
_chemical_formula_sum   'Zr6 Zn21 Si1 Ni1 Au1'
_cell_volume   478.37750771
_cell_formula_units_Z   1
loop_
 _symmetry_equiv_pos_site_id
 _symmetry_equiv_pos_as_xyz
  1  'x, y, z'
loop_
 _atom_site_type_symbol
 _atom_site_label
 _atom_site_symmetry_multiplicity
 _atom_site_fract_x
 _atom_site_fract_y
 _atom_site_fract_z
 _atom_site_occupancy
  Zr  Zr0  1  0.711610  0.288807  0.288403  1
  Zr  Zr1  1  0.288390  0.711193  0.711597  1
  Zr  Zr2  1  0.283941  0.716071  0.283942  1
  Zr  Zr3  1  0.716059  0.283929  0.716058  1
  Zr  Zr4  1  0.288403  0.288808  0.711610  1
  Zr  Zr5  1  0.711597  0.711192  0.288390  1
  Zn  Zn6  1  0.124998  0.126057  0.124997  1
  Zn  Zn7  1  0.875002  0.873943  0.875003  1
  Zn  Zn8  1  0.137938  0.120199  0.621668  1
  Zn  Zn9  1  0.124995  0.623955  0.124996  1
  Zn  Zn10  1  0.862062  0.879801  0.378332  1
  Zn  Zn11  1  0.875005  0.376045  0.875004  1
  Zn  Zn12  1  0.621668  0.120199  0.137938  1
  Zn  Zn13  1  0.378332  0.879801  0.862062  1
  Zn  Zn14  1  0.500000  0.000000  0.000000  1
  Zn  Zn15  1  0.000000  0.500000  0.500000  1
  Zn  Zn16  1  0.000000  0.500000  0.000000  1
  Zn  Zn17  1  0.000000  0.000000  0.500000  1
  Zn  Zn18  1  0.500000  0.500000  0.000000  1
  Zn  Zn19  1  0.343542  0.331530  0.343542  1
  Zn  Zn20  1  0.656458  0.668470  0.656458  1
  Zn  Zn21  1  0.341756  0.337886  0.982485  1
  Zn  Zn22  1  0.343538  0.981407  0.343539  1
  Zn  Zn23  1  0.658244  0.662114  0.017515  1
  Zn  Zn24  1  0.656462  0.018593  0.656461  1
  Zn  Zn25  1  0.982485  0.337885  0.341756  1
  Zn  Zn26  1  0.017515  0.662115  0.658244  1
  Si  Si27  1  0.500000  0.500000  0.500000  1
  Ni  Ni28  1  0.500000  0.000000  0.500000  1
  Au  Au29  1  0.000000  0.000000  0.000000  1
