# generated using pymatgen
data_Yb10Er7Tm3Sn16
_symmetry_space_group_name_H-M   'P 1'
_cell_length_a   7.81088405
_cell_length_b   8.40592106
_cell_length_c   15.83538102
_cell_angle_alpha   90.00561219
_cell_angle_beta   90.00300499
_cell_angle_gamma   90.01302262
_symmetry_Int_Tables_number   1
_chemical_formula_structural   Yb10Er7Tm3Sn16
_chemical_formula_sum   'Yb10 Er7 Tm3 Sn16'
_cell_volume   1039.71426426
_cell_formula_units_Z   1
loop_
 _symmetry_equiv_pos_site_id
 _symmetry_equiv_pos_as_xyz
  1  'x, y, z'
loop_
 _atom_site_type_symbol
 _atom_site_label
 _atom_site_symmetry_multiplicity
 _atom_site_fract_x
 _atom_site_fract_y
 _atom_site_fract_z
 _atom_site_occupancy
  Yb  Yb0  1  0.502096  0.684345  0.593624  1
  Yb  Yb1  1  0.002071  0.815703  0.906372  1
  Yb  Yb2  1  0.495955  0.312075  0.091070  1
  Yb  Yb3  1  0.995949  0.187918  0.408924  1
  Yb  Yb4  1  0.496001  0.312063  0.408952  1
  Yb  Yb5  1  0.995969  0.187913  0.091068  1
  Yb  Yb6  1  0.502094  0.684340  0.906375  1
  Yb  Yb7  1  0.002048  0.815708  0.593633  1
  Yb  Yb8  1  0.164059  0.489101  0.249991  1
  Yb  Yb9  1  0.664064  0.010903  0.250000  1
  Er  Er10  1  0.175645  0.337910  0.876099  1
  Er  Er11  1  0.326318  0.835146  0.121475  1
  Er  Er12  1  0.826321  0.664839  0.378533  1
  Er  Er13  1  0.326328  0.835157  0.378522  1
  Er  Er14  1  0.826318  0.664849  0.121488  1
  Er  Er15  1  0.675663  0.162046  0.876093  1
  Er  Er16  1  0.175639  0.337910  0.623904  1
  Tm  Tm17  1  0.675601  0.161975  0.623961  1
  Tm  Tm18  1  0.838082  0.508760  0.749962  1
  Tm  Tm19  1  0.338154  0.991202  0.749954  1
  Sn  Sn20  1  0.672386  0.962536  0.460281  1
  Sn  Sn21  1  0.172364  0.537616  0.039850  1
  Sn  Sn22  1  0.327976  0.035660  0.955886  1
  Sn  Sn23  1  0.827803  0.464187  0.544177  1
  Sn  Sn24  1  0.328179  0.035720  0.544154  1
  Sn  Sn25  1  0.828012  0.464363  0.955882  1
  Sn  Sn26  1  0.672376  0.962371  0.039855  1
  Sn  Sn27  1  0.172351  0.537603  0.460158  1
  Sn  Sn28  1  0.476977  0.370350  0.749911  1
  Sn  Sn29  1  0.976634  0.129514  0.749913  1
  Sn  Sn30  1  0.527728  0.627793  0.250013  1
  Sn  Sn31  1  0.027716  0.872227  0.250001  1
  Sn  Sn32  1  0.711211  0.861521  0.749935  1
  Sn  Sn33  1  0.211274  0.638658  0.749982  1
  Sn  Sn34  1  0.281324  0.127574  0.250001  1
  Sn  Sn35  1  0.781316  0.372444  0.249999  1
