# generated using pymatgen
data_TbPr9S10
_symmetry_space_group_name_H-M   'P 1'
_cell_length_a   7.07796406
_cell_length_b   8.12713571
_cell_length_c   9.19728560
_cell_angle_alpha   103.13627975
_cell_angle_beta   96.93209608
_cell_angle_gamma   106.95706902
_symmetry_Int_Tables_number   1
_chemical_formula_structural   TbPr9S10
_chemical_formula_sum   'Tb1 Pr9 S10'
_cell_volume   482.78635217
_cell_formula_units_Z   1
loop_
 _symmetry_equiv_pos_site_id
 _symmetry_equiv_pos_as_xyz
  1  'x, y, z'
loop_
 _atom_site_type_symbol
 _atom_site_label
 _atom_site_symmetry_multiplicity
 _atom_site_fract_x
 _atom_site_fract_y
 _atom_site_fract_z
 _atom_site_occupancy
  Tb  Tb0  1  0.000000  0.500000  0.000000  1
  Pr  Pr1  1  0.800517  0.599627  0.597353  1
  Pr  Pr2  1  0.594213  0.197089  0.198190  1
  Pr  Pr3  1  0.405787  0.802911  0.801810  1
  Pr  Pr4  1  0.599697  0.700883  0.200550  1
  Pr  Pr5  1  0.199483  0.400373  0.402647  1
  Pr  Pr6  1  0.400303  0.299117  0.799450  1
  Pr  Pr7  1  0.000000  0.000000  0.000000  1
  Pr  Pr8  1  0.201487  0.900835  0.400499  1
  Pr  Pr9  1  0.798513  0.099165  0.599501  1
  S  S10  1  0.708082  0.645771  0.901691  1
  S  S11  1  0.499888  0.250311  0.499804  1
  S  S12  1  0.708276  0.159528  0.902865  1
  S  S13  1  0.291724  0.840472  0.097135  1
  S  S14  1  0.500112  0.749689  0.500196  1
  S  S15  1  0.098623  0.452558  0.708180  1
  S  S16  1  0.291918  0.354229  0.098309  1
  S  S17  1  0.899190  0.050521  0.299913  1
  S  S18  1  0.100810  0.949479  0.700087  1
  S  S19  1  0.901377  0.547442  0.291820  1
