# generated using pymatgen
data_Cs3Sc(IO3)6
_symmetry_space_group_name_H-M   'P 1'
_cell_length_a   7.37775396
_cell_length_b   7.36446350
_cell_length_c   11.13801690
_cell_angle_alpha   87.98936666
_cell_angle_beta   108.02928508
_cell_angle_gamma   107.10920431
_symmetry_Int_Tables_number   1
_chemical_formula_structural   Cs3Sc(IO3)6
_chemical_formula_sum   'Cs3 Sc1 I6 O18'
_cell_volume   548.93958500
_cell_formula_units_Z   1
loop_
 _symmetry_equiv_pos_site_id
 _symmetry_equiv_pos_as_xyz
  1  'x, y, z'
loop_
 _atom_site_type_symbol
 _atom_site_label
 _atom_site_symmetry_multiplicity
 _atom_site_fract_x
 _atom_site_fract_y
 _atom_site_fract_z
 _atom_site_occupancy
  Cs  Cs0  1  0.000000  0.000000  0.000000  1
  Cs  Cs1  1  0.831777  0.026325  0.598754  1
  Cs  Cs2  1  0.168223  0.973675  0.401246  1
  Sc  Sc3  1  0.500000  0.500000  0.000000  1
  I  I4  1  0.011998  0.471381  0.189177  1
  I  I5  1  0.988002  0.528619  0.810823  1
  I  I6  1  0.553692  0.944848  0.186594  1
  I  I7  1  0.446308  0.055152  0.813406  1
  I  I8  1  0.420966  0.551817  0.647254  1
  I  I9  1  0.579034  0.448183  0.352746  1
  O  O10  1  0.816548  0.533395  0.054823  1
  O  O11  1  0.183452  0.466605  0.945177  1
  O  O12  1  0.950365  0.547352  0.321276  1
  O  O13  1  0.049635  0.452648  0.678724  1
  O  O14  1  0.911220  0.212797  0.185553  1
  O  O15  1  0.088780  0.787203  0.814447  1
  O  O16  1  0.565170  0.799956  0.055653  1
  O  O17  1  0.434830  0.200044  0.944347  1
  O  O18  1  0.296335  0.838913  0.185398  1
  O  O19  1  0.703665  0.161087  0.814602  1
  O  O20  1  0.688009  0.838699  0.322447  1
  O  O21  1  0.311991  0.161301  0.677553  1
  O  O22  1  0.517847  0.585276  0.822779  1
  O  O23  1  0.482153  0.414724  0.177221  1
  O  O24  1  0.661328  0.566514  0.624405  1
  O  O25  1  0.338672  0.433486  0.375595  1
  O  O26  1  0.414049  0.795066  0.616882  1
  O  O27  1  0.585951  0.204934  0.383118  1
