# generated using pymatgen
data_Dy11Er5In4OsRh3
_symmetry_space_group_name_H-M   'P 1'
_cell_length_a   9.63701084
_cell_length_b   9.66374308
_cell_length_c   9.63061658
_cell_angle_alpha   60.05252536
_cell_angle_beta   59.77506928
_cell_angle_gamma   60.07182768
_symmetry_Int_Tables_number   1
_chemical_formula_structural   Dy11Er5In4OsRh3
_chemical_formula_sum   'Dy11 Er5 In4 Os1 Rh3'
_cell_volume   633.70804477
_cell_formula_units_Z   1
loop_
 _symmetry_equiv_pos_site_id
 _symmetry_equiv_pos_as_xyz
  1  'x, y, z'
loop_
 _atom_site_type_symbol
 _atom_site_label
 _atom_site_symmetry_multiplicity
 _atom_site_fract_x
 _atom_site_fract_y
 _atom_site_fract_z
 _atom_site_occupancy
  Dy  Dy0  1  0.188970  0.192750  0.809861  1
  Dy  Dy1  1  0.438976  0.060743  0.061117  1
  Dy  Dy2  1  0.436804  0.062410  0.437004  1
  Dy  Dy3  1  0.058692  0.437794  0.058612  1
  Dy  Dy4  1  0.648888  0.049904  0.648667  1
  Dy  Dy5  1  0.191936  0.808150  0.810594  1
  Dy  Dy6  1  0.060987  0.060437  0.439161  1
  Dy  Dy7  1  0.810558  0.192246  0.188528  1
  Dy  Dy8  1  0.811156  0.808326  0.191822  1
  Dy  Dy9  1  0.649587  0.648972  0.048451  1
  Dy  Dy10  1  0.651266  0.651109  0.651624  1
  Er  Er11  1  0.058494  0.438003  0.444999  1
  Er  Er12  1  0.047714  0.649296  0.649874  1
  Er  Er13  1  0.808765  0.193997  0.808286  1
  Er  Er14  1  0.444186  0.437587  0.059086  1
  Er  Er15  1  0.192317  0.807638  0.192385  1
  In  In16  1  0.417381  0.747381  0.418368  1
  In  In17  1  0.416929  0.417148  0.749382  1
  In  In18  1  0.749014  0.417063  0.417442  1
  In  In19  1  0.416739  0.416177  0.417160  1
  Os  Os20  1  0.858041  0.425015  0.856645  1
  Rh  Rh21  1  0.860884  0.857857  0.423782  1
  Rh  Rh22  1  0.422995  0.858661  0.860211  1
  Rh  Rh23  1  0.858719  0.861337  0.856937  1
