# generated using pymatgen
data_YP4N7
_symmetry_space_group_name_H-M   'P 1'
_cell_length_a   5.02346057
_cell_length_b   7.48076345
_cell_length_c   8.57474506
_cell_angle_alpha   73.49028889
_cell_angle_beta   107.31375157
_cell_angle_gamma   98.02716269
_symmetry_Int_Tables_number   1
_chemical_formula_structural   YP4N7
_chemical_formula_sum   'Y2 P8 N14'
_cell_volume   294.41501047
_cell_formula_units_Z   2
loop_
 _symmetry_equiv_pos_site_id
 _symmetry_equiv_pos_as_xyz
  1  'x, y, z'
loop_
 _atom_site_type_symbol
 _atom_site_label
 _atom_site_symmetry_multiplicity
 _atom_site_fract_x
 _atom_site_fract_y
 _atom_site_fract_z
 _atom_site_occupancy
  Y  Y0  1  0.340455  0.804004  0.200238  1
  Y  Y1  1  0.659554  0.195970  0.799776  1
  P  P2  1  0.299320  0.278235  0.076661  1
  P  P3  1  0.848509  0.125233  0.239201  1
  P  P4  1  0.729428  0.492096  0.254063  1
  P  P5  1  0.016511  0.245231  0.567990  1
  P  P6  1  0.983482  0.754761  0.432012  1
  P  P7  1  0.270611  0.507899  0.745936  1
  P  P8  1  0.151491  0.874786  0.760795  1
  P  P9  1  0.700698  0.721783  0.923352  1
  N  N10  1  0.568612  0.169509  0.077567  1
  N  N11  1  0.883369  0.643556  0.119254  1
  N  N12  1  0.105791  0.105905  0.166161  1
  N  N13  1  0.407097  0.444432  0.169660  1
  N  N14  1  0.908249  0.295022  0.342070  1
  N  N15  1  0.774988  0.931756  0.365788  1
  N  N16  1  0.727778  0.587776  0.400191  1
  N  N17  1  0.272226  0.412225  0.599805  1
  N  N18  1  0.225018  0.068239  0.634213  1
  N  N19  1  0.091738  0.704995  0.657919  1
  N  N20  1  0.592910  0.555570  0.830345  1
  N  N21  1  0.894183  0.894087  0.833824  1
  N  N22  1  0.116590  0.356439  0.880744  1
  N  N23  1  0.431390  0.830490  0.922435  1
