# generated using pymatgen
data_Eu2Sn4PdRh
_symmetry_space_group_name_H-M   'P 1'
_cell_length_a   6.13634117
_cell_length_b   6.13633986
_cell_length_c   7.66608400
_cell_angle_alpha   90.00000000
_cell_angle_beta   90.00000000
_cell_angle_gamma   137.61368887
_symmetry_Int_Tables_number   1
_chemical_formula_structural   Eu2Sn4PdRh
_chemical_formula_sum   'Eu2 Sn4 Pd1 Rh1'
_cell_volume   194.59582334
_cell_formula_units_Z   1
loop_
 _symmetry_equiv_pos_site_id
 _symmetry_equiv_pos_as_xyz
  1  'x, y, z'
loop_
 _atom_site_type_symbol
 _atom_site_label
 _atom_site_symmetry_multiplicity
 _atom_site_fract_x
 _atom_site_fract_y
 _atom_site_fract_z
 _atom_site_occupancy
  Eu  Eu0  1  0.063238  0.936762  0.250000  1
  Eu  Eu1  1  0.934713  0.065287  0.750000  1
  Sn  Sn2  1  0.648826  0.351174  0.544368  1
  Sn  Sn3  1  0.351998  0.648002  0.448893  1
  Sn  Sn4  1  0.648826  0.351174  0.955632  1
  Sn  Sn5  1  0.351998  0.648002  0.051107  1
  Pd  Pd6  1  0.209116  0.790884  0.750000  1
  Rh  Rh7  1  0.791285  0.208715  0.250000  1
