# generated using pymatgen
data_EuHo2Al3Ge2Pd
_symmetry_space_group_name_H-M   'P 1'
_cell_length_a   7.05391000
_cell_length_b   7.04151626
_cell_length_c   4.29728100
_cell_angle_alpha   90.00000000
_cell_angle_beta   90.00000000
_cell_angle_gamma   120.05824057
_symmetry_Int_Tables_number   1
_chemical_formula_structural   EuHo2Al3Ge2Pd
_chemical_formula_sum   'Eu1 Ho2 Al3 Ge2 Pd1'
_cell_volume   184.74186000
_cell_formula_units_Z   1
loop_
 _symmetry_equiv_pos_site_id
 _symmetry_equiv_pos_as_xyz
  1  'x, y, z'
loop_
 _atom_site_type_symbol
 _atom_site_label
 _atom_site_symmetry_multiplicity
 _atom_site_fract_x
 _atom_site_fract_y
 _atom_site_fract_z
 _atom_site_occupancy
  Eu  Eu0  1  0.419329  0.000000  0.000000  1
  Ho  Ho1  1  0.002126  0.416647  0.000000  1
  Ho  Ho2  1  0.585481  0.583354  0.000000  1
  Al  Al3  1  0.770550  0.000000  0.499999  1
  Al  Al4  1  0.230096  0.235891  0.499999  1
  Al  Al5  1  0.994204  0.764109  0.499999  1
  Ge  Ge6  1  0.674550  0.343551  0.499999  1
  Ge  Ge7  1  0.330999  0.656448  0.499999  1
  Pd  Pd8  1  0.992666  0.000000  0.000000  1
