# generated using pymatgen
data_Ba4Ge7PIr8
_symmetry_space_group_name_H-M   'P 1'
_cell_length_a   6.83078909
_cell_length_b   7.97741288
_cell_length_c   8.19137880
_cell_angle_alpha   86.37955604
_cell_angle_beta   89.64440708
_cell_angle_gamma   89.60791607
_symmetry_Int_Tables_number   1
_chemical_formula_structural   Ba4Ge7PIr8
_chemical_formula_sum   'Ba4 Ge7 P1 Ir8'
_cell_volume   445.45610293
_cell_formula_units_Z   1
loop_
 _symmetry_equiv_pos_site_id
 _symmetry_equiv_pos_as_xyz
  1  'x, y, z'
loop_
 _atom_site_type_symbol
 _atom_site_label
 _atom_site_symmetry_multiplicity
 _atom_site_fract_x
 _atom_site_fract_y
 _atom_site_fract_z
 _atom_site_occupancy
  Ba  Ba0  1  0.380589  0.001124  0.234724  1
  Ba  Ba1  1  0.880630  0.497112  0.767830  1
  Ba  Ba2  1  0.119258  0.504923  0.237445  1
  Ba  Ba3  1  0.620145  0.996089  0.764532  1
  Ge  Ge4  1  0.415181  0.363502  0.929784  1
  Ge  Ge5  1  0.151187  0.190286  0.555254  1
  Ge  Ge6  1  0.648046  0.309903  0.445259  1
  Ge  Ge7  1  0.850832  0.807540  0.443640  1
  Ge  Ge8  1  0.916956  0.135895  0.071381  1
  Ge  Ge9  1  0.580427  0.637215  0.072720  1
  Ge  Ge10  1  0.084938  0.863375  0.926363  1
  P  P11  1  0.352548  0.687470  0.561785  1
  Ir  Ir12  1  0.387977  0.399511  0.623222  1
  Ir  Ir13  1  0.591988  0.616166  0.382830  1
  Ir  Ir14  1  0.118960  0.880994  0.617218  1
  Ir  Ir15  1  0.166781  0.165743  0.854759  1
  Ir  Ir16  1  0.663729  0.334088  0.145156  1
  Ir  Ir17  1  0.834054  0.832072  0.142994  1
  Ir  Ir18  1  0.339937  0.667543  0.847051  1
  Ir  Ir19  1  0.895838  0.109453  0.376056  1
