# generated using pymatgen
data_YLu3(WN2)4
_symmetry_space_group_name_H-M   'P 1'
_cell_length_a   3.16838800
_cell_length_b   5.66391629
_cell_length_c   10.48144105
_cell_angle_alpha   90.12333052
_cell_angle_beta   90.00000000
_cell_angle_gamma   90.00000000
_symmetry_Int_Tables_number   1
_chemical_formula_structural   YLu3(WN2)4
_chemical_formula_sum   'Y1 Lu3 W4 N8'
_cell_volume   188.09410121
_cell_formula_units_Z   1
loop_
 _symmetry_equiv_pos_site_id
 _symmetry_equiv_pos_as_xyz
  1  'x, y, z'
loop_
 _atom_site_type_symbol
 _atom_site_label
 _atom_site_symmetry_multiplicity
 _atom_site_fract_x
 _atom_site_fract_y
 _atom_site_fract_z
 _atom_site_occupancy
  Y  Y0  1  0.750000  0.419608  0.354146  1
  Lu  Lu1  1  0.250000  0.078963  0.854466  1
  Lu  Lu2  1  0.250000  0.579064  0.646670  1
  Lu  Lu3  1  0.750000  0.921042  0.144572  1
  W  W4  1  0.250000  0.432732  0.093984  1
  W  W5  1  0.250000  0.930782  0.404800  1
  W  W6  1  0.750000  0.568188  0.904471  1
  W  W7  1  0.750000  0.067803  0.596272  1
  N  N8  1  0.250000  0.160594  0.246065  1
  N  N9  1  0.250000  0.668843  0.249138  1
  N  N10  1  0.750000  0.836040  0.753190  1
  N  N11  1  0.750000  0.336443  0.748006  1
  N  N12  1  0.250000  0.768895  0.994013  1
  N  N13  1  0.250000  0.265018  0.508605  1
  N  N14  1  0.750000  0.231929  0.004335  1
  N  N15  1  0.750000  0.734057  0.497268  1
