# generated using pymatgen
data_Y4Mg4Ir3Au
_symmetry_space_group_name_H-M   'P 1'
_cell_length_a   4.13994300
_cell_length_b   7.15737393
_cell_length_c   8.66793352
_cell_angle_alpha   91.03660573
_cell_angle_beta   90.00000000
_cell_angle_gamma   90.00000000
_symmetry_Int_Tables_number   1
_chemical_formula_structural   Y4Mg4Ir3Au
_chemical_formula_sum   'Y4 Mg4 Ir3 Au1'
_cell_volume   256.79854470
_cell_formula_units_Z   1
loop_
 _symmetry_equiv_pos_site_id
 _symmetry_equiv_pos_as_xyz
  1  'x, y, z'
loop_
 _atom_site_type_symbol
 _atom_site_label
 _atom_site_symmetry_multiplicity
 _atom_site_fract_x
 _atom_site_fract_y
 _atom_site_fract_z
 _atom_site_occupancy
  Y  Y0  1  0.250000  0.027266  0.337074  1
  Y  Y1  1  0.250000  0.559077  0.177788  1
  Y  Y2  1  0.750000  0.960498  0.676919  1
  Y  Y3  1  0.750000  0.469355  0.813783  1
  Mg  Mg4  1  0.250000  0.133954  0.932533  1
  Mg  Mg5  1  0.250000  0.635141  0.560100  1
  Mg  Mg6  1  0.750000  0.859968  0.059015  1
  Mg  Mg7  1  0.750000  0.364312  0.443154  1
  Ir  Ir8  1  0.250000  0.249044  0.627010  1
  Ir  Ir9  1  0.250000  0.748664  0.875403  1
  Ir  Ir10  1  0.750000  0.746235  0.371142  1
  Au  Au11  1  0.750000  0.246486  0.126079  1
