# generated using pymatgen
data_Pr4Ga3SiPd8
_symmetry_space_group_name_H-M   'P 1'
_cell_length_a   5.77069808
_cell_length_b   7.12624900
_cell_length_c   7.64575921
_cell_angle_alpha   90.00000000
_cell_angle_beta   90.47894200
_cell_angle_gamma   90.00000000
_symmetry_Int_Tables_number   1
_chemical_formula_structural   Pr4Ga3SiPd8
_chemical_formula_sum   'Pr4 Ga3 Si1 Pd8'
_cell_volume   314.40886960
_cell_formula_units_Z   1
loop_
 _symmetry_equiv_pos_site_id
 _symmetry_equiv_pos_as_xyz
  1  'x, y, z'
loop_
 _atom_site_type_symbol
 _atom_site_label
 _atom_site_symmetry_multiplicity
 _atom_site_fract_x
 _atom_site_fract_y
 _atom_site_fract_z
 _atom_site_occupancy
  Pr  Pr0  1  0.353480  0.750000  0.032354  1
  Pr  Pr1  1  0.149534  0.750000  0.532692  1
  Pr  Pr2  1  0.644607  0.250000  0.968993  1
  Pr  Pr3  1  0.849891  0.250000  0.466425  1
  Ga  Ga4  1  0.648833  0.750000  0.376804  1
  Ga  Ga5  1  0.851971  0.750000  0.879588  1
  Ga  Ga6  1  0.350553  0.250000  0.619481  1
  Si  Si7  1  0.145091  0.250000  0.121961  1
  Pd  Pd8  1  0.917038  0.550507  0.176882  1
  Pd  Pd9  1  0.589987  0.947085  0.675020  1
  Pd  Pd10  1  0.094864  0.055560  0.830056  1
  Pd  Pd11  1  0.401131  0.444201  0.318893  1
  Pd  Pd12  1  0.094864  0.444440  0.830056  1
  Pd  Pd13  1  0.401131  0.055799  0.318893  1
  Pd  Pd14  1  0.917038  0.949493  0.176882  1
  Pd  Pd15  1  0.589987  0.552915  0.675020  1
