# generated using pymatgen
data_Pr5Cu6
_symmetry_space_group_name_H-M   'P 1'
_cell_length_a   16.16966642
_cell_length_b   16.16966675
_cell_length_c   4.18871300
_cell_angle_alpha   90.00000000
_cell_angle_beta   90.00000000
_cell_angle_gamma   166.84964023
_symmetry_Int_Tables_number   1
_chemical_formula_structural   Pr5Cu6
_chemical_formula_sum   'Pr5 Cu6'
_cell_volume   249.15984481
_cell_formula_units_Z   1
loop_
 _symmetry_equiv_pos_site_id
 _symmetry_equiv_pos_as_xyz
  1  'x, y, z'
loop_
 _atom_site_type_symbol
 _atom_site_label
 _atom_site_symmetry_multiplicity
 _atom_site_fract_x
 _atom_site_fract_y
 _atom_site_fract_z
 _atom_site_occupancy
  Pr  Pr0  1  0.000000  0.000000  0.000000  1
  Pr  Pr1  1  0.617063  0.382935  0.000000  1
  Pr  Pr2  1  0.382935  0.617063  0.000000  1
  Pr  Pr3  1  0.806142  0.193856  0.500001  1
  Pr  Pr4  1  0.193856  0.806142  0.500001  1
  Cu  Cu5  1  0.724846  0.275152  0.000000  1
  Cu  Cu6  1  0.275152  0.724846  0.000000  1
  Cu  Cu7  1  0.912600  0.087399  0.500001  1
  Cu  Cu8  1  0.538743  0.461255  0.500001  1
  Cu  Cu9  1  0.461255  0.538743  0.500001  1
  Cu  Cu10  1  0.087399  0.912600  0.500001  1
