# generated using pymatgen
data_CeScAs2P5Ru12
_symmetry_space_group_name_H-M   'P 1'
_cell_length_a   9.53701117
_cell_length_b   9.48630827
_cell_length_c   3.96488200
_cell_angle_alpha   90.00000000
_cell_angle_beta   90.00000000
_cell_angle_gamma   119.90174505
_symmetry_Int_Tables_number   1
_chemical_formula_structural   CeScAs2P5Ru12
_chemical_formula_sum   'Ce1 Sc1 As2 P5 Ru12'
_cell_volume   310.95644269
_cell_formula_units_Z   1
loop_
 _symmetry_equiv_pos_site_id
 _symmetry_equiv_pos_as_xyz
  1  'x, y, z'
loop_
 _atom_site_type_symbol
 _atom_site_label
 _atom_site_symmetry_multiplicity
 _atom_site_fract_x
 _atom_site_fract_y
 _atom_site_fract_z
 _atom_site_occupancy
  Ce  Ce0  1  0.328222  0.659255  0.000000  1
  Sc  Sc1  1  0.667819  0.334370  0.500000  1
  As  As2  1  0.601264  0.718976  0.500000  1
  As  As3  1  0.284480  0.883043  0.500000  1
  P  P4  1  0.002829  0.000787  0.000000  1
  P  P5  1  0.111531  0.393933  0.500000  1
  P  P6  1  0.882950  0.567691  0.000000  1
  P  P7  1  0.429519  0.315391  0.000000  1
  P  P8  1  0.685903  0.119880  0.000000  1
  Ru  Ru9  1  0.569688  0.966253  0.500000  1
  Ru  Ru10  1  0.388868  0.434704  0.500000  1
  Ru  Ru11  1  0.917021  0.121587  0.500000  1
  Ru  Ru12  1  0.199655  0.086862  0.500000  1
  Ru  Ru13  1  0.884297  0.792894  0.500000  1
  Ru  Ru14  1  0.734361  0.899902  0.000000  1
  Ru  Ru15  1  0.102793  0.830420  0.000000  1
  Ru  Ru16  1  0.164423  0.273687  0.000000  1
  Ru  Ru17  1  0.427255  0.077620  0.000000  1
  Ru  Ru18  1  0.926811  0.351978  0.000000  1
  Ru  Ru19  1  0.646986  0.571779  0.000000  1
  Ru  Ru20  1  0.043327  0.598985  0.500000  1
