# generated using pymatgen
data_CaAc3(AgSn)4
_symmetry_space_group_name_H-M   'P 1'
_cell_length_a   4.96502700
_cell_length_b   8.07344383
_cell_length_c   8.36583092
_cell_angle_alpha   90.24561979
_cell_angle_beta   90.00000000
_cell_angle_gamma   90.00000000
_symmetry_Int_Tables_number   1
_chemical_formula_structural   CaAc3(AgSn)4
_chemical_formula_sum   'Ca1 Ac3 Ag4 Sn4'
_cell_volume   335.34013508
_cell_formula_units_Z   1
loop_
 _symmetry_equiv_pos_site_id
 _symmetry_equiv_pos_as_xyz
  1  'x, y, z'
loop_
 _atom_site_type_symbol
 _atom_site_label
 _atom_site_symmetry_multiplicity
 _atom_site_fract_x
 _atom_site_fract_y
 _atom_site_fract_z
 _atom_site_occupancy
  Ca  Ca0  1  0.750000  0.994197  0.719107  1
  Ac  Ac1  1  0.750000  0.495238  0.784652  1
  Ac  Ac2  1  0.250000  0.503907  0.211645  1
  Ac  Ac3  1  0.250000  0.003390  0.295118  1
  Ag  Ag4  1  0.750000  0.188528  0.078618  1
  Ag  Ag5  1  0.750000  0.702926  0.419856  1
  Ag  Ag6  1  0.250000  0.816555  0.913674  1
  Ag  Ag7  1  0.250000  0.303825  0.581835  1
  Sn  Sn8  1  0.750000  0.291979  0.410954  1
  Sn  Sn9  1  0.250000  0.701658  0.590443  1
  Sn  Sn10  1  0.750000  0.796909  0.086301  1
  Sn  Sn11  1  0.250000  0.200888  0.907795  1
