# generated using pymatgen
data_MgTi3ZnPt11
_symmetry_space_group_name_H-M   'P 1'
_cell_length_a   5.61826800
_cell_length_b   5.57617267
_cell_length_c   9.08747900
_cell_angle_alpha   90.00000000
_cell_angle_beta   90.00000000
_cell_angle_gamma   120.25003946
_symmetry_Int_Tables_number   1
_chemical_formula_structural   MgTi3ZnPt11
_chemical_formula_sum   'Mg1 Ti3 Zn1 Pt11'
_cell_volume   245.93082209
_cell_formula_units_Z   1
loop_
 _symmetry_equiv_pos_site_id
 _symmetry_equiv_pos_as_xyz
  1  'x, y, z'
loop_
 _atom_site_type_symbol
 _atom_site_label
 _atom_site_symmetry_multiplicity
 _atom_site_fract_x
 _atom_site_fract_y
 _atom_site_fract_z
 _atom_site_occupancy
  Mg  Mg0  1  0.327362  0.654725  0.250000  1
  Ti  Ti1  1  0.006467  0.012933  0.505385  1
  Ti  Ti2  1  0.006467  0.012933  0.994615  1
  Ti  Ti3  1  0.669033  0.338066  0.750000  1
  Zn  Zn4  1  0.822572  0.645146  0.250000  1
  Pt  Pt5  1  0.506149  0.504438  0.499324  1
  Pt  Pt6  1  0.502437  0.004874  0.502278  1
  Pt  Pt7  1  0.998288  0.504438  0.499324  1
  Pt  Pt8  1  0.506149  0.504438  0.000676  1
  Pt  Pt9  1  0.502437  0.004874  0.997722  1
  Pt  Pt10  1  0.998288  0.504438  0.000676  1
  Pt  Pt11  1  0.326353  0.152215  0.250000  1
  Pt  Pt12  1  0.825861  0.152215  0.250000  1
  Pt  Pt13  1  0.167026  0.334052  0.750000  1
  Pt  Pt14  1  0.666786  0.835109  0.750000  1
  Pt  Pt15  1  0.168322  0.835109  0.750000  1
