# generated using pymatgen
data_La6Mg5Cd18Te
_symmetry_space_group_name_H-M   'P 1'
_cell_length_a   10.18643367
_cell_length_b   10.18743668
_cell_length_c   10.18643300
_cell_angle_alpha   59.98636340
_cell_angle_beta   60.13129024
_cell_angle_gamma   59.98637231
_symmetry_Int_Tables_number   1
_chemical_formula_structural   La6Mg5Cd18Te
_chemical_formula_sum   'La6 Mg5 Cd18 Te1'
_cell_volume   748.05510317
_cell_formula_units_Z   1
loop_
 _symmetry_equiv_pos_site_id
 _symmetry_equiv_pos_as_xyz
  1  'x, y, z'
loop_
 _atom_site_type_symbol
 _atom_site_label
 _atom_site_symmetry_multiplicity
 _atom_site_fract_x
 _atom_site_fract_y
 _atom_site_fract_z
 _atom_site_occupancy
  La  La0  1  0.779371  0.781421  0.218761  1
  La  La1  1  0.219864  0.782099  0.219864  1
  La  La2  1  0.781239  0.218579  0.220629  1
  La  La3  1  0.220629  0.218579  0.781239  1
  La  La4  1  0.780136  0.217901  0.780136  1
  La  La5  1  0.218761  0.781421  0.779371  1
  Mg  Mg6  1  0.500000  0.000000  0.500000  1
  Mg  Mg7  1  0.000000  0.500000  0.500000  1
  Mg  Mg8  1  0.500000  0.500000  0.000000  1
  Mg  Mg9  1  0.000000  0.500000  0.000000  1
  Mg  Mg10  1  0.500000  0.500000  0.500000  1
  Cd  Cd11  1  0.829933  0.829815  0.506864  1
  Cd  Cd12  1  0.830444  0.507312  0.830444  1
  Cd  Cd13  1  0.506864  0.829815  0.829933  1
  Cd  Cd14  1  0.831824  0.829747  0.831824  1
  Cd  Cd15  1  0.170067  0.170185  0.493136  1
  Cd  Cd16  1  0.169556  0.492688  0.169556  1
  Cd  Cd17  1  0.493136  0.170185  0.170067  1
  Cd  Cd18  1  0.168176  0.170253  0.168176  1
  Cd  Cd19  1  0.622113  0.619382  0.136139  1
  Cd  Cd20  1  0.620510  0.136530  0.620510  1
  Cd  Cd21  1  0.136139  0.619382  0.622113  1
  Cd  Cd22  1  0.622066  0.621224  0.622066  1
  Cd  Cd23  1  0.377887  0.380618  0.863861  1
  Cd  Cd24  1  0.379490  0.863470  0.379490  1
  Cd  Cd25  1  0.863861  0.380618  0.377887  1
  Cd  Cd26  1  0.377934  0.378776  0.377934  1
  Cd  Cd27  1  0.000000  0.000000  0.500000  1
  Cd  Cd28  1  0.500000  0.000000  0.000000  1
  Te  Te29  1  0.000000  0.000000  0.000000  1
