# generated using pymatgen
data_Sc8V11ReSi15P
_symmetry_space_group_name_H-M   'P 1'
_cell_length_a   6.62523408
_cell_length_b   6.61729348
_cell_length_c   12.25758124
_cell_angle_alpha   89.94658465
_cell_angle_beta   89.96987468
_cell_angle_gamma   89.77400026
_symmetry_Int_Tables_number   1
_chemical_formula_structural   Sc8V11ReSi15P
_chemical_formula_sum   'Sc8 V11 Re1 Si15 P1'
_cell_volume   537.38158165
_cell_formula_units_Z   1
loop_
 _symmetry_equiv_pos_site_id
 _symmetry_equiv_pos_as_xyz
  1  'x, y, z'
loop_
 _atom_site_type_symbol
 _atom_site_label
 _atom_site_symmetry_multiplicity
 _atom_site_fract_x
 _atom_site_fract_y
 _atom_site_fract_z
 _atom_site_occupancy
  Sc  Sc0  1  0.004278  0.664595  0.028641  1
  Sc  Sc1  1  0.836248  0.500492  0.279937  1
  Sc  Sc2  1  0.162058  0.496597  0.779758  1
  Sc  Sc3  1  0.500887  0.836672  0.720295  1
  Sc  Sc4  1  0.494559  0.160507  0.218670  1
  Sc  Sc5  1  0.999183  0.337465  0.529559  1
  Sc  Sc6  1  0.658517  0.002063  0.972151  1
  Sc  Sc7  1  0.337340  0.999217  0.470652  1
  V  V8  1  0.170986  0.835443  0.245912  1
  V  V9  1  0.833065  0.169407  0.751246  1
  V  V10  1  0.668817  0.669479  0.499725  1
  V  V11  1  0.007257  0.150765  0.126469  1
  V  V12  1  0.343416  0.504736  0.375753  1
  V  V13  1  0.663178  0.492716  0.875577  1
  V  V14  1  0.505591  0.343515  0.624677  1
  V  V15  1  0.490015  0.667359  0.123848  1
  V  V16  1  0.993523  0.842874  0.626068  1
  V  V17  1  0.157128  0.001017  0.876257  1
  V  V18  1  0.841678  0.992995  0.374091  1
  Re  Re19  1  0.332486  0.332507  0.000935  1
  Si  Si20  1  0.539042  0.794781  0.316024  1
  Si  Si21  1  0.461079  0.205192  0.814195  1
  Si  Si22  1  0.794826  0.539794  0.684221  1
  Si  Si23  1  0.204630  0.460523  0.186191  1
  Si  Si24  1  0.706027  0.040600  0.565339  1
  Si  Si25  1  0.959905  0.291829  0.935769  1
  Si  Si26  1  0.041533  0.706589  0.434021  1
  Si  Si27  1  0.704580  0.375243  0.071849  1
  Si  Si28  1  0.128747  0.203290  0.320904  1
  Si  Si29  1  0.869986  0.797103  0.819586  1
  Si  Si30  1  0.202563  0.128870  0.680413  1
  Si  Si31  1  0.795623  0.869690  0.181276  1
  Si  Si32  1  0.296449  0.629418  0.569588  1
  Si  Si33  1  0.374858  0.700502  0.926730  1
  Si  Si34  1  0.629209  0.296229  0.430257  1
  P  P35  1  0.290732  0.959929  0.063415  1
