# generated using pymatgen
data_Ho6Al24Os3Ru3Pt2
_symmetry_space_group_name_H-M   'P 1'
_cell_length_a   8.77651485
_cell_length_b   8.81299773
_cell_length_c   9.53883897
_cell_angle_alpha   90.21987319
_cell_angle_beta   89.65915432
_cell_angle_gamma   119.56023459
_symmetry_Int_Tables_number   1
_chemical_formula_structural   Ho6Al24Os3Ru3Pt2
_chemical_formula_sum   'Ho6 Al24 Os3 Ru3 Pt2'
_cell_volume   641.75829847
_cell_formula_units_Z   1
loop_
 _symmetry_equiv_pos_site_id
 _symmetry_equiv_pos_as_xyz
  1  'x, y, z'
loop_
 _atom_site_type_symbol
 _atom_site_label
 _atom_site_symmetry_multiplicity
 _atom_site_fract_x
 _atom_site_fract_y
 _atom_site_fract_z
 _atom_site_occupancy
  Ho  Ho0  1  0.192702  0.385085  0.249114  1
  Ho  Ho1  1  0.807298  0.614915  0.750886  1
  Ho  Ho2  1  0.611412  0.809580  0.249563  1
  Ho  Ho3  1  0.388588  0.190420  0.750437  1
  Ho  Ho4  1  0.196953  0.810110  0.249188  1
  Ho  Ho5  1  0.803047  0.189890  0.750812  1
  Al  Al6  1  0.337312  0.669290  0.023000  1
  Al  Al7  1  0.662688  0.330710  0.977000  1
  Al  Al8  1  0.670495  0.331118  0.524431  1
  Al  Al9  1  0.329505  0.668882  0.475569  1
  Al  Al10  1  0.156790  0.323610  0.577742  1
  Al  Al11  1  0.843210  0.676390  0.422258  1
  Al  Al12  1  0.674777  0.841391  0.577444  1
  Al  Al13  1  0.832830  0.675815  0.078181  1
  Al  Al14  1  0.325223  0.158609  0.422556  1
  Al  Al15  1  0.167170  0.324185  0.921819  1
  Al  Al16  1  0.162482  0.836005  0.578013  1
  Al  Al17  1  0.326588  0.164199  0.077583  1
  Al  Al18  1  0.837518  0.163995  0.421987  1
  Al  Al19  1  0.673412  0.835801  0.922417  1
  Al  Al20  1  0.833457  0.158710  0.078791  1
  Al  Al21  1  0.166543  0.841290  0.921209  1
  Al  Al22  1  0.561207  0.124616  0.250403  1
  Al  Al23  1  0.438793  0.875384  0.749597  1
  Al  Al24  1  0.877026  0.439392  0.253722  1
  Al  Al25  1  0.122974  0.560608  0.746278  1
  Al  Al26  1  0.562624  0.437569  0.247273  1
  Al  Al27  1  0.437376  0.562431  0.752727  1
  Al  Al28  1  0.999734  0.002032  0.249894  1
  Al  Al29  1  0.000266  0.997968  0.750106  1
  Os  Os30  1  0.500000  0.000000  0.000000  1
  Os  Os31  1  0.500000  0.000000  0.500000  1
  Os  Os32  1  0.500000  0.500000  0.000000  1
  Ru  Ru33  1  0.000000  0.500000  0.500000  1
  Ru  Ru34  1  0.000000  0.000000  0.000000  1
  Ru  Ru35  1  0.000000  0.000000  0.500000  1
  Pt  Pt36  1  0.000000  0.500000  0.000000  1
  Pt  Pt37  1  0.500000  0.500000  0.500000  1
