# generated using pymatgen
data_Yb6Nb3Al13Os7
_symmetry_space_group_name_H-M   'P 1'
_cell_length_a   9.05794397
_cell_length_b   9.05794481
_cell_length_c   9.05794421
_cell_angle_alpha   59.84704452
_cell_angle_beta   59.84704571
_cell_angle_gamma   59.84704619
_symmetry_Int_Tables_number   1
_chemical_formula_structural   Yb6Nb3Al13Os7
_chemical_formula_sum   'Yb6 Nb3 Al13 Os7'
_cell_volume   523.67736836
_cell_formula_units_Z   1
loop_
 _symmetry_equiv_pos_site_id
 _symmetry_equiv_pos_as_xyz
  1  'x, y, z'
loop_
 _atom_site_type_symbol
 _atom_site_label
 _atom_site_symmetry_multiplicity
 _atom_site_fract_x
 _atom_site_fract_y
 _atom_site_fract_z
 _atom_site_occupancy
  Yb  Yb0  1  0.708724  0.708724  0.288487  1
  Yb  Yb1  1  0.293836  0.708072  0.293836  1
  Yb  Yb2  1  0.708072  0.293836  0.293836  1
  Yb  Yb3  1  0.293836  0.293836  0.708072  1
  Yb  Yb4  1  0.708724  0.288487  0.708724  1
  Yb  Yb5  1  0.288487  0.708724  0.708724  1
  Nb  Nb6  1  0.879298  0.879298  0.359275  1
  Nb  Nb7  1  0.879298  0.359275  0.879298  1
  Nb  Nb8  1  0.359275  0.879298  0.879298  1
  Al  Al9  1  0.881800  0.881800  0.881800  1
  Al  Al10  1  0.119726  0.119726  0.640196  1
  Al  Al11  1  0.119726  0.640196  0.119726  1
  Al  Al12  1  0.640196  0.119726  0.119726  1
  Al  Al13  1  0.118916  0.118916  0.118916  1
  Al  Al14  1  0.672646  0.672646  0.988490  1
  Al  Al15  1  0.672646  0.988490  0.672646  1
  Al  Al16  1  0.988490  0.672646  0.672646  1
  Al  Al17  1  0.669760  0.669760  0.669760  1
  Al  Al18  1  0.328445  0.328445  0.017854  1
  Al  Al19  1  0.328445  0.017854  0.328445  1
  Al  Al20  1  0.017854  0.328445  0.328445  1
  Al  Al21  1  0.328331  0.328331  0.328331  1
  Os  Os22  1  0.000288  0.000288  0.000288  1
  Os  Os23  1  0.998286  0.998286  0.494407  1
  Os  Os24  1  0.503093  0.996016  0.503093  1
  Os  Os25  1  0.996016  0.503093  0.503093  1
  Os  Os26  1  0.503093  0.503093  0.996016  1
  Os  Os27  1  0.998286  0.494407  0.998286  1
  Os  Os28  1  0.494407  0.998286  0.998286  1
