# generated using pymatgen
data_Nd16MgAg3Pt3Rh
_symmetry_space_group_name_H-M   'P 1'
_cell_length_a   9.92294634
_cell_length_b   9.96800519
_cell_length_c   9.96776984
_cell_angle_alpha   60.24669491
_cell_angle_beta   60.09242171
_cell_angle_gamma   60.09307999
_symmetry_Int_Tables_number   1
_chemical_formula_structural   Nd16MgAg3Pt3Rh
_chemical_formula_sum   'Nd16 Mg1 Ag3 Pt3 Rh1'
_cell_volume   699.43081912
_cell_formula_units_Z   1
loop_
 _symmetry_equiv_pos_site_id
 _symmetry_equiv_pos_as_xyz
  1  'x, y, z'
loop_
 _atom_site_type_symbol
 _atom_site_label
 _atom_site_symmetry_multiplicity
 _atom_site_fract_x
 _atom_site_fract_y
 _atom_site_fract_z
 _atom_site_occupancy
  Nd  Nd0  1  0.603234  0.597437  0.597439  1
  Nd  Nd1  1  0.604887  0.599260  0.196866  1
  Nd  Nd2  1  0.604890  0.196870  0.599261  1
  Nd  Nd3  1  0.180097  0.607300  0.607318  1
  Nd  Nd4  1  0.056738  0.440457  0.440458  1
  Nd  Nd5  1  0.438125  0.060375  0.060380  1
  Nd  Nd6  1  0.437281  0.062054  0.440020  1
  Nd  Nd7  1  0.055138  0.440567  0.062440  1
  Nd  Nd8  1  0.437283  0.440019  0.062056  1
  Nd  Nd9  1  0.055139  0.062426  0.440583  1
  Nd  Nd10  1  0.185666  0.814236  0.814248  1
  Nd  Nd11  1  0.813992  0.185750  0.185758  1
  Nd  Nd12  1  0.813858  0.187045  0.814859  1
  Nd  Nd13  1  0.186343  0.813066  0.186182  1
  Nd  Nd14  1  0.813858  0.814846  0.187050  1
  Nd  Nd15  1  0.186343  0.186171  0.813072  1
  Mg  Mg16  1  0.541311  0.819145  0.819086  1
  Ag  Ag17  1  0.831370  0.835379  0.835386  1
  Ag  Ag18  1  0.830706  0.835693  0.498893  1
  Ag  Ag19  1  0.830704  0.498889  0.835691  1
  Pt  Pt20  1  0.390375  0.395891  0.395902  1
  Pt  Pt21  1  0.390245  0.394881  0.819420  1
  Pt  Pt22  1  0.390239  0.819414  0.394891  1
  Rh  Rh23  1  0.822175  0.392827  0.392739  1
