# generated using pymatgen
data_CeY3(CdNi2)2
_symmetry_space_group_name_H-M   'P 1'
_cell_length_a   7.43940500
_cell_length_b   7.43940558
_cell_length_c   3.66325000
_cell_angle_alpha   90.00000000
_cell_angle_beta   90.00000000
_cell_angle_gamma   91.75347128
_symmetry_Int_Tables_number   1
_chemical_formula_structural   CeY3(CdNi2)2
_chemical_formula_sum   'Ce1 Y3 Cd2 Ni4'
_cell_volume   202.64672343
_cell_formula_units_Z   1
loop_
 _symmetry_equiv_pos_site_id
 _symmetry_equiv_pos_as_xyz
  1  'x, y, z'
loop_
 _atom_site_type_symbol
 _atom_site_label
 _atom_site_symmetry_multiplicity
 _atom_site_fract_x
 _atom_site_fract_y
 _atom_site_fract_z
 _atom_site_occupancy
  Ce  Ce0  1  0.673690  0.173690  0.500000  1
  Y  Y1  1  0.324980  0.824980  0.500000  1
  Y  Y2  1  0.174226  0.327738  0.500000  1
  Y  Y3  1  0.827738  0.674226  0.500000  1
  Cd  Cd4  1  0.497683  0.505382  0.000000  1
  Cd  Cd5  1  0.005382  0.997683  0.000000  1
  Ni  Ni6  1  0.114596  0.614596  0.000000  1
  Ni  Ni7  1  0.867697  0.367697  0.000000  1
  Ni  Ni8  1  0.624436  0.889569  0.000000  1
  Ni  Ni9  1  0.389569  0.124436  0.000000  1
