# generated using pymatgen
data_Sc8Ta5Ti4Ge16Mo3
_symmetry_space_group_name_H-M   'P 1'
_cell_length_a   6.79438455
_cell_length_b   6.96118421
_cell_length_c   13.20750515
_cell_angle_alpha   90.00838962
_cell_angle_beta   90.01525670
_cell_angle_gamma   89.99210750
_symmetry_Int_Tables_number   1
_chemical_formula_structural   Sc8Ta5Ti4Ge16Mo3
_chemical_formula_sum   'Sc8 Ta5 Ti4 Ge16 Mo3'
_cell_volume   624.67484062
_cell_formula_units_Z   1
loop_
 _symmetry_equiv_pos_site_id
 _symmetry_equiv_pos_as_xyz
  1  'x, y, z'
loop_
 _atom_site_type_symbol
 _atom_site_label
 _atom_site_symmetry_multiplicity
 _atom_site_fract_x
 _atom_site_fract_y
 _atom_site_fract_z
 _atom_site_occupancy
  Sc  Sc0  1  0.494984  0.677633  0.593196  1
  Sc  Sc1  1  0.994555  0.822962  0.906272  1
  Sc  Sc2  1  0.505712  0.323116  0.093791  1
  Sc  Sc3  1  0.006223  0.177373  0.406488  1
  Sc  Sc4  1  0.509077  0.324849  0.407255  1
  Sc  Sc5  1  0.009324  0.175537  0.092931  1
  Sc  Sc6  1  0.491471  0.675173  0.907443  1
  Sc  Sc7  1  0.991853  0.825173  0.592883  1
  Ta  Ta8  1  0.657889  0.167807  0.626764  1
  Ta  Ta9  1  0.159341  0.331503  0.874159  1
  Ta  Ta10  1  0.341042  0.832772  0.127115  1
  Ta  Ta11  1  0.840832  0.666739  0.372696  1
  Ta  Ta12  1  0.834641  0.488022  0.750216  1
  Ti  Ti13  1  0.338521  0.831590  0.373434  1
  Ti  Ti14  1  0.837254  0.668515  0.126674  1
  Ti  Ti15  1  0.660595  0.168639  0.874093  1
  Ti  Ti16  1  0.163756  0.330230  0.625317  1
  Ge  Ge17  1  0.679786  0.963193  0.458217  1
  Ge  Ge18  1  0.179239  0.536820  0.042069  1
  Ge  Ge19  1  0.320445  0.035871  0.958488  1
  Ge  Ge20  1  0.820675  0.464054  0.540956  1
  Ge  Ge21  1  0.316144  0.036274  0.539499  1
  Ge  Ge22  1  0.815904  0.463723  0.960982  1
  Ge  Ge23  1  0.683973  0.963547  0.040071  1
  Ge  Ge24  1  0.184221  0.536708  0.459524  1
  Ge  Ge25  1  0.459243  0.386343  0.750980  1
  Ge  Ge26  1  0.964036  0.112852  0.749255  1
  Ge  Ge27  1  0.536154  0.612071  0.250869  1
  Ge  Ge28  1  0.036738  0.887166  0.249162  1
  Ge  Ge29  1  0.692539  0.852522  0.751589  1
  Ge  Ge30  1  0.194537  0.650986  0.748363  1
  Ge  Ge31  1  0.307359  0.149862  0.251664  1
  Ge  Ge32  1  0.807254  0.349281  0.248406  1
  Mo  Mo33  1  0.336477  0.011744  0.749445  1
  Mo  Mo34  1  0.163958  0.512529  0.250333  1
  Mo  Mo35  1  0.664247  0.986825  0.249404  1
