# generated using pymatgen
data_Yb(ErCu6)2
_symmetry_space_group_name_H-M   'P 1'
_cell_length_a   4.94153117
_cell_length_b   4.92626349
_cell_length_c   10.64730609
_cell_angle_alpha   85.06270237
_cell_angle_beta   80.11921308
_cell_angle_gamma   59.89742916
_symmetry_Int_Tables_number   1
_chemical_formula_structural   Yb(ErCu6)2
_chemical_formula_sum   'Yb1 Er2 Cu12'
_cell_volume   220.90704531
_cell_formula_units_Z   1
loop_
 _symmetry_equiv_pos_site_id
 _symmetry_equiv_pos_as_xyz
  1  'x, y, z'
loop_
 _atom_site_type_symbol
 _atom_site_label
 _atom_site_symmetry_multiplicity
 _atom_site_fract_x
 _atom_site_fract_y
 _atom_site_fract_z
 _atom_site_occupancy
  Yb  Yb0  1  0.000000  0.000000  0.000000  1
  Er  Er1  1  0.864778  0.000000  0.359764  1
  Er  Er2  1  0.135222  0.000000  0.640236  1
  Cu  Cu3  1  0.338216  0.323568  0.000000  1
  Cu  Cu4  1  0.661784  0.676432  0.000000  1
  Cu  Cu5  1  0.429863  0.000000  0.202440  1
  Cu  Cu6  1  0.570137  0.000000  0.797560  1
  Cu  Cu7  1  0.931703  0.499392  0.195790  1
  Cu  Cu8  1  0.431095  0.500608  0.195790  1
  Cu  Cu9  1  0.068297  0.500608  0.804210  1
  Cu  Cu10  1  0.568905  0.499392  0.804210  1
  Cu  Cu11  1  0.188669  0.334511  0.406313  1
  Cu  Cu12  1  0.523180  0.665489  0.406313  1
  Cu  Cu13  1  0.811331  0.665489  0.593687  1
  Cu  Cu14  1  0.476820  0.334511  0.593687  1
