# generated using pymatgen
data_Pa4Tc3NiSn2
_symmetry_space_group_name_H-M   'P 1'
_cell_length_a   7.57867803
_cell_length_b   7.57867803
_cell_length_c   3.64041100
_cell_angle_alpha   90.00000000
_cell_angle_beta   90.00000000
_cell_angle_gamma   91.13695613
_symmetry_Int_Tables_number   1
_chemical_formula_structural   Pa4Tc3NiSn2
_chemical_formula_sum   'Pa4 Tc3 Ni1 Sn2'
_cell_volume   209.05079347
_cell_formula_units_Z   1
loop_
 _symmetry_equiv_pos_site_id
 _symmetry_equiv_pos_as_xyz
  1  'x, y, z'
loop_
 _atom_site_type_symbol
 _atom_site_label
 _atom_site_symmetry_multiplicity
 _atom_site_fract_x
 _atom_site_fract_y
 _atom_site_fract_z
 _atom_site_occupancy
  Pa  Pa0  1  0.678004  0.160143  0.500000  1
  Pa  Pa1  1  0.339857  0.821996  0.500000  1
  Pa  Pa2  1  0.832796  0.667204  0.500000  1
  Pa  Pa3  1  0.167484  0.332516  0.500000  1
  Tc  Tc4  1  0.613693  0.886307  0.000000  1
  Tc  Tc5  1  0.139932  0.641601  0.000000  1
  Tc  Tc6  1  0.858399  0.360068  0.000000  1
  Ni  Ni7  1  0.357928  0.142072  0.000000  1
  Sn  Sn8  1  0.501108  0.489202  0.000000  1
  Sn  Sn9  1  0.010798  0.998892  0.000000  1
