# generated using pymatgen
data_Tb11Tm(ThSn2)8
_symmetry_space_group_name_H-M   'P 1'
_cell_length_a   8.14664109
_cell_length_b   8.27151209
_cell_length_c   15.63028100
_cell_angle_alpha   90.00000000
_cell_angle_beta   90.00000000
_cell_angle_gamma   89.98312297
_symmetry_Int_Tables_number   1
_chemical_formula_structural   Tb11Tm(ThSn2)8
_chemical_formula_sum   'Tb11 Tm1 Th8 Sn16'
_cell_volume   1053.24706866
_cell_formula_units_Z   1
loop_
 _symmetry_equiv_pos_site_id
 _symmetry_equiv_pos_as_xyz
  1  'x, y, z'
loop_
 _atom_site_type_symbol
 _atom_site_label
 _atom_site_symmetry_multiplicity
 _atom_site_fract_x
 _atom_site_fract_y
 _atom_site_fract_z
 _atom_site_occupancy
  Tb  Tb0  1  0.361513  0.837140  0.876600  1
  Tb  Tb1  1  0.861485  0.662913  0.623536  1
  Tb  Tb2  1  0.638304  0.162714  0.376319  1
  Tb  Tb3  1  0.138795  0.337031  0.123649  1
  Tb  Tb4  1  0.638304  0.162714  0.123681  1
  Tb  Tb5  1  0.138795  0.337031  0.376351  1
  Tb  Tb6  1  0.361513  0.837140  0.623400  1
  Tb  Tb7  1  0.861485  0.662913  0.876464  1
  Tb  Tb8  1  0.191168  0.497212  0.750000  1
  Tb  Tb9  1  0.691269  0.002840  0.750000  1
  Tb  Tb10  1  0.808781  0.502827  0.250000  1
  Tm  Tm11  1  0.308364  0.997458  0.250000  1
  Th  Th12  1  0.518385  0.321026  0.903711  1
  Th  Th13  1  0.018292  0.178816  0.596312  1
  Th  Th14  1  0.481570  0.678785  0.403691  1
  Th  Th15  1  0.981581  0.821357  0.096369  1
  Th  Th16  1  0.481570  0.678785  0.096309  1
  Th  Th17  1  0.981581  0.821357  0.403631  1
  Th  Th18  1  0.518385  0.321026  0.596289  1
  Th  Th19  1  0.018292  0.178816  0.903688  1
  Sn  Sn20  1  0.298160  0.038830  0.042888  1
  Sn  Sn21  1  0.798171  0.460968  0.457697  1
  Sn  Sn22  1  0.701896  0.960849  0.542145  1
  Sn  Sn23  1  0.201850  0.539101  0.957882  1
  Sn  Sn24  1  0.701896  0.960849  0.957855  1
  Sn  Sn25  1  0.201850  0.539101  0.542118  1
  Sn  Sn26  1  0.298160  0.038830  0.457112  1
  Sn  Sn27  1  0.798171  0.460968  0.042303  1
  Sn  Sn28  1  0.557899  0.620153  0.750000  1
  Sn  Sn29  1  0.057998  0.879830  0.750000  1
  Sn  Sn30  1  0.441973  0.378878  0.250000  1
  Sn  Sn31  1  0.943744  0.119736  0.250000  1
  Sn  Sn32  1  0.324676  0.143390  0.750000  1
  Sn  Sn33  1  0.824733  0.356514  0.750000  1
  Sn  Sn34  1  0.673668  0.856753  0.250000  1
  Sn  Sn35  1  0.175721  0.645353  0.250000  1
