# generated using pymatgen
data_TbTh3PdPt11
_symmetry_space_group_name_H-M   'P 1'
_cell_length_a   5.94841675
_cell_length_b   5.94841733
_cell_length_c   9.79427436
_cell_angle_alpha   90.02686759
_cell_angle_beta   89.97313367
_cell_angle_gamma   120.08380115
_symmetry_Int_Tables_number   1
_chemical_formula_structural   TbTh3PdPt11
_chemical_formula_sum   'Tb1 Th3 Pd1 Pt11'
_cell_volume   299.87364473
_cell_formula_units_Z   1
loop_
 _symmetry_equiv_pos_site_id
 _symmetry_equiv_pos_as_xyz
  1  'x, y, z'
loop_
 _atom_site_type_symbol
 _atom_site_label
 _atom_site_symmetry_multiplicity
 _atom_site_fract_x
 _atom_site_fract_y
 _atom_site_fract_z
 _atom_site_occupancy
  Tb  Tb0  1  0.999761  0.000239  0.499669  1
  Th  Th1  1  0.999897  0.000103  0.000048  1
  Th  Th2  1  0.333172  0.666828  0.253130  1
  Th  Th3  1  0.667214  0.332786  0.746788  1
  Pd  Pd4  1  0.174325  0.825675  0.749305  1
  Pt  Pt5  1  0.499967  0.500033  0.500889  1
  Pt  Pt6  1  0.500153  0.000040  0.500439  1
  Pt  Pt7  1  0.999960  0.499847  0.500439  1
  Pt  Pt8  1  0.499992  0.500008  0.999235  1
  Pt  Pt9  1  0.500053  0.000142  0.999551  1
  Pt  Pt10  1  0.999858  0.499947  0.999551  1
  Pt  Pt11  1  0.825056  0.650067  0.250931  1
  Pt  Pt12  1  0.349933  0.174944  0.250931  1
  Pt  Pt13  1  0.826155  0.173845  0.250884  1
  Pt  Pt14  1  0.175149  0.350646  0.749105  1
  Pt  Pt15  1  0.649354  0.824851  0.749105  1
