# generated using pymatgen
data_Ho3Tm2Th3(MgRu)2
_symmetry_space_group_name_H-M   'P 1'
_cell_length_a   9.70613088
_cell_length_b   9.77304154
_cell_length_c   9.77304173
_cell_angle_alpha   59.54754462
_cell_angle_beta   60.22622754
_cell_angle_gamma   60.22622198
_symmetry_Int_Tables_number   1
_chemical_formula_structural   Ho3Tm2Th3(MgRu)2
_chemical_formula_sum   'Ho6 Tm4 Th6 Mg4 Ru4'
_cell_volume   655.46602051
_cell_formula_units_Z   2
loop_
 _symmetry_equiv_pos_site_id
 _symmetry_equiv_pos_as_xyz
  1  'x, y, z'
loop_
 _atom_site_type_symbol
 _atom_site_label
 _atom_site_symmetry_multiplicity
 _atom_site_fract_x
 _atom_site_fract_y
 _atom_site_fract_z
 _atom_site_occupancy
  Ho  Ho0  1  0.933626  0.566374  0.566374  1
  Ho  Ho1  1  0.566374  0.933626  0.933626  1
  Ho  Ho2  1  0.563787  0.936213  0.563787  1
  Ho  Ho3  1  0.936213  0.563787  0.936213  1
  Ho  Ho4  1  0.563787  0.563787  0.936213  1
  Ho  Ho5  1  0.936213  0.936213  0.563787  1
  Tm  Tm6  1  0.189034  0.810966  0.189034  1
  Tm  Tm7  1  0.810966  0.189034  0.810966  1
  Tm  Tm8  1  0.189034  0.189034  0.810966  1
  Tm  Tm9  1  0.810966  0.810966  0.189034  1
  Th  Th10  1  0.342668  0.349229  0.349229  1
  Th  Th11  1  0.349229  0.342668  0.958873  1
  Th  Th12  1  0.349229  0.958873  0.342668  1
  Th  Th13  1  0.958873  0.349229  0.349229  1
  Th  Th14  1  0.816800  0.183200  0.183200  1
  Th  Th15  1  0.183200  0.816800  0.816800  1
  Mg  Mg16  1  0.582467  0.579198  0.579198  1
  Mg  Mg17  1  0.579198  0.582467  0.259137  1
  Mg  Mg18  1  0.579198  0.259137  0.582467  1
  Mg  Mg19  1  0.259137  0.579198  0.579198  1
  Ru  Ru20  1  0.129495  0.147573  0.147573  1
  Ru  Ru21  1  0.147573  0.129495  0.575358  1
  Ru  Ru22  1  0.147573  0.575358  0.129495  1
  Ru  Ru23  1  0.575358  0.147573  0.147573  1
