# generated using pymatgen
data_TbEr3(Tm2Co)4
_symmetry_space_group_name_H-M   'P 1'
_cell_length_a   6.14520000
_cell_length_b   6.88591597
_cell_length_c   9.26130300
_cell_angle_alpha   90.00000000
_cell_angle_beta   90.00000000
_cell_angle_gamma   89.95859167
_symmetry_Int_Tables_number   1
_chemical_formula_structural   TbEr3(Tm2Co)4
_chemical_formula_sum   'Tb1 Er3 Tm8 Co4'
_cell_volume   391.89499792
_cell_formula_units_Z   1
loop_
 _symmetry_equiv_pos_site_id
 _symmetry_equiv_pos_as_xyz
  1  'x, y, z'
loop_
 _atom_site_type_symbol
 _atom_site_label
 _atom_site_symmetry_multiplicity
 _atom_site_fract_x
 _atom_site_fract_y
 _atom_site_fract_z
 _atom_site_occupancy
  Tb  Tb0  1  0.362160  0.958451  0.750000  1
  Er  Er1  1  0.860478  0.541532  0.250000  1
  Er  Er2  1  0.638930  0.041924  0.250000  1
  Er  Er3  1  0.138295  0.458750  0.750000  1
  Tm  Tm4  1  0.323506  0.675221  0.067835  1
  Tm  Tm5  1  0.176096  0.176560  0.432088  1
  Tm  Tm6  1  0.676490  0.324434  0.567312  1
  Tm  Tm7  1  0.824550  0.823699  0.933219  1
  Tm  Tm8  1  0.676490  0.324434  0.932688  1
  Tm  Tm9  1  0.824550  0.823699  0.566781  1
  Tm  Tm10  1  0.323506  0.675221  0.432165  1
  Tm  Tm11  1  0.176096  0.176560  0.067912  1
  Co  Co12  1  0.047650  0.887266  0.250000  1
  Co  Co13  1  0.451962  0.387195  0.250000  1
  Co  Co14  1  0.950111  0.113174  0.750000  1
  Co  Co15  1  0.549125  0.611879  0.750000  1
