# generated using pymatgen
data_Lu20Co5I24
_symmetry_space_group_name_H-M   'P 1'
_cell_length_a   11.62035058
_cell_length_b   12.39376058
_cell_length_c   13.95279600
_cell_angle_alpha   99.77306873
_cell_angle_beta   107.72511009
_cell_angle_gamma   109.10491659
_symmetry_Int_Tables_number   1
_chemical_formula_structural   Lu20Co5I24
_chemical_formula_sum   'Lu20 Co5 I24'
_cell_volume   1725.74659923
_cell_formula_units_Z   1
loop_
 _symmetry_equiv_pos_site_id
 _symmetry_equiv_pos_as_xyz
  1  'x, y, z'
loop_
 _atom_site_type_symbol
 _atom_site_label
 _atom_site_symmetry_multiplicity
 _atom_site_fract_x
 _atom_site_fract_y
 _atom_site_fract_z
 _atom_site_occupancy
  Lu  Lu0  1  0.495206  0.024475  0.704248  1
  Lu  Lu1  1  0.504794  0.975525  0.295752  1
  Lu  Lu2  1  0.733206  0.999726  0.641163  1
  Lu  Lu3  1  0.266794  0.000274  0.358837  1
  Lu  Lu4  1  0.813840  0.167591  0.897710  1
  Lu  Lu5  1  0.186160  0.832409  0.102290  1
  Lu  Lu6  1  0.482733  0.218468  0.576936  1
  Lu  Lu7  1  0.517267  0.781532  0.423064  1
  Lu  Lu8  1  0.720366  0.194482  0.514083  1
  Lu  Lu9  1  0.279634  0.805518  0.485917  1
  Lu  Lu10  1  0.797872  0.447508  0.716207  1
  Lu  Lu11  1  0.202128  0.552492  0.283793  1
  Lu  Lu12  1  0.975441  0.290116  0.761421  1
  Lu  Lu13  1  0.024559  0.709884  0.238579  1
  Lu  Lu14  1  0.635960  0.325350  0.851485  1
  Lu  Lu15  1  0.364040  0.674650  0.148515  1
  Lu  Lu16  1  0.115439  0.587544  0.904092  1
  Lu  Lu17  1  0.884561  0.412456  0.095908  1
  Lu  Lu18  1  0.873984  0.612101  0.969130  1
  Lu  Lu19  1  0.126016  0.387899  0.030870  1
  Co  Co20  1  0.500000  0.000000  0.500000  1
  Co  Co21  1  0.710634  0.212858  0.712204  1
  Co  Co22  1  0.289366  0.787142  0.287796  1
  Co  Co23  1  0.904399  0.406004  0.904874  1
  Co  Co24  1  0.095601  0.593996  0.095126  1
  I  I25  1  0.259584  0.821198  0.698548  1
  I  I26  1  0.740416  0.178802  0.301452  1
  I  I27  1  0.764493  0.770037  0.567489  1
  I  I28  1  0.235507  0.229963  0.432511  1
  I  I29  1  0.661438  0.893587  0.813565  1
  I  I30  1  0.338562  0.106413  0.186435  1
  I  I31  1  0.336185  0.179326  0.727815  1
  I  I32  1  0.663815  0.820674  0.272185  1
  I  I33  1  0.952426  0.117743  0.564624  1
  I  I34  1  0.047574  0.882257  0.435376  1
  I  I35  1  0.630322  0.399735  0.481969  1
  I  I36  1  0.369678  0.600265  0.518031  1
  I  I37  1  0.054351  0.121298  0.881086  1
  I  I38  1  0.945649  0.878702  0.118914  1
  I  I39  1  0.605541  0.164239  0.992454  1
  I  I40  1  0.394459  0.835761  0.007546  1
  I  I41  1  0.004870  0.236179  0.155443  1
  I  I42  1  0.995130  0.763821  0.844557  1
  I  I43  1  0.308228  0.466872  0.912626  1
  I  I44  1  0.691772  0.533128  0.087374  1
  I  I45  1  0.029773  0.479321  0.647272  1
  I  I46  1  0.970227  0.520679  0.352728  1
  I  I47  1  0.596643  0.531784  0.769598  1
  I  I48  1  0.403357  0.468216  0.230402  1
