# generated using pymatgen
data_Yb7Eu(Si3Pd)4
_symmetry_space_group_name_H-M   'P 1'
_cell_length_a   8.25369200
_cell_length_b   8.25369068
_cell_length_c   8.31731100
_cell_angle_alpha   90.00000000
_cell_angle_beta   90.00000000
_cell_angle_gamma   119.99999728
_symmetry_Int_Tables_number   1
_chemical_formula_structural   Yb7Eu(Si3Pd)4
_chemical_formula_sum   'Yb7 Eu1 Si12 Pd4'
_cell_volume   490.69319132
_cell_formula_units_Z   1
loop_
 _symmetry_equiv_pos_site_id
 _symmetry_equiv_pos_as_xyz
  1  'x, y, z'
loop_
 _atom_site_type_symbol
 _atom_site_label
 _atom_site_symmetry_multiplicity
 _atom_site_fract_x
 _atom_site_fract_y
 _atom_site_fract_z
 _atom_site_occupancy
  Yb  Yb0  1  0.500935  0.001870  0.250000  1
  Yb  Yb1  1  0.499067  0.998133  0.750000  1
  Yb  Yb2  1  0.998130  0.499065  0.250000  1
  Yb  Yb3  1  0.001867  0.500933  0.750000  1
  Yb  Yb4  1  0.500935  0.499065  0.250000  1
  Yb  Yb5  1  0.499067  0.500933  0.750000  1
  Yb  Yb6  1  0.000000  0.000000  0.250000  1
  Eu  Eu7  1  0.000000  0.000000  0.750000  1
  Si  Si8  1  0.164448  0.328895  0.001357  1
  Si  Si9  1  0.835487  0.670975  0.000132  1
  Si  Si10  1  0.671105  0.835552  0.001357  1
  Si  Si11  1  0.835487  0.670975  0.499868  1
  Si  Si12  1  0.329025  0.164513  0.000132  1
  Si  Si13  1  0.164448  0.328895  0.498643  1
  Si  Si14  1  0.164448  0.835552  0.001357  1
  Si  Si15  1  0.329025  0.164513  0.499868  1
  Si  Si16  1  0.835487  0.164513  0.000132  1
  Si  Si17  1  0.671105  0.835552  0.498643  1
  Si  Si18  1  0.835487  0.164513  0.499868  1
  Si  Si19  1  0.164448  0.835552  0.498643  1
  Pd  Pd20  1  0.333333  0.666667  0.002035  1
  Pd  Pd21  1  0.666667  0.333333  0.998516  1
  Pd  Pd22  1  0.666667  0.333333  0.501484  1
  Pd  Pd23  1  0.333333  0.666667  0.497965  1
