# generated using pymatgen
data_EuHoEr2(ZnSn)4
_symmetry_space_group_name_H-M   'P 1'
_cell_length_a   4.52936700
_cell_length_b   4.52936822
_cell_length_c   15.96479300
_cell_angle_alpha   90.00000000
_cell_angle_beta   90.00000000
_cell_angle_gamma   119.99999843
_symmetry_Int_Tables_number   1
_chemical_formula_structural   EuHoEr2(ZnSn)4
_chemical_formula_sum   'Eu1 Ho1 Er2 Zn4 Sn4'
_cell_volume   283.64104069
_cell_formula_units_Z   1
loop_
 _symmetry_equiv_pos_site_id
 _symmetry_equiv_pos_as_xyz
  1  'x, y, z'
loop_
 _atom_site_type_symbol
 _atom_site_label
 _atom_site_symmetry_multiplicity
 _atom_site_fract_x
 _atom_site_fract_y
 _atom_site_fract_z
 _atom_site_occupancy
  Eu  Eu0  1  0.000000  0.000000  0.000000  1
  Ho  Ho1  1  0.000000  0.000000  0.500000  1
  Er  Er2  1  0.000000  0.000000  0.257841  1
  Er  Er3  1  0.000000  0.000000  0.742159  1
  Zn  Zn4  1  0.333333  0.666667  0.171724  1
  Zn  Zn5  1  0.666667  0.333333  0.828276  1
  Zn  Zn6  1  0.666667  0.333333  0.657228  1
  Zn  Zn7  1  0.333333  0.666667  0.342772  1
  Sn  Sn8  1  0.333333  0.666667  0.607875  1
  Sn  Sn9  1  0.666667  0.333333  0.392125  1
  Sn  Sn10  1  0.666667  0.333333  0.125567  1
  Sn  Sn11  1  0.333333  0.666667  0.874433  1
