# generated using pymatgen
data_CdBi2RuO7
_symmetry_space_group_name_H-M   'P 1'
_cell_length_a   6.52934835
_cell_length_b   6.52934784
_cell_length_c   7.44216200
_cell_angle_alpha   90.00000000
_cell_angle_beta   90.00000000
_cell_angle_gamma   106.30311882
_symmetry_Int_Tables_number   1
_chemical_formula_structural   CdBi2RuO7
_chemical_formula_sum   'Cd2 Bi4 Ru2 O14'
_cell_volume   304.51941802
_cell_formula_units_Z   2
loop_
 _symmetry_equiv_pos_site_id
 _symmetry_equiv_pos_as_xyz
  1  'x, y, z'
loop_
 _atom_site_type_symbol
 _atom_site_label
 _atom_site_symmetry_multiplicity
 _atom_site_fract_x
 _atom_site_fract_y
 _atom_site_fract_z
 _atom_site_occupancy
  Cd  Cd0  1  0.000000  0.000000  0.500000  1
  Cd  Cd1  1  0.000000  0.000000  0.000000  1
  Bi  Bi2  1  0.501841  0.959809  0.750000  1
  Bi  Bi3  1  0.498159  0.040191  0.250000  1
  Bi  Bi4  1  0.959809  0.501841  0.750000  1
  Bi  Bi5  1  0.040191  0.498159  0.250000  1
  Ru  Ru6  1  0.500000  0.500000  0.500000  1
  Ru  Ru7  1  0.500000  0.500000  0.000000  1
  O  O8  1  0.571422  0.571422  0.750000  1
  O  O9  1  0.428578  0.428578  0.250000  1
  O  O10  1  0.854690  0.130876  0.750000  1
  O  O11  1  0.145310  0.869124  0.250000  1
  O  O12  1  0.130876  0.854690  0.750000  1
  O  O13  1  0.869124  0.145310  0.250000  1
  O  O14  1  0.453913  0.191467  0.966584  1
  O  O15  1  0.546087  0.808533  0.466584  1
  O  O16  1  0.191467  0.453913  0.966584  1
  O  O17  1  0.808533  0.546087  0.466584  1
  O  O18  1  0.453913  0.191467  0.533416  1
  O  O19  1  0.546087  0.808533  0.033416  1
  O  O20  1  0.808533  0.546087  0.033416  1
  O  O21  1  0.191467  0.453913  0.533416  1
