# generated using pymatgen
data_Rb4Na2DyHoAs4
_symmetry_space_group_name_H-M   'P 1'
_cell_length_a   9.44994571
_cell_length_b   9.44994594
_cell_length_c   9.44994436
_cell_angle_alpha   135.23420489
_cell_angle_beta   135.23980024
_cell_angle_gamma   65.16216975
_symmetry_Int_Tables_number   1
_chemical_formula_structural   Rb4Na2DyHoAs4
_chemical_formula_sum   'Rb4 Na2 Dy1 Ho1 As4'
_cell_volume   412.39604399
_cell_formula_units_Z   1
loop_
 _symmetry_equiv_pos_site_id
 _symmetry_equiv_pos_as_xyz
  1  'x, y, z'
loop_
 _atom_site_type_symbol
 _atom_site_label
 _atom_site_symmetry_multiplicity
 _atom_site_fract_x
 _atom_site_fract_y
 _atom_site_fract_z
 _atom_site_occupancy
  Rb  Rb0  1  0.682292  0.395159  0.712700  1
  Rb  Rb1  1  0.817708  0.030408  0.212868  1
  Rb  Rb2  1  0.182459  0.969592  0.787300  1
  Rb  Rb3  1  0.317541  0.604841  0.287132  1
  Na  Na4  1  0.750000  0.000000  0.750000  1
  Na  Na5  1  0.250000  0.000000  0.250000  1
  Dy  Dy6  1  0.750000  0.500000  0.250000  1
  Ho  Ho7  1  0.250000  0.500000  0.750000  1
  As  As8  1  0.404660  0.182721  0.776621  1
  As  As9  1  0.593901  0.817279  0.221939  1
  As  As10  1  0.095340  0.371962  0.278061  1
  As  As11  1  0.906099  0.628038  0.723379  1
