# generated using pymatgen
data_Tb2HoPa(Co5P3)4
_symmetry_space_group_name_H-M   'P 1'
_cell_length_a   3.66826700
_cell_length_b   10.30881406
_cell_length_c   11.72432309
_cell_angle_alpha   89.98679008
_cell_angle_beta   90.00000000
_cell_angle_gamma   90.00000000
_symmetry_Int_Tables_number   1
_chemical_formula_structural   Tb2HoPa(Co5P3)4
_chemical_formula_sum   'Tb2 Ho1 Pa1 Co20 P12'
_cell_volume   443.36092193
_cell_formula_units_Z   1
loop_
 _symmetry_equiv_pos_site_id
 _symmetry_equiv_pos_as_xyz
  1  'x, y, z'
loop_
 _atom_site_type_symbol
 _atom_site_label
 _atom_site_symmetry_multiplicity
 _atom_site_fract_x
 _atom_site_fract_y
 _atom_site_fract_z
 _atom_site_occupancy
  Tb  Tb0  1  0.750000  0.416802  0.298882  1
  Tb  Tb1  1  0.750000  0.083028  0.797269  1
  Ho  Ho2  1  0.250000  0.916663  0.201614  1
  Pa  Pa3  1  0.250000  0.582674  0.702970  1
  Co  Co4  1  0.250000  0.716439  0.989813  1
  Co  Co5  1  0.250000  0.782217  0.491680  1
  Co  Co6  1  0.750000  0.282629  0.005939  1
  Co  Co7  1  0.750000  0.216137  0.506087  1
  Co  Co8  1  0.250000  0.408130  0.489315  1
  Co  Co9  1  0.250000  0.092316  0.988782  1
  Co  Co10  1  0.750000  0.593225  0.517613  1
  Co  Co11  1  0.750000  0.905658  0.011684  1
  Co  Co12  1  0.250000  0.221267  0.176158  1
  Co  Co13  1  0.250000  0.278568  0.677367  1
  Co  Co14  1  0.750000  0.776832  0.822063  1
  Co  Co15  1  0.750000  0.721104  0.324528  1
  Co  Co16  1  0.250000  0.882492  0.698040  1
  Co  Co17  1  0.250000  0.617952  0.198671  1
  Co  Co18  1  0.750000  0.115802  0.300098  1
  Co  Co19  1  0.750000  0.387974  0.800295  1
  Co  Co20  1  0.250000  0.467994  0.931567  1
  Co  Co21  1  0.250000  0.031264  0.430711  1
  Co  Co22  1  0.750000  0.531121  0.069948  1
  Co  Co23  1  0.750000  0.970227  0.567145  1
  P  P24  1  0.250000  0.418440  0.113265  1
  P  P25  1  0.250000  0.082049  0.611443  1
  P  P26  1  0.750000  0.583405  0.892056  1
  P  P27  1  0.750000  0.918618  0.386726  1
  P  P28  1  0.250000  0.270553  0.871187  1
  P  P29  1  0.250000  0.227750  0.369179  1
  P  P30  1  0.750000  0.728952  0.130437  1
  P  P31  1  0.750000  0.776223  0.629091  1
  P  P32  1  0.250000  0.602507  0.390754  1
  P  P33  1  0.250000  0.898707  0.891523  1
  P  P34  1  0.750000  0.393127  0.607961  1
  P  P35  1  0.750000  0.101155  0.108138  1
