# generated using pymatgen
data_Yb2FeP6BrN12
_symmetry_space_group_name_H-M   'P 1'
_cell_length_a   7.41322191
_cell_length_b   7.40852885
_cell_length_c   7.41322024
_cell_angle_alpha   109.49167402
_cell_angle_beta   109.97496201
_cell_angle_gamma   109.49164148
_symmetry_Int_Tables_number   1
_chemical_formula_structural   Yb2FeP6BrN12
_chemical_formula_sum   'Yb2 Fe1 P6 Br1 N12'
_cell_volume   311.28811824
_cell_formula_units_Z   1
loop_
 _symmetry_equiv_pos_site_id
 _symmetry_equiv_pos_as_xyz
  1  'x, y, z'
loop_
 _atom_site_type_symbol
 _atom_site_label
 _atom_site_symmetry_multiplicity
 _atom_site_fract_x
 _atom_site_fract_y
 _atom_site_fract_z
 _atom_site_occupancy
  Yb  Yb0  1  0.009744  0.003115  0.349896  1
  Yb  Yb1  1  0.349896  0.003115  0.009744  1
  Fe  Fe2  1  0.009144  0.416478  0.009144  1
  P  P3  1  0.505062  0.251562  0.754146  1
  P  P4  1  0.263538  0.743413  0.504242  1
  P  P5  1  0.747316  0.493887  0.252071  1
  P  P6  1  0.754146  0.251562  0.505062  1
  P  P7  1  0.504242  0.743413  0.263538  1
  P  P8  1  0.252071  0.493887  0.747316  1
  Br  Br9  1  0.965856  0.043341  0.965856  1
  N  N10  1  0.411546  0.679896  0.411546  1
  N  N11  1  0.701793  0.402597  0.408267  1
  N  N12  1  0.408267  0.402597  0.701793  1
  N  N13  1  0.732576  0.306226  0.732576  1
  N  N14  1  0.002285  0.580563  0.280066  1
  N  N15  1  0.280066  0.580563  0.002285  1
  N  N16  1  0.304561  0.994127  0.580250  1
  N  N17  1  0.000040  0.283756  0.584545  1
  N  N18  1  0.710602  0.704007  0.282451  1
  N  N19  1  0.580250  0.994127  0.304561  1
  N  N20  1  0.282451  0.704007  0.710602  1
  N  N21  1  0.584545  0.283756  0.000040  1
