# generated using pymatgen
data_La3Cd2HgIrPd2
_symmetry_space_group_name_H-M   'P 1'
_cell_length_a   7.81136623
_cell_length_b   7.81350101
_cell_length_c   4.08038200
_cell_angle_alpha   90.00000000
_cell_angle_beta   90.00000000
_cell_angle_gamma   119.58358929
_symmetry_Int_Tables_number   1
_chemical_formula_structural   La3Cd2HgIrPd2
_chemical_formula_sum   'La3 Cd2 Hg1 Ir1 Pd2'
_cell_volume   216.57642957
_cell_formula_units_Z   1
loop_
 _symmetry_equiv_pos_site_id
 _symmetry_equiv_pos_as_xyz
  1  'x, y, z'
loop_
 _atom_site_type_symbol
 _atom_site_label
 _atom_site_symmetry_multiplicity
 _atom_site_fract_x
 _atom_site_fract_y
 _atom_site_fract_z
 _atom_site_occupancy
  La  La0  1  0.420757  0.406193  0.500000  1
  La  La1  1  0.598308  0.014032  0.500000  1
  La  La2  1  0.983468  0.582629  0.500000  1
  Cd  Cd3  1  0.248124  0.996969  0.000000  1
  Cd  Cd4  1  0.005389  0.252552  0.000000  1
  Hg  Hg5  1  0.744524  0.750223  0.000000  1
  Ir  Ir6  1  0.665337  0.325954  0.000000  1
  Pd  Pd7  1  0.327350  0.665035  0.000000  1
  Pd  Pd8  1  0.006743  0.006413  0.500000  1
