# generated using pymatgen
data_La2SmTh(AlRh)4
_symmetry_space_group_name_H-M   'P 1'
_cell_length_a   4.24313500
_cell_length_b   7.25694101
_cell_length_c   16.23566848
_cell_angle_alpha   91.22905829
_cell_angle_beta   90.00000000
_cell_angle_gamma   90.00000000
_symmetry_Int_Tables_number   1
_chemical_formula_structural   La2SmTh(AlRh)4
_chemical_formula_sum   'La4 Sm2 Th2 Al8 Rh8'
_cell_volume   499.81661510
_cell_formula_units_Z   2
loop_
 _symmetry_equiv_pos_site_id
 _symmetry_equiv_pos_as_xyz
  1  'x, y, z'
loop_
 _atom_site_type_symbol
 _atom_site_label
 _atom_site_symmetry_multiplicity
 _atom_site_fract_x
 _atom_site_fract_y
 _atom_site_fract_z
 _atom_site_occupancy
  La  La0  1  0.250000  0.655160  0.560758  1
  La  La1  1  0.750000  0.344840  0.439242  1
  La  La2  1  0.750000  0.843440  0.060771  1
  La  La3  1  0.250000  0.156560  0.939229  1
  Sm  Sm4  1  0.250000  0.523612  0.780499  1
  Sm  Sm5  1  0.750000  0.476388  0.219501  1
  Th  Th6  1  0.750000  0.978393  0.278932  1
  Th  Th7  1  0.250000  0.021607  0.721068  1
  Al  Al8  1  0.250000  0.649048  0.347214  1
  Al  Al9  1  0.750000  0.350952  0.652786  1
  Al  Al10  1  0.750000  0.841281  0.851011  1
  Al  Al11  1  0.250000  0.158719  0.148989  1
  Al  Al12  1  0.250000  0.505790  0.063145  1
  Al  Al13  1  0.750000  0.494210  0.936855  1
  Al  Al14  1  0.750000  0.996502  0.559758  1
  Al  Al15  1  0.250000  0.003498  0.440242  1
  Rh  Rh16  1  0.250000  0.781883  0.187281  1
  Rh  Rh17  1  0.750000  0.218117  0.812719  1
  Rh  Rh18  1  0.750000  0.751322  0.682251  1
  Rh  Rh19  1  0.250000  0.248678  0.317749  1
  Rh  Rh20  1  0.250000  0.712299  0.929892  1
  Rh  Rh21  1  0.750000  0.287701  0.070108  1
  Rh  Rh22  1  0.750000  0.781347  0.423403  1
  Rh  Rh23  1  0.250000  0.218653  0.576597  1
