# generated using pymatgen
data_Rb2MnCu3F10
_symmetry_space_group_name_H-M   'P 1'
_cell_length_a   6.65527034
_cell_length_b   6.72403086
_cell_length_c   7.18894688
_cell_angle_alpha   63.58726854
_cell_angle_beta   63.54376865
_cell_angle_gamma   67.73753916
_symmetry_Int_Tables_number   1
_chemical_formula_structural   Rb2MnCu3F10
_chemical_formula_sum   'Rb2 Mn1 Cu3 F10'
_cell_volume   251.31759193
_cell_formula_units_Z   1
loop_
 _symmetry_equiv_pos_site_id
 _symmetry_equiv_pos_as_xyz
  1  'x, y, z'
loop_
 _atom_site_type_symbol
 _atom_site_label
 _atom_site_symmetry_multiplicity
 _atom_site_fract_x
 _atom_site_fract_y
 _atom_site_fract_z
 _atom_site_occupancy
  Rb  Rb0  1  0.621010  0.611416  0.637345  1
  Rb  Rb1  1  0.378990  0.388584  0.362655  1
  Mn  Mn2  1  0.000000  0.000000  0.500000  1
  Cu  Cu3  1  0.000000  0.000000  0.000000  1
  Cu  Cu4  1  0.000000  0.500000  0.000000  1
  Cu  Cu5  1  0.500000  0.000000  0.000000  1
  F  F6  1  0.271490  0.268045  0.927621  1
  F  F7  1  0.728510  0.731955  0.072379  1
  F  F8  1  0.086297  0.101640  0.686518  1
  F  F9  1  0.913703  0.898360  0.313482  1
  F  F10  1  0.059622  0.646591  0.690543  1
  F  F11  1  0.352341  0.951346  0.307005  1
  F  F12  1  0.940378  0.353409  0.309457  1
  F  F13  1  0.647659  0.048654  0.692995  1
  F  F14  1  0.767964  0.274598  0.004754  1
  F  F15  1  0.232036  0.725402  0.995246  1
