# generated using pymatgen
data_Tb5Y7Ru4
_symmetry_space_group_name_H-M   'P 1'
_cell_length_a   6.36377856
_cell_length_b   7.31702656
_cell_length_c   9.27391423
_cell_angle_alpha   89.98789713
_cell_angle_beta   89.97758371
_cell_angle_gamma   90.04296588
_symmetry_Int_Tables_number   1
_chemical_formula_structural   Tb5Y7Ru4
_chemical_formula_sum   'Tb5 Y7 Ru4'
_cell_volume   431.82979176
_cell_formula_units_Z   1
loop_
 _symmetry_equiv_pos_site_id
 _symmetry_equiv_pos_as_xyz
  1  'x, y, z'
loop_
 _atom_site_type_symbol
 _atom_site_label
 _atom_site_symmetry_multiplicity
 _atom_site_fract_x
 _atom_site_fract_y
 _atom_site_fract_z
 _atom_site_occupancy
  Tb  Tb0  1  0.172150  0.175782  0.065834  1
  Tb  Tb1  1  0.862726  0.541956  0.250065  1
  Tb  Tb2  1  0.637027  0.041630  0.250174  1
  Tb  Tb3  1  0.136878  0.458001  0.750144  1
  Tb  Tb4  1  0.363281  0.957759  0.750099  1
  Y  Y5  1  0.328603  0.675990  0.065499  1
  Y  Y6  1  0.171850  0.175770  0.434979  1
  Y  Y7  1  0.671566  0.324223  0.565501  1
  Y  Y8  1  0.828450  0.823843  0.934415  1
  Y  Y9  1  0.671299  0.323973  0.934518  1
  Y  Y10  1  0.828230  0.824184  0.565523  1
  Y  Y11  1  0.328350  0.675977  0.434679  1
  Ru  Ru12  1  0.037583  0.885157  0.248976  1
  Ru  Ru13  1  0.462158  0.383619  0.249370  1
  Ru  Ru14  1  0.963122  0.116003  0.750081  1
  Ru  Ru15  1  0.536728  0.616132  0.750142  1
