# generated using pymatgen
data_CeNdHgRh2
_symmetry_space_group_name_H-M   'P 1'
_cell_length_a   7.74070370
_cell_length_b   7.74070321
_cell_length_c   3.73397300
_cell_angle_alpha   90.00000000
_cell_angle_beta   90.00000000
_cell_angle_gamma   93.77962447
_symmetry_Int_Tables_number   1
_chemical_formula_structural   CeNdHgRh2
_chemical_formula_sum   'Ce2 Nd2 Hg2 Rh4'
_cell_volume   223.24739646
_cell_formula_units_Z   2
loop_
 _symmetry_equiv_pos_site_id
 _symmetry_equiv_pos_as_xyz
  1  'x, y, z'
loop_
 _atom_site_type_symbol
 _atom_site_label
 _atom_site_symmetry_multiplicity
 _atom_site_fract_x
 _atom_site_fract_y
 _atom_site_fract_z
 _atom_site_occupancy
  Ce  Ce0  1  0.668342  0.168342  0.500000  1
  Ce  Ce1  1  0.331658  0.831658  0.500000  1
  Nd  Nd2  1  0.168617  0.331383  0.500000  1
  Nd  Nd3  1  0.831383  0.668617  0.500000  1
  Hg  Hg4  1  0.000000  0.000000  0.000000  1
  Hg  Hg5  1  0.500000  0.500000  0.000000  1
  Rh  Rh6  1  0.145406  0.645406  0.000000  1
  Rh  Rh7  1  0.854594  0.354594  0.000000  1
  Rh  Rh8  1  0.626391  0.873609  0.000000  1
  Rh  Rh9  1  0.373609  0.126391  0.000000  1
