# generated using pymatgen
data_Tb17Ho2LuPb16
_symmetry_space_group_name_H-M   'P 1'
_cell_length_a   8.22235200
_cell_length_b   8.31320780
_cell_length_c   15.71152800
_cell_angle_alpha   90.00000000
_cell_angle_beta   90.00000000
_cell_angle_gamma   89.92149163
_symmetry_Int_Tables_number   1
_chemical_formula_structural   Tb17Ho2LuPb16
_chemical_formula_sum   'Tb17 Ho2 Lu1 Pb16'
_cell_volume   1073.94667491
_cell_formula_units_Z   1
loop_
 _symmetry_equiv_pos_site_id
 _symmetry_equiv_pos_as_xyz
  1  'x, y, z'
loop_
 _atom_site_type_symbol
 _atom_site_label
 _atom_site_symmetry_multiplicity
 _atom_site_fract_x
 _atom_site_fract_y
 _atom_site_fract_z
 _atom_site_occupancy
  Tb  Tb0  1  0.376633  0.841591  0.878955  1
  Tb  Tb1  1  0.876531  0.658364  0.620628  1
  Tb  Tb2  1  0.623957  0.158897  0.379722  1
  Tb  Tb3  1  0.122757  0.341894  0.120337  1
  Tb  Tb4  1  0.623957  0.158897  0.120278  1
  Tb  Tb5  1  0.122757  0.341894  0.379663  1
  Tb  Tb6  1  0.376633  0.841591  0.621045  1
  Tb  Tb7  1  0.876531  0.658364  0.879372  1
  Tb  Tb8  1  0.534088  0.323436  0.900095  1
  Tb  Tb9  1  0.034131  0.176561  0.600255  1
  Tb  Tb10  1  0.466383  0.676019  0.400281  1
  Tb  Tb11  1  0.965641  0.822927  0.099684  1
  Tb  Tb12  1  0.466383  0.676019  0.099719  1
  Tb  Tb13  1  0.965641  0.822927  0.400316  1
  Tb  Tb14  1  0.534088  0.323436  0.599905  1
  Tb  Tb15  1  0.034131  0.176561  0.899745  1
  Tb  Tb16  1  0.291381  0.003702  0.250000  1
  Ho  Ho17  1  0.208638  0.503959  0.750000  1
  Ho  Ho18  1  0.708689  0.995781  0.750000  1
  Lu  Lu19  1  0.790896  0.495677  0.250000  1
  Pb  Pb20  1  0.281436  0.033619  0.042572  1
  Pb  Pb21  1  0.781584  0.466911  0.456421  1
  Pb  Pb22  1  0.718468  0.966896  0.543845  1
  Pb  Pb23  1  0.218626  0.533378  0.956145  1
  Pb  Pb24  1  0.718468  0.966896  0.956155  1
  Pb  Pb25  1  0.218626  0.533378  0.543855  1
  Pb  Pb26  1  0.281436  0.033619  0.457428  1
  Pb  Pb27  1  0.781584  0.466911  0.043579  1
  Pb  Pb28  1  0.572242  0.625848  0.750000  1
  Pb  Pb29  1  0.072087  0.873791  0.750000  1
  Pb  Pb30  1  0.428733  0.375285  0.250000  1
  Pb  Pb31  1  0.926478  0.126943  0.250000  1
  Pb  Pb32  1  0.346433  0.154118  0.750000  1
  Pb  Pb33  1  0.845911  0.346690  0.750000  1
  Pb  Pb34  1  0.654491  0.845190  0.250000  1
  Pb  Pb35  1  0.153558  0.652025  0.250000  1
