# generated using pymatgen
data_Tb3Ho(Al3Ir)6
_symmetry_space_group_name_H-M   'P 1'
_cell_length_a   7.55966824
_cell_length_b   7.56117384
_cell_length_c   9.49068700
_cell_angle_alpha   90.00000000
_cell_angle_beta   90.00000000
_cell_angle_gamma   119.46209765
_symmetry_Int_Tables_number   1
_chemical_formula_structural   Tb3Ho(Al3Ir)6
_chemical_formula_sum   'Tb3 Ho1 Al18 Ir6'
_cell_volume   472.33356065
_cell_formula_units_Z   1
loop_
 _symmetry_equiv_pos_site_id
 _symmetry_equiv_pos_as_xyz
  1  'x, y, z'
loop_
 _atom_site_type_symbol
 _atom_site_label
 _atom_site_symmetry_multiplicity
 _atom_site_fract_x
 _atom_site_fract_y
 _atom_site_fract_z
 _atom_site_occupancy
  Tb  Tb0  1  0.994520  0.671360  0.250000  1
  Tb  Tb1  1  0.005626  0.328596  0.750000  1
  Tb  Tb2  1  0.671347  0.994446  0.250000  1
  Ho  Ho3  1  0.328517  0.005614  0.750000  1
  Al  Al4  1  0.129865  0.129685  0.250000  1
  Al  Al5  1  0.870762  0.870413  0.750000  1
  Al  Al6  1  0.001246  0.335297  0.073650  1
  Al  Al7  1  0.999131  0.665028  0.925794  1
  Al  Al8  1  0.999131  0.665028  0.574206  1
  Al  Al9  1  0.335295  0.001202  0.426892  1
  Al  Al10  1  0.001246  0.335297  0.426350  1
  Al  Al11  1  0.664260  0.998801  0.574268  1
  Al  Al12  1  0.664260  0.998801  0.925732  1
  Al  Al13  1  0.335295  0.001202  0.073108  1
  Al  Al14  1  0.333474  0.333175  0.550972  1
  Al  Al15  1  0.666555  0.666533  0.449982  1
  Al  Al16  1  0.666555  0.666533  0.050018  1
  Al  Al17  1  0.333474  0.333175  0.949028  1
  Al  Al18  1  0.339628  0.548030  0.250000  1
  Al  Al19  1  0.659819  0.451382  0.750000  1
  Al  Al20  1  0.547902  0.339394  0.250000  1
  Al  Al21  1  0.451907  0.660955  0.750000  1
  Ir  Ir22  1  0.671742  0.327871  0.999701  1
  Ir  Ir23  1  0.328018  0.671998  0.999748  1
  Ir  Ir24  1  0.328018  0.671998  0.500252  1
  Ir  Ir25  1  0.671742  0.327871  0.500299  1
  Ir  Ir26  1  0.000333  0.000159  0.999665  1
  Ir  Ir27  1  0.000333  0.000159  0.500335  1
