# generated using pymatgen
data_Er4Pa(In2Ir)2
_symmetry_space_group_name_H-M   'P 1'
_cell_length_a   3.63416000
_cell_length_b   7.98494088
_cell_length_c   18.21681683
_cell_angle_alpha   90.46896957
_cell_angle_beta   90.00000000
_cell_angle_gamma   90.00000000
_symmetry_Int_Tables_number   1
_chemical_formula_structural   Er4Pa(In2Ir)2
_chemical_formula_sum   'Er8 Pa2 In8 Ir4'
_cell_volume   528.60795243
_cell_formula_units_Z   2
loop_
 _symmetry_equiv_pos_site_id
 _symmetry_equiv_pos_as_xyz
  1  'x, y, z'
loop_
 _atom_site_type_symbol
 _atom_site_label
 _atom_site_symmetry_multiplicity
 _atom_site_fract_x
 _atom_site_fract_y
 _atom_site_fract_z
 _atom_site_occupancy
  Er  Er0  1  0.000000  0.500000  0.500000  1
  Er  Er1  1  0.000000  0.000000  0.000000  1
  Er  Er2  1  0.000000  0.748242  0.778424  1
  Er  Er3  1  0.000000  0.251758  0.221576  1
  Er  Er4  1  0.000000  0.619026  0.085707  1
  Er  Er5  1  0.000000  0.380974  0.914293  1
  Er  Er6  1  0.000000  0.881125  0.586389  1
  Er  Er7  1  0.000000  0.118875  0.413611  1
  Pa  Pa8  1  0.000000  0.755175  0.275316  1
  Pa  Pa9  1  0.000000  0.244825  0.724684  1
  In  In10  1  0.500000  0.704265  0.932505  1
  In  In11  1  0.500000  0.295735  0.067495  1
  In  In12  1  0.500000  0.795884  0.436385  1
  In  In13  1  0.500000  0.204116  0.563615  1
  In  In14  1  0.500000  0.573465  0.648178  1
  In  In15  1  0.500000  0.426535  0.351822  1
  In  In16  1  0.500000  0.937764  0.144363  1
  In  In17  1  0.500000  0.062236  0.855637  1
  Ir  Ir18  1  0.500000  0.551985  0.202861  1
  Ir  Ir19  1  0.500000  0.448015  0.797139  1
  Ir  Ir20  1  0.500000  0.995008  0.696378  1
  Ir  Ir21  1  0.500000  0.004992  0.303622  1
