# generated using pymatgen
data_Zr13TaSn2(Ir2N)4
_symmetry_space_group_name_H-M   'P 1'
_cell_length_a   8.79396845
_cell_length_b   8.78365177
_cell_length_c   8.79396799
_cell_angle_alpha   59.73028150
_cell_angle_beta   59.78540427
_cell_angle_gamma   59.73027602
_symmetry_Int_Tables_number   1
_chemical_formula_structural   Zr13TaSn2(Ir2N)4
_chemical_formula_sum   'Zr13 Ta1 Sn2 Ir8 N4'
_cell_volume   477.57738302
_cell_formula_units_Z   1
loop_
 _symmetry_equiv_pos_site_id
 _symmetry_equiv_pos_as_xyz
  1  'x, y, z'
loop_
 _atom_site_type_symbol
 _atom_site_label
 _atom_site_symmetry_multiplicity
 _atom_site_fract_x
 _atom_site_fract_y
 _atom_site_fract_z
 _atom_site_occupancy
  Zr  Zr0  1  0.625000  0.125000  0.625000  1
  Zr  Zr1  1  0.812924  0.814616  0.185737  1
  Zr  Zr2  1  0.183922  0.186831  0.813268  1
  Zr  Zr3  1  0.813313  0.187933  0.813313  1
  Zr  Zr4  1  0.184808  0.815238  0.184808  1
  Zr  Zr5  1  0.185737  0.814616  0.812924  1
  Zr  Zr6  1  0.813268  0.186831  0.183922  1
  Zr  Zr7  1  0.437076  0.435384  0.064263  1
  Zr  Zr8  1  0.066078  0.063169  0.436732  1
  Zr  Zr9  1  0.436687  0.062067  0.436687  1
  Zr  Zr10  1  0.065192  0.434762  0.065192  1
  Zr  Zr11  1  0.064263  0.435384  0.437076  1
  Zr  Zr12  1  0.436732  0.063169  0.066078  1
  Ta  Ta13  1  0.625000  0.625000  0.625000  1
  Sn  Sn14  1  0.125000  0.625000  0.625000  1
  Sn  Sn15  1  0.625000  0.625000  0.125000  1
  Ir  Ir16  1  0.764973  0.414532  0.418764  1
  Ir  Ir17  1  0.420308  0.765322  0.420308  1
  Ir  Ir18  1  0.418764  0.414532  0.764973  1
  Ir  Ir19  1  0.413462  0.399970  0.413462  1
  Ir  Ir20  1  0.485027  0.835468  0.831236  1
  Ir  Ir21  1  0.829692  0.484678  0.829692  1
  Ir  Ir22  1  0.831236  0.835468  0.485027  1
  Ir  Ir23  1  0.836538  0.850030  0.836538  1
  N  N24  1  0.625000  0.125000  0.125000  1
  N  N25  1  0.125000  0.625000  0.125000  1
  N  N26  1  0.125000  0.125000  0.625000  1
  N  N27  1  0.125000  0.125000  0.125000  1
