# generated using pymatgen
data_Ta3Co2OsN
_symmetry_space_group_name_H-M   'P 1'
_cell_length_a   8.07301692
_cell_length_b   8.07301685
_cell_length_c   8.07301700
_cell_angle_alpha   60.00000350
_cell_angle_beta   60.00000376
_cell_angle_gamma   60.00000461
_symmetry_Int_Tables_number   1
_chemical_formula_structural   Ta3Co2OsN
_chemical_formula_sum   'Ta12 Co8 Os4 N4'
_cell_volume   372.04256491
_cell_formula_units_Z   4
loop_
 _symmetry_equiv_pos_site_id
 _symmetry_equiv_pos_as_xyz
  1  'x, y, z'
loop_
 _atom_site_type_symbol
 _atom_site_label
 _atom_site_symmetry_multiplicity
 _atom_site_fract_x
 _atom_site_fract_y
 _atom_site_fract_z
 _atom_site_occupancy
  Ta  Ta0  1  0.805813  0.805813  0.194187  1
  Ta  Ta1  1  0.194187  0.194187  0.805813  1
  Ta  Ta2  1  0.805813  0.194187  0.805813  1
  Ta  Ta3  1  0.194187  0.805813  0.194187  1
  Ta  Ta4  1  0.194187  0.805813  0.805813  1
  Ta  Ta5  1  0.805813  0.194187  0.194187  1
  Ta  Ta6  1  0.444187  0.444187  0.055813  1
  Ta  Ta7  1  0.055813  0.055813  0.444187  1
  Ta  Ta8  1  0.444187  0.055813  0.444187  1
  Ta  Ta9  1  0.055813  0.444187  0.055813  1
  Ta  Ta10  1  0.055813  0.444187  0.444187  1
  Ta  Ta11  1  0.444187  0.055813  0.055813  1
  Co  Co12  1  0.743211  0.418930  0.418930  1
  Co  Co13  1  0.418930  0.743211  0.418930  1
  Co  Co14  1  0.418930  0.418930  0.743211  1
  Co  Co15  1  0.418930  0.418930  0.418930  1
  Co  Co16  1  0.506789  0.831070  0.831070  1
  Co  Co17  1  0.831070  0.506789  0.831070  1
  Co  Co18  1  0.831070  0.831070  0.506789  1
  Co  Co19  1  0.831070  0.831070  0.831070  1
  Os  Os20  1  0.125000  0.625000  0.625000  1
  Os  Os21  1  0.625000  0.125000  0.625000  1
  Os  Os22  1  0.625000  0.625000  0.125000  1
  Os  Os23  1  0.625000  0.625000  0.625000  1
  N  N24  1  0.625000  0.125000  0.125000  1
  N  N25  1  0.125000  0.625000  0.125000  1
  N  N26  1  0.125000  0.125000  0.625000  1
  N  N27  1  0.125000  0.125000  0.125000  1
