# generated using pymatgen
data_SrGd3Al16(SiIr3)2
_symmetry_space_group_name_H-M   'P 1'
_cell_length_a   7.54970500
_cell_length_b   7.55354855
_cell_length_c   9.38001500
_cell_angle_alpha   90.00000000
_cell_angle_beta   90.00000000
_cell_angle_gamma   119.60430206
_symmetry_Int_Tables_number   1
_chemical_formula_structural   SrGd3Al16(SiIr3)2
_chemical_formula_sum   'Sr1 Gd3 Al16 Si2 Ir6'
_cell_volume   465.08578678
_cell_formula_units_Z   1
loop_
 _symmetry_equiv_pos_site_id
 _symmetry_equiv_pos_as_xyz
  1  'x, y, z'
loop_
 _atom_site_type_symbol
 _atom_site_label
 _atom_site_symmetry_multiplicity
 _atom_site_fract_x
 _atom_site_fract_y
 _atom_site_fract_z
 _atom_site_occupancy
  Sr  Sr0  1  0.993565  0.674359  0.750000  1
  Gd  Gd1  1  0.004122  0.324826  0.250000  1
  Gd  Gd2  1  0.675960  0.995546  0.750000  1
  Gd  Gd3  1  0.323480  0.002854  0.250000  1
  Al  Al4  1  0.002450  0.336188  0.574636  1
  Al  Al5  1  0.998065  0.662884  0.421397  1
  Al  Al6  1  0.998065  0.662884  0.078603  1
  Al  Al7  1  0.337264  0.002190  0.925144  1
  Al  Al8  1  0.002450  0.336188  0.925364  1
  Al  Al9  1  0.663204  0.998674  0.077804  1
  Al  Al10  1  0.663204  0.998674  0.422196  1
  Al  Al11  1  0.337264  0.002190  0.574856  1
  Al  Al12  1  0.335714  0.335438  0.055017  1
  Al  Al13  1  0.663566  0.664297  0.949463  1
  Al  Al14  1  0.663566  0.664297  0.550537  1
  Al  Al15  1  0.335714  0.335438  0.444983  1
  Al  Al16  1  0.340596  0.548880  0.750000  1
  Al  Al17  1  0.663143  0.450597  0.250000  1
  Al  Al18  1  0.544331  0.331872  0.750000  1
  Al  Al19  1  0.452035  0.663847  0.250000  1
  Si  Si20  1  0.130334  0.134559  0.750000  1
  Si  Si21  1  0.871320  0.871641  0.250000  1
  Ir  Ir22  1  0.670010  0.327298  0.498417  1
  Ir  Ir23  1  0.329646  0.671289  0.498187  1
  Ir  Ir24  1  0.329646  0.671289  0.001813  1
  Ir  Ir25  1  0.670010  0.327298  0.001583  1
  Ir  Ir26  1  0.000637  0.002254  0.497526  1
  Ir  Ir27  1  0.000637  0.002254  0.002474  1
