# generated using pymatgen
data_Dy2B4OsRu3
_symmetry_space_group_name_H-M   'P 1'
_cell_length_a   6.61779203
_cell_length_b   5.91119203
_cell_length_c   5.57496980
_cell_angle_alpha   70.29118936
_cell_angle_beta   57.23536417
_cell_angle_gamma   52.51091010
_symmetry_Int_Tables_number   1
_chemical_formula_structural   Dy2B4OsRu3
_chemical_formula_sum   'Dy2 B4 Os1 Ru3'
_cell_volume   145.50414907
_cell_formula_units_Z   1
loop_
 _symmetry_equiv_pos_site_id
 _symmetry_equiv_pos_as_xyz
  1  'x, y, z'
loop_
 _atom_site_type_symbol
 _atom_site_label
 _atom_site_symmetry_multiplicity
 _atom_site_fract_x
 _atom_site_fract_y
 _atom_site_fract_z
 _atom_site_occupancy
  Dy  Dy0  1  0.001004  0.001004  0.998996  1
  Dy  Dy1  1  0.248000  0.248000  0.252000  1
  B  B2  1  0.691956  0.308288  0.689836  1
  B  B3  1  0.308288  0.691956  0.309920  1
  B  B4  1  0.938910  0.562794  0.938680  1
  B  B5  1  0.562794  0.938910  0.559616  1
  Os  Os6  1  0.887886  0.887886  0.612114  1
  Ru  Ru7  1  0.610281  0.610281  0.889719  1
  Ru  Ru8  1  0.639179  0.639179  0.360821  1
  Ru  Ru9  1  0.361702  0.361702  0.638298  1
