# generated using pymatgen
data_Tb2Y2Ga18Ir5Pt
_symmetry_space_group_name_H-M   'P 1'
_cell_length_a   7.61164056
_cell_length_b   7.61163337
_cell_length_c   9.50391100
_cell_angle_alpha   89.97831013
_cell_angle_beta   89.97807738
_cell_angle_gamma   119.93642165
_symmetry_Int_Tables_number   1
_chemical_formula_structural   Tb2Y2Ga18Ir5Pt
_chemical_formula_sum   'Tb2 Y2 Ga18 Ir5 Pt1'
_cell_volume   477.16312878
_cell_formula_units_Z   1
loop_
 _symmetry_equiv_pos_site_id
 _symmetry_equiv_pos_as_xyz
  1  'x, y, z'
loop_
 _atom_site_type_symbol
 _atom_site_label
 _atom_site_symmetry_multiplicity
 _atom_site_fract_x
 _atom_site_fract_y
 _atom_site_fract_z
 _atom_site_occupancy
  Tb  Tb0  1  0.996098  0.668448  0.250875  1
  Tb  Tb1  1  0.003366  0.331232  0.749176  1
  Y  Y2  1  0.668771  0.996637  0.250825  1
  Y  Y3  1  0.331550  0.003901  0.749125  1
  Ga  Ga4  1  0.127878  0.127026  0.250430  1
  Ga  Ga5  1  0.872971  0.872126  0.749570  1
  Ga  Ga6  1  0.002212  0.334182  0.081635  1
  Ga  Ga7  1  0.004154  0.668877  0.918538  1
  Ga  Ga8  1  0.001515  0.665830  0.579607  1
  Ga  Ga9  1  0.334179  0.998487  0.420394  1
  Ga  Ga10  1  0.998716  0.333950  0.419967  1
  Ga  Ga11  1  0.666040  0.001280  0.580030  1
  Ga  Ga12  1  0.665808  0.997784  0.918367  1
  Ga  Ga13  1  0.331132  0.995849  0.081459  1
  Ga  Ga14  1  0.331988  0.332048  0.564033  1
  Ga  Ga15  1  0.667948  0.668017  0.435967  1
  Ga  Ga16  1  0.667396  0.670484  0.066692  1
  Ga  Ga17  1  0.329520  0.332600  0.933309  1
  Ga  Ga18  1  0.340241  0.547097  0.250614  1
  Ga  Ga19  1  0.660137  0.455500  0.747601  1
  Ga  Ga20  1  0.544504  0.339873  0.252399  1
  Ga  Ga21  1  0.452900  0.659749  0.749385  1
  Ir  Ir22  1  0.329049  0.670953  0.000002  1
  Ir  Ir23  1  0.328631  0.671368  0.499998  1
  Ir  Ir24  1  0.671761  0.328240  0.500002  1
  Ir  Ir25  1  0.000178  0.999822  0.000000  1
  Ir  Ir26  1  0.999980  0.000019  0.500000  1
  Pt  Pt27  1  0.671376  0.328623  0.999998  1
