# generated using pymatgen
data_Tb7Th(Si3Pd)4
_symmetry_space_group_name_H-M   'P 1'
_cell_length_a   8.19229100
_cell_length_b   8.18381162
_cell_length_c   8.21025800
_cell_angle_alpha   90.00000000
_cell_angle_beta   90.00000000
_cell_angle_gamma   120.03428440
_symmetry_Int_Tables_number   1
_chemical_formula_structural   Tb7Th(Si3Pd)4
_chemical_formula_sum   'Tb7 Th1 Si12 Pd4'
_cell_volume   476.53882607
_cell_formula_units_Z   1
loop_
 _symmetry_equiv_pos_site_id
 _symmetry_equiv_pos_as_xyz
  1  'x, y, z'
loop_
 _atom_site_type_symbol
 _atom_site_label
 _atom_site_symmetry_multiplicity
 _atom_site_fract_x
 _atom_site_fract_y
 _atom_site_fract_z
 _atom_site_occupancy
  Tb  Tb0  1  0.499468  0.998938  0.750000  1
  Tb  Tb1  1  0.998983  0.499551  0.250000  1
  Tb  Tb2  1  0.001300  0.500607  0.750000  1
  Tb  Tb3  1  0.500569  0.499551  0.250000  1
  Tb  Tb4  1  0.499305  0.500607  0.750000  1
  Tb  Tb5  1  0.999940  0.999879  0.250000  1
  Tb  Tb6  1  0.999971  0.999942  0.750000  1
  Th  Th7  1  0.500303  0.000605  0.250000  1
  Si  Si8  1  0.165962  0.331924  0.000958  1
  Si  Si9  1  0.834010  0.668021  0.999850  1
  Si  Si10  1  0.669817  0.834177  0.998622  1
  Si  Si11  1  0.834010  0.668021  0.500150  1
  Si  Si12  1  0.330396  0.165938  0.997188  1
  Si  Si13  1  0.165962  0.331924  0.499042  1
  Si  Si14  1  0.164359  0.834177  0.998622  1
  Si  Si15  1  0.330396  0.165938  0.502812  1
  Si  Si16  1  0.835542  0.165938  0.997188  1
  Si  Si17  1  0.669817  0.834177  0.501378  1
  Si  Si18  1  0.835542  0.165938  0.502812  1
  Si  Si19  1  0.164359  0.834177  0.501378  1
  Pd  Pd20  1  0.333311  0.666623  0.997982  1
  Pd  Pd21  1  0.666681  0.333362  0.995928  1
  Pd  Pd22  1  0.666681  0.333362  0.504072  1
  Pd  Pd23  1  0.333311  0.666623  0.502018  1
