# generated using pymatgen
data_Cs3Rb17Si3GeP12
_symmetry_space_group_name_H-M   'P 1'
_cell_length_a   5.46359300
_cell_length_b   14.93032066
_cell_length_c   15.79485530
_cell_angle_alpha   89.95971399
_cell_angle_beta   90.00000000
_cell_angle_gamma   90.00000000
_symmetry_Int_Tables_number   1
_chemical_formula_structural   Cs3Rb17Si3GeP12
_chemical_formula_sum   'Cs3 Rb17 Si3 Ge1 P12'
_cell_volume   1288.43649986
_cell_formula_units_Z   1
loop_
 _symmetry_equiv_pos_site_id
 _symmetry_equiv_pos_as_xyz
  1  'x, y, z'
loop_
 _atom_site_type_symbol
 _atom_site_label
 _atom_site_symmetry_multiplicity
 _atom_site_fract_x
 _atom_site_fract_y
 _atom_site_fract_z
 _atom_site_occupancy
  Cs  Cs0  1  0.250000  0.371079  0.018310  1
  Cs  Cs1  1  0.750000  0.628700  0.977741  1
  Cs  Cs2  1  0.750000  0.872924  0.480152  1
  Rb  Rb3  1  0.250000  0.120114  0.516149  1
  Rb  Rb4  1  0.750000  0.731366  0.234451  1
  Rb  Rb5  1  0.250000  0.269727  0.765099  1
  Rb  Rb6  1  0.750000  0.771882  0.733202  1
  Rb  Rb7  1  0.250000  0.228156  0.266858  1
  Rb  Rb8  1  0.750000  0.059202  0.697402  1
  Rb  Rb9  1  0.250000  0.943694  0.302002  1
  Rb  Rb10  1  0.750000  0.440598  0.198299  1
  Rb  Rb11  1  0.250000  0.556753  0.801636  1
  Rb  Rb12  1  0.750000  0.180928  0.914376  1
  Rb  Rb13  1  0.250000  0.820101  0.083852  1
  Rb  Rb14  1  0.750000  0.316342  0.416701  1
  Rb  Rb15  1  0.250000  0.682535  0.587490  1
  Rb  Rb16  1  0.750000  0.928688  0.932083  1
  Rb  Rb17  1  0.250000  0.072068  0.067854  1
  Rb  Rb18  1  0.750000  0.571203  0.434216  1
  Rb  Rb19  1  0.250000  0.427444  0.568227  1
  Si  Si20  1  0.750000  0.082221  0.218317  1
  Si  Si21  1  0.250000  0.919707  0.782334  1
  Si  Si22  1  0.750000  0.417278  0.717177  1
  Ge  Ge23  1  0.250000  0.582734  0.282865  1
  P  P24  1  0.750000  0.203656  0.137675  1
  P  P25  1  0.250000  0.796800  0.861284  1
  P  P26  1  0.750000  0.295543  0.636700  1
  P  P27  1  0.250000  0.708736  0.366812  1
  P  P28  1  0.750000  0.948902  0.157558  1
  P  P29  1  0.250000  0.052255  0.844360  1
  P  P30  1  0.750000  0.551585  0.657926  1
  P  P31  1  0.250000  0.444290  0.345044  1
  P  P32  1  0.750000  0.091718  0.358855  1
  P  P33  1  0.250000  0.911042  0.642154  1
  P  P34  1  0.750000  0.406892  0.857093  1
  P  P35  1  0.250000  0.593139  0.137748  1
