# generated using pymatgen
data_CeEu2(B3Ir4)2
_symmetry_space_group_name_H-M   'P 1'
_cell_length_a   10.00647839
_cell_length_b   9.10605864
_cell_length_c   5.74230900
_cell_angle_alpha   81.32994049
_cell_angle_beta   64.10780765
_cell_angle_gamma   34.56225293
_symmetry_Int_Tables_number   1
_chemical_formula_structural   CeEu2(B3Ir4)2
_chemical_formula_sum   'Ce1 Eu2 B6 Ir8'
_cell_volume   243.64888475
_cell_formula_units_Z   1
loop_
 _symmetry_equiv_pos_site_id
 _symmetry_equiv_pos_as_xyz
  1  'x, y, z'
loop_
 _atom_site_type_symbol
 _atom_site_label
 _atom_site_symmetry_multiplicity
 _atom_site_fract_x
 _atom_site_fract_y
 _atom_site_fract_z
 _atom_site_occupancy
  Ce  Ce0  1  0.500000  0.500000  0.500000  1
  Eu  Eu1  1  0.319822  0.319822  0.680178  1
  Eu  Eu2  1  0.680178  0.680178  0.319822  1
  B  B3  1  0.833391  0.166609  0.833391  1
  B  B4  1  0.669243  0.986011  0.013989  1
  B  B5  1  0.986011  0.669243  0.330757  1
  B  B6  1  0.013989  0.330757  0.669243  1
  B  B7  1  0.330757  0.013989  0.986011  1
  B  B8  1  0.166609  0.833391  0.166609  1
  Ir  Ir9  1  0.914940  0.914940  0.585060  1
  Ir  Ir10  1  0.085060  0.085060  0.414940  1
  Ir  Ir11  1  0.750000  0.750000  0.750000  1
  Ir  Ir12  1  0.086902  0.086902  0.913098  1
  Ir  Ir13  1  0.913098  0.913098  0.086902  1
  Ir  Ir14  1  0.414940  0.414940  0.085060  1
  Ir  Ir15  1  0.585060  0.585060  0.914940  1
  Ir  Ir16  1  0.250000  0.250000  0.250000  1
