# generated using pymatgen
data_Ho4Cd2Cu3Ni
_symmetry_space_group_name_H-M   'P 1'
_cell_length_a   7.49444746
_cell_length_b   7.49444817
_cell_length_c   3.66783100
_cell_angle_alpha   90.00000000
_cell_angle_beta   90.00000000
_cell_angle_gamma   89.34465173
_symmetry_Int_Tables_number   1
_chemical_formula_structural   Ho4Cd2Cu3Ni
_chemical_formula_sum   'Ho4 Cd2 Cu3 Ni1'
_cell_volume   205.99666392
_cell_formula_units_Z   1
loop_
 _symmetry_equiv_pos_site_id
 _symmetry_equiv_pos_as_xyz
  1  'x, y, z'
loop_
 _atom_site_type_symbol
 _atom_site_label
 _atom_site_symmetry_multiplicity
 _atom_site_fract_x
 _atom_site_fract_y
 _atom_site_fract_z
 _atom_site_occupancy
  Ho  Ho0  1  0.661954  0.177026  0.500000  1
  Ho  Ho1  1  0.322974  0.838046  0.500000  1
  Ho  Ho2  1  0.183236  0.316764  0.500000  1
  Ho  Ho3  1  0.827716  0.672284  0.500000  1
  Cd  Cd4  1  0.499308  0.503293  0.000000  1
  Cd  Cd5  1  0.996707  0.000692  0.000000  1
  Cu  Cu6  1  0.122220  0.616429  0.000000  1
  Cu  Cu7  1  0.883571  0.377780  0.000000  1
  Cu  Cu8  1  0.619788  0.880212  0.000000  1
  Ni  Ni9  1  0.382525  0.117475  0.000000  1
