# generated using pymatgen
data_Sm2FeCo2B8Os5
_symmetry_space_group_name_H-M   'P 1'
_cell_length_a   7.40339743
_cell_length_b   7.32352109
_cell_length_c   3.96131604
_cell_angle_alpha   90.01610048
_cell_angle_beta   90.23318027
_cell_angle_gamma   91.23955755
_symmetry_Int_Tables_number   1
_chemical_formula_structural   Sm2FeCo2B8Os5
_chemical_formula_sum   'Sm2 Fe1 Co2 B8 Os5'
_cell_volume   214.72629193
_cell_formula_units_Z   1
loop_
 _symmetry_equiv_pos_site_id
 _symmetry_equiv_pos_as_xyz
  1  'x, y, z'
loop_
 _atom_site_type_symbol
 _atom_site_label
 _atom_site_symmetry_multiplicity
 _atom_site_fract_x
 _atom_site_fract_y
 _atom_site_fract_z
 _atom_site_occupancy
  Sm  Sm0  1  0.998397  0.999441  0.928181  1
  Sm  Sm1  1  0.506710  0.500549  0.401133  1
  Fe  Fe2  1  0.879587  0.625136  0.623281  1
  Co  Co3  1  0.114930  0.622714  0.121233  1
  Co  Co4  1  0.870304  0.389142  0.123440  1
  B  B5  1  0.814033  0.663340  0.121279  1
  B  B6  1  0.198396  0.334956  0.120631  1
  B  B7  1  0.837637  0.316905  0.620697  1
  B  B8  1  0.153391  0.687292  0.620384  1
  B  B9  1  0.730220  0.826001  0.403266  1
  B  B10  1  0.276334  0.166579  0.398999  1
  B  B11  1  0.673993  0.228793  0.901864  1
  B  B12  1  0.323453  0.772133  0.901262  1
  Os  Os13  1  0.396723  0.151649  0.897908  1
  Os  Os14  1  0.607185  0.841548  0.897729  1
  Os  Os15  1  0.344195  0.886655  0.398134  1
  Os  Os16  1  0.657654  0.106798  0.398105  1
  Os  Os17  1  0.116860  0.380368  0.622472  1
