# generated using pymatgen
data_DyNiB2Ir
_symmetry_space_group_name_H-M   'P 1'
_cell_length_a   5.08877848
_cell_length_b   5.08877852
_cell_length_c   7.24400138
_cell_angle_alpha   58.74323463
_cell_angle_beta   58.74323108
_cell_angle_gamma   62.47518126
_symmetry_Int_Tables_number   1
_chemical_formula_structural   DyNiB2Ir
_chemical_formula_sum   'Dy2 Ni2 B4 Ir2'
_cell_volume   132.22147896
_cell_formula_units_Z   2
loop_
 _symmetry_equiv_pos_site_id
 _symmetry_equiv_pos_as_xyz
  1  'x, y, z'
loop_
 _atom_site_type_symbol
 _atom_site_label
 _atom_site_symmetry_multiplicity
 _atom_site_fract_x
 _atom_site_fract_y
 _atom_site_fract_z
 _atom_site_occupancy
  Dy  Dy0  1  0.112143  0.887857  0.250000  1
  Dy  Dy1  1  0.876163  0.123837  0.750000  1
  Ni  Ni2  1  0.530044  0.730335  0.792600  1
  Ni  Ni3  1  0.269665  0.469956  0.707400  1
  B  B4  1  0.165777  0.499061  0.006469  1
  B  B5  1  0.500939  0.834223  0.493531  1
  B  B6  1  0.842875  0.490175  0.970341  1
  B  B7  1  0.509825  0.157125  0.529659  1
  Ir  Ir8  1  0.463511  0.270942  0.197015  1
  Ir  Ir9  1  0.729058  0.536489  0.302985  1
