# generated using pymatgen
data_LaYb2TmCu2Sn5
_symmetry_space_group_name_H-M   'P 1'
_cell_length_a   4.47104600
_cell_length_b   8.83206700
_cell_length_c   14.14983000
_cell_angle_alpha   90.00000000
_cell_angle_beta   90.00000000
_cell_angle_gamma   90.00000000
_symmetry_Int_Tables_number   1
_chemical_formula_structural   LaYb2TmCu2Sn5
_chemical_formula_sum   'La2 Yb4 Tm2 Cu4 Sn10'
_cell_volume   558.75666327
_cell_formula_units_Z   2
loop_
 _symmetry_equiv_pos_site_id
 _symmetry_equiv_pos_as_xyz
  1  'x, y, z'
loop_
 _atom_site_type_symbol
 _atom_site_label
 _atom_site_symmetry_multiplicity
 _atom_site_fract_x
 _atom_site_fract_y
 _atom_site_fract_z
 _atom_site_occupancy
  La  La0  1  0.500000  0.139089  0.000000  1
  La  La1  1  0.000000  0.860911  0.500000  1
  Yb  Yb2  1  0.500000  0.789703  0.744160  1
  Yb  Yb3  1  0.000000  0.210297  0.755840  1
  Yb  Yb4  1  0.000000  0.210297  0.244160  1
  Yb  Yb5  1  0.500000  0.789703  0.255840  1
  Tm  Tm6  1  0.500000  0.692991  0.000000  1
  Tm  Tm7  1  0.000000  0.307009  0.500000  1
  Cu  Cu8  1  0.500000  0.378078  0.643626  1
  Cu  Cu9  1  0.000000  0.621922  0.856374  1
  Cu  Cu10  1  0.000000  0.621922  0.143626  1
  Cu  Cu11  1  0.500000  0.378078  0.356374  1
  Sn  Sn12  1  0.500000  0.088100  0.396154  1
  Sn  Sn13  1  0.000000  0.553994  0.663953  1
  Sn  Sn14  1  0.000000  0.415293  0.000000  1
  Sn  Sn15  1  0.500000  0.446006  0.163953  1
  Sn  Sn16  1  0.500000  0.584707  0.500000  1
  Sn  Sn17  1  0.500000  0.446006  0.836047  1
  Sn  Sn18  1  0.000000  0.911900  0.896154  1
  Sn  Sn19  1  0.000000  0.553994  0.336047  1
  Sn  Sn20  1  0.500000  0.088100  0.603846  1
  Sn  Sn21  1  0.000000  0.911900  0.103846  1
