# generated using pymatgen
data_Ho4Al18Os4PdPt
_symmetry_space_group_name_H-M   'P 1'
_cell_length_a   7.57749458
_cell_length_b   7.57749511
_cell_length_c   9.52149013
_cell_angle_alpha   89.97186497
_cell_angle_beta   89.97186631
_cell_angle_gamma   119.65176088
_symmetry_Int_Tables_number   1
_chemical_formula_structural   Ho4Al18Os4PdPt
_chemical_formula_sum   'Ho4 Al18 Os4 Pd1 Pt1'
_cell_volume   475.11632442
_cell_formula_units_Z   1
loop_
 _symmetry_equiv_pos_site_id
 _symmetry_equiv_pos_as_xyz
  1  'x, y, z'
loop_
 _atom_site_type_symbol
 _atom_site_label
 _atom_site_symmetry_multiplicity
 _atom_site_fract_x
 _atom_site_fract_y
 _atom_site_fract_z
 _atom_site_occupancy
  Ho  Ho0  1  0.997855  0.669379  0.249638  1
  Ho  Ho1  1  0.002145  0.330621  0.750362  1
  Ho  Ho2  1  0.669379  0.997855  0.249638  1
  Ho  Ho3  1  0.330621  0.002145  0.750362  1
  Al  Al4  1  0.131754  0.131754  0.249891  1
  Al  Al5  1  0.868246  0.868246  0.750109  1
  Al  Al6  1  0.002303  0.339544  0.072539  1
  Al  Al7  1  0.997697  0.660456  0.927461  1
  Al  Al8  1  0.997634  0.660235  0.572894  1
  Al  Al9  1  0.339765  0.002366  0.427106  1
  Al  Al10  1  0.002366  0.339765  0.427106  1
  Al  Al11  1  0.660235  0.997634  0.572894  1
  Al  Al12  1  0.660456  0.997697  0.927461  1
  Al  Al13  1  0.339544  0.002303  0.072539  1
  Al  Al14  1  0.339178  0.339178  0.549549  1
  Al  Al15  1  0.660822  0.660823  0.450451  1
  Al  Al16  1  0.661531  0.661532  0.049423  1
  Al  Al17  1  0.338469  0.338469  0.950577  1
  Al  Al18  1  0.336604  0.549121  0.249922  1
  Al  Al19  1  0.663396  0.450879  0.750078  1
  Al  Al20  1  0.549121  0.336604  0.249922  1
  Al  Al21  1  0.450879  0.663396  0.750078  1
  Os  Os22  1  0.672514  0.327486  0.000000  1
  Os  Os23  1  0.327486  0.672514  0.000000  1
  Os  Os24  1  0.327414  0.672586  0.500000  1
  Os  Os25  1  0.672586  0.327414  0.500000  1
  Pd  Pd26  1  0.000000  0.000000  0.500000  1
  Pt  Pt27  1  0.000000  0.000000  0.000000  1
