# generated using pymatgen
data_HoTm5Al24Ir5Os3
_symmetry_space_group_name_H-M   'P 1'
_cell_length_a   8.77112076
_cell_length_b   8.75772167
_cell_length_c   9.51407267
_cell_angle_alpha   90.02323667
_cell_angle_beta   89.79592037
_cell_angle_gamma   119.36475064
_symmetry_Int_Tables_number   1
_chemical_formula_structural   HoTm5Al24Ir5Os3
_chemical_formula_sum   'Ho1 Tm5 Al24 Ir5 Os3'
_cell_volume   636.91960739
_cell_formula_units_Z   1
loop_
 _symmetry_equiv_pos_site_id
 _symmetry_equiv_pos_as_xyz
  1  'x, y, z'
loop_
 _atom_site_type_symbol
 _atom_site_label
 _atom_site_symmetry_multiplicity
 _atom_site_fract_x
 _atom_site_fract_y
 _atom_site_fract_z
 _atom_site_occupancy
  Ho  Ho0  1  0.808362  0.194965  0.749120  1
  Tm  Tm1  1  0.190122  0.389169  0.251527  1
  Tm  Tm2  1  0.809792  0.611054  0.748448  1
  Tm  Tm3  1  0.612268  0.808015  0.250023  1
  Tm  Tm4  1  0.387632  0.192081  0.749964  1
  Tm  Tm5  1  0.192242  0.804152  0.251041  1
  Al  Al6  1  0.333045  0.667455  0.031524  1
  Al  Al7  1  0.666786  0.332690  0.969111  1
  Al  Al8  1  0.668146  0.333323  0.529372  1
  Al  Al9  1  0.331849  0.666906  0.470045  1
  Al  Al10  1  0.163875  0.327591  0.576125  1
  Al  Al11  1  0.836457  0.672731  0.423447  1
  Al  Al12  1  0.672983  0.835081  0.576256  1
  Al  Al13  1  0.834757  0.672953  0.076765  1
  Al  Al14  1  0.326713  0.164592  0.423314  1
  Al  Al15  1  0.165530  0.327345  0.923651  1
  Al  Al16  1  0.163283  0.834393  0.576729  1
  Al  Al17  1  0.326392  0.164607  0.077288  1
  Al  Al18  1  0.836724  0.165642  0.422664  1
  Al  Al19  1  0.673268  0.835030  0.923149  1
  Al  Al20  1  0.834999  0.163753  0.077419  1
  Al  Al21  1  0.164955  0.836224  0.923212  1
  Al  Al22  1  0.560537  0.124506  0.249698  1
  Al  Al23  1  0.438863  0.875157  0.750306  1
  Al  Al24  1  0.874171  0.438929  0.250474  1
  Al  Al25  1  0.126067  0.561611  0.749429  1
  Al  Al26  1  0.561368  0.438210  0.249675  1
  Al  Al27  1  0.438585  0.561805  0.750334  1
  Al  Al28  1  0.997874  0.000650  0.250001  1
  Al  Al29  1  0.002742  0.998764  0.750019  1
  Ir  Ir30  1  0.499811  0.999939  0.000043  1
  Ir  Ir31  1  0.999950  0.500142  0.000031  1
  Ir  Ir32  1  0.499825  0.999981  0.500017  1
  Ir  Ir33  1  0.500020  0.500005  0.000091  1
  Ir  Ir34  1  0.499985  0.499985  0.499980  1
  Os  Os35  1  0.000202  0.500416  0.499669  1
  Os  Os36  1  0.999908  0.000051  0.000089  1
  Os  Os37  1  0.999911  0.000095  0.499950  1
