# generated using pymatgen
data_Tb2Ce3Lu3(AlRu)8
_symmetry_space_group_name_H-M   'P 1'
_cell_length_a   4.03056100
_cell_length_b   7.09453020
_cell_length_c   15.87168869
_cell_angle_alpha   91.43590674
_cell_angle_beta   90.00000000
_cell_angle_gamma   90.00000000
_symmetry_Int_Tables_number   1
_chemical_formula_structural   Tb2Ce3Lu3(AlRu)8
_chemical_formula_sum   'Tb2 Ce3 Lu3 Al8 Ru8'
_cell_volume   453.70741672
_cell_formula_units_Z   1
loop_
 _symmetry_equiv_pos_site_id
 _symmetry_equiv_pos_as_xyz
  1  'x, y, z'
loop_
 _atom_site_type_symbol
 _atom_site_label
 _atom_site_symmetry_multiplicity
 _atom_site_fract_x
 _atom_site_fract_y
 _atom_site_fract_z
 _atom_site_occupancy
  Tb  Tb0  1  0.250000  0.665097  0.937542  1
  Tb  Tb1  1  0.250000  0.041669  0.779661  1
  Ce  Ce2  1  0.750000  0.464918  0.281220  1
  Ce  Ce3  1  0.750000  0.330252  0.063184  1
  Ce  Ce4  1  0.250000  0.537837  0.718857  1
  Lu  Lu5  1  0.750000  0.957967  0.221043  1
  Lu  Lu6  1  0.250000  0.158537  0.559629  1
  Lu  Lu7  1  0.750000  0.843467  0.439677  1
  Al  Al8  1  0.750000  0.504006  0.560711  1
  Al  Al9  1  0.750000  0.364007  0.851958  1
  Al  Al10  1  0.750000  0.993486  0.934675  1
  Al  Al11  1  0.750000  0.875228  0.648059  1
  Al  Al12  1  0.250000  0.495375  0.437791  1
  Al  Al13  1  0.250000  0.993641  0.067543  1
  Al  Al14  1  0.250000  0.642419  0.152412  1
  Al  Al15  1  0.250000  0.123932  0.348403  1
  Ru  Ru16  1  0.750000  0.734662  0.805100  1
  Ru  Ru17  1  0.250000  0.234567  0.940591  1
  Ru  Ru18  1  0.750000  0.257393  0.433457  1
  Ru  Ru19  1  0.250000  0.742896  0.318810  1
  Ru  Ru20  1  0.750000  0.765189  0.067593  1
  Ru  Ru21  1  0.750000  0.263952  0.682022  1
  Ru  Ru22  1  0.250000  0.266018  0.187858  1
  Ru  Ru23  1  0.250000  0.743481  0.562206  1
