# generated using pymatgen
data_NdIn3Sn3Ir4
_symmetry_space_group_name_H-M   'P 1'
_cell_length_a   7.05682092
_cell_length_b   7.05682096
_cell_length_c   7.09394308
_cell_angle_alpha   121.15422362
_cell_angle_beta   121.15422041
_cell_angle_gamma   88.55096301
_symmetry_Int_Tables_number   1
_chemical_formula_structural   NdIn3Sn3Ir4
_chemical_formula_sum   'Nd1 In3 Sn3 Ir4'
_cell_volume   244.14163225
_cell_formula_units_Z   1
loop_
 _symmetry_equiv_pos_site_id
 _symmetry_equiv_pos_as_xyz
  1  'x, y, z'
loop_
 _atom_site_type_symbol
 _atom_site_label
 _atom_site_symmetry_multiplicity
 _atom_site_fract_x
 _atom_site_fract_y
 _atom_site_fract_z
 _atom_site_occupancy
  Nd  Nd0  1  0.000403  0.000403  0.002122  1
  In  In1  1  0.880394  0.538319  0.998209  1
  In  In2  1  0.538319  0.880394  0.998209  1
  In  In3  1  0.462975  0.462975  0.346407  1
  Sn  Sn4  1  0.499893  0.998026  0.498375  1
  Sn  Sn5  1  0.998026  0.499893  0.498375  1
  Sn  Sn6  1  0.123820  0.123820  0.666907  1
  Ir  Ir7  1  0.602095  0.250561  0.996831  1
  Ir  Ir8  1  0.250561  0.602095  0.996831  1
  Ir  Ir9  1  0.755366  0.755366  0.360247  1
  Ir  Ir10  1  0.388151  0.388151  0.637493  1
