# generated using pymatgen
data_Dy6NiBr10
_symmetry_space_group_name_H-M   'P 1'
_cell_length_a   7.32777316
_cell_length_b   9.16559507
_cell_length_c   9.20212209
_cell_angle_alpha   108.17043039
_cell_angle_beta   96.99046683
_cell_angle_gamma   105.50833426
_symmetry_Int_Tables_number   1
_chemical_formula_structural   Dy6NiBr10
_chemical_formula_sum   'Dy6 Ni1 Br10'
_cell_volume   551.46667572
_cell_formula_units_Z   1
loop_
 _symmetry_equiv_pos_site_id
 _symmetry_equiv_pos_as_xyz
  1  'x, y, z'
loop_
 _atom_site_type_symbol
 _atom_site_label
 _atom_site_symmetry_multiplicity
 _atom_site_fract_x
 _atom_site_fract_y
 _atom_site_fract_z
 _atom_site_occupancy
  Dy  Dy0  1  0.878165  0.956210  0.242957  1
  Dy  Dy1  1  0.121835  0.043790  0.757043  1
  Dy  Dy2  1  0.028540  0.705951  0.907909  1
  Dy  Dy3  1  0.971460  0.294049  0.092091  1
  Dy  Dy4  1  0.645689  0.867652  0.824702  1
  Dy  Dy5  1  0.354311  0.132348  0.175298  1
  Ni  Ni6  1  0.000000  0.000000  0.000000  1
  Br  Br7  1  0.645120  0.545149  0.727424  1
  Br  Br8  1  0.354880  0.454851  0.272576  1
  Br  Br9  1  0.746281  0.915134  0.541399  1
  Br  Br10  1  0.253719  0.084866  0.458601  1
  Br  Br11  1  0.914057  0.630651  0.173822  1
  Br  Br12  1  0.085943  0.369349  0.826178  1
  Br  Br13  1  0.547607  0.178302  0.914300  1
  Br  Br14  1  0.452393  0.821698  0.085700  1
  Br  Br15  1  0.215526  0.742248  0.653418  1
  Br  Br16  1  0.784474  0.257752  0.346582  1
