# generated using pymatgen
data_Ho2Th3Sn3C
_symmetry_space_group_name_H-M   'P 1'
_cell_length_a   9.22932800
_cell_length_b   9.22932719
_cell_length_c   6.49953500
_cell_angle_alpha   90.00000000
_cell_angle_beta   90.00000000
_cell_angle_gamma   120.00001006
_symmetry_Int_Tables_number   1
_chemical_formula_structural   Ho2Th3Sn3C
_chemical_formula_sum   'Ho4 Th6 Sn6 C2'
_cell_volume   479.46068083
_cell_formula_units_Z   2
loop_
 _symmetry_equiv_pos_site_id
 _symmetry_equiv_pos_as_xyz
  1  'x, y, z'
loop_
 _atom_site_type_symbol
 _atom_site_label
 _atom_site_symmetry_multiplicity
 _atom_site_fract_x
 _atom_site_fract_y
 _atom_site_fract_z
 _atom_site_occupancy
  Ho  Ho0  1  0.666667  0.333333  0.500000  1
  Ho  Ho1  1  0.333333  0.666667  0.500000  1
  Ho  Ho2  1  0.333333  0.666667  0.000000  1
  Ho  Ho3  1  0.666667  0.333333  0.000000  1
  Th  Th4  1  0.777116  0.777116  0.250000  1
  Th  Th5  1  0.222884  0.000000  0.250000  1
  Th  Th6  1  0.000000  0.222884  0.250000  1
  Th  Th7  1  0.222884  0.222884  0.750000  1
  Th  Th8  1  0.777116  0.000000  0.750000  1
  Th  Th9  1  0.000000  0.777116  0.750000  1
  Sn  Sn10  1  0.405069  0.405069  0.250000  1
  Sn  Sn11  1  0.594931  0.000000  0.250000  1
  Sn  Sn12  1  0.000000  0.594931  0.250000  1
  Sn  Sn13  1  0.594931  0.594931  0.750000  1
  Sn  Sn14  1  0.405069  0.000000  0.750000  1
  Sn  Sn15  1  0.000000  0.405069  0.750000  1
  C  C16  1  0.000000  0.000000  0.500000  1
  C  C17  1  0.000000  0.000000  0.000000  1
