# generated using pymatgen
data_K8Rb4Li3Si16Ag
_symmetry_space_group_name_H-M   'P 1'
_cell_length_a   7.77222749
_cell_length_b   9.80926344
_cell_length_c   12.45713457
_cell_angle_alpha   90.34058769
_cell_angle_beta   89.84954558
_cell_angle_gamma   90.05195754
_symmetry_Int_Tables_number   1
_chemical_formula_structural   K8Rb4Li3Si16Ag
_chemical_formula_sum   'K8 Rb4 Li3 Si16 Ag1'
_cell_volume   949.70935330
_cell_formula_units_Z   1
loop_
 _symmetry_equiv_pos_site_id
 _symmetry_equiv_pos_as_xyz
  1  'x, y, z'
loop_
 _atom_site_type_symbol
 _atom_site_label
 _atom_site_symmetry_multiplicity
 _atom_site_fract_x
 _atom_site_fract_y
 _atom_site_fract_z
 _atom_site_occupancy
  K  K0  1  0.656890  0.445676  0.692800  1
  K  K1  1  0.156779  0.056182  0.807014  1
  K  K2  1  0.342505  0.943816  0.308872  1
  K  K3  1  0.839829  0.555295  0.191667  1
  K  K4  1  0.343110  0.554324  0.307200  1
  K  K5  1  0.843221  0.943818  0.192986  1
  K  K6  1  0.657495  0.056184  0.691128  1
  K  K7  1  0.160171  0.444705  0.808333  1
  Rb  Rb8  1  0.652109  0.250147  0.397809  1
  Rb  Rb9  1  0.153253  0.251376  0.103010  1
  Rb  Rb10  1  0.347891  0.749853  0.602191  1
  Rb  Rb11  1  0.846747  0.748624  0.896990  1
  Li  Li12  1  0.000000  0.000000  0.500000  1
  Li  Li13  1  0.500000  0.000000  0.000000  1
  Li  Li14  1  0.000000  0.500000  0.500000  1
  Si  Si15  1  0.358107  0.755398  0.902855  1
  Si  Si16  1  0.861265  0.751004  0.594707  1
  Si  Si17  1  0.641893  0.244602  0.097145  1
  Si  Si18  1  0.138735  0.248996  0.405293  1
  Si  Si19  1  0.717740  0.628660  0.447791  1
  Si  Si20  1  0.219232  0.869736  0.053922  1
  Si  Si21  1  0.281339  0.128980  0.551442  1
  Si  Si22  1  0.786319  0.372784  0.951785  1
  Si  Si23  1  0.012257  0.250424  0.586359  1
  Si  Si24  1  0.510018  0.248988  0.915689  1
  Si  Si25  1  0.987743  0.749576  0.413641  1
  Si  Si26  1  0.489982  0.751012  0.084311  1
  Si  Si27  1  0.213681  0.627216  0.048215  1
  Si  Si28  1  0.718661  0.871020  0.448558  1
  Si  Si29  1  0.780768  0.130264  0.946078  1
  Si  Si30  1  0.282260  0.371340  0.552209  1
  Ag  Ag31  1  0.500000  0.500000  0.000000  1
