# generated using pymatgen
data_La16Mg3Cd(NiOs)2
_symmetry_space_group_name_H-M   'P 1'
_cell_length_a   10.09524041
_cell_length_b   10.11030747
_cell_length_c   10.25160200
_cell_angle_alpha   59.53661404
_cell_angle_beta   59.48630336
_cell_angle_gamma   59.22672503
_symmetry_Int_Tables_number   1
_chemical_formula_structural   La16Mg3Cd(NiOs)2
_chemical_formula_sum   'La16 Mg3 Cd1 Ni2 Os2'
_cell_volume   730.03895656
_cell_formula_units_Z   1
loop_
 _symmetry_equiv_pos_site_id
 _symmetry_equiv_pos_as_xyz
  1  'x, y, z'
loop_
 _atom_site_type_symbol
 _atom_site_label
 _atom_site_symmetry_multiplicity
 _atom_site_fract_x
 _atom_site_fract_y
 _atom_site_fract_z
 _atom_site_occupancy
  La  La0  1  0.596600  0.597236  0.594191  1
  La  La1  1  0.596600  0.597236  0.211974  1
  La  La2  1  0.596676  0.216796  0.593264  1
  La  La3  1  0.217836  0.596835  0.592665  1
  La  La4  1  0.062989  0.435935  0.439268  1
  La  La5  1  0.437464  0.061706  0.060257  1
  La  La6  1  0.437464  0.061706  0.440574  1
  La  La7  1  0.062989  0.435935  0.061808  1
  La  La8  1  0.437561  0.438021  0.062209  1
  La  La9  1  0.057320  0.057432  0.442624  1
  La  La10  1  0.190530  0.803713  0.815183  1
  La  La11  1  0.804486  0.188640  0.190932  1
  La  La12  1  0.804486  0.188640  0.815943  1
  La  La13  1  0.190530  0.803713  0.190575  1
  La  La14  1  0.813292  0.813545  0.186581  1
  La  La15  1  0.193138  0.190661  0.808100  1
  Mg  Mg16  1  0.825985  0.827398  0.829671  1
  Mg  Mg17  1  0.825985  0.827398  0.516946  1
  Mg  Mg18  1  0.825613  0.516552  0.828918  1
  Cd  Cd19  1  0.511917  0.828729  0.829678  1
  Ni  Ni20  1  0.395818  0.829798  0.387193  1
  Ni  Ni21  1  0.829716  0.395990  0.387148  1
  Os  Os22  1  0.392505  0.393195  0.386361  1
  Os  Os23  1  0.392505  0.393195  0.827939  1
