# generated using pymatgen
data_NaPr6Cd5Hg12
_symmetry_space_group_name_H-M   'P 1'
_cell_length_a   5.24428806
_cell_length_b   7.27284900
_cell_length_c   15.93468300
_cell_angle_alpha   90.00000000
_cell_angle_beta   90.51768378
_cell_angle_gamma   90.00000000
_symmetry_Int_Tables_number   1
_chemical_formula_structural   NaPr6Cd5Hg12
_chemical_formula_sum   'Na1 Pr6 Cd5 Hg12'
_cell_volume   607.73858508
_cell_formula_units_Z   1
loop_
 _symmetry_equiv_pos_site_id
 _symmetry_equiv_pos_as_xyz
  1  'x, y, z'
loop_
 _atom_site_type_symbol
 _atom_site_label
 _atom_site_symmetry_multiplicity
 _atom_site_fract_x
 _atom_site_fract_y
 _atom_site_fract_z
 _atom_site_occupancy
  Na  Na0  1  0.000000  0.500000  0.000000  1
  Pr  Pr1  1  0.000000  0.000000  0.000000  1
  Pr  Pr2  1  0.500308  0.500000  0.173274  1
  Pr  Pr3  1  0.999722  0.000000  0.333952  1
  Pr  Pr4  1  0.500000  0.500000  0.500000  1
  Pr  Pr5  1  0.000278  0.000000  0.666047  1
  Pr  Pr6  1  0.499692  0.500000  0.826726  1
  Cd  Cd7  1  0.499792  0.000000  0.166470  1
  Cd  Cd8  1  0.000111  0.500000  0.332702  1
  Cd  Cd9  1  0.500000  0.000000  0.500000  1
  Cd  Cd10  1  0.999889  0.500000  0.667298  1
  Cd  Cd11  1  0.500208  0.000000  0.833530  1
  Hg  Hg12  1  0.500000  0.255005  0.000000  1
  Hg  Hg13  1  0.500000  0.744994  0.000000  1
  Hg  Hg14  1  0.000111  0.253425  0.163201  1
  Hg  Hg15  1  0.000111  0.746576  0.163201  1
  Hg  Hg16  1  0.499733  0.244612  0.335409  1
  Hg  Hg17  1  0.499733  0.755389  0.335409  1
  Hg  Hg18  1  0.000000  0.251125  0.500000  1
  Hg  Hg19  1  0.000000  0.748876  0.500000  1
  Hg  Hg20  1  0.500267  0.244612  0.664591  1
  Hg  Hg21  1  0.500267  0.755389  0.664591  1
  Hg  Hg22  1  0.999889  0.253425  0.836799  1
  Hg  Hg23  1  0.999889  0.746576  0.836799  1
