# generated using pymatgen
data_CaSmTh2(Al3Rh)6
_symmetry_space_group_name_H-M   'P 1'
_cell_length_a   7.62689428
_cell_length_b   7.62402805
_cell_length_c   9.53654000
_cell_angle_alpha   90.00000000
_cell_angle_beta   90.00000000
_cell_angle_gamma   119.31746023
_symmetry_Int_Tables_number   1
_chemical_formula_structural   CaSmTh2(Al3Rh)6
_chemical_formula_sum   'Ca1 Sm1 Th2 Al18 Rh6'
_cell_volume   483.50362628
_cell_formula_units_Z   1
loop_
 _symmetry_equiv_pos_site_id
 _symmetry_equiv_pos_as_xyz
  1  'x, y, z'
loop_
 _atom_site_type_symbol
 _atom_site_label
 _atom_site_symmetry_multiplicity
 _atom_site_fract_x
 _atom_site_fract_y
 _atom_site_fract_z
 _atom_site_occupancy
  Ca  Ca0  1  0.005469  0.327170  0.750000  1
  Sm  Sm1  1  0.328008  0.005292  0.750000  1
  Th  Th2  1  0.994849  0.671151  0.250000  1
  Th  Th3  1  0.672525  0.996009  0.250000  1
  Al  Al4  1  0.133863  0.134529  0.250000  1
  Al  Al5  1  0.872651  0.871545  0.750000  1
  Al  Al6  1  0.005400  0.335832  0.069253  1
  Al  Al7  1  0.998658  0.662630  0.919811  1
  Al  Al8  1  0.998658  0.662630  0.580189  1
  Al  Al9  1  0.335784  0.005435  0.428253  1
  Al  Al10  1  0.005400  0.335832  0.430747  1
  Al  Al11  1  0.665537  0.000045  0.580249  1
  Al  Al12  1  0.665537  0.000045  0.919751  1
  Al  Al13  1  0.335784  0.005435  0.071747  1
  Al  Al14  1  0.332391  0.333487  0.551560  1
  Al  Al15  1  0.663458  0.663616  0.458609  1
  Al  Al16  1  0.663458  0.663616  0.041391  1
  Al  Al17  1  0.332391  0.333487  0.948440  1
  Al  Al18  1  0.339927  0.544451  0.250000  1
  Al  Al19  1  0.657359  0.448575  0.750000  1
  Al  Al20  1  0.544270  0.340048  0.250000  1
  Al  Al21  1  0.449079  0.660295  0.750000  1
  Rh  Rh22  1  0.671703  0.328382  0.002178  1
  Rh  Rh23  1  0.329425  0.673636  0.001935  1
  Rh  Rh24  1  0.329425  0.673636  0.498065  1
  Rh  Rh25  1  0.671703  0.328382  0.497822  1
  Rh  Rh26  1  0.998643  0.997405  0.002407  1
  Rh  Rh27  1  0.998643  0.997405  0.497593  1
