# generated using pymatgen
data_K2Nb(WO4)3
_symmetry_space_group_name_H-M   'P 1'
_cell_length_a   7.46859933
_cell_length_b   7.46859985
_cell_length_c   7.38959978
_cell_angle_alpha   59.87493431
_cell_angle_beta   59.87493526
_cell_angle_gamma   59.81174124
_symmetry_Int_Tables_number   1
_chemical_formula_structural   K2Nb(WO4)3
_chemical_formula_sum   'K2 Nb1 W3 O12'
_cell_volume   290.49678916
_cell_formula_units_Z   1
loop_
 _symmetry_equiv_pos_site_id
 _symmetry_equiv_pos_as_xyz
  1  'x, y, z'
loop_
 _atom_site_type_symbol
 _atom_site_label
 _atom_site_symmetry_multiplicity
 _atom_site_fract_x
 _atom_site_fract_y
 _atom_site_fract_z
 _atom_site_occupancy
  K  K0  1  0.800625  0.927189  0.397562  1
  K  K1  1  0.072811  0.199375  0.602438  1
  Nb  Nb2  1  0.480279  0.519721  0.000000  1
  W  W3  1  0.989662  0.504349  0.991497  1
  W  W4  1  0.495651  0.010338  0.008503  1
  W  W5  1  0.507526  0.492474  0.500000  1
  O  O6  1  0.194531  0.187492  0.061017  1
  O  O7  1  0.572600  0.554602  0.681326  1
  O  O8  1  0.184721  0.559471  0.060515  1
  O  O9  1  0.577601  0.169900  0.693592  1
  O  O10  1  0.566246  0.179605  0.067302  1
  O  O11  1  0.188376  0.555558  0.692695  1
  O  O12  1  0.812508  0.805469  0.938983  1
  O  O13  1  0.445398  0.427400  0.318674  1
  O  O14  1  0.820395  0.433754  0.932698  1
  O  O15  1  0.444442  0.811624  0.307305  1
  O  O16  1  0.440529  0.815279  0.939485  1
  O  O17  1  0.830100  0.422399  0.306408  1
