# generated using pymatgen
data_HoEr7Re3B24Ru
_symmetry_space_group_name_H-M   'P 1'
_cell_length_a   3.65639000
_cell_length_b   9.13004779
_cell_length_c   11.50936701
_cell_angle_alpha   90.10387143
_cell_angle_beta   90.00000000
_cell_angle_gamma   90.00000000
_symmetry_Int_Tables_number   1
_chemical_formula_structural   HoEr7Re3B24Ru
_chemical_formula_sum   'Ho1 Er7 Re3 B24 Ru1'
_cell_volume   384.21674536
_cell_formula_units_Z   1
loop_
 _symmetry_equiv_pos_site_id
 _symmetry_equiv_pos_as_xyz
  1  'x, y, z'
loop_
 _atom_site_type_symbol
 _atom_site_label
 _atom_site_symmetry_multiplicity
 _atom_site_fract_x
 _atom_site_fract_y
 _atom_site_fract_z
 _atom_site_occupancy
  Ho  Ho0  1  0.000000  0.321547  0.414205  1
  Er  Er1  1  0.000000  0.677567  0.587725  1
  Er  Er2  1  0.000000  0.824733  0.083981  1
  Er  Er3  1  0.000000  0.176811  0.913712  1
  Er  Er4  1  0.000000  0.941632  0.369810  1
  Er  Er5  1  0.000000  0.056405  0.629194  1
  Er  Er6  1  0.000000  0.443111  0.130358  1
  Er  Er7  1  0.000000  0.557015  0.871131  1
  Re  Re8  1  0.000000  0.362197  0.678371  1
  Re  Re9  1  0.000000  0.138141  0.179575  1
  Re  Re10  1  0.000000  0.861853  0.820792  1
  B  B11  1  0.500000  0.553949  0.432919  1
  B  B12  1  0.500000  0.447294  0.566557  1
  B  B13  1  0.500000  0.053106  0.066554  1
  B  B14  1  0.500000  0.947235  0.933130  1
  B  B15  1  0.500000  0.748626  0.418776  1
  B  B16  1  0.500000  0.250325  0.580954  1
  B  B17  1  0.500000  0.249664  0.081113  1
  B  B18  1  0.500000  0.751057  0.919103  1
  B  B19  1  0.500000  0.791070  0.265188  1
  B  B20  1  0.500000  0.207751  0.734461  1
  B  B21  1  0.500000  0.292032  0.235204  1
  B  B22  1  0.500000  0.707688  0.765582  1
  B  B23  1  0.500000  0.631361  0.185429  1
  B  B24  1  0.500000  0.369601  0.814458  1
  B  B25  1  0.500000  0.130618  0.315200  1
  B  B26  1  0.500000  0.868905  0.685171  1
  B  B27  1  0.500000  0.981700  0.211839  1
  B  B28  1  0.500000  0.018301  0.787641  1
  B  B29  1  0.500000  0.483163  0.288194  1
  B  B30  1  0.500000  0.518792  0.712048  1
  B  B31  1  0.500000  0.601807  0.028856  1
  B  B32  1  0.500000  0.398857  0.972299  1
  B  B33  1  0.500000  0.100087  0.471551  1
  B  B34  1  0.500000  0.897561  0.528025  1
  Ru  Ru35  1  0.000000  0.638439  0.320895  1
