# generated using pymatgen
data_Y7TcSn23Ir5
_symmetry_space_group_name_H-M   'P 1'
_cell_length_a   9.89171380
_cell_length_b   9.89171491
_cell_length_c   10.11816342
_cell_angle_alpha   90.08165544
_cell_angle_beta   89.91834191
_cell_angle_gamma   119.97225395
_symmetry_Int_Tables_number   1
_chemical_formula_structural   Y7TcSn23Ir5
_chemical_formula_sum   'Y7 Tc1 Sn23 Ir5'
_cell_volume   857.62260971
_cell_formula_units_Z   1
loop_
 _symmetry_equiv_pos_site_id
 _symmetry_equiv_pos_as_xyz
  1  'x, y, z'
loop_
 _atom_site_type_symbol
 _atom_site_label
 _atom_site_symmetry_multiplicity
 _atom_site_fract_x
 _atom_site_fract_y
 _atom_site_fract_z
 _atom_site_occupancy
  Y  Y0  1  0.001902  0.998098  0.997884  1
  Y  Y1  1  0.040985  0.520361  0.306587  1
  Y  Y2  1  0.479639  0.959015  0.306587  1
  Y  Y3  1  0.479913  0.520087  0.307122  1
  Y  Y4  1  0.960473  0.480828  0.692965  1
  Y  Y5  1  0.519172  0.039527  0.692965  1
  Y  Y6  1  0.519715  0.480285  0.692470  1
  Tc  Tc7  1  0.168016  0.831984  0.800169  1
  Sn  Sn8  1  0.000148  0.999852  0.498118  1
  Sn  Sn9  1  0.118478  0.881522  0.284100  1
  Sn  Sn10  1  0.763703  0.881636  0.283757  1
  Sn  Sn11  1  0.118364  0.236297  0.283757  1
  Sn  Sn12  1  0.882458  0.117542  0.716274  1
  Sn  Sn13  1  0.235259  0.117039  0.719904  1
  Sn  Sn14  1  0.882961  0.764741  0.719904  1
  Sn  Sn15  1  0.348296  0.998381  0.999200  1
  Sn  Sn16  1  0.647704  0.647738  0.000035  1
  Sn  Sn17  1  0.999807  0.352456  0.000146  1
  Sn  Sn18  1  0.352262  0.352296  0.000035  1
  Sn  Sn19  1  0.001619  0.651704  0.999200  1
  Sn  Sn20  1  0.647544  0.000193  0.000146  1
  Sn  Sn21  1  0.777566  0.556066  0.455924  1
  Sn  Sn22  1  0.777852  0.222148  0.455578  1
  Sn  Sn23  1  0.443934  0.222434  0.455924  1
  Sn  Sn24  1  0.222320  0.444389  0.544552  1
  Sn  Sn25  1  0.222078  0.777922  0.544581  1
  Sn  Sn26  1  0.555611  0.777680  0.544552  1
  Sn  Sn27  1  0.666800  0.333200  0.175290  1
  Sn  Sn28  1  0.332184  0.667816  0.823099  1
  Sn  Sn29  1  0.667030  0.332970  0.879803  1
  Sn  Sn30  1  0.333524  0.666476  0.120899  1
  Ir  Ir31  1  0.662851  0.830731  0.801311  1
  Ir  Ir32  1  0.169269  0.337149  0.801311  1
  Ir  Ir33  1  0.831314  0.168686  0.198809  1
  Ir  Ir34  1  0.338466  0.169220  0.198520  1
  Ir  Ir35  1  0.830780  0.661534  0.198520  1
