# generated using pymatgen
data_Ag7F12
_symmetry_space_group_name_H-M   'P 1'
_cell_length_a   7.44388492
_cell_length_b   7.44388527
_cell_length_c   7.44388500
_cell_angle_alpha   109.47121991
_cell_angle_beta   109.47122085
_cell_angle_gamma   109.47121949
_symmetry_Int_Tables_number   1
_chemical_formula_structural   Ag7F12
_chemical_formula_sum   'Ag7 F12'
_cell_volume   317.52439298
_cell_formula_units_Z   1
loop_
 _symmetry_equiv_pos_site_id
 _symmetry_equiv_pos_as_xyz
  1  'x, y, z'
loop_
 _atom_site_type_symbol
 _atom_site_label
 _atom_site_symmetry_multiplicity
 _atom_site_fract_x
 _atom_site_fract_y
 _atom_site_fract_z
 _atom_site_occupancy
  Ag  Ag0  1  0.500000  0.000000  0.500000  1
  Ag  Ag1  1  0.500000  0.500000  0.000000  1
  Ag  Ag2  1  0.000000  0.500000  0.500000  1
  Ag  Ag3  1  0.000000  0.500000  0.000000  1
  Ag  Ag4  1  0.500000  0.000000  0.000000  1
  Ag  Ag5  1  0.500000  0.500000  0.500000  1
  Ag  Ag6  1  0.000000  0.000000  0.500000  1
  F  F7  1  0.323198  0.143417  0.820219  1
  F  F8  1  0.676802  0.856583  0.179781  1
  F  F9  1  0.676802  0.497020  0.820219  1
  F  F10  1  0.502980  0.179781  0.323198  1
  F  F11  1  0.179781  0.323198  0.502980  1
  F  F12  1  0.820219  0.323198  0.143417  1
  F  F13  1  0.856583  0.179781  0.676802  1
  F  F14  1  0.820219  0.676802  0.497020  1
  F  F15  1  0.323198  0.502980  0.179781  1
  F  F16  1  0.497020  0.820219  0.676802  1
  F  F17  1  0.179781  0.676802  0.856583  1
  F  F18  1  0.143417  0.820219  0.323198  1
