# generated using pymatgen
data_Hf9Ti(GaBi)3
_symmetry_space_group_name_H-M   'P 1'
_cell_length_a   5.49106899
_cell_length_b   8.26763016
_cell_length_c   8.28925972
_cell_angle_alpha   83.66180121
_cell_angle_beta   70.65742355
_cell_angle_gamma   70.53030922
_symmetry_Int_Tables_number   1
_chemical_formula_structural   Hf9Ti(GaBi)3
_chemical_formula_sum   'Hf9 Ti1 Ga3 Bi3'
_cell_volume   334.77173778
_cell_formula_units_Z   1
loop_
 _symmetry_equiv_pos_site_id
 _symmetry_equiv_pos_as_xyz
  1  'x, y, z'
loop_
 _atom_site_type_symbol
 _atom_site_label
 _atom_site_symmetry_multiplicity
 _atom_site_fract_x
 _atom_site_fract_y
 _atom_site_fract_z
 _atom_site_occupancy
  Hf  Hf0  1  0.702941  0.876719  0.710697  1
  Hf  Hf1  1  0.284126  0.134952  0.295063  1
  Hf  Hf2  1  0.780440  0.289895  0.154388  1
  Hf  Hf3  1  0.210146  0.719726  0.866668  1
  Hf  Hf4  1  0.576812  0.719726  0.133332  1
  Hf  Hf5  1  0.434829  0.289895  0.845612  1
  Hf  Hf6  1  0.079189  0.134952  0.704937  1
  Hf  Hf7  1  0.913637  0.876719  0.289303  1
  Hf  Hf8  1  0.755991  0.475290  0.500000  1
  Ti  Ti9  1  0.266544  0.477303  0.500000  1
  Ga  Ga10  1  0.652052  0.171053  0.500000  1
  Ga  Ga11  1  0.245753  0.008496  0.000456  1
  Ga  Ga12  1  0.746208  0.008496  0.999544  1
  Bi  Bi13  1  0.172333  0.501494  0.173607  1
  Bi  Bi14  1  0.845941  0.501494  0.826393  1
  Bi  Bi15  1  0.333059  0.813791  0.500000  1
