# generated using pymatgen
data_La2Gd3Dy(RuO7)2
_symmetry_space_group_name_H-M   'P 1'
_cell_length_a   6.51978103
_cell_length_b   6.51598822
_cell_length_c   7.57295800
_cell_angle_alpha   90.00000000
_cell_angle_beta   90.00000000
_cell_angle_gamma   110.26467613
_symmetry_Int_Tables_number   1
_chemical_formula_structural   La2Gd3Dy(RuO7)2
_chemical_formula_sum   'La2 Gd3 Dy1 Ru2 O14'
_cell_volume   301.80693215
_cell_formula_units_Z   1
loop_
 _symmetry_equiv_pos_site_id
 _symmetry_equiv_pos_as_xyz
  1  'x, y, z'
loop_
 _atom_site_type_symbol
 _atom_site_label
 _atom_site_symmetry_multiplicity
 _atom_site_fract_x
 _atom_site_fract_y
 _atom_site_fract_z
 _atom_site_occupancy
  La  La0  1  0.000090  0.000014  0.499530  1
  La  La1  1  0.000090  0.000014  0.000470  1
  Gd  Gd2  1  0.478763  0.925351  0.750000  1
  Gd  Gd3  1  0.521214  0.074506  0.250000  1
  Gd  Gd4  1  0.925526  0.478940  0.750000  1
  Dy  Dy5  1  0.073378  0.520117  0.250000  1
  Ru  Ru6  1  0.500151  0.500065  0.499769  1
  Ru  Ru7  1  0.500151  0.500065  0.000231  1
  O  O8  1  0.589348  0.589327  0.750000  1
  O  O9  1  0.409121  0.411284  0.250000  1
  O  O10  1  0.837030  0.113878  0.750000  1
  O  O11  1  0.162685  0.882970  0.250000  1
  O  O12  1  0.114086  0.837188  0.750000  1
  O  O13  1  0.887044  0.165354  0.250000  1
  O  O14  1  0.443251  0.185185  0.961463  1
  O  O15  1  0.556848  0.814863  0.461480  1
  O  O16  1  0.184804  0.443933  0.963227  1
  O  O17  1  0.815757  0.556483  0.460465  1
  O  O18  1  0.443251  0.185185  0.538537  1
  O  O19  1  0.556848  0.814863  0.038520  1
  O  O20  1  0.815757  0.556483  0.039535  1
  O  O21  1  0.184804  0.443933  0.536773  1
