# generated using pymatgen
data_Li8Pr7YBi8
_symmetry_space_group_name_H-M   'P 1'
_cell_length_a   9.89338400
_cell_length_b   9.89338361
_cell_length_c   7.43303700
_cell_angle_alpha   90.00000000
_cell_angle_beta   90.00000000
_cell_angle_gamma   119.99999462
_symmetry_Int_Tables_number   1
_chemical_formula_structural   Li8Pr7YBi8
_chemical_formula_sum   'Li8 Pr7 Y1 Bi8'
_cell_volume   630.06689980
_cell_formula_units_Z   1
loop_
 _symmetry_equiv_pos_site_id
 _symmetry_equiv_pos_as_xyz
  1  'x, y, z'
loop_
 _atom_site_type_symbol
 _atom_site_label
 _atom_site_symmetry_multiplicity
 _atom_site_fract_x
 _atom_site_fract_y
 _atom_site_fract_z
 _atom_site_occupancy
  Li  Li0  1  0.166163  0.833837  0.282666  1
  Li  Li1  1  0.667673  0.833837  0.282666  1
  Li  Li2  1  0.166163  0.332327  0.282666  1
  Li  Li3  1  0.833657  0.166343  0.793921  1
  Li  Li4  1  0.332688  0.166343  0.793921  1
  Li  Li5  1  0.833657  0.667312  0.793921  1
  Li  Li6  1  0.333333  0.666667  0.707607  1
  Li  Li7  1  0.666667  0.333333  0.206429  1
  Pr  Pr8  1  0.508159  0.491841  0.509666  1
  Pr  Pr9  1  0.983682  0.491841  0.509666  1
  Pr  Pr10  1  0.508159  0.016318  0.509666  1
  Pr  Pr11  1  0.491247  0.508753  0.009745  1
  Pr  Pr12  1  0.017506  0.508753  0.009745  1
  Pr  Pr13  1  0.491247  0.982494  0.009745  1
  Pr  Pr14  1  0.000000  0.000000  0.516761  1
  Y  Y15  1  0.000000  0.000000  0.017531  1
  Bi  Bi16  1  0.165221  0.834779  0.757483  1
  Bi  Bi17  1  0.669559  0.834779  0.757483  1
  Bi  Bi18  1  0.165221  0.330441  0.757483  1
  Bi  Bi19  1  0.835353  0.164647  0.249074  1
  Bi  Bi20  1  0.329295  0.164647  0.249074  1
  Bi  Bi21  1  0.835353  0.670705  0.249074  1
  Bi  Bi22  1  0.333333  0.666667  0.278602  1
  Bi  Bi23  1  0.666667  0.333333  0.775393  1
