# generated using pymatgen
data_TbHo2Fe2Sb3O14
_symmetry_space_group_name_H-M   'P 1'
_cell_length_a   7.19669126
_cell_length_b   7.19433342
_cell_length_c   7.16650420
_cell_angle_alpha   117.59319469
_cell_angle_beta   62.43051971
_cell_angle_gamma   117.52593725
_symmetry_Int_Tables_number   1
_chemical_formula_structural   TbHo2Fe2Sb3O14
_chemical_formula_sum   'Tb1 Ho2 Fe2 Sb3 O14'
_cell_volume   276.62741102
_cell_formula_units_Z   1
loop_
 _symmetry_equiv_pos_site_id
 _symmetry_equiv_pos_as_xyz
  1  'x, y, z'
loop_
 _atom_site_type_symbol
 _atom_site_label
 _atom_site_symmetry_multiplicity
 _atom_site_fract_x
 _atom_site_fract_y
 _atom_site_fract_z
 _atom_site_occupancy
  Tb  Tb0  1  0.500001  0.499997  0.499995  1
  Ho  Ho1  1  0.999983  0.499998  0.000012  1
  Ho  Ho2  1  0.500011  0.999994  0.999988  1
  Fe  Fe3  1  0.499917  0.500054  0.999970  1
  Fe  Fe4  1  0.000126  0.000104  0.500010  1
  Sb  Sb5  1  0.500006  0.999988  0.500005  1
  Sb  Sb6  1  0.999995  0.499995  0.499992  1
  Sb  Sb7  1  0.999998  0.999989  0.000007  1
  O  O8  1  0.619807  0.380336  0.112613  1
  O  O9  1  0.380163  0.619655  0.887377  1
  O  O10  1  0.079238  0.322997  0.176147  1
  O  O11  1  0.676957  0.920767  0.176095  1
  O  O12  1  0.675999  0.324042  0.584735  1
  O  O13  1  0.920748  0.676982  0.823862  1
  O  O14  1  0.323040  0.079212  0.823901  1
  O  O15  1  0.323999  0.675942  0.415271  1
  O  O16  1  0.645209  0.903448  0.597413  1
  O  O17  1  0.096579  0.354954  0.597552  1
  O  O18  1  0.096697  0.903177  0.145976  1
  O  O19  1  0.354803  0.096542  0.402581  1
  O  O20  1  0.903422  0.645022  0.402463  1
  O  O21  1  0.903302  0.096806  0.854032  1
