# generated using pymatgen
data_Dy2HoGaC3
_symmetry_space_group_name_H-M   'P 1'
_cell_length_a   3.56393600
_cell_length_b   7.04030427
_cell_length_c   9.87855521
_cell_angle_alpha   89.90786701
_cell_angle_beta   90.00000000
_cell_angle_gamma   90.00000000
_symmetry_Int_Tables_number   1
_chemical_formula_structural   Dy2HoGaC3
_chemical_formula_sum   'Dy4 Ho2 Ga2 C6'
_cell_volume   247.86442293
_cell_formula_units_Z   2
loop_
 _symmetry_equiv_pos_site_id
 _symmetry_equiv_pos_as_xyz
  1  'x, y, z'
loop_
 _atom_site_type_symbol
 _atom_site_label
 _atom_site_symmetry_multiplicity
 _atom_site_fract_x
 _atom_site_fract_y
 _atom_site_fract_z
 _atom_site_occupancy
  Dy  Dy0  1  0.500000  0.510632  0.196940  1
  Dy  Dy1  1  0.500000  0.489368  0.803060  1
  Dy  Dy2  1  0.000000  0.750124  0.458683  1
  Dy  Dy3  1  0.000000  0.249876  0.541317  1
  Ho  Ho4  1  0.500000  0.988278  0.197591  1
  Ho  Ho5  1  0.500000  0.011722  0.802409  1
  Ga  Ga6  1  0.000000  0.751245  0.000671  1
  Ga  Ga7  1  0.000000  0.248755  0.999329  1
  C  C8  1  0.500000  0.509323  0.566866  1
  C  C9  1  0.500000  0.490677  0.433134  1
  C  C10  1  0.500000  0.990821  0.566855  1
  C  C11  1  0.500000  0.009179  0.433145  1
  C  C12  1  0.000000  0.750972  0.208911  1
  C  C13  1  0.000000  0.249028  0.791089  1
