# generated using pymatgen
data_K8Dy3TmF20
_symmetry_space_group_name_H-M   'P 1'
_cell_length_a   6.70941822
_cell_length_b   7.28146500
_cell_length_c   11.02887201
_cell_angle_alpha   90.00000000
_cell_angle_beta   90.06904054
_cell_angle_gamma   90.00000000
_symmetry_Int_Tables_number   1
_chemical_formula_structural   K8Dy3TmF20
_chemical_formula_sum   'K8 Dy3 Tm1 F20'
_cell_volume   538.80846613
_cell_formula_units_Z   1
loop_
 _symmetry_equiv_pos_site_id
 _symmetry_equiv_pos_as_xyz
  1  'x, y, z'
loop_
 _atom_site_type_symbol
 _atom_site_label
 _atom_site_symmetry_multiplicity
 _atom_site_fract_x
 _atom_site_fract_y
 _atom_site_fract_z
 _atom_site_occupancy
  K  K0  1  0.529604  0.498383  0.828460  1
  K  K1  1  0.470914  0.502315  0.171542  1
  K  K2  1  0.029312  0.502116  0.672083  1
  K  K3  1  0.470914  0.997685  0.171542  1
  K  K4  1  0.970533  0.498297  0.327903  1
  K  K5  1  0.529604  0.001617  0.828460  1
  K  K6  1  0.970533  0.001703  0.327903  1
  K  K7  1  0.029312  0.997884  0.672083  1
  Dy  Dy8  1  0.564273  0.750000  0.501857  1
  Dy  Dy9  1  0.435663  0.250000  0.498104  1
  Dy  Dy10  1  0.063306  0.250000  0.998252  1
  Tm  Tm11  1  0.936179  0.750000  0.001443  1
  F  F12  1  0.839532  0.750000  0.812766  1
  F  F13  1  0.162085  0.250000  0.190428  1
  F  F14  1  0.337716  0.250000  0.690393  1
  F  F15  1  0.661971  0.750000  0.309859  1
  F  F16  1  0.368502  0.750000  0.663064  1
  F  F17  1  0.631624  0.250000  0.336853  1
  F  F18  1  0.868472  0.250000  0.836730  1
  F  F19  1  0.127599  0.750000  0.159949  1
  F  F20  1  0.891931  0.750000  0.513980  1
  F  F21  1  0.108104  0.250000  0.486147  1
  F  F22  1  0.391117  0.250000  0.985957  1
  F  F23  1  0.614189  0.750000  0.014018  1
  F  F24  1  0.644684  0.034581  0.577174  1
  F  F25  1  0.355266  0.965376  0.422794  1
  F  F26  1  0.141953  0.962303  0.924147  1
  F  F27  1  0.355266  0.534624  0.422794  1
  F  F28  1  0.856604  0.031153  0.075997  1
  F  F29  1  0.644684  0.465419  0.577174  1
  F  F30  1  0.856604  0.468847  0.075997  1
  F  F31  1  0.141953  0.537697  0.924147  1
