# generated using pymatgen
data_Lu4Al19Os4Rh
_symmetry_space_group_name_H-M   'P 1'
_cell_length_a   7.57909877
_cell_length_b   7.57909738
_cell_length_c   9.47676951
_cell_angle_alpha   89.95103672
_cell_angle_beta   89.95103332
_cell_angle_gamma   119.67276158
_symmetry_Int_Tables_number   1
_chemical_formula_structural   Lu4Al19Os4Rh
_chemical_formula_sum   'Lu4 Al19 Os4 Rh1'
_cell_volume   472.98571535
_cell_formula_units_Z   1
loop_
 _symmetry_equiv_pos_site_id
 _symmetry_equiv_pos_as_xyz
  1  'x, y, z'
loop_
 _atom_site_type_symbol
 _atom_site_label
 _atom_site_symmetry_multiplicity
 _atom_site_fract_x
 _atom_site_fract_y
 _atom_site_fract_z
 _atom_site_occupancy
  Lu  Lu0  1  0.997935  0.673429  0.249118  1
  Lu  Lu1  1  0.002065  0.326571  0.750882  1
  Lu  Lu2  1  0.673429  0.997935  0.249118  1
  Lu  Lu3  1  0.326571  0.002065  0.750882  1
  Al  Al4  1  0.135501  0.135501  0.259846  1
  Al  Al5  1  0.864499  0.864499  0.740154  1
  Al  Al6  1  0.002883  0.347374  0.079188  1
  Al  Al7  1  0.997117  0.652626  0.920812  1
  Al  Al8  1  0.000446  0.662872  0.570546  1
  Al  Al9  1  0.337128  0.999554  0.429454  1
  Al  Al10  1  0.999554  0.337128  0.429454  1
  Al  Al11  1  0.662872  0.000446  0.570546  1
  Al  Al12  1  0.652626  0.997117  0.920812  1
  Al  Al13  1  0.347374  0.002883  0.079188  1
  Al  Al14  1  0.335360  0.335360  0.549938  1
  Al  Al15  1  0.664640  0.664640  0.450062  1
  Al  Al16  1  0.652968  0.652968  0.059016  1
  Al  Al17  1  0.347032  0.347032  0.940984  1
  Al  Al18  1  0.337374  0.552457  0.251267  1
  Al  Al19  1  0.662626  0.447543  0.748733  1
  Al  Al20  1  0.552457  0.337374  0.251267  1
  Al  Al21  1  0.447543  0.662626  0.748733  1
  Al  Al22  1  0.000000  0.000000  0.000000  1
  Os  Os23  1  0.672708  0.327292  0.000000  1
  Os  Os24  1  0.327292  0.672708  0.000000  1
  Os  Os25  1  0.327757  0.672243  0.500000  1
  Os  Os26  1  0.672243  0.327757  0.500000  1
  Rh  Rh27  1  0.000000  0.000000  0.500000  1
