# generated using pymatgen
data_Na4ErPtO6
_symmetry_space_group_name_H-M   'P 1'
_cell_length_a   5.66295112
_cell_length_b   5.66294190
_cell_length_c   5.82919426
_cell_angle_alpha   99.33888412
_cell_angle_beta   99.33835414
_cell_angle_gamma   120.06966060
_symmetry_Int_Tables_number   1
_chemical_formula_structural   Na4ErPtO6
_chemical_formula_sum   'Na4 Er1 Pt1 O6'
_cell_volume   153.00215625
_cell_formula_units_Z   1
loop_
 _symmetry_equiv_pos_site_id
 _symmetry_equiv_pos_as_xyz
  1  'x, y, z'
loop_
 _atom_site_type_symbol
 _atom_site_label
 _atom_site_symmetry_multiplicity
 _atom_site_fract_x
 _atom_site_fract_y
 _atom_site_fract_z
 _atom_site_occupancy
  Na  Na0  1  0.498682  0.501327  0.000005  1
  Na  Na1  1  0.013880  0.986121  0.500001  1
  Na  Na2  1  0.657203  0.342795  0.500006  1
  Na  Na3  1  0.336545  0.663433  0.500007  1
  Er  Er4  1  0.833414  0.166591  0.999976  1
  Pt  Pt5  1  0.166403  0.833560  0.999985  1
  O  O6  1  0.946769  0.597615  0.210141  1
  O  O7  1  0.543170  0.922995  0.215103  1
  O  O8  1  0.221021  0.196503  0.215652  1
  O  O9  1  0.803505  0.778973  0.784356  1
  O  O10  1  0.077021  0.456850  0.784901  1
  O  O11  1  0.402388  0.053240  0.789869  1
