# generated using pymatgen
data_AcSn3Ir
_symmetry_space_group_name_H-M   'P 1'
_cell_length_a   4.86773805
_cell_length_b   4.86773471
_cell_length_c   6.55893395
_cell_angle_alpha   111.86739908
_cell_angle_beta   111.86738313
_cell_angle_gamma   90.06492323
_symmetry_Int_Tables_number   1
_chemical_formula_structural   AcSn3Ir
_chemical_formula_sum   'Ac1 Sn3 Ir1'
_cell_volume   132.07654538
_cell_formula_units_Z   1
loop_
 _symmetry_equiv_pos_site_id
 _symmetry_equiv_pos_as_xyz
  1  'x, y, z'
loop_
 _atom_site_type_symbol
 _atom_site_label
 _atom_site_symmetry_multiplicity
 _atom_site_fract_x
 _atom_site_fract_y
 _atom_site_fract_z
 _atom_site_occupancy
  Ac  Ac0  1  0.993677  0.993677  0.985509  1
  Sn  Sn1  1  0.749969  0.250067  0.500726  1
  Sn  Sn2  1  0.250068  0.749969  0.500726  1
  Sn  Sn3  1  0.424725  0.424725  0.848513  1
  Ir  Ir4  1  0.655698  0.655698  0.312791  1
