# generated using pymatgen
data_Tb3YAl15(SiIr2)3
_symmetry_space_group_name_H-M   'P 1'
_cell_length_a   7.54904676
_cell_length_b   7.53229952
_cell_length_c   9.34641700
_cell_angle_alpha   89.99589352
_cell_angle_beta   89.91326480
_cell_angle_gamma   119.71466057
_symmetry_Int_Tables_number   1
_chemical_formula_structural   Tb3YAl15(SiIr2)3
_chemical_formula_sum   'Tb3 Y1 Al15 Si3 Ir6'
_cell_volume   461.56868504
_cell_formula_units_Z   1
loop_
 _symmetry_equiv_pos_site_id
 _symmetry_equiv_pos_as_xyz
  1  'x, y, z'
loop_
 _atom_site_type_symbol
 _atom_site_label
 _atom_site_symmetry_multiplicity
 _atom_site_fract_x
 _atom_site_fract_y
 _atom_site_fract_z
 _atom_site_occupancy
  Tb  Tb0  1  0.993647  0.669250  0.248362  1
  Tb  Tb1  1  0.005146  0.325213  0.753060  1
  Tb  Tb2  1  0.679320  0.999900  0.248031  1
  Y  Y3  1  0.325491  0.005788  0.749582  1
  Al  Al4  1  0.998000  0.668405  0.922241  1
  Al  Al5  1  0.999000  0.664028  0.575046  1
  Al  Al6  1  0.336206  0.000262  0.424732  1
  Al  Al7  1  0.001781  0.336463  0.428790  1
  Al  Al8  1  0.663143  0.998837  0.575100  1
  Al  Al9  1  0.658906  0.993816  0.922570  1
  Al  Al10  1  0.335899  0.000369  0.075836  1
  Al  Al11  1  0.335919  0.335416  0.557158  1
  Al  Al12  1  0.664894  0.665465  0.442873  1
  Al  Al13  1  0.664322  0.665020  0.058427  1
  Al  Al14  1  0.338965  0.335472  0.942630  1
  Al  Al15  1  0.334644  0.546573  0.250393  1
  Al  Al16  1  0.665340  0.451262  0.750211  1
  Al  Al17  1  0.546208  0.335727  0.250335  1
  Al  Al18  1  0.450476  0.663124  0.749387  1
  Si  Si19  1  0.132439  0.128166  0.250906  1
  Si  Si20  1  0.870557  0.872055  0.749717  1
  Si  Si21  1  0.001387  0.338175  0.072667  1
  Ir  Ir22  1  0.679082  0.328671  0.001655  1
  Ir  Ir23  1  0.320239  0.663763  0.000190  1
  Ir  Ir24  1  0.328071  0.671112  0.499423  1
  Ir  Ir25  1  0.671890  0.328702  0.499283  1
  Ir  Ir26  1  0.999326  0.008383  0.001906  1
  Ir  Ir27  1  0.999702  0.000582  0.499492  1
