# generated using pymatgen
data_Tb2Y2Sb5Rh7Au
_symmetry_space_group_name_H-M   'P 1'
_cell_length_a   7.59369016
_cell_length_b   7.59369191
_cell_length_c   7.59663053
_cell_angle_alpha   107.91772863
_cell_angle_beta   110.24926997
_cell_angle_gamma   110.24228314
_symmetry_Int_Tables_number   1
_chemical_formula_structural   Tb2Y2Sb5Rh7Au
_chemical_formula_sum   'Tb2 Y2 Sb5 Rh7 Au1'
_cell_volume   337.09342543
_cell_formula_units_Z   1
loop_
 _symmetry_equiv_pos_site_id
 _symmetry_equiv_pos_as_xyz
  1  'x, y, z'
loop_
 _atom_site_type_symbol
 _atom_site_label
 _atom_site_symmetry_multiplicity
 _atom_site_fract_x
 _atom_site_fract_y
 _atom_site_fract_z
 _atom_site_occupancy
  Tb  Tb0  1  0.999973  0.017256  0.498925  1
  Tb  Tb1  1  0.481670  0.498952  0.498925  1
  Y  Y2  1  0.518185  0.017112  0.017080  1
  Y  Y3  1  0.999968  0.498894  0.017080  1
  Sb  Sb4  1  0.685253  0.001881  0.687134  1
  Sb  Sb5  1  0.685254  0.686940  0.001719  1
  Sb  Sb6  1  0.000069  0.671493  0.671562  1
  Sb  Sb7  1  0.314781  0.001507  0.316288  1
  Sb  Sb8  1  0.314779  0.316465  0.001719  1
  Rh  Rh9  1  0.000054  0.970946  0.971000  1
  Rh  Rh10  1  0.499896  0.752605  0.252500  1
  Rh  Rh11  1  0.748828  0.504171  0.253000  1
  Rh  Rh12  1  0.251194  0.755333  0.504233  1
  Rh  Rh13  1  0.251142  0.504236  0.755380  1
  Rh  Rh14  1  0.500040  0.252633  0.752673  1
  Rh  Rh15  1  0.748901  0.253039  0.504233  1
  Au  Au16  1  0.000013  0.296537  0.296550  1
