# generated using pymatgen
data_Zr10Co2(BiPb)3
_symmetry_space_group_name_H-M   'P 1'
_cell_length_a   5.90590400
_cell_length_b   8.86317542
_cell_length_c   8.83691853
_cell_angle_alpha   120.05105061
_cell_angle_beta   90.00000000
_cell_angle_gamma   90.00000000
_symmetry_Int_Tables_number   1
_chemical_formula_structural   Zr10Co2(BiPb)3
_chemical_formula_sum   'Zr10 Co2 Bi3 Pb3'
_cell_volume   400.39032186
_cell_formula_units_Z   1
loop_
 _symmetry_equiv_pos_site_id
 _symmetry_equiv_pos_as_xyz
  1  'x, y, z'
loop_
 _atom_site_type_symbol
 _atom_site_label
 _atom_site_symmetry_multiplicity
 _atom_site_fract_x
 _atom_site_fract_y
 _atom_site_fract_z
 _atom_site_occupancy
  Zr  Zr0  1  0.750000  0.759097  0.756468  1
  Zr  Zr1  1  0.250000  0.241194  0.242047  1
  Zr  Zr2  1  0.750000  0.003248  0.243991  1
  Zr  Zr3  1  0.250000  0.997037  0.757728  1
  Zr  Zr4  1  0.750000  0.243512  0.000310  1
  Zr  Zr5  1  0.250000  0.756013  0.998317  1
  Zr  Zr6  1  0.999277  0.667162  0.333429  1
  Zr  Zr7  1  0.999245  0.332941  0.667333  1
  Zr  Zr8  1  0.500755  0.332941  0.667333  1
  Zr  Zr9  1  0.500723  0.667162  0.333429  1
  Co  Co10  1  0.999300  0.999722  0.999799  1
  Co  Co11  1  0.500700  0.999722  0.999799  1
  Bi  Bi12  1  0.250000  0.999861  0.395894  1
  Bi  Bi13  1  0.750000  0.607772  0.000020  1
  Bi  Bi14  1  0.250000  0.392754  0.999811  1
  Pb  Pb15  1  0.750000  0.397879  0.397265  1
  Pb  Pb16  1  0.250000  0.601689  0.601817  1
  Pb  Pb17  1  0.750000  0.000295  0.605210  1
