# generated using pymatgen
data_Dy2Ho8Ir5Au
_symmetry_space_group_name_H-M   'P 1'
_cell_length_a   11.01195989
_cell_length_b   10.94701600
_cell_length_c   6.31994910
_cell_angle_alpha   90.00000000
_cell_angle_beta   89.86318072
_cell_angle_gamma   90.00000000
_symmetry_Int_Tables_number   1
_chemical_formula_structural   Dy2Ho8Ir5Au
_chemical_formula_sum   'Dy4 Ho16 Ir10 Au2'
_cell_volume   761.85569072
_cell_formula_units_Z   2
loop_
 _symmetry_equiv_pos_site_id
 _symmetry_equiv_pos_as_xyz
  1  'x, y, z'
loop_
 _atom_site_type_symbol
 _atom_site_label
 _atom_site_symmetry_multiplicity
 _atom_site_fract_x
 _atom_site_fract_y
 _atom_site_fract_z
 _atom_site_occupancy
  Dy  Dy0  1  0.292176  0.088500  0.371725  1
  Dy  Dy1  1  0.292176  0.911500  0.871725  1
  Dy  Dy2  1  0.698098  0.092346  0.865524  1
  Dy  Dy3  1  0.698098  0.907654  0.365524  1
  Ho  Ho4  1  0.578026  0.789302  0.876949  1
  Ho  Ho5  1  0.578026  0.210698  0.376949  1
  Ho  Ho6  1  0.408223  0.790628  0.376848  1
  Ho  Ho7  1  0.408223  0.209372  0.876848  1
  Ho  Ho8  1  0.209725  0.411121  0.621508  1
  Ho  Ho9  1  0.209725  0.588879  0.121508  1
  Ho  Ho10  1  0.789095  0.419628  0.123396  1
  Ho  Ho11  1  0.789095  0.580372  0.623396  1
  Ho  Ho12  1  0.917552  0.705129  0.139019  1
  Ho  Ho13  1  0.917552  0.294871  0.639019  1
  Ho  Ho14  1  0.096068  0.702522  0.624166  1
  Ho  Ho15  1  0.096068  0.297478  0.124166  1
  Ho  Ho16  1  0.009569  0.997412  0.499831  1
  Ho  Ho17  1  0.009569  0.002588  0.999831  1
  Ho  Ho18  1  0.499875  0.498813  0.000692  1
  Ho  Ho19  1  0.499875  0.501187  0.500692  1
  Ir  Ir20  1  0.153737  0.154124  0.750352  1
  Ir  Ir21  1  0.153737  0.845876  0.250352  1
  Ir  Ir22  1  0.655581  0.346321  0.748116  1
  Ir  Ir23  1  0.655581  0.653679  0.248116  1
  Ir  Ir24  1  0.347276  0.346384  0.251590  1
  Ir  Ir25  1  0.347276  0.653616  0.751590  1
  Ir  Ir26  1  0.499780  0.999752  0.121150  1
  Ir  Ir27  1  0.499780  0.000248  0.621150  1
  Ir  Ir28  1  0.999687  0.500944  0.878633  1
  Ir  Ir29  1  0.999687  0.499056  0.378633  1
  Au  Au30  1  0.845528  0.155013  0.250502  1
  Au  Au31  1  0.845528  0.844987  0.750502  1
