# generated using pymatgen
data_Ba4AlCrGa2F20
_symmetry_space_group_name_H-M   'P 1'
_cell_length_a   5.13533696
_cell_length_b   5.77359980
_cell_length_c   14.14246942
_cell_angle_alpha   89.68751166
_cell_angle_beta   90.10804046
_cell_angle_gamma   90.03512218
_symmetry_Int_Tables_number   1
_chemical_formula_structural   Ba4AlCrGa2F20
_chemical_formula_sum   'Ba4 Al1 Cr1 Ga2 F20'
_cell_volume   419.30839876
_cell_formula_units_Z   1
loop_
 _symmetry_equiv_pos_site_id
 _symmetry_equiv_pos_as_xyz
  1  'x, y, z'
loop_
 _atom_site_type_symbol
 _atom_site_label
 _atom_site_symmetry_multiplicity
 _atom_site_fract_x
 _atom_site_fract_y
 _atom_site_fract_z
 _atom_site_occupancy
  Ba  Ba0  1  0.737487  0.661106  0.655742  1
  Ba  Ba1  1  0.235155  0.844452  0.345558  1
  Ba  Ba2  1  0.268059  0.157505  0.840885  1
  Ba  Ba3  1  0.769743  0.343511  0.156552  1
  Al  Al4  1  0.315566  0.148025  0.587908  1
  Cr  Cr5  1  0.814541  0.348180  0.416908  1
  Ga  Ga6  1  0.686093  0.645688  0.912171  1
  Ga  Ga7  1  0.188043  0.854873  0.086412  1
  F  F8  1  0.944786  0.620940  0.478999  1
  F  F9  1  0.443600  0.902220  0.525528  1
  F  F10  1  0.049332  0.109517  0.020466  1
  F  F11  1  0.548081  0.391040  0.978117  1
  F  F12  1  0.626473  0.541653  0.329395  1
  F  F13  1  0.133877  0.959132  0.666871  1
  F  F14  1  0.363719  0.056567  0.172519  1
  F  F15  1  0.859826  0.441903  0.826580  1
  F  F16  1  0.194286  0.402144  0.646888  1
  F  F17  1  0.699264  0.075174  0.350663  1
  F  F18  1  0.812943  0.907425  0.846797  1
  F  F19  1  0.312843  0.590500  0.150338  1
  F  F20  1  0.582849  0.141313  0.673026  1
  F  F21  1  0.093035  0.357382  0.325564  1
  F  F22  1  0.401804  0.648349  0.823060  1
  F  F23  1  0.905476  0.852562  0.175636  1
  F  F24  1  0.520449  0.345450  0.509838  1
  F  F25  1  0.043166  0.152062  0.499374  1
  F  F26  1  0.475237  0.857830  0.993799  1
  F  F27  1  0.974267  0.643499  0.004406  1
