# generated using pymatgen
data_EuGdNbIr3
_symmetry_space_group_name_H-M   'P 1'
_cell_length_a   5.67106270
_cell_length_b   5.67106284
_cell_length_c   5.27483700
_cell_angle_alpha   57.48243486
_cell_angle_beta   57.48244594
_cell_angle_gamma   59.99999485
_symmetry_Int_Tables_number   1
_chemical_formula_structural   EuGdNbIr3
_chemical_formula_sum   'Eu1 Gd1 Nb1 Ir3'
_cell_volume   115.18691795
_cell_formula_units_Z   1
loop_
 _symmetry_equiv_pos_site_id
 _symmetry_equiv_pos_as_xyz
  1  'x, y, z'
loop_
 _atom_site_type_symbol
 _atom_site_label
 _atom_site_symmetry_multiplicity
 _atom_site_fract_x
 _atom_site_fract_y
 _atom_site_fract_z
 _atom_site_occupancy
  Eu  Eu0  1  0.501578  0.501578  0.495267  1
  Gd  Gd1  1  0.749776  0.749776  0.750671  1
  Nb  Nb2  1  0.124895  0.124895  0.625314  1
  Ir  Ir3  1  0.624926  0.124413  0.126249  1
  Ir  Ir4  1  0.124413  0.124413  0.126249  1
  Ir  Ir5  1  0.124413  0.624926  0.126249  1
