# generated using pymatgen
data_Nb4Cr3Ga2Fe3
_symmetry_space_group_name_H-M   'P 1'
_cell_length_a   4.87492800
_cell_length_b   4.87492758
_cell_length_c   8.19858300
_cell_angle_alpha   90.00000000
_cell_angle_beta   90.00000000
_cell_angle_gamma   120.00000288
_symmetry_Int_Tables_number   1
_chemical_formula_structural   Nb4Cr3Ga2Fe3
_chemical_formula_sum   'Nb4 Cr3 Ga2 Fe3'
_cell_volume   168.73523886
_cell_formula_units_Z   1
loop_
 _symmetry_equiv_pos_site_id
 _symmetry_equiv_pos_as_xyz
  1  'x, y, z'
loop_
 _atom_site_type_symbol
 _atom_site_label
 _atom_site_symmetry_multiplicity
 _atom_site_fract_x
 _atom_site_fract_y
 _atom_site_fract_z
 _atom_site_occupancy
  Nb  Nb0  1  0.333333  0.666667  0.435799  1
  Nb  Nb1  1  0.666667  0.333333  0.567872  1
  Nb  Nb2  1  0.666667  0.333333  0.932128  1
  Nb  Nb3  1  0.333333  0.666667  0.064201  1
  Cr  Cr4  1  0.825905  0.174095  0.250000  1
  Cr  Cr5  1  0.825905  0.651809  0.250000  1
  Cr  Cr6  1  0.348191  0.174095  0.250000  1
  Ga  Ga7  1  0.000000  0.000000  0.503885  1
  Ga  Ga8  1  0.000000  0.000000  0.996115  1
  Fe  Fe9  1  0.172441  0.827559  0.750000  1
  Fe  Fe10  1  0.172441  0.344882  0.750000  1
  Fe  Fe11  1  0.655118  0.827559  0.750000  1
