# generated using pymatgen
data_Tb9Ce3Tc3Os
_symmetry_space_group_name_H-M   'P 1'
_cell_length_a   6.38394787
_cell_length_b   7.24771444
_cell_length_c   9.47331000
_cell_angle_alpha   90.00000000
_cell_angle_beta   90.00000000
_cell_angle_gamma   91.12545149
_symmetry_Int_Tables_number   1
_chemical_formula_structural   Tb9Ce3Tc3Os
_chemical_formula_sum   'Tb9 Ce3 Tc3 Os1'
_cell_volume   438.23631694
_cell_formula_units_Z   1
loop_
 _symmetry_equiv_pos_site_id
 _symmetry_equiv_pos_as_xyz
  1  'x, y, z'
loop_
 _atom_site_type_symbol
 _atom_site_label
 _atom_site_symmetry_multiplicity
 _atom_site_fract_x
 _atom_site_fract_y
 _atom_site_fract_z
 _atom_site_occupancy
  Tb  Tb0  1  0.332823  0.676867  0.060068  1
  Tb  Tb1  1  0.163130  0.177299  0.435391  1
  Tb  Tb2  1  0.667134  0.326653  0.564681  1
  Tb  Tb3  1  0.830235  0.820658  0.932451  1
  Tb  Tb4  1  0.667134  0.326653  0.935319  1
  Tb  Tb5  1  0.830235  0.820658  0.567549  1
  Tb  Tb6  1  0.332823  0.676867  0.439932  1
  Tb  Tb7  1  0.163130  0.177299  0.064609  1
  Tb  Tb8  1  0.369229  0.960142  0.750000  1
  Ce  Ce9  1  0.861066  0.560815  0.250000  1
  Ce  Ce10  1  0.632835  0.057150  0.250000  1
  Ce  Ce11  1  0.139520  0.439149  0.750000  1
  Tc  Tc12  1  0.004997  0.862200  0.250000  1
  Tc  Tc13  1  0.498403  0.358766  0.250000  1
  Tc  Tc14  1  0.982296  0.144953  0.750000  1
  Os  Os15  1  0.525007  0.613873  0.750000  1
