# generated using pymatgen
data_SmY15Cd4TcNi3
_symmetry_space_group_name_H-M   'P 1'
_cell_length_a   9.65546963
_cell_length_b   9.65546997
_cell_length_c   9.65546907
_cell_angle_alpha   59.37086902
_cell_angle_beta   59.37086953
_cell_angle_gamma   59.37085920
_symmetry_Int_Tables_number   1
_chemical_formula_structural   SmY15Cd4TcNi3
_chemical_formula_sum   'Sm1 Y15 Cd4 Tc1 Ni3'
_cell_volume   627.39553956
_cell_formula_units_Z   1
loop_
 _symmetry_equiv_pos_site_id
 _symmetry_equiv_pos_as_xyz
  1  'x, y, z'
loop_
 _atom_site_type_symbol
 _atom_site_label
 _atom_site_symmetry_multiplicity
 _atom_site_fract_x
 _atom_site_fract_y
 _atom_site_fract_z
 _atom_site_occupancy
  Sm  Sm0  1  0.597621  0.597621  0.597621  1
  Y  Y1  1  0.602138  0.602138  0.202142  1
  Y  Y2  1  0.602138  0.202142  0.602138  1
  Y  Y3  1  0.202142  0.602138  0.602138  1
  Y  Y4  1  0.061768  0.437530  0.437530  1
  Y  Y5  1  0.437710  0.060609  0.060609  1
  Y  Y6  1  0.437530  0.061768  0.437530  1
  Y  Y7  1  0.060609  0.437710  0.060609  1
  Y  Y8  1  0.437530  0.437530  0.061768  1
  Y  Y9  1  0.060609  0.060609  0.437710  1
  Y  Y10  1  0.186181  0.815276  0.815276  1
  Y  Y11  1  0.805921  0.189048  0.189048  1
  Y  Y12  1  0.815276  0.186181  0.815276  1
  Y  Y13  1  0.189048  0.805921  0.189048  1
  Y  Y14  1  0.815276  0.815276  0.186181  1
  Y  Y15  1  0.189048  0.189048  0.805921  1
  Cd  Cd16  1  0.829621  0.829621  0.829621  1
  Cd  Cd17  1  0.830045  0.830045  0.505903  1
  Cd  Cd18  1  0.830045  0.505903  0.830045  1
  Cd  Cd19  1  0.505903  0.830045  0.830045  1
  Tc  Tc20  1  0.394159  0.394159  0.394159  1
  Ni  Ni21  1  0.392039  0.392039  0.825600  1
  Ni  Ni22  1  0.392039  0.825600  0.392039  1
  Ni  Ni23  1  0.825600  0.392039  0.392039  1
