# generated using pymatgen
data_Sr6TiCo4O15
_symmetry_space_group_name_H-M   'P 1'
_cell_length_a   6.93410814
_cell_length_b   6.93410869
_cell_length_c   6.93410830
_cell_angle_alpha   88.09489984
_cell_angle_beta   88.09489571
_cell_angle_gamma   88.09489028
_symmetry_Int_Tables_number   1
_chemical_formula_structural   Sr6TiCo4O15
_chemical_formula_sum   'Sr6 Ti1 Co4 O15'
_cell_volume   332.86392401
_cell_formula_units_Z   1
loop_
 _symmetry_equiv_pos_site_id
 _symmetry_equiv_pos_as_xyz
  1  'x, y, z'
loop_
 _atom_site_type_symbol
 _atom_site_label
 _atom_site_symmetry_multiplicity
 _atom_site_fract_x
 _atom_site_fract_y
 _atom_site_fract_z
 _atom_site_occupancy
  Sr  Sr0  1  0.500000  0.859544  0.140456  1
  Sr  Sr1  1  0.140456  0.500000  0.859544  1
  Sr  Sr2  1  0.859544  0.140456  0.500000  1
  Sr  Sr3  1  0.000000  0.673988  0.326012  1
  Sr  Sr4  1  0.326012  0.000000  0.673988  1
  Sr  Sr5  1  0.673988  0.326012  0.000000  1
  Ti  Ti6  1  0.500000  0.500000  0.500000  1
  Co  Co7  1  0.707581  0.707581  0.707581  1
  Co  Co8  1  0.292419  0.292419  0.292419  1
  Co  Co9  1  0.901106  0.901106  0.901106  1
  Co  Co10  1  0.098894  0.098894  0.098894  1
  O  O11  1  0.371043  0.551716  0.248869  1
  O  O12  1  0.248869  0.371043  0.551716  1
  O  O13  1  0.551716  0.248869  0.371043  1
  O  O14  1  0.628957  0.751131  0.448284  1
  O  O15  1  0.448284  0.628957  0.751131  1
  O  O16  1  0.751131  0.448284  0.628957  1
  O  O17  1  0.201072  0.028414  0.340682  1
  O  O18  1  0.340682  0.201072  0.028414  1
  O  O19  1  0.028414  0.340682  0.201072  1
  O  O20  1  0.798928  0.659318  0.971586  1
  O  O21  1  0.971586  0.798928  0.659318  1
  O  O22  1  0.151197  0.848803  0.000000  1
  O  O23  1  0.848803  0.000000  0.151197  1
  O  O24  1  0.000000  0.151197  0.848803  1
  O  O25  1  0.659318  0.971586  0.798928  1
