# generated using pymatgen
data_LuPu7F30
_symmetry_space_group_name_H-M   'P 1'
_cell_length_a   8.44680246
_cell_length_b   8.44680251
_cell_length_c   8.44680300
_cell_angle_alpha   99.93878817
_cell_angle_beta   99.93878134
_cell_angle_gamma   99.93878369
_symmetry_Int_Tables_number   1
_chemical_formula_structural   LuPu7F30
_chemical_formula_sum   'Lu1 Pu7 F30'
_cell_volume   571.85045437
_cell_formula_units_Z   1
loop_
 _symmetry_equiv_pos_site_id
 _symmetry_equiv_pos_as_xyz
  1  'x, y, z'
loop_
 _atom_site_type_symbol
 _atom_site_label
 _atom_site_symmetry_multiplicity
 _atom_site_fract_x
 _atom_site_fract_y
 _atom_site_fract_z
 _atom_site_occupancy
  Lu  Lu0  1  0.250000  0.250000  0.250000  1
  Pu  Pu1  1  0.182897  0.750000  0.317103  1
  Pu  Pu2  1  0.250000  0.682863  0.817137  1
  Pu  Pu3  1  0.682863  0.817137  0.250000  1
  Pu  Pu4  1  0.750000  0.750000  0.750000  1
  Pu  Pu5  1  0.317103  0.182897  0.750000  1
  Pu  Pu6  1  0.750000  0.317103  0.182897  1
  Pu  Pu7  1  0.817137  0.250000  0.682863  1
  F  F8  1  0.951637  0.548363  0.250000  1
  F  F9  1  0.827515  0.354587  0.455682  1
  F  F10  1  0.487481  0.723810  0.707132  1
  F  F11  1  0.354587  0.455682  0.827515  1
  F  F12  1  0.012519  0.792868  0.776190  1
  F  F13  1  0.750000  0.037942  0.462058  1
  F  F14  1  0.952952  0.856794  0.333839  1
  F  F15  1  0.222805  0.219894  0.990020  1
  F  F16  1  0.776190  0.012519  0.792868  1
  F  F17  1  0.333839  0.952952  0.856794  1
  F  F18  1  0.280106  0.277195  0.509980  1
  F  F19  1  0.455682  0.827515  0.354587  1
  F  F20  1  0.548363  0.250000  0.951637  1
  F  F21  1  0.277195  0.509980  0.280106  1
  F  F22  1  0.145413  0.672485  0.044318  1
  F  F23  1  0.856794  0.333839  0.952952  1
  F  F24  1  0.707132  0.487481  0.723810  1
  F  F25  1  0.462058  0.750000  0.037942  1
  F  F26  1  0.547048  0.166161  0.643206  1
  F  F27  1  0.723810  0.707132  0.487481  1
  F  F28  1  0.672485  0.044318  0.145413  1
  F  F29  1  0.219894  0.990020  0.222805  1
  F  F30  1  0.792868  0.776190  0.012519  1
  F  F31  1  0.044318  0.145413  0.672485  1
  F  F32  1  0.250000  0.951637  0.548363  1
  F  F33  1  0.990020  0.222805  0.219894  1
  F  F34  1  0.643206  0.547048  0.166161  1
  F  F35  1  0.509980  0.280106  0.277195  1
  F  F36  1  0.166161  0.643206  0.547048  1
  F  F37  1  0.037942  0.462058  0.750000  1
