# generated using pymatgen
data_Lu20Al2Bi9Sb
_symmetry_space_group_name_H-M   'P 1'
_cell_length_a   8.05315304
_cell_length_b   9.31470200
_cell_length_c   11.71871883
_cell_angle_alpha   90.00000000
_cell_angle_beta   89.95700869
_cell_angle_gamma   90.00000000
_symmetry_Int_Tables_number   1
_chemical_formula_structural   Lu20Al2Bi9Sb
_chemical_formula_sum   'Lu20 Al2 Bi9 Sb1'
_cell_volume   879.05273479
_cell_formula_units_Z   1
loop_
 _symmetry_equiv_pos_site_id
 _symmetry_equiv_pos_as_xyz
  1  'x, y, z'
loop_
 _atom_site_type_symbol
 _atom_site_label
 _atom_site_symmetry_multiplicity
 _atom_site_fract_x
 _atom_site_fract_y
 _atom_site_fract_z
 _atom_site_occupancy
  Lu  Lu0  1  0.035311  0.250000  0.507493  1
  Lu  Lu1  1  0.974045  0.750000  0.491102  1
  Lu  Lu2  1  0.462088  0.750000  0.008458  1
  Lu  Lu3  1  0.522166  0.250000  0.990482  1
  Lu  Lu4  1  0.349294  0.250000  0.292509  1
  Lu  Lu5  1  0.650202  0.750000  0.712583  1
  Lu  Lu6  1  0.149051  0.750000  0.791604  1
  Lu  Lu7  1  0.848549  0.250000  0.217592  1
  Lu  Lu8  1  0.194742  0.250000  0.776489  1
  Lu  Lu9  1  0.815007  0.750000  0.213110  1
  Lu  Lu10  1  0.312439  0.750000  0.281117  1
  Lu  Lu11  1  0.681905  0.250000  0.710796  1
  Lu  Lu12  1  0.192819  0.053547  0.060101  1
  Lu  Lu13  1  0.813424  0.928201  0.944748  1
  Lu  Lu14  1  0.310085  0.942673  0.557019  1
  Lu  Lu15  1  0.813424  0.571799  0.944748  1
  Lu  Lu16  1  0.684895  0.068209  0.446078  1
  Lu  Lu17  1  0.192819  0.446453  0.060101  1
  Lu  Lu18  1  0.684895  0.431791  0.446078  1
  Lu  Lu19  1  0.310085  0.557327  0.557019  1
  Al  Al20  1  0.406035  0.250000  0.541223  1
  Al  Al21  1  0.091068  0.750000  0.042357  1
  Bi  Bi22  1  0.906611  0.250000  0.955638  1
  Bi  Bi23  1  0.058710  0.000107  0.322162  1
  Bi  Bi24  1  0.939720  0.998115  0.676652  1
  Bi  Bi25  1  0.441481  0.998082  0.821908  1
  Bi  Bi26  1  0.939720  0.501885  0.676652  1
  Bi  Bi27  1  0.561507  0.002837  0.177073  1
  Bi  Bi28  1  0.058710  0.499893  0.322162  1
  Bi  Bi29  1  0.561507  0.497163  0.177073  1
  Bi  Bi30  1  0.441481  0.501918  0.821908  1
  Sb  Sb31  1  0.596201  0.750000  0.455959  1
