# generated using pymatgen
data_Ta9NbSi5Ge
_symmetry_space_group_name_H-M   'P 1'
_cell_length_a   7.56673695
_cell_length_b   7.55829097
_cell_length_c   7.56286328
_cell_angle_alpha   128.27795844
_cell_angle_beta   128.31297373
_cell_angle_gamma   76.14162541
_symmetry_Int_Tables_number   1
_chemical_formula_structural   Ta9NbSi5Ge
_chemical_formula_sum   'Ta9 Nb1 Si5 Ge1'
_cell_volume   258.98086447
_cell_formula_units_Z   1
loop_
 _symmetry_equiv_pos_site_id
 _symmetry_equiv_pos_as_xyz
  1  'x, y, z'
loop_
 _atom_site_type_symbol
 _atom_site_label
 _atom_site_symmetry_multiplicity
 _atom_site_fract_x
 _atom_site_fract_y
 _atom_site_fract_z
 _atom_site_occupancy
  Ta  Ta0  1  0.517299  0.011703  0.828643  1
  Ta  Ta1  1  0.183261  0.688320  0.171213  1
  Ta  Ta2  1  0.487720  0.982600  0.171155  1
  Ta  Ta3  1  0.688176  0.517459  0.505467  1
  Ta  Ta4  1  0.982854  0.811459  0.494549  1
  Ta  Ta5  1  0.316545  0.488097  0.505400  1
  Ta  Ta6  1  0.811116  0.316898  0.828785  1
  Ta  Ta7  1  0.500950  0.500966  0.000441  1
  Ta  Ta8  1  0.999341  0.999308  0.999566  1
  Nb  Nb9  1  0.012980  0.183340  0.494818  1
  Si  Si10  1  0.130285  0.630436  0.760683  1
  Si  Si11  1  0.630376  0.869613  0.500012  1
  Si  Si12  1  0.369667  0.130206  0.500000  1
  Si  Si13  1  0.869612  0.369665  0.239311  1
  Si  Si14  1  0.749796  0.749860  0.999772  1
  Ge  Ge15  1  0.250022  0.250072  0.000184  1
