# generated using pymatgen
data_Ca4Y4ZnHg7
_symmetry_space_group_name_H-M   'P 1'
_cell_length_a   7.49277841
_cell_length_b   7.49563050
_cell_length_c   7.43860500
_cell_angle_alpha   90.00081344
_cell_angle_beta   90.00020752
_cell_angle_gamma   89.90725446
_symmetry_Int_Tables_number   1
_chemical_formula_structural   Ca4Y4ZnHg7
_chemical_formula_sum   'Ca4 Y4 Zn1 Hg7'
_cell_volume   417.77455704
_cell_formula_units_Z   1
loop_
 _symmetry_equiv_pos_site_id
 _symmetry_equiv_pos_as_xyz
  1  'x, y, z'
loop_
 _atom_site_type_symbol
 _atom_site_label
 _atom_site_symmetry_multiplicity
 _atom_site_fract_x
 _atom_site_fract_y
 _atom_site_fract_z
 _atom_site_occupancy
  Ca  Ca0  1  0.750492  0.251052  0.001210  1
  Ca  Ca1  1  0.248561  0.748960  0.498794  1
  Ca  Ca2  1  0.751427  0.251024  0.499046  1
  Ca  Ca3  1  0.249506  0.748946  0.000973  1
  Y  Y4  1  0.249270  0.251563  0.001624  1
  Y  Y5  1  0.750731  0.748440  0.001626  1
  Y  Y6  1  0.752169  0.748467  0.498365  1
  Y  Y7  1  0.247832  0.251534  0.498392  1
  Zn  Zn8  1  0.000217  0.500137  0.248579  1
  Hg  Hg9  1  0.000200  0.999877  0.248616  1
  Hg  Hg10  1  0.500195  0.000117  0.251374  1
  Hg  Hg11  1  0.500195  0.499886  0.251356  1
  Hg  Hg12  1  0.499802  0.500119  0.748611  1
  Hg  Hg13  1  0.499796  0.999879  0.748597  1
  Hg  Hg14  1  0.999799  0.000115  0.751382  1
  Hg  Hg15  1  0.999805  0.499889  0.751456  1
