# generated using pymatgen
data_Sm2Lu3V3(P3Ir4)4
_symmetry_space_group_name_H-M   'P 1'
_cell_length_a   12.68804700
_cell_length_b   12.68679670
_cell_length_c   3.95763100
_cell_angle_alpha   90.00000000
_cell_angle_beta   90.00000000
_cell_angle_gamma   119.99673246
_symmetry_Int_Tables_number   1
_chemical_formula_structural   Sm2Lu3V3(P3Ir4)4
_chemical_formula_sum   'Sm2 Lu3 V3 P12 Ir16'
_cell_volume   551.73049524
_cell_formula_units_Z   1
loop_
 _symmetry_equiv_pos_site_id
 _symmetry_equiv_pos_as_xyz
  1  'x, y, z'
loop_
 _atom_site_type_symbol
 _atom_site_label
 _atom_site_symmetry_multiplicity
 _atom_site_fract_x
 _atom_site_fract_y
 _atom_site_fract_z
 _atom_site_occupancy
  Sm  Sm0  1  0.189303  0.189230  0.000000  1
  Sm  Sm1  1  0.810697  0.999927  0.000000  1
  Lu  Lu2  1  0.333447  0.666691  0.500000  1
  Lu  Lu3  1  0.666553  0.333243  0.500000  1
  Lu  Lu4  1  0.000000  0.811268  0.000000  1
  V  V5  1  0.000000  0.452315  0.500000  1
  V  V6  1  0.550599  0.549010  0.500000  1
  V  V7  1  0.449401  0.998411  0.500000  1
  P  P8  1  0.000000  0.636302  0.500000  1
  P  P9  1  0.366514  0.366566  0.500000  1
  P  P10  1  0.633486  0.000052  0.500000  1
  P  P11  1  0.517043  0.684370  0.000000  1
  P  P12  1  0.315967  0.831835  0.000000  1
  P  P13  1  0.167977  0.484190  0.000000  1
  P  P14  1  0.482957  0.167328  0.000000  1
  P  P15  1  0.684033  0.515868  0.000000  1
  P  P16  1  0.832023  0.316215  0.000000  1
  P  P17  1  0.000000  0.177871  0.500000  1
  P  P18  1  0.823036  0.821176  0.500000  1
  P  P19  1  0.176964  0.998140  0.500000  1
  Ir  Ir20  1  0.507889  0.865905  0.000000  1
  Ir  Ir21  1  0.134370  0.642331  0.000000  1
  Ir  Ir22  1  0.358785  0.492876  0.000000  1
  Ir  Ir23  1  0.492111  0.358015  0.000000  1
  Ir  Ir24  1  0.865630  0.507959  0.000000  1
  Ir  Ir25  1  0.641215  0.134091  0.000000  1
  Ir  Ir26  1  0.000000  0.286339  0.000000  1
  Ir  Ir27  1  0.715411  0.713898  0.000000  1
  Ir  Ir28  1  0.284589  0.998487  0.000000  1
  Ir  Ir29  1  0.622671  0.800791  0.500000  1
  Ir  Ir30  1  0.193557  0.820089  0.500000  1
  Ir  Ir31  1  0.178954  0.377818  0.500000  1
  Ir  Ir32  1  0.377329  0.178120  0.500000  1
  Ir  Ir33  1  0.806443  0.626532  0.500000  1
  Ir  Ir34  1  0.821046  0.198865  0.500000  1
  Ir  Ir35  1  0.000000  0.997878  0.500000  1
