# generated using pymatgen
data_Tb10Dy10CoBi8Os3
_symmetry_space_group_name_H-M   'P 1'
_cell_length_a   7.99477405
_cell_length_b   9.02039500
_cell_length_c   12.49100509
_cell_angle_alpha   90.00000000
_cell_angle_beta   90.24810193
_cell_angle_gamma   90.00000000
_symmetry_Int_Tables_number   1
_chemical_formula_structural   Tb10Dy10CoBi8Os3
_chemical_formula_sum   'Tb10 Dy10 Co1 Bi8 Os3'
_cell_volume   900.79312544
_cell_formula_units_Z   1
loop_
 _symmetry_equiv_pos_site_id
 _symmetry_equiv_pos_as_xyz
  1  'x, y, z'
loop_
 _atom_site_type_symbol
 _atom_site_label
 _atom_site_symmetry_multiplicity
 _atom_site_fract_x
 _atom_site_fract_y
 _atom_site_fract_z
 _atom_site_occupancy
  Tb  Tb0  1  0.844075  0.750000  0.798881  1
  Tb  Tb1  1  0.158502  0.250000  0.207094  1
  Tb  Tb2  1  0.341738  0.250000  0.708518  1
  Tb  Tb3  1  0.656751  0.750000  0.293554  1
  Tb  Tb4  1  0.375723  0.750000  0.694446  1
  Tb  Tb5  1  0.622973  0.250000  0.306122  1
  Tb  Tb6  1  0.875271  0.250000  0.807059  1
  Tb  Tb7  1  0.121019  0.750000  0.187920  1
  Tb  Tb8  1  0.942464  0.750000  0.504924  1
  Tb  Tb9  1  0.553259  0.750000  0.003790  1
  Dy  Dy10  1  0.057781  0.250000  0.495755  1
  Dy  Dy11  1  0.445728  0.250000  0.996509  1
  Dy  Dy12  1  0.674405  0.042010  0.564105  1
  Dy  Dy13  1  0.324477  0.957234  0.435596  1
  Dy  Dy14  1  0.175800  0.958692  0.935752  1
  Dy  Dy15  1  0.324477  0.542766  0.435596  1
  Dy  Dy16  1  0.825437  0.038661  0.063131  1
  Dy  Dy17  1  0.674405  0.457990  0.564105  1
  Dy  Dy18  1  0.825437  0.461339  0.063131  1
  Dy  Dy19  1  0.175800  0.541308  0.935752  1
  Co  Co20  1  0.931193  0.750000  0.009205  1
  Bi  Bi21  1  0.570201  0.492706  0.828051  1
  Bi  Bi22  1  0.430804  0.507720  0.171738  1
  Bi  Bi23  1  0.068419  0.507483  0.672980  1
  Bi  Bi24  1  0.430804  0.992280  0.171738  1
  Bi  Bi25  1  0.931295  0.493107  0.326634  1
  Bi  Bi26  1  0.570201  0.007294  0.828051  1
  Bi  Bi27  1  0.931295  0.006893  0.326634  1
  Bi  Bi28  1  0.068419  0.992517  0.672980  1
  Os  Os29  1  0.574795  0.750000  0.511407  1
  Os  Os30  1  0.423890  0.250000  0.489305  1
  Os  Os31  1  0.073157  0.250000  0.989535  1
