# generated using pymatgen
data_La3Yb5(ReC2)4
_symmetry_space_group_name_H-M   'P 1'
_cell_length_a   5.25472400
_cell_length_b   6.59254696
_cell_length_c   10.56673743
_cell_angle_alpha   89.93936344
_cell_angle_beta   90.00000000
_cell_angle_gamma   90.00000000
_symmetry_Int_Tables_number   1
_chemical_formula_structural   La3Yb5(ReC2)4
_chemical_formula_sum   'La3 Yb5 Re4 C8'
_cell_volume   366.05286841
_cell_formula_units_Z   1
loop_
 _symmetry_equiv_pos_site_id
 _symmetry_equiv_pos_as_xyz
  1  'x, y, z'
loop_
 _atom_site_type_symbol
 _atom_site_label
 _atom_site_symmetry_multiplicity
 _atom_site_fract_x
 _atom_site_fract_y
 _atom_site_fract_z
 _atom_site_occupancy
  La  La0  1  0.250000  0.712714  0.547113  1
  La  La1  1  0.750000  0.289179  0.452326  1
  La  La2  1  0.750000  0.795774  0.043895  1
  Yb  Yb3  1  0.250000  0.203925  0.950758  1
  Yb  Yb4  1  0.250000  0.533079  0.222505  1
  Yb  Yb5  1  0.750000  0.459502  0.781143  1
  Yb  Yb6  1  0.750000  0.968508  0.735288  1
  Yb  Yb7  1  0.250000  0.031889  0.259595  1
  Re  Re8  1  0.250000  0.734774  0.856622  1
  Re  Re9  1  0.750000  0.268796  0.143953  1
  Re  Re10  1  0.750000  0.768668  0.349948  1
  Re  Re11  1  0.250000  0.234248  0.652778  1
  C  C12  1  0.250000  0.473821  0.759958  1
  C  C13  1  0.750000  0.530174  0.241454  1
  C  C14  1  0.750000  0.030250  0.252524  1
  C  C15  1  0.250000  0.970884  0.745707  1
  C  C16  1  0.250000  0.793815  0.031851  1
  C  C17  1  0.750000  0.201853  0.970408  1
  C  C18  1  0.750000  0.705894  0.524850  1
  C  C19  1  0.250000  0.292251  0.477325  1
