# generated using pymatgen
data_CaNd6ZnBr12
_symmetry_space_group_name_H-M   'P 1'
_cell_length_a   9.55104570
_cell_length_b   9.55161201
_cell_length_c   9.55297406
_cell_angle_alpha   107.26989138
_cell_angle_beta   107.13841078
_cell_angle_gamma   107.12654565
_symmetry_Int_Tables_number   1
_chemical_formula_structural   CaNd6ZnBr12
_chemical_formula_sum   'Ca1 Nd6 Zn1 Br12'
_cell_volume   722.23161659
_cell_formula_units_Z   1
loop_
 _symmetry_equiv_pos_site_id
 _symmetry_equiv_pos_as_xyz
  1  'x, y, z'
loop_
 _atom_site_type_symbol
 _atom_site_label
 _atom_site_symmetry_multiplicity
 _atom_site_fract_x
 _atom_site_fract_y
 _atom_site_fract_z
 _atom_site_occupancy
  Ca  Ca0  1  0.500000  0.500000  0.500000  1
  Nd  Nd1  1  0.323102  0.106205  0.026203  1
  Nd  Nd2  1  0.026117  0.323152  0.105678  1
  Nd  Nd3  1  0.106197  0.025700  0.322615  1
  Nd  Nd4  1  0.893803  0.974300  0.677386  1
  Nd  Nd5  1  0.973883  0.676849  0.894323  1
  Nd  Nd6  1  0.676899  0.893795  0.973798  1
  Zn  Zn7  1  0.000000  0.000000  0.000000  1
  Br  Br8  1  0.683330  0.223073  0.069746  1
  Br  Br9  1  0.378834  0.456053  0.164917  1
  Br  Br10  1  0.069689  0.683168  0.223067  1
  Br  Br11  1  0.777305  0.930465  0.316730  1
  Br  Br12  1  0.456080  0.164850  0.378764  1
  Br  Br13  1  0.164900  0.378919  0.456133  1
  Br  Br14  1  0.835100  0.621082  0.543867  1
  Br  Br15  1  0.543920  0.835151  0.621236  1
  Br  Br16  1  0.222696  0.069536  0.683270  1
  Br  Br17  1  0.930311  0.316832  0.776934  1
  Br  Br18  1  0.621167  0.543947  0.835083  1
  Br  Br19  1  0.316671  0.776927  0.930254  1
