# generated using pymatgen
data_BaHgH2Pt
_symmetry_space_group_name_H-M   'P 1'
_cell_length_a   4.90858400
_cell_length_b   4.90858275
_cell_length_c   8.41260200
_cell_angle_alpha   90.00000000
_cell_angle_beta   90.00000000
_cell_angle_gamma   120.00000841
_symmetry_Int_Tables_number   1
_chemical_formula_structural   BaHgH2Pt
_chemical_formula_sum   'Ba2 Hg2 H4 Pt2'
_cell_volume   175.53886352
_cell_formula_units_Z   2
loop_
 _symmetry_equiv_pos_site_id
 _symmetry_equiv_pos_as_xyz
  1  'x, y, z'
loop_
 _atom_site_type_symbol
 _atom_site_label
 _atom_site_symmetry_multiplicity
 _atom_site_fract_x
 _atom_site_fract_y
 _atom_site_fract_z
 _atom_site_occupancy
  Ba  Ba0  1  0.000000  0.000000  0.500000  1
  Ba  Ba1  1  0.000000  0.000000  0.000000  1
  Hg  Hg2  1  0.666667  0.333333  0.750000  1
  Hg  Hg3  1  0.333333  0.666667  0.250000  1
  H  H4  1  0.666667  0.333333  0.052358  1
  H  H5  1  0.333333  0.666667  0.947642  1
  H  H6  1  0.666667  0.333333  0.447642  1
  H  H7  1  0.333333  0.666667  0.552358  1
  Pt  Pt8  1  0.333333  0.666667  0.750000  1
  Pt  Pt9  1  0.666667  0.333333  0.250000  1
