# generated using pymatgen
data_Ba(ZrS2)4
_symmetry_space_group_name_H-M   'P 1'
_cell_length_a   8.74911089
_cell_length_b   8.74911004
_cell_length_c   8.74911033
_cell_angle_alpha   49.37480686
_cell_angle_beta   49.37481099
_cell_angle_gamma   49.37479842
_symmetry_Int_Tables_number   1
_chemical_formula_structural   Ba(ZrS2)4
_chemical_formula_sum   'Ba1 Zr4 S8'
_cell_volume   354.53221965
_cell_formula_units_Z   1
loop_
 _symmetry_equiv_pos_site_id
 _symmetry_equiv_pos_as_xyz
  1  'x, y, z'
loop_
 _atom_site_type_symbol
 _atom_site_label
 _atom_site_symmetry_multiplicity
 _atom_site_fract_x
 _atom_site_fract_y
 _atom_site_fract_z
 _atom_site_occupancy
  Ba  Ba0  1  0.500000  0.500000  0.500000  1
  Zr  Zr1  1  0.000000  0.500000  0.500000  1
  Zr  Zr2  1  0.500000  0.000000  0.500000  1
  Zr  Zr3  1  0.500000  0.500000  0.000000  1
  Zr  Zr4  1  0.000000  0.000000  0.000000  1
  S  S5  1  0.263543  0.768551  0.768551  1
  S  S6  1  0.231449  0.231449  0.736457  1
  S  S7  1  0.736457  0.231449  0.231449  1
  S  S8  1  0.231449  0.736457  0.231449  1
  S  S9  1  0.268399  0.268399  0.268399  1
  S  S10  1  0.731601  0.731601  0.731601  1
  S  S11  1  0.768551  0.263543  0.768551  1
  S  S12  1  0.768551  0.768551  0.263543  1
