# generated using pymatgen
data_Cs2Er7BBr18
_symmetry_space_group_name_H-M   'P 1'
_cell_length_a   10.60570158
_cell_length_b   10.60570152
_cell_length_c   11.47508595
_cell_angle_alpha   117.52390868
_cell_angle_beta   62.47609192
_cell_angle_gamma   120.00000183
_symmetry_Int_Tables_number   1
_chemical_formula_structural   Cs2Er7BBr18
_chemical_formula_sum   'Cs2 Er7 B1 Br18'
_cell_volume   945.36141449
_cell_formula_units_Z   1
loop_
 _symmetry_equiv_pos_site_id
 _symmetry_equiv_pos_as_xyz
  1  'x, y, z'
loop_
 _atom_site_type_symbol
 _atom_site_label
 _atom_site_symmetry_multiplicity
 _atom_site_fract_x
 _atom_site_fract_y
 _atom_site_fract_z
 _atom_site_occupancy
  Cs  Cs0  1  0.222146  0.777854  0.333566  1
  Cs  Cs1  1  0.777855  0.222145  0.666434  1
  Er  Er2  1  0.778482  0.107326  0.154546  1
  Er  Er3  1  0.892673  0.825702  0.154546  1
  Er  Er4  1  0.174299  0.221518  0.154546  1
  Er  Er5  1  0.500000  0.500000  0.500000  1
  Er  Er6  1  0.825702  0.778483  0.845454  1
  Er  Er7  1  0.107326  0.174297  0.845454  1
  Er  Er8  1  0.221517  0.892672  0.845454  1
  B  B9  1  0.000000  0.000000  0.000000  1
  Br  Br10  1  0.286471  0.424113  0.007370  1
  Br  Br11  1  0.575885  0.869728  0.007370  1
  Br  Br12  1  0.130273  0.713530  0.007370  1
  Br  Br13  1  0.946081  0.347851  0.333183  1
  Br  Br14  1  0.068587  0.053919  0.333183  1
  Br  Br15  1  0.652148  0.931413  0.333183  1
  Br  Br16  1  0.524463  0.214620  0.334039  1
  Br  Br17  1  0.785379  0.643881  0.334039  1
  Br  Br18  1  0.356119  0.475536  0.334039  1
  Br  Br19  1  0.643881  0.524464  0.665961  1
  Br  Br20  1  0.214622  0.356121  0.665961  1
  Br  Br21  1  0.475536  0.785379  0.665961  1
  Br  Br22  1  0.347851  0.068586  0.666816  1
  Br  Br23  1  0.931414  0.946080  0.666816  1
  Br  Br24  1  0.053919  0.652148  0.666816  1
  Br  Br25  1  0.869729  0.286471  0.992630  1
  Br  Br26  1  0.424113  0.130271  0.992630  1
  Br  Br27  1  0.713529  0.575887  0.992630  1
