# generated using pymatgen
data_YHo11Er8(CoBi2)4
_symmetry_space_group_name_H-M   'P 1'
_cell_length_a   7.94589262
_cell_length_b   8.86889000
_cell_length_c   12.35730502
_cell_angle_alpha   90.00000000
_cell_angle_beta   89.97445472
_cell_angle_gamma   90.00000000
_symmetry_Int_Tables_number   1
_chemical_formula_structural   YHo11Er8(CoBi2)4
_chemical_formula_sum   'Y1 Ho11 Er8 Co4 Bi8'
_cell_volume   870.83461473
_cell_formula_units_Z   1
loop_
 _symmetry_equiv_pos_site_id
 _symmetry_equiv_pos_as_xyz
  1  'x, y, z'
loop_
 _atom_site_type_symbol
 _atom_site_label
 _atom_site_symmetry_multiplicity
 _atom_site_fract_x
 _atom_site_fract_y
 _atom_site_fract_z
 _atom_site_occupancy
  Y  Y0  1  0.346712  0.750000  0.700536  1
  Ho  Ho1  1  0.652790  0.250000  0.300593  1
  Ho  Ho2  1  0.847340  0.250000  0.800742  1
  Ho  Ho3  1  0.152912  0.750000  0.199567  1
  Ho  Ho4  1  0.884630  0.750000  0.811200  1
  Ho  Ho5  1  0.114836  0.250000  0.188732  1
  Ho  Ho6  1  0.385116  0.250000  0.688726  1
  Ho  Ho7  1  0.615023  0.750000  0.310919  1
  Ho  Ho8  1  0.052140  0.750000  0.497675  1
  Ho  Ho9  1  0.947425  0.250000  0.501879  1
  Ho  Ho10  1  0.552716  0.250000  0.002275  1
  Ho  Ho11  1  0.447547  0.750000  0.998280  1
  Er  Er12  1  0.674821  0.537765  0.562461  1
  Er  Er13  1  0.325383  0.462199  0.437108  1
  Er  Er14  1  0.174619  0.462020  0.937174  1
  Er  Er15  1  0.325383  0.037801  0.437108  1
  Er  Er16  1  0.825497  0.537814  0.062984  1
  Er  Er17  1  0.674821  0.962235  0.562461  1
  Er  Er18  1  0.825497  0.962186  0.062984  1
  Er  Er19  1  0.174619  0.037980  0.937174  1
  Co  Co20  1  0.065556  0.750000  0.991805  1
  Co  Co21  1  0.934575  0.250000  0.008184  1
  Co  Co22  1  0.565374  0.250000  0.508115  1
  Co  Co23  1  0.434923  0.750000  0.491066  1
  Bi  Bi24  1  0.572061  0.509333  0.826943  1
  Bi  Bi25  1  0.428145  0.490258  0.173413  1
  Bi  Bi26  1  0.071378  0.490229  0.673198  1
  Bi  Bi27  1  0.428145  0.009742  0.173413  1
  Bi  Bi28  1  0.928286  0.509537  0.326572  1
  Bi  Bi29  1  0.572061  0.990667  0.826943  1
  Bi  Bi30  1  0.928286  0.990463  0.326572  1
  Bi  Bi31  1  0.071378  0.009771  0.673198  1
