# generated using pymatgen
data_TaTi5Al4(CoN)2
_symmetry_space_group_name_H-M   'P 1'
_cell_length_a   8.03446657
_cell_length_b   8.06680499
_cell_length_c   8.03446734
_cell_angle_alpha   59.86677718
_cell_angle_beta   60.26644861
_cell_angle_gamma   59.86677491
_symmetry_Int_Tables_number   1
_chemical_formula_structural   TaTi5Al4(CoN)2
_chemical_formula_sum   'Ta2 Ti10 Al8 Co4 N4'
_cell_volume   368.20236488
_cell_formula_units_Z   2
loop_
 _symmetry_equiv_pos_site_id
 _symmetry_equiv_pos_as_xyz
  1  'x, y, z'
loop_
 _atom_site_type_symbol
 _atom_site_label
 _atom_site_symmetry_multiplicity
 _atom_site_fract_x
 _atom_site_fract_y
 _atom_site_fract_z
 _atom_site_occupancy
  Ta  Ta0  1  0.688329  0.311671  0.688329  1
  Ta  Ta1  1  0.938329  0.561671  0.938329  1
  Ti  Ti2  1  0.562289  0.937711  0.562289  1
  Ti  Ti3  1  0.311724  0.688414  0.688757  1
  Ti  Ti4  1  0.688757  0.311104  0.311724  1
  Ti  Ti5  1  0.312289  0.687711  0.312289  1
  Ti  Ti6  1  0.688757  0.688414  0.311724  1
  Ti  Ti7  1  0.311724  0.311104  0.688757  1
  Ti  Ti8  1  0.561586  0.561243  0.938896  1
  Ti  Ti9  1  0.938896  0.561243  0.561586  1
  Ti  Ti10  1  0.561586  0.938276  0.938896  1
  Ti  Ti11  1  0.938896  0.938276  0.561586  1
  Al  Al12  1  0.916889  0.918823  0.916889  1
  Al  Al13  1  0.002598  0.333111  0.331177  1
  Al  Al14  1  0.333069  0.001652  0.333069  1
  Al  Al15  1  0.331177  0.333111  0.002598  1
  Al  Al16  1  0.916889  0.247402  0.916889  1
  Al  Al17  1  0.917791  0.916931  0.248348  1
  Al  Al18  1  0.248348  0.916931  0.917791  1
  Al  Al19  1  0.333069  0.332209  0.333069  1
  Co  Co20  1  0.124427  0.125986  0.124427  1
  Co  Co21  1  0.624840  0.125573  0.124014  1
  Co  Co22  1  0.124427  0.625160  0.124427  1
  Co  Co23  1  0.124014  0.125573  0.624840  1
  N  N24  1  0.624825  0.628275  0.624825  1
  N  N25  1  0.127924  0.625175  0.621725  1
  N  N26  1  0.624825  0.122076  0.624825  1
  N  N27  1  0.621725  0.625175  0.127924  1
