# generated using pymatgen
data_NdThCoB10
_symmetry_space_group_name_H-M   'P 1'
_cell_length_a   4.18733200
_cell_length_b   5.62778721
_cell_length_c   11.23393541
_cell_angle_alpha   90.19576798
_cell_angle_beta   90.00000000
_cell_angle_gamma   90.00000000
_symmetry_Int_Tables_number   1
_chemical_formula_structural   NdThCoB10
_chemical_formula_sum   'Nd2 Th2 Co2 B20'
_cell_volume   264.73078731
_cell_formula_units_Z   2
loop_
 _symmetry_equiv_pos_site_id
 _symmetry_equiv_pos_as_xyz
  1  'x, y, z'
loop_
 _atom_site_type_symbol
 _atom_site_label
 _atom_site_symmetry_multiplicity
 _atom_site_fract_x
 _atom_site_fract_y
 _atom_site_fract_z
 _atom_site_occupancy
  Nd  Nd0  1  0.500000  0.302154  0.865920  1
  Nd  Nd1  1  0.500000  0.697846  0.134080  1
  Th  Th2  1  0.500000  0.802023  0.635460  1
  Th  Th3  1  0.500000  0.197977  0.364540  1
  Co  Co4  1  0.000000  0.500000  0.500000  1
  Co  Co5  1  0.000000  0.000000  0.000000  1
  B  B6  1  0.000000  0.126897  0.540217  1
  B  B7  1  0.000000  0.873103  0.459783  1
  B  B8  1  0.000000  0.627445  0.959530  1
  B  B9  1  0.000000  0.372555  0.040470  1
  B  B10  1  0.000000  0.152781  0.696917  1
  B  B11  1  0.000000  0.847219  0.303083  1
  B  B12  1  0.299256  0.201038  0.113217  1
  B  B13  1  0.299256  0.798962  0.886783  1
  B  B14  1  0.700196  0.701273  0.386590  1
  B  B15  1  0.700196  0.298727  0.613410  1
  B  B16  1  0.700744  0.798962  0.886783  1
  B  B17  1  0.700744  0.201038  0.113217  1
  B  B18  1  0.299804  0.298727  0.613410  1
  B  B19  1  0.299804  0.701273  0.386590  1
  B  B20  1  0.000000  0.035165  0.187258  1
  B  B21  1  0.000000  0.964835  0.812742  1
  B  B22  1  0.000000  0.534703  0.313142  1
  B  B23  1  0.000000  0.465297  0.686858  1
  B  B24  1  0.000000  0.345291  0.197250  1
  B  B25  1  0.000000  0.654709  0.802750  1
