# generated using pymatgen
data_V9Ga4Tc2Os
_symmetry_space_group_name_H-M   'P 1'
_cell_length_a   4.76265200
_cell_length_b   4.77206352
_cell_length_c   9.68924105
_cell_angle_alpha   89.96018040
_cell_angle_beta   90.00000000
_cell_angle_gamma   90.00000000
_symmetry_Int_Tables_number   1
_chemical_formula_structural   V9Ga4Tc2Os
_chemical_formula_sum   'V9 Ga4 Tc2 Os1'
_cell_volume   220.21389627
_cell_formula_units_Z   1
loop_
 _symmetry_equiv_pos_site_id
 _symmetry_equiv_pos_as_xyz
  1  'x, y, z'
loop_
 _atom_site_type_symbol
 _atom_site_label
 _atom_site_symmetry_multiplicity
 _atom_site_fract_x
 _atom_site_fract_y
 _atom_site_fract_z
 _atom_site_occupancy
  V  V0  1  0.500000  0.751617  0.497561  1
  V  V1  1  0.748853  0.999718  0.252656  1
  V  V2  1  0.749682  0.999045  0.750319  1
  V  V3  1  0.000000  0.503901  0.122087  1
  V  V4  1  0.000000  0.497613  0.629455  1
  V  V5  1  0.500000  0.250750  0.998871  1
  V  V6  1  0.500000  0.245117  0.497839  1
  V  V7  1  0.251147  0.999718  0.252656  1
  V  V8  1  0.250318  0.999045  0.750319  1
  Ga  Ga9  1  0.500000  0.497644  0.248150  1
  Ga  Ga10  1  0.500000  0.497894  0.745417  1
  Ga  Ga11  1  0.000000  0.005056  0.003409  1
  Ga  Ga12  1  0.000000  0.998904  0.503727  1
  Tc  Tc13  1  0.000000  0.501437  0.874051  1
  Tc  Tc14  1  0.500000  0.753172  0.999853  1
  Os  Os15  1  0.000000  0.499366  0.373629  1
