# generated using pymatgen
data_CaZr4Si12Ir19
_symmetry_space_group_name_H-M   'P 1'
_cell_length_a   12.75588300
_cell_length_b   12.75588399
_cell_length_c   3.93028500
_cell_angle_alpha   90.00000000
_cell_angle_beta   90.00000000
_cell_angle_gamma   120.00000522
_symmetry_Int_Tables_number   1
_chemical_formula_structural   CaZr4Si12Ir19
_chemical_formula_sum   'Ca1 Zr4 Si12 Ir19'
_cell_volume   553.82906092
_cell_formula_units_Z   1
loop_
 _symmetry_equiv_pos_site_id
 _symmetry_equiv_pos_as_xyz
  1  'x, y, z'
loop_
 _atom_site_type_symbol
 _atom_site_label
 _atom_site_symmetry_multiplicity
 _atom_site_fract_x
 _atom_site_fract_y
 _atom_site_fract_z
 _atom_site_occupancy
  Ca  Ca0  1  0.333333  0.666667  0.000000  1
  Zr  Zr1  1  0.999171  0.184468  0.500000  1
  Zr  Zr2  1  0.815532  0.814703  0.500000  1
  Zr  Zr3  1  0.185297  0.000829  0.500000  1
  Zr  Zr4  1  0.666667  0.333333  0.000000  1
  Si  Si5  1  0.482366  0.312825  0.500000  1
  Si  Si6  1  0.822775  0.001225  0.000000  1
  Si  Si7  1  0.178451  0.177225  0.000000  1
  Si  Si8  1  0.998775  0.821549  0.000000  1
  Si  Si9  1  0.365265  0.999173  0.000000  1
  Si  Si10  1  0.687175  0.169541  0.500000  1
  Si  Si11  1  0.830459  0.517634  0.500000  1
  Si  Si12  1  0.517491  0.831749  0.500000  1
  Si  Si13  1  0.168251  0.685741  0.500000  1
  Si  Si14  1  0.314259  0.482509  0.500000  1
  Si  Si15  1  0.000827  0.366091  0.000000  1
  Si  Si16  1  0.633909  0.634735  0.000000  1
  Ir  Ir17  1  0.808247  0.182690  0.000000  1
  Ir  Ir18  1  0.374442  0.191753  0.000000  1
  Ir  Ir19  1  0.639949  0.509467  0.500000  1
  Ir  Ir20  1  0.869518  0.360051  0.500000  1
  Ir  Ir21  1  0.358845  0.875966  0.500000  1
  Ir  Ir22  1  0.517121  0.641155  0.500000  1
  Ir  Ir23  1  0.124034  0.482879  0.500000  1
  Ir  Ir24  1  0.817310  0.625558  0.000000  1
  Ir  Ir25  1  0.629992  0.820294  0.000000  1
  Ir  Ir26  1  0.179706  0.809698  0.000000  1
  Ir  Ir27  1  0.190302  0.370008  0.000000  1
  Ir  Ir28  1  0.999041  0.718816  0.500000  1
  Ir  Ir29  1  0.281184  0.280225  0.500000  1
  Ir  Ir30  1  0.719775  0.000959  0.500000  1
  Ir  Ir31  1  0.999385  0.552919  0.000000  1
  Ir  Ir32  1  0.447081  0.446466  0.000000  1
  Ir  Ir33  1  0.553534  0.000615  0.000000  1
  Ir  Ir34  1  0.000000  0.000000  0.000000  1
  Ir  Ir35  1  0.490533  0.130482  0.500000  1
