# generated using pymatgen
data_SrTc2Hg3O10
_symmetry_space_group_name_H-M   'P 1'
_cell_length_a   8.92978392
_cell_length_b   9.86731921
_cell_length_c   9.78856446
_cell_angle_alpha   121.36140833
_cell_angle_beta   102.59082796
_cell_angle_gamma   84.23860669
_symmetry_Int_Tables_number   1
_chemical_formula_structural   SrTc2Hg3O10
_chemical_formula_sum   'Sr2 Tc4 Hg6 O20'
_cell_volume   718.69046616
_cell_formula_units_Z   2
loop_
 _symmetry_equiv_pos_site_id
 _symmetry_equiv_pos_as_xyz
  1  'x, y, z'
loop_
 _atom_site_type_symbol
 _atom_site_label
 _atom_site_symmetry_multiplicity
 _atom_site_fract_x
 _atom_site_fract_y
 _atom_site_fract_z
 _atom_site_occupancy
  Sr  Sr0  1  0.000000  0.000000  0.000000  1
  Sr  Sr1  1  0.500000  0.000000  0.500000  1
  Tc  Tc2  1  0.890233  0.752386  0.482717  1
  Tc  Tc3  1  0.711275  0.326482  0.981114  1
  Tc  Tc4  1  0.288725  0.673518  0.018886  1
  Tc  Tc5  1  0.109767  0.247614  0.517283  1
  Hg  Hg6  1  0.364453  0.610098  0.424720  1
  Hg  Hg7  1  0.686109  0.679576  0.815164  1
  Hg  Hg8  1  0.635547  0.389902  0.575280  1
  Hg  Hg9  1  0.350793  0.960278  0.812122  1
  Hg  Hg10  1  0.313891  0.320424  0.184836  1
  Hg  Hg11  1  0.649207  0.039722  0.187878  1
  O  O12  1  0.242286  0.126312  0.563477  1
  O  O13  1  0.449095  0.839793  0.614131  1
  O  O14  1  0.105067  0.742808  0.981745  1
  O  O15  1  0.257544  0.078929  0.013420  1
  O  O16  1  0.035354  0.146387  0.306340  1
  O  O17  1  0.964646  0.853613  0.693660  1
  O  O18  1  0.364510  0.776978  0.229587  1
  O  O19  1  0.742456  0.921071  0.986580  1
  O  O20  1  0.894933  0.257192  0.018255  1
  O  O21  1  0.720068  0.526153  0.049469  1
  O  O22  1  0.039813  0.705857  0.379932  1
  O  O23  1  0.279932  0.473847  0.950531  1
  O  O24  1  0.757714  0.873688  0.436523  1
  O  O25  1  0.797556  0.581095  0.429060  1
  O  O26  1  0.202444  0.418905  0.570940  1
  O  O27  1  0.635490  0.223022  0.770413  1
  O  O28  1  0.550905  0.160207  0.385869  1
  O  O29  1  0.593344  0.292158  0.080160  1
  O  O30  1  0.960187  0.294143  0.620068  1
  O  O31  1  0.406656  0.707842  0.919840  1
