# generated using pymatgen
data_Tm4LuTlPd4
_symmetry_space_group_name_H-M   'P 1'
_cell_length_a   7.74099000
_cell_length_b   7.74099000
_cell_length_c   3.71098900
_cell_angle_alpha   90.00000000
_cell_angle_beta   90.00000000
_cell_angle_gamma   90.00000000
_symmetry_Int_Tables_number   1
_chemical_formula_structural   Tm4LuTlPd4
_chemical_formula_sum   'Tm4 Lu1 Tl1 Pd4'
_cell_volume   222.37331990
_cell_formula_units_Z   1
loop_
 _symmetry_equiv_pos_site_id
 _symmetry_equiv_pos_as_xyz
  1  'x, y, z'
loop_
 _atom_site_type_symbol
 _atom_site_label
 _atom_site_symmetry_multiplicity
 _atom_site_fract_x
 _atom_site_fract_y
 _atom_site_fract_z
 _atom_site_occupancy
  Tm  Tm0  1  0.645437  0.181777  0.500000  1
  Tm  Tm1  1  0.354563  0.818223  0.500000  1
  Tm  Tm2  1  0.181777  0.354563  0.500000  1
  Tm  Tm3  1  0.818223  0.645437  0.500000  1
  Lu  Lu4  1  0.000000  0.000000  0.000000  1
  Tl  Tl5  1  0.500000  0.500000  0.000000  1
  Pd  Pd6  1  0.119611  0.644416  0.000000  1
  Pd  Pd7  1  0.880389  0.355584  0.000000  1
  Pd  Pd8  1  0.644416  0.880389  0.000000  1
  Pd  Pd9  1  0.355584  0.119611  0.000000  1
