# generated using pymatgen
data_TmLu2Hf(NiP)4
_symmetry_space_group_name_H-M   'P 1'
_cell_length_a   3.85176900
_cell_length_b   3.85176855
_cell_length_c   14.75993900
_cell_angle_alpha   90.00000000
_cell_angle_beta   90.00000000
_cell_angle_gamma   120.00001242
_symmetry_Int_Tables_number   1
_chemical_formula_structural   TmLu2Hf(NiP)4
_chemical_formula_sum   'Tm1 Lu2 Hf1 Ni4 P4'
_cell_volume   189.64244975
_cell_formula_units_Z   1
loop_
 _symmetry_equiv_pos_site_id
 _symmetry_equiv_pos_as_xyz
  1  'x, y, z'
loop_
 _atom_site_type_symbol
 _atom_site_label
 _atom_site_symmetry_multiplicity
 _atom_site_fract_x
 _atom_site_fract_y
 _atom_site_fract_z
 _atom_site_occupancy
  Tm  Tm0  1  0.000000  0.000000  0.004810  1
  Lu  Lu1  1  0.000000  0.000000  0.495492  1
  Lu  Lu2  1  0.000000  0.000000  0.749450  1
  Hf  Hf3  1  0.000000  0.000000  0.250770  1
  Ni  Ni4  1  0.333333  0.666667  0.349461  1
  Ni  Ni5  1  0.666667  0.333333  0.625484  1
  Ni  Ni6  1  0.666667  0.333333  0.871058  1
  Ni  Ni7  1  0.333333  0.666667  0.153103  1
  P  P8  1  0.333333  0.666667  0.879868  1
  P  P9  1  0.666667  0.333333  0.125256  1
  P  P10  1  0.666667  0.333333  0.376422  1
  P  P11  1  0.333333  0.666667  0.618826  1
