# generated using pymatgen
data_Er3Tm3Bi2Ru
_symmetry_space_group_name_H-M   'P 1'
_cell_length_a   8.25409100
_cell_length_b   8.25409082
_cell_length_c   4.18322500
_cell_angle_alpha   90.00000000
_cell_angle_beta   90.00000000
_cell_angle_gamma   120.00000471
_symmetry_Int_Tables_number   1
_chemical_formula_structural   Er3Tm3Bi2Ru
_chemical_formula_sum   'Er3 Tm3 Bi2 Ru1'
_cell_volume   246.81999054
_cell_formula_units_Z   1
loop_
 _symmetry_equiv_pos_site_id
 _symmetry_equiv_pos_as_xyz
  1  'x, y, z'
loop_
 _atom_site_type_symbol
 _atom_site_label
 _atom_site_symmetry_multiplicity
 _atom_site_fract_x
 _atom_site_fract_y
 _atom_site_fract_z
 _atom_site_occupancy
  Er  Er0  1  0.611458  0.000000  0.000000  1
  Er  Er1  1  0.000000  0.611458  0.000000  1
  Er  Er2  1  0.388542  0.388542  0.000000  1
  Tm  Tm3  1  0.232785  0.000000  0.500000  1
  Tm  Tm4  1  0.000000  0.232785  0.500000  1
  Tm  Tm5  1  0.767215  0.767215  0.500000  1
  Bi  Bi6  1  0.333333  0.666667  0.500000  1
  Bi  Bi7  1  0.666667  0.333333  0.500000  1
  Ru  Ru8  1  0.000000  0.000000  0.000000  1
