# generated using pymatgen
data_LiYbHo3Ga17Pd6
_symmetry_space_group_name_H-M   'P 1'
_cell_length_a   7.65088659
_cell_length_b   7.63710522
_cell_length_c   9.52666200
_cell_angle_alpha   90.00000000
_cell_angle_beta   90.00000000
_cell_angle_gamma   119.41559181
_symmetry_Int_Tables_number   1
_chemical_formula_structural   LiYbHo3Ga17Pd6
_chemical_formula_sum   'Li1 Yb1 Ho3 Ga17 Pd6'
_cell_volume   484.88576302
_cell_formula_units_Z   1
loop_
 _symmetry_equiv_pos_site_id
 _symmetry_equiv_pos_as_xyz
  1  'x, y, z'
loop_
 _atom_site_type_symbol
 _atom_site_label
 _atom_site_symmetry_multiplicity
 _atom_site_fract_x
 _atom_site_fract_y
 _atom_site_fract_z
 _atom_site_occupancy
  Li  Li0  1  0.130317  0.131231  0.250000  1
  Yb  Yb1  1  0.005620  0.326814  0.750000  1
  Ho  Ho2  1  0.995736  0.659993  0.250000  1
  Ho  Ho3  1  0.663857  0.998187  0.250000  1
  Ho  Ho4  1  0.326983  0.003752  0.750000  1
  Ga  Ga5  1  0.865386  0.864313  0.750000  1
  Ga  Ga6  1  0.001714  0.327225  0.085650  1
  Ga  Ga7  1  0.001555  0.662220  0.919259  1
  Ga  Ga8  1  0.001555  0.662220  0.580741  1
  Ga  Ga9  1  0.326520  0.000665  0.411546  1
  Ga  Ga10  1  0.001714  0.327225  0.414350  1
  Ga  Ga11  1  0.665212  0.003285  0.580915  1
  Ga  Ga12  1  0.665212  0.003285  0.919085  1
  Ga  Ga13  1  0.326520  0.000665  0.088454  1
  Ga  Ga14  1  0.333457  0.334243  0.552845  1
  Ga  Ga15  1  0.675569  0.675641  0.429264  1
  Ga  Ga16  1  0.675569  0.675641  0.070736  1
  Ga  Ga17  1  0.333457  0.334243  0.947155  1
  Ga  Ga18  1  0.340912  0.539950  0.250000  1
  Ga  Ga19  1  0.653265  0.448597  0.750000  1
  Ga  Ga20  1  0.537533  0.342786  0.250000  1
  Ga  Ga21  1  0.451093  0.657331  0.750000  1
  Pd  Pd22  1  0.675824  0.331639  0.001731  1
  Pd  Pd23  1  0.333022  0.678069  0.000947  1
  Pd  Pd24  1  0.333022  0.678069  0.499053  1
  Pd  Pd25  1  0.675824  0.331639  0.498269  1
  Pd  Pd26  1  0.001779  0.000538  0.995071  1
  Pd  Pd27  1  0.001779  0.000538  0.504929  1
