# generated using pymatgen
data_Ti12Al7GaO4
_symmetry_space_group_name_H-M   'P 1'
_cell_length_a   6.91463007
_cell_length_b   6.91463007
_cell_length_c   6.91463007
_cell_angle_alpha   89.98849822
_cell_angle_beta   89.98849822
_cell_angle_gamma   89.98849822
_symmetry_Int_Tables_number   1
_chemical_formula_structural   Ti12Al7GaO4
_chemical_formula_sum   'Ti12 Al7 Ga1 O4'
_cell_volume   330.60302660
_cell_formula_units_Z   1
loop_
 _symmetry_equiv_pos_site_id
 _symmetry_equiv_pos_as_xyz
  1  'x, y, z'
loop_
 _atom_site_type_symbol
 _atom_site_label
 _atom_site_symmetry_multiplicity
 _atom_site_fract_x
 _atom_site_fract_y
 _atom_site_fract_z
 _atom_site_occupancy
  Ti  Ti0  1  0.792248  0.957859  0.375936  1
  Ti  Ti1  1  0.707592  0.041711  0.874652  1
  Ti  Ti2  1  0.207834  0.458814  0.124444  1
  Ti  Ti3  1  0.292009  0.541138  0.625791  1
  Ti  Ti4  1  0.957859  0.375936  0.792248  1
  Ti  Ti5  1  0.041711  0.874652  0.707592  1
  Ti  Ti6  1  0.458814  0.124444  0.207834  1
  Ti  Ti7  1  0.541138  0.625791  0.292009  1
  Ti  Ti8  1  0.375936  0.792248  0.957859  1
  Ti  Ti9  1  0.874652  0.707592  0.041711  1
  Ti  Ti10  1  0.124444  0.207834  0.458814  1
  Ti  Ti11  1  0.625791  0.292009  0.541138  1
  Al  Al12  1  0.178939  0.821488  0.319909  1
  Al  Al13  1  0.319909  0.178939  0.821488  1
  Al  Al14  1  0.821488  0.319909  0.178939  1
  Al  Al15  1  0.679605  0.679605  0.679605  1
  Al  Al16  1  0.570770  0.428917  0.929273  1
  Al  Al17  1  0.428917  0.929273  0.570770  1
  Al  Al18  1  0.929273  0.570770  0.428917  1
  Ga  Ga19  1  0.069723  0.069723  0.069723  1
  O  O20  1  0.875746  0.124942  0.626178  1
  O  O21  1  0.626178  0.875746  0.124942  1
  O  O22  1  0.124942  0.626178  0.875746  1
  O  O23  1  0.374480  0.374480  0.374480  1
