# generated using pymatgen
data_Y6Tm2Sc12Si15Sn
_symmetry_space_group_name_H-M   'P 1'
_cell_length_a   7.11991444
_cell_length_b   7.41460215
_cell_length_c   14.04788805
_cell_angle_alpha   89.97732074
_cell_angle_beta   89.56579521
_cell_angle_gamma   90.06798769
_symmetry_Int_Tables_number   1
_chemical_formula_structural   Y6Tm2Sc12Si15Sn
_chemical_formula_sum   'Y6 Tm2 Sc12 Si15 Sn1'
_cell_volume   741.58485718
_cell_formula_units_Z   1
loop_
 _symmetry_equiv_pos_site_id
 _symmetry_equiv_pos_as_xyz
  1  'x, y, z'
loop_
 _atom_site_type_symbol
 _atom_site_label
 _atom_site_symmetry_multiplicity
 _atom_site_fract_x
 _atom_site_fract_y
 _atom_site_fract_z
 _atom_site_occupancy
  Y  Y0  1  0.011354  0.176191  0.096433  1
  Y  Y1  1  0.988432  0.824434  0.904451  1
  Y  Y2  1  0.489093  0.676229  0.904685  1
  Y  Y3  1  0.989148  0.829779  0.597931  1
  Y  Y4  1  0.510846  0.323812  0.096413  1
  Y  Y5  1  0.005658  0.170147  0.399602  1
  Tm  Tm6  1  0.513056  0.319562  0.399562  1
  Tm  Tm7  1  0.501514  0.685430  0.599934  1
  Sc  Sc8  1  0.162176  0.501831  0.754837  1
  Sc  Sc9  1  0.837120  0.497916  0.249507  1
  Sc  Sc10  1  0.337909  0.002676  0.249627  1
  Sc  Sc11  1  0.663567  0.997423  0.751418  1
  Sc  Sc12  1  0.343296  0.162675  0.630893  1
  Sc  Sc13  1  0.663779  0.824680  0.372637  1
  Sc  Sc14  1  0.163585  0.683326  0.368993  1
  Sc  Sc15  1  0.667814  0.823013  0.124598  1
  Sc  Sc16  1  0.823108  0.323834  0.626748  1
  Sc  Sc17  1  0.330831  0.175936  0.875146  1
  Sc  Sc18  1  0.830999  0.323254  0.875151  1
  Sc  Sc19  1  0.168904  0.676792  0.125493  1
  Si  Si20  1  0.034681  0.118131  0.751238  1
  Si  Si21  1  0.963393  0.885586  0.246911  1
  Si  Si22  1  0.465850  0.614083  0.249021  1
  Si  Si23  1  0.532450  0.386713  0.751709  1
  Si  Si24  1  0.287068  0.869257  0.751730  1
  Si  Si25  1  0.711873  0.127532  0.248107  1
  Si  Si26  1  0.213145  0.372585  0.249681  1
  Si  Si27  1  0.788246  0.628243  0.750948  1
  Si  Si28  1  0.828270  0.538413  0.458630  1
  Si  Si29  1  0.338888  0.964104  0.460225  1
  Si  Si30  1  0.842449  0.534918  0.039437  1
  Si  Si31  1  0.661326  0.037176  0.537930  1
  Si  Si32  1  0.156744  0.464510  0.961621  1
  Si  Si33  1  0.657091  0.035416  0.960711  1
  Si  Si34  1  0.341837  0.965148  0.039860  1
  Sn  Sn35  1  0.174499  0.459245  0.538180  1
