# generated using pymatgen
data_Pr2Zn6Si2Ge
_symmetry_space_group_name_H-M   'P 1'
_cell_length_a   7.61667035
_cell_length_b   7.63369853
_cell_length_c   4.10756100
_cell_angle_alpha   90.00000000
_cell_angle_beta   90.00000000
_cell_angle_gamma   120.07398072
_symmetry_Int_Tables_number   1
_chemical_formula_structural   Pr2Zn6Si2Ge
_chemical_formula_sum   'Pr2 Zn6 Si2 Ge1'
_cell_volume   206.67625209
_cell_formula_units_Z   1
loop_
 _symmetry_equiv_pos_site_id
 _symmetry_equiv_pos_as_xyz
  1  'x, y, z'
loop_
 _atom_site_type_symbol
 _atom_site_label
 _atom_site_symmetry_multiplicity
 _atom_site_fract_x
 _atom_site_fract_y
 _atom_site_fract_z
 _atom_site_occupancy
  Pr  Pr0  1  0.665175  0.333056  0.000000  1
  Pr  Pr1  1  0.334825  0.667883  0.000000  1
  Zn  Zn2  1  0.700037  0.994720  0.500000  1
  Zn  Zn3  1  0.000000  0.714356  0.500000  1
  Zn  Zn4  1  0.191925  0.998741  0.000000  1
  Zn  Zn5  1  0.808075  0.806817  0.000000  1
  Zn  Zn6  1  0.299963  0.294683  0.500000  1
  Zn  Zn7  1  0.000000  0.186711  0.000000  1
  Si  Si8  1  0.375959  0.999812  0.500000  1
  Si  Si9  1  0.624041  0.623853  0.500000  1
  Ge  Ge10  1  0.000000  0.379366  0.500000  1
