# generated using pymatgen
data_Nd3Sn3Ir2Pt
_symmetry_space_group_name_H-M   'P 1'
_cell_length_a   7.58010500
_cell_length_b   7.58010519
_cell_length_c   4.13648100
_cell_angle_alpha   90.00000000
_cell_angle_beta   90.00000000
_cell_angle_gamma   119.99999481
_symmetry_Int_Tables_number   1
_chemical_formula_structural   Nd3Sn3Ir2Pt
_chemical_formula_sum   'Nd3 Sn3 Ir2 Pt1'
_cell_volume   205.83164368
_cell_formula_units_Z   1
loop_
 _symmetry_equiv_pos_site_id
 _symmetry_equiv_pos_as_xyz
  1  'x, y, z'
loop_
 _atom_site_type_symbol
 _atom_site_label
 _atom_site_symmetry_multiplicity
 _atom_site_fract_x
 _atom_site_fract_y
 _atom_site_fract_z
 _atom_site_occupancy
  Nd  Nd0  1  0.593121  0.005224  0.000000  1
  Nd  Nd1  1  0.994776  0.587897  0.000000  1
  Nd  Nd2  1  0.412103  0.406879  0.000000  1
  Sn  Sn3  1  0.252481  0.002579  0.500000  1
  Sn  Sn4  1  0.997421  0.249902  0.500000  1
  Sn  Sn5  1  0.750098  0.747519  0.500000  1
  Ir  Ir6  1  0.666667  0.333333  0.500000  1
  Ir  Ir7  1  0.000000  0.000000  0.000000  1
  Pt  Pt8  1  0.333333  0.666667  0.500000  1
