# generated using pymatgen
data_DyZr(NiP)3
_symmetry_space_group_name_H-M   'P 1'
_cell_length_a   3.74260200
_cell_length_b   10.17306000
_cell_length_c   12.34689300
_cell_angle_alpha   90.00000000
_cell_angle_beta   90.00000000
_cell_angle_gamma   90.00000000
_symmetry_Int_Tables_number   1
_chemical_formula_structural   DyZr(NiP)3
_chemical_formula_sum   'Dy4 Zr4 Ni12 P12'
_cell_volume   470.09208154
_cell_formula_units_Z   4
loop_
 _symmetry_equiv_pos_site_id
 _symmetry_equiv_pos_as_xyz
  1  'x, y, z'
loop_
 _atom_site_type_symbol
 _atom_site_label
 _atom_site_symmetry_multiplicity
 _atom_site_fract_x
 _atom_site_fract_y
 _atom_site_fract_z
 _atom_site_occupancy
  Dy  Dy0  1  0.250000  0.071289  0.207396  1
  Dy  Dy1  1  0.750000  0.928711  0.792604  1
  Dy  Dy2  1  0.750000  0.571289  0.292604  1
  Dy  Dy3  1  0.250000  0.428711  0.707396  1
  Zr  Zr4  1  0.250000  0.159464  0.497293  1
  Zr  Zr5  1  0.750000  0.840536  0.502707  1
  Zr  Zr6  1  0.750000  0.659464  0.002707  1
  Zr  Zr7  1  0.250000  0.340536  0.997293  1
  Ni  Ni8  1  0.250000  0.727906  0.664215  1
  Ni  Ni9  1  0.750000  0.272094  0.335785  1
  Ni  Ni10  1  0.750000  0.227906  0.835785  1
  Ni  Ni11  1  0.250000  0.772094  0.164215  1
  Ni  Ni12  1  0.250000  0.365516  0.219254  1
  Ni  Ni13  1  0.750000  0.634484  0.780746  1
  Ni  Ni14  1  0.750000  0.865516  0.280746  1
  Ni  Ni15  1  0.250000  0.134484  0.719254  1
  Ni  Ni16  1  0.250000  0.597646  0.483367  1
  Ni  Ni17  1  0.750000  0.402354  0.516633  1
  Ni  Ni18  1  0.750000  0.097646  0.016633  1
  Ni  Ni19  1  0.250000  0.902354  0.983367  1
  P  P20  1  0.250000  0.945039  0.623942  1
  P  P21  1  0.750000  0.054961  0.376058  1
  P  P22  1  0.750000  0.445039  0.876058  1
  P  P23  1  0.250000  0.554961  0.123942  1
  P  P24  1  0.250000  0.394241  0.402095  1
  P  P25  1  0.750000  0.605759  0.597905  1
  P  P26  1  0.750000  0.894241  0.097905  1
  P  P27  1  0.250000  0.105759  0.902095  1
  P  P28  1  0.250000  0.770301  0.354063  1
  P  P29  1  0.750000  0.229699  0.645937  1
  P  P30  1  0.750000  0.270301  0.145937  1
  P  P31  1  0.250000  0.729699  0.854063  1
