# generated using pymatgen
data_Lu8B24Ir2RuW
_symmetry_space_group_name_H-M   'P 1'
_cell_length_a   3.59226300
_cell_length_b   9.06673785
_cell_length_c   11.43765258
_cell_angle_alpha   89.83718095
_cell_angle_beta   90.00000000
_cell_angle_gamma   90.00000000
_symmetry_Int_Tables_number   1
_chemical_formula_structural   Lu8B24Ir2RuW
_chemical_formula_sum   'Lu8 B24 Ir2 Ru1 W1'
_cell_volume   372.52406311
_cell_formula_units_Z   1
loop_
 _symmetry_equiv_pos_site_id
 _symmetry_equiv_pos_as_xyz
  1  'x, y, z'
loop_
 _atom_site_type_symbol
 _atom_site_label
 _atom_site_symmetry_multiplicity
 _atom_site_fract_x
 _atom_site_fract_y
 _atom_site_fract_z
 _atom_site_occupancy
  Lu  Lu0  1  0.000000  0.322555  0.413134  1
  Lu  Lu1  1  0.000000  0.681756  0.584271  1
  Lu  Lu2  1  0.000000  0.816340  0.087839  1
  Lu  Lu3  1  0.000000  0.176915  0.914035  1
  Lu  Lu4  1  0.000000  0.944656  0.375377  1
  Lu  Lu5  1  0.000000  0.054901  0.627825  1
  Lu  Lu6  1  0.000000  0.445214  0.124967  1
  Lu  Lu7  1  0.000000  0.558237  0.872762  1
  B  B8  1  0.500000  0.551135  0.436740  1
  B  B9  1  0.500000  0.446865  0.566972  1
  B  B10  1  0.500000  0.052332  0.065573  1
  B  B11  1  0.500000  0.946248  0.933901  1
  B  B12  1  0.500000  0.751326  0.422640  1
  B  B13  1  0.500000  0.250223  0.579334  1
  B  B14  1  0.500000  0.249932  0.077878  1
  B  B15  1  0.500000  0.750166  0.919768  1
  B  B16  1  0.500000  0.795397  0.263847  1
  B  B17  1  0.500000  0.207027  0.735657  1
  B  B18  1  0.500000  0.292084  0.233121  1
  B  B19  1  0.500000  0.708707  0.765359  1
  B  B20  1  0.500000  0.631156  0.182293  1
  B  B21  1  0.500000  0.367911  0.817105  1
  B  B22  1  0.500000  0.131752  0.316385  1
  B  B23  1  0.500000  0.870020  0.684466  1
  B  B24  1  0.500000  0.981010  0.212717  1
  B  B25  1  0.500000  0.018460  0.787491  1
  B  B26  1  0.500000  0.477248  0.286295  1
  B  B27  1  0.500000  0.518931  0.713196  1
  B  B28  1  0.500000  0.605867  0.027419  1
  B  B29  1  0.500000  0.392266  0.969422  1
  B  B30  1  0.500000  0.108120  0.471358  1
  B  B31  1  0.500000  0.896122  0.530752  1
  Ir  Ir32  1  0.000000  0.361266  0.679872  1
  Ir  Ir33  1  0.000000  0.137880  0.177890  1
  Ru  Ru34  1  0.000000  0.862556  0.821234  1
  W  W35  1  0.000000  0.637420  0.321103  1
