# generated using pymatgen
data_Pr17Y3Sn16
_symmetry_space_group_name_H-M   'P 1'
_cell_length_a   8.32200840
_cell_length_b   8.46743941
_cell_length_c   16.07000000
_cell_angle_alpha   90.00000000
_cell_angle_beta   90.00000000
_cell_angle_gamma   89.96447618
_symmetry_Int_Tables_number   1
_chemical_formula_structural   Pr17Y3Sn16
_chemical_formula_sum   'Pr17 Y3 Sn16'
_cell_volume   1132.39003939
_cell_formula_units_Z   1
loop_
 _symmetry_equiv_pos_site_id
 _symmetry_equiv_pos_as_xyz
  1  'x, y, z'
loop_
 _atom_site_type_symbol
 _atom_site_label
 _atom_site_symmetry_multiplicity
 _atom_site_fract_x
 _atom_site_fract_y
 _atom_site_fract_z
 _atom_site_occupancy
  Pr  Pr0  1  0.367877  0.837012  0.879551  1
  Pr  Pr1  1  0.866970  0.663681  0.620643  1
  Pr  Pr2  1  0.632662  0.163014  0.379220  1
  Pr  Pr3  1  0.132758  0.337008  0.121447  1
  Pr  Pr4  1  0.632662  0.163014  0.120780  1
  Pr  Pr5  1  0.132758  0.337008  0.378553  1
  Pr  Pr6  1  0.367877  0.837012  0.620449  1
  Pr  Pr7  1  0.866970  0.663681  0.879357  1
  Pr  Pr8  1  0.520522  0.319180  0.901485  1
  Pr  Pr9  1  0.019577  0.179724  0.598577  1
  Pr  Pr10  1  0.479805  0.680258  0.400920  1
  Pr  Pr11  1  0.980111  0.819573  0.098726  1
  Pr  Pr12  1  0.479805  0.680258  0.099080  1
  Pr  Pr13  1  0.980111  0.819573  0.401274  1
  Pr  Pr14  1  0.520522  0.319180  0.598515  1
  Pr  Pr15  1  0.019577  0.179724  0.901423  1
  Pr  Pr16  1  0.198269  0.501245  0.750000  1
  Y  Y17  1  0.700075  0.998696  0.750000  1
  Y  Y18  1  0.800039  0.499151  0.250000  1
  Y  Y19  1  0.299926  0.000614  0.250000  1
  Sn  Sn20  1  0.292381  0.034336  0.044084  1
  Sn  Sn21  1  0.792507  0.465911  0.455957  1
  Sn  Sn22  1  0.707473  0.965629  0.543783  1
  Sn  Sn23  1  0.207416  0.535515  0.958064  1
  Sn  Sn24  1  0.707473  0.965629  0.956217  1
  Sn  Sn25  1  0.207416  0.535515  0.541936  1
  Sn  Sn26  1  0.292381  0.034336  0.455916  1
  Sn  Sn27  1  0.792507  0.465911  0.044043  1
  Sn  Sn28  1  0.569419  0.617053  0.750000  1
  Sn  Sn29  1  0.064333  0.886574  0.750000  1
  Sn  Sn30  1  0.435109  0.383919  0.250000  1
  Sn  Sn31  1  0.934767  0.115867  0.250000  1
  Sn  Sn32  1  0.327525  0.142562  0.750000  1
  Sn  Sn33  1  0.824127  0.351968  0.750000  1
  Sn  Sn34  1  0.673410  0.853539  0.250000  1
  Sn  Sn35  1  0.172883  0.647129  0.250000  1
