# generated using pymatgen
data_Li3Pr4AlRh4
_symmetry_space_group_name_H-M   'P 1'
_cell_length_a   4.10719300
_cell_length_b   7.15992050
_cell_length_c   8.59279412
_cell_angle_alpha   90.32546473
_cell_angle_beta   90.00000000
_cell_angle_gamma   90.00000000
_symmetry_Int_Tables_number   1
_chemical_formula_structural   Li3Pr4AlRh4
_chemical_formula_sum   'Li3 Pr4 Al1 Rh4'
_cell_volume   252.68572659
_cell_formula_units_Z   1
loop_
 _symmetry_equiv_pos_site_id
 _symmetry_equiv_pos_as_xyz
  1  'x, y, z'
loop_
 _atom_site_type_symbol
 _atom_site_label
 _atom_site_symmetry_multiplicity
 _atom_site_fract_x
 _atom_site_fract_y
 _atom_site_fract_z
 _atom_site_occupancy
  Li  Li0  1  0.250000  0.623904  0.549547  1
  Li  Li1  1  0.750000  0.371987  0.448190  1
  Li  Li2  1  0.750000  0.873681  0.055228  1
  Pr  Pr3  1  0.250000  0.545305  0.178490  1
  Pr  Pr4  1  0.750000  0.459913  0.817752  1
  Pr  Pr5  1  0.750000  0.955773  0.683749  1
  Pr  Pr6  1  0.250000  0.041113  0.317305  1
  Al  Al7  1  0.250000  0.127600  0.945103  1
  Rh  Rh8  1  0.250000  0.764401  0.883026  1
  Rh  Rh9  1  0.750000  0.240963  0.104505  1
  Rh  Rh10  1  0.750000  0.754789  0.370067  1
  Rh  Rh11  1  0.250000  0.240569  0.647037  1
