# generated using pymatgen
data_GdDy(ScIr)2
_symmetry_space_group_name_H-M   'P 1'
_cell_length_a   7.18298500
_cell_length_b   4.29401900
_cell_length_c   8.83613900
_cell_angle_alpha   90.00000000
_cell_angle_beta   90.00000000
_cell_angle_gamma   90.00000000
_symmetry_Int_Tables_number   1
_chemical_formula_structural   GdDy(ScIr)2
_chemical_formula_sum   'Gd2 Dy2 Sc4 Ir4'
_cell_volume   272.54075855
_cell_formula_units_Z   2
loop_
 _symmetry_equiv_pos_site_id
 _symmetry_equiv_pos_as_xyz
  1  'x, y, z'
loop_
 _atom_site_type_symbol
 _atom_site_label
 _atom_site_symmetry_multiplicity
 _atom_site_fract_x
 _atom_site_fract_y
 _atom_site_fract_z
 _atom_site_occupancy
  Gd  Gd0  1  0.014906  0.750000  0.826745  1
  Gd  Gd1  1  0.514906  0.750000  0.673255  1
  Dy  Dy2  1  0.982627  0.250000  0.174662  1
  Dy  Dy3  1  0.482627  0.250000  0.325338  1
  Sc  Sc4  1  0.860629  0.250000  0.561159  1
  Sc  Sc5  1  0.360629  0.250000  0.938841  1
  Sc  Sc6  1  0.140721  0.750000  0.432085  1
  Sc  Sc7  1  0.640721  0.750000  0.067915  1
  Ir  Ir8  1  0.738495  0.250000  0.899251  1
  Ir  Ir9  1  0.238495  0.250000  0.600749  1
  Ir  Ir10  1  0.262622  0.750000  0.106973  1
  Ir  Ir11  1  0.762622  0.750000  0.393027  1
