# generated using pymatgen
data_Y2TmHf3(SnRh)6
_symmetry_space_group_name_H-M   'P 1'
_cell_length_a   7.47823001
_cell_length_b   7.46869548
_cell_length_c   7.52920900
_cell_angle_alpha   90.00000000
_cell_angle_beta   90.00000000
_cell_angle_gamma   120.04772100
_symmetry_Int_Tables_number   1
_chemical_formula_structural   Y2TmHf3(SnRh)6
_chemical_formula_sum   'Y2 Tm1 Hf3 Sn6 Rh6'
_cell_volume   364.01100680
_cell_formula_units_Z   1
loop_
 _symmetry_equiv_pos_site_id
 _symmetry_equiv_pos_as_xyz
  1  'x, y, z'
loop_
 _atom_site_type_symbol
 _atom_site_label
 _atom_site_symmetry_multiplicity
 _atom_site_fract_x
 _atom_site_fract_y
 _atom_site_fract_z
 _atom_site_occupancy
  Y  Y0  1  0.999966  0.406083  0.750000  1
  Y  Y1  1  0.593974  0.593801  0.750000  1
  Tm  Tm2  1  0.405302  0.000189  0.750000  1
  Hf  Hf3  1  0.998919  0.392864  0.250000  1
  Hf  Hf4  1  0.606957  0.606215  0.250000  1
  Hf  Hf5  1  0.393913  0.000907  0.250000  1
  Sn  Sn6  1  0.266529  0.266665  0.492984  1
  Sn  Sn7  1  0.001153  0.733976  0.493003  1
  Sn  Sn8  1  0.001153  0.733976  0.006997  1
  Sn  Sn9  1  0.732506  0.999291  0.494301  1
  Sn  Sn10  1  0.732506  0.999291  0.005699  1
  Sn  Sn11  1  0.266529  0.266665  0.007016  1
  Rh  Rh12  1  0.333531  0.667771  0.459814  1
  Rh  Rh13  1  0.665822  0.332276  0.461385  1
  Rh  Rh14  1  0.333531  0.667771  0.040186  1
  Rh  Rh15  1  0.002347  0.999994  0.750000  1
  Rh  Rh16  1  0.999538  0.999992  0.250000  1
  Rh  Rh17  1  0.665822  0.332276  0.038615  1
