# generated using pymatgen
data_Tb5Ho11(In3Rh)2
_symmetry_space_group_name_H-M   'P 1'
_cell_length_a   10.42198701
_cell_length_b   10.42198742
_cell_length_c   7.02202700
_cell_angle_alpha   89.99732375
_cell_angle_beta   90.00267403
_cell_angle_gamma   119.99502856
_symmetry_Int_Tables_number   1
_chemical_formula_structural   Tb5Ho11(In3Rh)2
_chemical_formula_sum   'Tb5 Ho11 In6 Rh2'
_cell_volume   660.56559856
_cell_formula_units_Z   1
loop_
 _symmetry_equiv_pos_site_id
 _symmetry_equiv_pos_as_xyz
  1  'x, y, z'
loop_
 _atom_site_type_symbol
 _atom_site_label
 _atom_site_symmetry_multiplicity
 _atom_site_fract_x
 _atom_site_fract_y
 _atom_site_fract_z
 _atom_site_occupancy
  Tb  Tb0  1  0.532724  0.065461  0.507348  1
  Tb  Tb1  1  0.934539  0.467276  0.507348  1
  Tb  Tb2  1  0.532644  0.467356  0.507395  1
  Tb  Tb3  1  0.467259  0.934439  0.007325  1
  Tb  Tb4  1  0.065561  0.532741  0.007325  1
  Ho  Ho5  1  0.467082  0.532918  0.007461  1
  Ho  Ho6  1  0.176521  0.352839  0.712991  1
  Ho  Ho7  1  0.647161  0.823479  0.712991  1
  Ho  Ho8  1  0.176314  0.823686  0.712850  1
  Ho  Ho9  1  0.823419  0.647208  0.212678  1
  Ho  Ho10  1  0.352792  0.176581  0.212678  1
  Ho  Ho11  1  0.823652  0.176348  0.212820  1
  Ho  Ho12  1  0.666578  0.333422  0.888256  1
  Ho  Ho13  1  0.333444  0.666556  0.388054  1
  Ho  Ho14  1  0.000024  0.999976  0.493687  1
  Ho  Ho15  1  0.000001  0.999999  0.993779  1
  In  In16  1  0.837449  0.674950  0.751736  1
  In  In17  1  0.325050  0.162551  0.751736  1
  In  In18  1  0.837470  0.162530  0.751641  1
  In  In19  1  0.162738  0.325187  0.251462  1
  In  In20  1  0.674813  0.837262  0.251462  1
  In  In21  1  0.162511  0.837489  0.251641  1
  Rh  Rh22  1  0.666669  0.333331  0.281568  1
  Rh  Rh23  1  0.333584  0.666416  0.781808  1
