# generated using pymatgen
data_Ho2Lu2Ga16Co3
_symmetry_space_group_name_H-M   'P 1'
_cell_length_a   5.99441200
_cell_length_b   5.99441200
_cell_length_c   11.06801200
_cell_angle_alpha   90.00000000
_cell_angle_beta   90.00000000
_cell_angle_gamma   90.00000000
_symmetry_Int_Tables_number   1
_chemical_formula_structural   Ho2Lu2Ga16Co3
_chemical_formula_sum   'Ho2 Lu2 Ga16 Co3'
_cell_volume   397.70660099
_cell_formula_units_Z   1
loop_
 _symmetry_equiv_pos_site_id
 _symmetry_equiv_pos_as_xyz
  1  'x, y, z'
loop_
 _atom_site_type_symbol
 _atom_site_label
 _atom_site_symmetry_multiplicity
 _atom_site_fract_x
 _atom_site_fract_y
 _atom_site_fract_z
 _atom_site_occupancy
  Ho  Ho0  1  0.500000  0.000000  0.193895  1
  Ho  Ho1  1  0.000000  0.500000  0.193895  1
  Lu  Lu2  1  0.500000  0.000000  0.804183  1
  Lu  Lu3  1  0.000000  0.500000  0.804183  1
  Ga  Ga4  1  0.249560  0.249560  0.617376  1
  Ga  Ga5  1  0.750440  0.750440  0.617376  1
  Ga  Ga6  1  0.750440  0.249560  0.617376  1
  Ga  Ga7  1  0.249560  0.750440  0.617376  1
  Ga  Ga8  1  0.750384  0.750384  0.385290  1
  Ga  Ga9  1  0.249616  0.249616  0.385290  1
  Ga  Ga10  1  0.249616  0.750384  0.385290  1
  Ga  Ga11  1  0.750384  0.249616  0.385290  1
  Ga  Ga12  1  0.279962  0.279962  0.997302  1
  Ga  Ga13  1  0.720038  0.720038  0.997302  1
  Ga  Ga14  1  0.720038  0.279962  0.997302  1
  Ga  Ga15  1  0.279962  0.720038  0.997302  1
  Ga  Ga16  1  0.500000  0.500000  0.804638  1
  Ga  Ga17  1  0.500000  0.500000  0.194528  1
  Ga  Ga18  1  0.000000  0.000000  0.783597  1
  Ga  Ga19  1  0.000000  0.000000  0.218101  1
  Co  Co20  1  0.500000  0.000000  0.501271  1
  Co  Co21  1  0.000000  0.500000  0.501271  1
  Co  Co22  1  0.000000  0.000000  0.000570  1
