# generated using pymatgen
data_Tb8GeBBr12
_symmetry_space_group_name_H-M   'P 1'
_cell_length_a   4.03281800
_cell_length_b   13.16609145
_cell_length_c   13.93105701
_cell_angle_alpha   90.13508786
_cell_angle_beta   90.00000000
_cell_angle_gamma   90.00000000
_symmetry_Int_Tables_number   1
_chemical_formula_structural   Tb8GeBBr12
_chemical_formula_sum   'Tb8 Ge1 B1 Br12'
_cell_volume   739.68762417
_cell_formula_units_Z   1
loop_
 _symmetry_equiv_pos_site_id
 _symmetry_equiv_pos_as_xyz
  1  'x, y, z'
loop_
 _atom_site_type_symbol
 _atom_site_label
 _atom_site_symmetry_multiplicity
 _atom_site_fract_x
 _atom_site_fract_y
 _atom_site_fract_z
 _atom_site_occupancy
  Tb  Tb0  1  0.500000  0.110849  0.350648  1
  Tb  Tb1  1  0.500000  0.889151  0.649352  1
  Tb  Tb2  1  0.500000  0.620959  0.162981  1
  Tb  Tb3  1  0.500000  0.379041  0.837019  1
  Tb  Tb4  1  0.000000  0.107954  0.571713  1
  Tb  Tb5  1  0.000000  0.892046  0.428287  1
  Tb  Tb6  1  0.000000  0.621622  0.919140  1
  Tb  Tb7  1  0.000000  0.378378  0.080860  1
  Ge  Ge8  1  0.500000  0.500000  0.000000  1
  B  B9  1  0.500000  0.000000  0.500000  1
  Br  Br10  1  0.500000  0.242340  0.165786  1
  Br  Br11  1  0.500000  0.757660  0.834214  1
  Br  Br12  1  0.500000  0.749958  0.338822  1
  Br  Br13  1  0.500000  0.250042  0.661178  1
  Br  Br14  1  0.000000  0.255161  0.413833  1
  Br  Br15  1  0.000000  0.744839  0.586167  1
  Br  Br16  1  0.000000  0.758631  0.088506  1
  Br  Br17  1  0.000000  0.241369  0.911494  1
  Br  Br18  1  0.000000  0.999536  0.243812  1
  Br  Br19  1  0.000000  0.000464  0.756188  1
  Br  Br20  1  0.000000  0.500898  0.260732  1
  Br  Br21  1  0.000000  0.499102  0.739268  1
