# generated using pymatgen
data_Y5Er3(HgRh)2
_symmetry_space_group_name_H-M   'P 1'
_cell_length_a   9.57442674
_cell_length_b   9.58512349
_cell_length_c   9.58512496
_cell_angle_alpha   59.92618386
_cell_angle_beta   60.03691584
_cell_angle_gamma   60.03691425
_symmetry_Int_Tables_number   1
_chemical_formula_structural   Y5Er3(HgRh)2
_chemical_formula_sum   'Y10 Er6 Hg4 Rh4'
_cell_volume   622.00265673
_cell_formula_units_Z   2
loop_
 _symmetry_equiv_pos_site_id
 _symmetry_equiv_pos_as_xyz
  1  'x, y, z'
loop_
 _atom_site_type_symbol
 _atom_site_label
 _atom_site_symmetry_multiplicity
 _atom_site_fract_x
 _atom_site_fract_y
 _atom_site_fract_z
 _atom_site_occupancy
  Y  Y0  1  0.439145  0.060855  0.439145  1
  Y  Y1  1  0.060855  0.439145  0.060855  1
  Y  Y2  1  0.439145  0.439145  0.060855  1
  Y  Y3  1  0.060855  0.060855  0.439145  1
  Y  Y4  1  0.185975  0.814025  0.814025  1
  Y  Y5  1  0.814025  0.185975  0.185975  1
  Y  Y6  1  0.811522  0.188478  0.811522  1
  Y  Y7  1  0.188478  0.811522  0.188478  1
  Y  Y8  1  0.811522  0.811522  0.188478  1
  Y  Y9  1  0.188478  0.188478  0.811522  1
  Er  Er10  1  0.598702  0.601687  0.601687  1
  Er  Er11  1  0.601687  0.598702  0.197925  1
  Er  Er12  1  0.601687  0.197925  0.598702  1
  Er  Er13  1  0.197925  0.601687  0.601687  1
  Er  Er14  1  0.059265  0.440735  0.440735  1
  Er  Er15  1  0.440735  0.059265  0.059265  1
  Hg  Hg16  1  0.835122  0.834338  0.834338  1
  Hg  Hg17  1  0.834338  0.835122  0.496201  1
  Hg  Hg18  1  0.834338  0.496201  0.835122  1
  Hg  Hg19  1  0.496201  0.834338  0.834338  1
  Rh  Rh20  1  0.388714  0.396143  0.396143  1
  Rh  Rh21  1  0.396143  0.388714  0.819001  1
  Rh  Rh22  1  0.396143  0.819001  0.388714  1
  Rh  Rh23  1  0.819001  0.396143  0.396143  1
