# generated using pymatgen
data_Cs12LuMo3Se16
_symmetry_space_group_name_H-M   'P 1'
_cell_length_a   10.46570792
_cell_length_b   10.59831932
_cell_length_c   12.09892500
_cell_angle_alpha   90.00000000
_cell_angle_beta   90.00000000
_cell_angle_gamma   89.72143124
_symmetry_Int_Tables_number   1
_chemical_formula_structural   Cs12LuMo3Se16
_chemical_formula_sum   'Cs12 Lu1 Mo3 Se16'
_cell_volume   1341.98376561
_cell_formula_units_Z   1
loop_
 _symmetry_equiv_pos_site_id
 _symmetry_equiv_pos_as_xyz
  1  'x, y, z'
loop_
 _atom_site_type_symbol
 _atom_site_label
 _atom_site_symmetry_multiplicity
 _atom_site_fract_x
 _atom_site_fract_y
 _atom_site_fract_z
 _atom_site_occupancy
  Cs  Cs0  1  0.945132  0.701348  0.966196  1
  Cs  Cs1  1  0.452437  0.788361  0.960177  1
  Cs  Cs2  1  0.560588  0.215688  0.454835  1
  Cs  Cs3  1  0.040652  0.299694  0.053289  1
  Cs  Cs4  1  0.143149  0.082161  0.750000  1
  Cs  Cs5  1  0.645356  0.427858  0.750000  1
  Cs  Cs6  1  0.360324  0.580747  0.250000  1
  Cs  Cs7  1  0.854356  0.909201  0.250000  1
  Cs  Cs8  1  0.040652  0.299694  0.446711  1
  Cs  Cs9  1  0.452437  0.788361  0.539823  1
  Cs  Cs10  1  0.560588  0.215688  0.045165  1
  Cs  Cs11  1  0.945132  0.701348  0.533804  1
  Lu  Lu12  1  0.774376  0.485669  0.250000  1
  Mo  Mo13  1  0.278398  0.016832  0.250000  1
  Mo  Mo14  1  0.722583  0.986310  0.750000  1
  Mo  Mo15  1  0.219534  0.514549  0.750000  1
  Se  Se16  1  0.203159  0.737295  0.750000  1
  Se  Se17  1  0.706135  0.765821  0.750000  1
  Se  Se18  1  0.297752  0.237408  0.250000  1
  Se  Se19  1  0.798587  0.233883  0.250000  1
  Se  Se20  1  0.013117  0.425256  0.750000  1
  Se  Se21  1  0.515223  0.076312  0.750000  1
  Se  Se22  1  0.484158  0.927502  0.250000  1
  Se  Se23  1  0.011145  0.579677  0.250000  1
  Se  Se24  1  0.654824  0.549572  0.438373  1
  Se  Se25  1  0.169126  0.955702  0.089362  1
  Se  Se26  1  0.834038  0.046706  0.589743  1
  Se  Se27  1  0.329527  0.449688  0.908458  1
  Se  Se28  1  0.329527  0.449688  0.591542  1
  Se  Se29  1  0.654824  0.549572  0.061627  1
  Se  Se30  1  0.169126  0.955702  0.410638  1
  Se  Se31  1  0.834038  0.046706  0.910257  1
