# generated using pymatgen
data_Pr8Co3Si12Pd
_symmetry_space_group_name_H-M   'P 1'
_cell_length_a   8.17325700
_cell_length_b   8.17325845
_cell_length_c   8.57114000
_cell_angle_alpha   90.00000000
_cell_angle_beta   90.00000000
_cell_angle_gamma   120.00000628
_symmetry_Int_Tables_number   1
_chemical_formula_structural   Pr8Co3Si12Pd
_chemical_formula_sum   'Pr8 Co3 Si12 Pd1'
_cell_volume   495.86057564
_cell_formula_units_Z   1
loop_
 _symmetry_equiv_pos_site_id
 _symmetry_equiv_pos_as_xyz
  1  'x, y, z'
loop_
 _atom_site_type_symbol
 _atom_site_label
 _atom_site_symmetry_multiplicity
 _atom_site_fract_x
 _atom_site_fract_y
 _atom_site_fract_z
 _atom_site_occupancy
  Pr  Pr0  1  0.496887  0.503113  0.753468  1
  Pr  Pr1  1  0.499116  0.500884  0.247622  1
  Pr  Pr2  1  0.006225  0.503113  0.753468  1
  Pr  Pr3  1  0.001768  0.500884  0.247622  1
  Pr  Pr4  1  0.496887  0.993775  0.753468  1
  Pr  Pr5  1  0.499116  0.998232  0.247622  1
  Pr  Pr6  1  0.000000  0.000000  0.750409  1
  Pr  Pr7  1  0.000000  0.000000  0.248622  1
  Co  Co8  1  0.666667  0.333333  0.992081  1
  Co  Co9  1  0.333333  0.666667  0.007608  1
  Co  Co10  1  0.333333  0.666667  0.491220  1
  Si  Si11  1  0.828049  0.171951  0.001111  1
  Si  Si12  1  0.171026  0.828974  0.998914  1
  Si  Si13  1  0.343902  0.171951  0.001111  1
  Si  Si14  1  0.172201  0.827799  0.501881  1
  Si  Si15  1  0.657947  0.828974  0.998914  1
  Si  Si16  1  0.836187  0.163813  0.497409  1
  Si  Si17  1  0.828049  0.656098  0.001111  1
  Si  Si18  1  0.655599  0.827799  0.501881  1
  Si  Si19  1  0.171026  0.342053  0.998914  1
  Si  Si20  1  0.327626  0.163813  0.497409  1
  Si  Si21  1  0.172201  0.344401  0.501881  1
  Si  Si22  1  0.836187  0.672374  0.497409  1
  Pd  Pd23  1  0.666667  0.333333  0.508848  1
