# generated using pymatgen
data_Dy7Er3Si5Pb
_symmetry_space_group_name_H-M   'P 1'
_cell_length_a   8.51762805
_cell_length_b   8.54586329
_cell_length_c   6.38638503
_cell_angle_alpha   90.00807549
_cell_angle_beta   90.00308411
_cell_angle_gamma   119.87877885
_symmetry_Int_Tables_number   1
_chemical_formula_structural   Dy7Er3Si5Pb
_chemical_formula_sum   'Dy7 Er3 Si5 Pb1'
_cell_volume   403.07840511
_cell_formula_units_Z   1
loop_
 _symmetry_equiv_pos_site_id
 _symmetry_equiv_pos_as_xyz
  1  'x, y, z'
loop_
 _atom_site_type_symbol
 _atom_site_label
 _atom_site_symmetry_multiplicity
 _atom_site_fract_x
 _atom_site_fract_y
 _atom_site_fract_z
 _atom_site_occupancy
  Dy  Dy0  1  0.987679  0.746996  0.750186  1
  Dy  Dy1  1  0.998641  0.243037  0.249864  1
  Dy  Dy2  1  0.755488  0.757103  0.249820  1
  Dy  Dy3  1  0.766336  0.999887  0.750137  1
  Dy  Dy4  1  0.240566  0.253118  0.750103  1
  Dy  Dy5  1  0.240763  0.999884  0.249858  1
  Dy  Dy6  1  0.674859  0.343626  0.496038  1
  Er  Er7  1  0.675071  0.343887  0.003951  1
  Er  Er8  1  0.331224  0.656237  0.496044  1
  Er  Er9  1  0.331249  0.656231  0.003970  1
  Si  Si10  1  0.393687  0.392617  0.249616  1
  Si  Si11  1  0.001957  0.607798  0.249538  1
  Si  Si12  1  0.998829  0.394887  0.750428  1
  Si  Si13  1  0.603489  0.605497  0.750415  1
  Si  Si14  1  0.605445  0.999624  0.249661  1
  Pb  Pb15  1  0.394717  0.999571  0.750373  1
