# generated using pymatgen
data_NdHo7(Si3Pt)4
_symmetry_space_group_name_H-M   'P 1'
_cell_length_a   8.14850200
_cell_length_b   8.14850173
_cell_length_c   8.16705400
_cell_angle_alpha   90.00000000
_cell_angle_beta   90.00000000
_cell_angle_gamma   119.99999298
_symmetry_Int_Tables_number   1
_chemical_formula_structural   NdHo7(Si3Pt)4
_chemical_formula_sum   'Nd1 Ho7 Si12 Pt4'
_cell_volume   469.62545420
_cell_formula_units_Z   1
loop_
 _symmetry_equiv_pos_site_id
 _symmetry_equiv_pos_as_xyz
  1  'x, y, z'
loop_
 _atom_site_type_symbol
 _atom_site_label
 _atom_site_symmetry_multiplicity
 _atom_site_fract_x
 _atom_site_fract_y
 _atom_site_fract_z
 _atom_site_occupancy
  Nd  Nd0  1  0.000000  0.000000  0.250000  1
  Ho  Ho1  1  0.499110  0.500890  0.750000  1
  Ho  Ho2  1  0.500911  0.499089  0.250000  1
  Ho  Ho3  1  0.001781  0.500890  0.750000  1
  Ho  Ho4  1  0.998178  0.499089  0.250000  1
  Ho  Ho5  1  0.499110  0.998219  0.750000  1
  Ho  Ho6  1  0.500911  0.001822  0.250000  1
  Ho  Ho7  1  0.000000  0.000000  0.750000  1
  Si  Si8  1  0.834120  0.165880  0.995263  1
  Si  Si9  1  0.165895  0.834105  0.996743  1
  Si  Si10  1  0.331760  0.165880  0.995263  1
  Si  Si11  1  0.165895  0.834105  0.503257  1
  Si  Si12  1  0.668209  0.834105  0.996743  1
  Si  Si13  1  0.834120  0.165880  0.504737  1
  Si  Si14  1  0.834120  0.668240  0.995263  1
  Si  Si15  1  0.668209  0.834105  0.503257  1
  Si  Si16  1  0.165895  0.331791  0.996743  1
  Si  Si17  1  0.331760  0.165880  0.504737  1
  Si  Si18  1  0.165895  0.331791  0.503257  1
  Si  Si19  1  0.834120  0.668240  0.504737  1
  Pt  Pt20  1  0.666667  0.333333  0.999129  1
  Pt  Pt21  1  0.333333  0.666667  0.002268  1
  Pt  Pt22  1  0.333333  0.666667  0.497732  1
  Pt  Pt23  1  0.666667  0.333333  0.500871  1
