# generated using pymatgen
data_Dy4Tm16BiSb11
_symmetry_space_group_name_H-M   'P 1'
_cell_length_a   8.05071395
_cell_length_b   9.24420629
_cell_length_c   11.76697615
_cell_angle_alpha   90.05777366
_cell_angle_beta   89.92253717
_cell_angle_gamma   90.01747703
_symmetry_Int_Tables_number   1
_chemical_formula_structural   Dy4Tm16BiSb11
_chemical_formula_sum   'Dy4 Tm16 Bi1 Sb11'
_cell_volume   875.72603207
_cell_formula_units_Z   1
loop_
 _symmetry_equiv_pos_site_id
 _symmetry_equiv_pos_as_xyz
  1  'x, y, z'
loop_
 _atom_site_type_symbol
 _atom_site_label
 _atom_site_symmetry_multiplicity
 _atom_site_fract_x
 _atom_site_fract_y
 _atom_site_fract_z
 _atom_site_occupancy
  Dy  Dy0  1  0.317627  0.254207  0.219597  1
  Dy  Dy1  1  0.812793  0.252758  0.281860  1
  Dy  Dy2  1  0.685325  0.750066  0.780806  1
  Dy  Dy3  1  0.185550  0.749868  0.718891  1
  Tm  Tm4  1  0.355807  0.746992  0.216156  1
  Tm  Tm5  1  0.848819  0.746330  0.285589  1
  Tm  Tm6  1  0.647391  0.250075  0.784214  1
  Tm  Tm7  1  0.147377  0.249913  0.715378  1
  Tm  Tm8  1  0.691543  0.561772  0.060030  1
  Tm  Tm9  1  0.194096  0.937714  0.442433  1
  Tm  Tm10  1  0.308959  0.062495  0.937346  1
  Tm  Tm11  1  0.807380  0.438285  0.560655  1
  Tm  Tm12  1  0.308294  0.438413  0.939166  1
  Tm  Tm13  1  0.807555  0.061928  0.560445  1
  Tm  Tm14  1  0.690137  0.937211  0.059594  1
  Tm  Tm15  1  0.192326  0.561507  0.439762  1
  Tm  Tm16  1  0.473506  0.250066  0.489306  1
  Tm  Tm17  1  0.972927  0.252438  0.009630  1
  Tm  Tm18  1  0.526854  0.749760  0.511401  1
  Tm  Tm19  1  0.025750  0.747644  0.987019  1
  Bi  Bi20  1  0.066230  0.995110  0.174283  1
  Sb  Sb21  1  0.407439  0.750166  0.960261  1
  Sb  Sb22  1  0.908571  0.750025  0.539910  1
  Sb  Sb23  1  0.591998  0.249802  0.039335  1
  Sb  Sb24  1  0.091506  0.249801  0.460121  1
  Sb  Sb25  1  0.565270  0.994606  0.327251  1
  Sb  Sb26  1  0.065465  0.505728  0.172567  1
  Sb  Sb27  1  0.434644  0.494606  0.672609  1
  Sb  Sb28  1  0.934538  0.005416  0.827628  1
  Sb  Sb29  1  0.434832  0.005470  0.672486  1
  Sb  Sb30  1  0.934113  0.494509  0.826274  1
  Sb  Sb31  1  0.565378  0.505317  0.327997  1
