# generated using pymatgen
data_Al4VNi11Pt4
_symmetry_space_group_name_H-M   'P 1'
_cell_length_a   3.65424400
_cell_length_b   3.65424400
_cell_length_c   18.55909500
_cell_angle_alpha   90.00000000
_cell_angle_beta   90.00000000
_cell_angle_gamma   90.00000000
_symmetry_Int_Tables_number   1
_chemical_formula_structural   Al4VNi11Pt4
_chemical_formula_sum   'Al4 V1 Ni11 Pt4'
_cell_volume   247.82886045
_cell_formula_units_Z   1
loop_
 _symmetry_equiv_pos_site_id
 _symmetry_equiv_pos_as_xyz
  1  'x, y, z'
loop_
 _atom_site_type_symbol
 _atom_site_label
 _atom_site_symmetry_multiplicity
 _atom_site_fract_x
 _atom_site_fract_y
 _atom_site_fract_z
 _atom_site_occupancy
  Al  Al0  1  0.000000  0.000000  0.198466  1
  Al  Al1  1  0.000000  0.000000  0.399288  1
  Al  Al2  1  0.000000  0.000000  0.600712  1
  Al  Al3  1  0.000000  0.000000  0.801534  1
  V  V4  1  0.000000  0.000000  0.000000  1
  Ni  Ni5  1  0.500000  0.500000  0.000000  1
  Ni  Ni6  1  0.500000  0.000000  0.090863  1
  Ni  Ni7  1  0.500000  0.000000  0.296930  1
  Ni  Ni8  1  0.500000  0.000000  0.500000  1
  Ni  Ni9  1  0.500000  0.000000  0.703070  1
  Ni  Ni10  1  0.500000  0.000000  0.909137  1
  Ni  Ni11  1  0.000000  0.500000  0.090863  1
  Ni  Ni12  1  0.000000  0.500000  0.296930  1
  Ni  Ni13  1  0.000000  0.500000  0.500000  1
  Ni  Ni14  1  0.000000  0.500000  0.703070  1
  Ni  Ni15  1  0.000000  0.500000  0.909137  1
  Pt  Pt16  1  0.500000  0.500000  0.194224  1
  Pt  Pt17  1  0.500000  0.500000  0.397972  1
  Pt  Pt18  1  0.500000  0.500000  0.602028  1
  Pt  Pt19  1  0.500000  0.500000  0.805776  1
