# generated using pymatgen
data_NdRuF7
_symmetry_space_group_name_H-M   'P 1'
_cell_length_a   5.75177200
_cell_length_b   6.11340152
_cell_length_c   8.44384691
_cell_angle_alpha   102.03458593
_cell_angle_beta   90.00000000
_cell_angle_gamma   90.00000000
_symmetry_Int_Tables_number   1
_chemical_formula_structural   NdRuF7
_chemical_formula_sum   'Nd2 Ru2 F14'
_cell_volume   290.38456096
_cell_formula_units_Z   2
loop_
 _symmetry_equiv_pos_site_id
 _symmetry_equiv_pos_as_xyz
  1  'x, y, z'
loop_
 _atom_site_type_symbol
 _atom_site_label
 _atom_site_symmetry_multiplicity
 _atom_site_fract_x
 _atom_site_fract_y
 _atom_site_fract_z
 _atom_site_occupancy
  Nd  Nd0  1  0.702037  0.656341  0.691354  1
  Nd  Nd1  1  0.202037  0.343659  0.308646  1
  Ru  Ru2  1  0.709735  0.811994  0.222833  1
  Ru  Ru3  1  0.209735  0.188006  0.777167  1
  F  F4  1  0.893633  0.449738  0.477729  1
  F  F5  1  0.393633  0.550262  0.522271  1
  F  F6  1  0.419962  0.934002  0.774118  1
  F  F7  1  0.919962  0.065998  0.225882  1
  F  F8  1  0.942330  0.979600  0.759218  1
  F  F9  1  0.442330  0.020400  0.240782  1
  F  F10  1  0.001944  0.448109  0.790059  1
  F  F11  1  0.501944  0.551891  0.209941  1
  F  F12  1  0.703286  0.765667  0.992240  1
  F  F13  1  0.203286  0.234333  0.007760  1
  F  F14  1  0.719693  0.865501  0.453745  1
  F  F15  1  0.219693  0.134499  0.546255  1
  F  F16  1  0.483741  0.386267  0.793990  1
  F  F17  1  0.983741  0.613733  0.206010  1
