# generated using pymatgen
data_Cs2Zr7BeBr18
_symmetry_space_group_name_H-M   'P 1'
_cell_length_a   11.19776524
_cell_length_b   11.19776466
_cell_length_c   11.19776429
_cell_angle_alpha   55.71725626
_cell_angle_beta   55.71726126
_cell_angle_gamma   55.71726316
_symmetry_Int_Tables_number   1
_chemical_formula_structural   Cs2Zr7BeBr18
_chemical_formula_sum   'Cs2 Zr7 Be1 Br18'
_cell_volume   894.20719291
_cell_formula_units_Z   1
loop_
 _symmetry_equiv_pos_site_id
 _symmetry_equiv_pos_as_xyz
  1  'x, y, z'
loop_
 _atom_site_type_symbol
 _atom_site_label
 _atom_site_symmetry_multiplicity
 _atom_site_fract_x
 _atom_site_fract_y
 _atom_site_fract_z
 _atom_site_occupancy
  Cs  Cs0  1  0.775418  0.775418  0.775418  1
  Cs  Cs1  1  0.224582  0.224582  0.224582  1
  Zr  Zr2  1  0.158787  0.900245  0.795849  1
  Zr  Zr3  1  0.841213  0.099755  0.204151  1
  Zr  Zr4  1  0.099755  0.204151  0.841213  1
  Zr  Zr5  1  0.204151  0.841213  0.099755  1
  Zr  Zr6  1  0.900245  0.795849  0.158787  1
  Zr  Zr7  1  0.795849  0.158787  0.900245  1
  Zr  Zr8  1  0.500000  0.500000  0.500000  1
  Be  Be9  1  0.000000  0.000000  0.000000  1
  Br  Br10  1  0.226523  0.467915  0.642581  1
  Br  Br11  1  0.773477  0.532085  0.357419  1
  Br  Br12  1  0.345313  0.052878  0.933770  1
  Br  Br13  1  0.654687  0.947122  0.066230  1
  Br  Br14  1  0.933770  0.345313  0.052878  1
  Br  Br15  1  0.711527  0.878308  0.412824  1
  Br  Br16  1  0.357419  0.773477  0.532085  1
  Br  Br17  1  0.587176  0.288473  0.121692  1
  Br  Br18  1  0.288473  0.121692  0.587176  1
  Br  Br19  1  0.121692  0.587176  0.288473  1
  Br  Br20  1  0.947122  0.066230  0.654687  1
  Br  Br21  1  0.412824  0.711527  0.878308  1
  Br  Br22  1  0.878308  0.412824  0.711527  1
  Br  Br23  1  0.066230  0.654687  0.947122  1
  Br  Br24  1  0.467915  0.642581  0.226523  1
  Br  Br25  1  0.642581  0.226523  0.467915  1
  Br  Br26  1  0.532085  0.357419  0.773477  1
  Br  Br27  1  0.052878  0.933770  0.345313  1
