# generated using pymatgen
data_Tm4MgPt11
_symmetry_space_group_name_H-M   'P 1'
_cell_length_a   4.17855200
_cell_length_b   5.75910552
_cell_length_c   11.54463912
_cell_angle_alpha   87.66247828
_cell_angle_beta   90.00000000
_cell_angle_gamma   90.00000000
_symmetry_Int_Tables_number   1
_chemical_formula_structural   Tm4MgPt11
_chemical_formula_sum   'Tm4 Mg1 Pt11'
_cell_volume   277.58735676
_cell_formula_units_Z   1
loop_
 _symmetry_equiv_pos_site_id
 _symmetry_equiv_pos_as_xyz
  1  'x, y, z'
loop_
 _atom_site_type_symbol
 _atom_site_label
 _atom_site_symmetry_multiplicity
 _atom_site_fract_x
 _atom_site_fract_y
 _atom_site_fract_z
 _atom_site_occupancy
  Tm  Tm0  1  0.500000  0.754912  0.373766  1
  Tm  Tm1  1  0.500000  0.720880  0.865028  1
  Tm  Tm2  1  0.500000  0.279120  0.134972  1
  Tm  Tm3  1  0.500000  0.245088  0.626234  1
  Mg  Mg4  1  0.000000  0.000000  0.000000  1
  Pt  Pt5  1  0.000000  0.013576  0.246167  1
  Pt  Pt6  1  0.000000  0.986424  0.753833  1
  Pt  Pt7  1  0.000000  0.500000  0.000000  1
  Pt  Pt8  1  0.000000  0.500000  0.500000  1
  Pt  Pt9  1  0.000000  0.515258  0.248966  1
  Pt  Pt10  1  0.000000  0.484742  0.751034  1
  Pt  Pt11  1  0.500000  0.251964  0.377437  1
  Pt  Pt12  1  0.500000  0.226160  0.882909  1
  Pt  Pt13  1  0.500000  0.773840  0.117091  1
  Pt  Pt14  1  0.500000  0.748036  0.622563  1
  Pt  Pt15  1  0.000000  0.000000  0.500000  1
