# generated using pymatgen
data_Y3Ho12Er(InRh)4
_symmetry_space_group_name_H-M   'P 1'
_cell_length_a   9.64626079
_cell_length_b   9.64326599
_cell_length_c   9.65575007
_cell_angle_alpha   59.96007463
_cell_angle_beta   59.95595506
_cell_angle_gamma   60.05295078
_symmetry_Int_Tables_number   1
_chemical_formula_structural   Y3Ho12Er(InRh)4
_chemical_formula_sum   'Y3 Ho12 Er1 In4 Rh4'
_cell_volume   634.96755723
_cell_formula_units_Z   1
loop_
 _symmetry_equiv_pos_site_id
 _symmetry_equiv_pos_as_xyz
  1  'x, y, z'
loop_
 _atom_site_type_symbol
 _atom_site_label
 _atom_site_symmetry_multiplicity
 _atom_site_fract_x
 _atom_site_fract_y
 _atom_site_fract_z
 _atom_site_occupancy
  Y  Y0  1  0.189232  0.189552  0.810694  1
  Y  Y1  1  0.437701  0.061695  0.062197  1
  Y  Y2  1  0.437786  0.061794  0.438244  1
  Ho  Ho3  1  0.061219  0.438758  0.062241  1
  Ho  Ho4  1  0.649462  0.049461  0.650523  1
  Ho  Ho5  1  0.189852  0.810431  0.811079  1
  Ho  Ho6  1  0.060561  0.061122  0.439036  1
  Ho  Ho7  1  0.811419  0.189686  0.188479  1
  Ho  Ho8  1  0.811806  0.810323  0.189019  1
  Ho  Ho9  1  0.650083  0.650076  0.048518  1
  Ho  Ho10  1  0.650251  0.650056  0.651264  1
  Ho  Ho11  1  0.061278  0.438860  0.437667  1
  Ho  Ho12  1  0.049538  0.649315  0.650481  1
  Ho  Ho13  1  0.811281  0.189830  0.810443  1
  Ho  Ho14  1  0.437824  0.439431  0.061436  1
  Er  Er15  1  0.189827  0.810491  0.188749  1
  In  In16  1  0.417136  0.748480  0.417131  1
  In  In17  1  0.416749  0.416882  0.749624  1
  In  In18  1  0.749203  0.417066  0.416858  1
  In  In19  1  0.416738  0.416916  0.416704  1
  Rh  Rh20  1  0.855457  0.428680  0.857897  1
  Rh  Rh21  1  0.859010  0.857933  0.426437  1
  Rh  Rh22  1  0.428005  0.855173  0.858643  1
  Rh  Rh23  1  0.858576  0.857985  0.856639  1
