# generated using pymatgen
data_Tb21Dy3HgTe11
_symmetry_space_group_name_H-M   'P 1'
_cell_length_a   4.08733500
_cell_length_b   11.62260537
_cell_length_c   22.24167802
_cell_angle_alpha   90.01699996
_cell_angle_beta   90.00000000
_cell_angle_gamma   90.00000000
_symmetry_Int_Tables_number   1
_chemical_formula_structural   Tb21Dy3HgTe11
_chemical_formula_sum   'Tb21 Dy3 Hg1 Te11'
_cell_volume   1056.60158187
_cell_formula_units_Z   1
loop_
 _symmetry_equiv_pos_site_id
 _symmetry_equiv_pos_as_xyz
  1  'x, y, z'
loop_
 _atom_site_type_symbol
 _atom_site_label
 _atom_site_symmetry_multiplicity
 _atom_site_fract_x
 _atom_site_fract_y
 _atom_site_fract_z
 _atom_site_occupancy
  Tb  Tb0  1  0.250000  0.151238  0.391668  1
  Tb  Tb1  1  0.750000  0.849082  0.608415  1
  Tb  Tb2  1  0.750000  0.651211  0.108125  1
  Tb  Tb3  1  0.250000  0.348304  0.891289  1
  Tb  Tb4  1  0.250000  0.456270  0.340294  1
  Tb  Tb5  1  0.750000  0.544009  0.659484  1
  Tb  Tb6  1  0.750000  0.956741  0.159081  1
  Tb  Tb7  1  0.250000  0.045450  0.841866  1
  Tb  Tb8  1  0.250000  0.734546  0.233741  1
  Tb  Tb9  1  0.750000  0.266036  0.767101  1
  Tb  Tb10  1  0.750000  0.234657  0.266587  1
  Tb  Tb11  1  0.250000  0.764646  0.733358  1
  Tb  Tb12  1  0.250000  0.116049  0.033750  1
  Tb  Tb13  1  0.750000  0.884159  0.965479  1
  Tb  Tb14  1  0.750000  0.615192  0.465401  1
  Tb  Tb15  1  0.250000  0.385024  0.534770  1
  Tb  Tb16  1  0.250000  0.413240  0.148078  1
  Tb  Tb17  1  0.750000  0.587303  0.852259  1
  Tb  Tb18  1  0.750000  0.913376  0.352569  1
  Tb  Tb19  1  0.250000  0.087154  0.647511  1
  Tb  Tb20  1  0.250000  0.611853  0.983141  1
  Dy  Dy21  1  0.750000  0.386840  0.017253  1
  Dy  Dy22  1  0.750000  0.112423  0.517175  1
  Dy  Dy23  1  0.250000  0.887548  0.482845  1
  Hg  Hg24  1  0.750000  0.150812  0.929644  1
  Te  Te25  1  0.250000  0.848889  0.069462  1
  Te  Te26  1  0.750000  0.349442  0.431276  1
  Te  Te27  1  0.250000  0.650322  0.568639  1
  Te  Te28  1  0.250000  0.711900  0.373080  1
  Te  Te29  1  0.750000  0.288518  0.626809  1
  Te  Te30  1  0.750000  0.212644  0.127573  1
  Te  Te31  1  0.250000  0.786191  0.872299  1
  Te  Te32  1  0.250000  0.020809  0.261116  1
  Te  Te33  1  0.750000  0.978786  0.738860  1
  Te  Te34  1  0.750000  0.520572  0.238946  1
  Te  Te35  1  0.250000  0.478766  0.761057  1
