# generated using pymatgen
data_Y5(In2Ni)2
_symmetry_space_group_name_H-M   'P 1'
_cell_length_a   3.59303300
_cell_length_b   8.07975000
_cell_length_c   18.02915700
_cell_angle_alpha   90.00000000
_cell_angle_beta   90.00000000
_cell_angle_gamma   90.00000000
_symmetry_Int_Tables_number   1
_chemical_formula_structural   Y5(In2Ni)2
_chemical_formula_sum   'Y10 In8 Ni4'
_cell_volume   523.40100215
_cell_formula_units_Z   2
loop_
 _symmetry_equiv_pos_site_id
 _symmetry_equiv_pos_as_xyz
  1  'x, y, z'
loop_
 _atom_site_type_symbol
 _atom_site_label
 _atom_site_symmetry_multiplicity
 _atom_site_fract_x
 _atom_site_fract_y
 _atom_site_fract_z
 _atom_site_occupancy
  Y  Y0  1  0.000000  0.883224  0.087780  1
  Y  Y1  1  0.000000  0.756637  0.279848  1
  Y  Y2  1  0.000000  0.743363  0.779848  1
  Y  Y3  1  0.000000  0.383224  0.412220  1
  Y  Y4  1  0.000000  0.116776  0.912220  1
  Y  Y5  1  0.000000  0.243363  0.720152  1
  Y  Y6  1  0.000000  0.500000  0.000000  1
  Y  Y7  1  0.000000  0.256637  0.220152  1
  Y  Y8  1  0.000000  0.616776  0.587780  1
  Y  Y9  1  0.000000  0.000000  0.500000  1
  In  In10  1  0.500000  0.204994  0.068286  1
  In  In11  1  0.500000  0.424545  0.847013  1
  In  In12  1  0.500000  0.575455  0.152987  1
  In  In13  1  0.500000  0.075455  0.347013  1
  In  In14  1  0.500000  0.924545  0.652987  1
  In  In15  1  0.500000  0.795006  0.931714  1
  In  In16  1  0.500000  0.704994  0.431714  1
  In  In17  1  0.500000  0.295006  0.568286  1
  Ni  Ni18  1  0.500000  0.977075  0.196535  1
  Ni  Ni19  1  0.500000  0.022925  0.803465  1
  Ni  Ni20  1  0.500000  0.522925  0.696535  1
  Ni  Ni21  1  0.500000  0.477075  0.303465  1
