# generated using pymatgen
data_TbHo9(SnSb)3
_symmetry_space_group_name_H-M   'P 1'
_cell_length_a   8.95822943
_cell_length_b   8.95822904
_cell_length_c   6.38509500
_cell_angle_alpha   90.00000000
_cell_angle_beta   90.00000000
_cell_angle_gamma   120.06483738
_symmetry_Int_Tables_number   1
_chemical_formula_structural   TbHo9(SnSb)3
_chemical_formula_sum   'Tb1 Ho9 Sn3 Sb3'
_cell_volume   443.46385046
_cell_formula_units_Z   1
loop_
 _symmetry_equiv_pos_site_id
 _symmetry_equiv_pos_as_xyz
  1  'x, y, z'
loop_
 _atom_site_type_symbol
 _atom_site_label
 _atom_site_symmetry_multiplicity
 _atom_site_fract_x
 _atom_site_fract_y
 _atom_site_fract_z
 _atom_site_occupancy
  Tb  Tb0  1  0.241228  0.241228  0.000000  1
  Ho  Ho1  1  0.758609  0.000055  0.000000  1
  Ho  Ho2  1  0.000055  0.758609  0.000000  1
  Ho  Ho3  1  0.241883  0.999864  0.500000  1
  Ho  Ho4  1  0.999864  0.241883  0.500000  1
  Ho  Ho5  1  0.758307  0.758307  0.500000  1
  Ho  Ho6  1  0.333404  0.666645  0.250969  1
  Ho  Ho7  1  0.666645  0.333404  0.250969  1
  Ho  Ho8  1  0.666645  0.333404  0.749031  1
  Ho  Ho9  1  0.333404  0.666645  0.749031  1
  Sn  Sn10  1  0.607299  0.999992  0.500000  1
  Sn  Sn11  1  0.999992  0.607299  0.500000  1
  Sn  Sn12  1  0.392687  0.392687  0.500000  1
  Sb  Sb13  1  0.392547  0.999544  0.000000  1
  Sb  Sb14  1  0.999544  0.392547  0.000000  1
  Sb  Sb15  1  0.607887  0.607887  0.000000  1
