# generated using pymatgen
data_TbDy15CdIn3Rh4
_symmetry_space_group_name_H-M   'P 1'
_cell_length_a   9.67094570
_cell_length_b   9.65537654
_cell_length_c   9.66796800
_cell_angle_alpha   59.95685175
_cell_angle_beta   60.01018478
_cell_angle_gamma   59.96513110
_symmetry_Int_Tables_number   1
_chemical_formula_structural   TbDy15CdIn3Rh4
_chemical_formula_sum   'Tb1 Dy15 Cd1 In3 Rh4'
_cell_volume   638.02165831
_cell_formula_units_Z   1
loop_
 _symmetry_equiv_pos_site_id
 _symmetry_equiv_pos_as_xyz
  1  'x, y, z'
loop_
 _atom_site_type_symbol
 _atom_site_label
 _atom_site_symmetry_multiplicity
 _atom_site_fract_x
 _atom_site_fract_y
 _atom_site_fract_z
 _atom_site_occupancy
  Tb  Tb0  1  0.563346  0.560339  0.938158  1
  Dy  Dy1  1  0.148593  0.549947  0.150730  1
  Dy  Dy2  1  0.689096  0.312049  0.310525  1
  Dy  Dy3  1  0.937218  0.560845  0.565010  1
  Dy  Dy4  1  0.937218  0.560845  0.936927  1
  Dy  Dy5  1  0.690289  0.690328  0.309691  1
  Dy  Dy6  1  0.563127  0.936113  0.937396  1
  Dy  Dy7  1  0.150825  0.149976  0.152881  1
  Dy  Dy8  1  0.310819  0.690429  0.309049  1
  Dy  Dy9  1  0.549096  0.148557  0.151174  1
  Dy  Dy10  1  0.311663  0.310913  0.688712  1
  Dy  Dy11  1  0.310819  0.690429  0.689703  1
  Dy  Dy12  1  0.150825  0.149976  0.546319  1
  Dy  Dy13  1  0.689096  0.312049  0.688331  1
  Dy  Dy14  1  0.936730  0.934375  0.564448  1
  Dy  Dy15  1  0.563127  0.936113  0.563364  1
  Cd  Cd16  1  0.918768  0.246019  0.917606  1
  In  In17  1  0.917095  0.919534  0.916779  1
  In  In18  1  0.246098  0.920271  0.916815  1
  In  In19  1  0.917095  0.919534  0.246591  1
  Rh  Rh20  1  0.357330  0.358172  0.927270  1
  Rh  Rh21  1  0.357330  0.358172  0.357228  1
  Rh  Rh22  1  0.926339  0.358595  0.357533  1
  Rh  Rh23  1  0.358056  0.926423  0.357760  1
