# generated using pymatgen
data_TbNd4Ir2Rh
_symmetry_space_group_name_H-M   'P 1'
_cell_length_a   11.16935200
_cell_length_b   11.16935200
_cell_length_c   6.57522000
_cell_angle_alpha   90.00000000
_cell_angle_beta   90.00000000
_cell_angle_gamma   90.00000000
_symmetry_Int_Tables_number   1
_chemical_formula_structural   TbNd4Ir2Rh
_chemical_formula_sum   'Tb4 Nd16 Ir8 Rh4'
_cell_volume   820.28778443
_cell_formula_units_Z   4
loop_
 _symmetry_equiv_pos_site_id
 _symmetry_equiv_pos_as_xyz
  1  'x, y, z'
loop_
 _atom_site_type_symbol
 _atom_site_label
 _atom_site_symmetry_multiplicity
 _atom_site_fract_x
 _atom_site_fract_y
 _atom_site_fract_z
 _atom_site_occupancy
  Tb  Tb0  1  0.000000  0.000000  0.500000  1
  Tb  Tb1  1  0.000000  0.000000  0.000000  1
  Tb  Tb2  1  0.500000  0.500000  0.000000  1
  Tb  Tb3  1  0.500000  0.500000  0.500000  1
  Nd  Nd4  1  0.289200  0.088758  0.382357  1
  Nd  Nd5  1  0.289200  0.911242  0.882357  1
  Nd  Nd6  1  0.710800  0.088758  0.882357  1
  Nd  Nd7  1  0.710800  0.911242  0.382357  1
  Nd  Nd8  1  0.588758  0.789200  0.882357  1
  Nd  Nd9  1  0.588758  0.210800  0.382357  1
  Nd  Nd10  1  0.411242  0.789200  0.382357  1
  Nd  Nd11  1  0.411242  0.210800  0.882357  1
  Nd  Nd12  1  0.210800  0.411242  0.617643  1
  Nd  Nd13  1  0.210800  0.588758  0.117643  1
  Nd  Nd14  1  0.789200  0.411242  0.117643  1
  Nd  Nd15  1  0.789200  0.588758  0.617643  1
  Nd  Nd16  1  0.911242  0.710800  0.117643  1
  Nd  Nd17  1  0.911242  0.289200  0.617643  1
  Nd  Nd18  1  0.088758  0.710800  0.617643  1
  Nd  Nd19  1  0.088758  0.289200  0.117643  1
  Ir  Ir20  1  0.849708  0.150292  0.250000  1
  Ir  Ir21  1  0.849708  0.849708  0.750000  1
  Ir  Ir22  1  0.150292  0.150292  0.750000  1
  Ir  Ir23  1  0.150292  0.849708  0.250000  1
  Ir  Ir24  1  0.650292  0.349708  0.750000  1
  Ir  Ir25  1  0.650292  0.650292  0.250000  1
  Ir  Ir26  1  0.349708  0.349708  0.250000  1
  Ir  Ir27  1  0.349708  0.650292  0.750000  1
  Rh  Rh28  1  0.500000  0.000000  0.119412  1
  Rh  Rh29  1  0.500000  0.000000  0.619412  1
  Rh  Rh30  1  0.000000  0.500000  0.880588  1
  Rh  Rh31  1  0.000000  0.500000  0.380588  1
