# generated using pymatgen
data_ScTi7Bi9
_symmetry_space_group_name_H-M   'P 1'
_cell_length_a   10.36098000
_cell_length_b   10.36098000
_cell_length_c   7.44957600
_cell_angle_alpha   90.00000000
_cell_angle_beta   90.00000000
_cell_angle_gamma   90.00000000
_symmetry_Int_Tables_number   1
_chemical_formula_structural   ScTi7Bi9
_chemical_formula_sum   'Sc2 Ti14 Bi18'
_cell_volume   799.71128751
_cell_formula_units_Z   2
loop_
 _symmetry_equiv_pos_site_id
 _symmetry_equiv_pos_as_xyz
  1  'x, y, z'
loop_
 _atom_site_type_symbol
 _atom_site_label
 _atom_site_symmetry_multiplicity
 _atom_site_fract_x
 _atom_site_fract_y
 _atom_site_fract_z
 _atom_site_occupancy
  Sc  Sc0  1  0.750000  0.750000  0.924882  1
  Sc  Sc1  1  0.250000  0.250000  0.075118  1
  Ti  Ti2  1  0.000000  0.500000  0.000000  1
  Ti  Ti3  1  0.500000  0.000000  0.000000  1
  Ti  Ti4  1  0.500000  0.500000  0.000000  1
  Ti  Ti5  1  0.000000  0.000000  0.000000  1
  Ti  Ti6  1  0.892648  0.250000  0.147121  1
  Ti  Ti7  1  0.607352  0.250000  0.147121  1
  Ti  Ti8  1  0.107352  0.750000  0.852881  1
  Ti  Ti9  1  0.392648  0.750000  0.852881  1
  Ti  Ti10  1  0.750000  0.107352  0.852881  1
  Ti  Ti11  1  0.750000  0.392648  0.852881  1
  Ti  Ti12  1  0.250000  0.892648  0.147121  1
  Ti  Ti13  1  0.250000  0.607352  0.147121  1
  Ti  Ti14  1  0.750000  0.750000  0.427010  1
  Ti  Ti15  1  0.250000  0.250000  0.572990  1
  Bi  Bi16  1  0.417472  0.082528  0.350338  1
  Bi  Bi17  1  0.082528  0.417472  0.350338  1
  Bi  Bi18  1  0.582528  0.582528  0.649662  1
  Bi  Bi19  1  0.917472  0.917472  0.649662  1
  Bi  Bi20  1  0.917472  0.582528  0.649662  1
  Bi  Bi21  1  0.582528  0.917472  0.649662  1
  Bi  Bi22  1  0.417472  0.417472  0.350338  1
  Bi  Bi23  1  0.082528  0.082528  0.350338  1
  Bi  Bi24  1  0.250000  0.750000  0.499999  1
  Bi  Bi25  1  0.750000  0.250000  0.499999  1
  Bi  Bi26  1  0.489808  0.250000  0.803899  1
  Bi  Bi27  1  0.010191  0.250000  0.803899  1
  Bi  Bi28  1  0.510191  0.750000  0.196100  1
  Bi  Bi29  1  0.989809  0.750000  0.196100  1
  Bi  Bi30  1  0.750000  0.510191  0.196100  1
  Bi  Bi31  1  0.750000  0.989809  0.196100  1
  Bi  Bi32  1  0.250000  0.489808  0.803899  1
  Bi  Bi33  1  0.250000  0.010191  0.803899  1
