# generated using pymatgen
data_Th3U(BRu)16
_symmetry_space_group_name_H-M   'P 1'
_cell_length_a   9.27944171
_cell_length_b   7.55261668
_cell_length_c   7.55261627
_cell_angle_alpha   90.40110104
_cell_angle_beta   113.83507737
_cell_angle_gamma   113.83507734
_symmetry_Int_Tables_number   1
_chemical_formula_structural   Th3U(BRu)16
_chemical_formula_sum   'Th3 U1 B16 Ru16'
_cell_volume   433.60884927
_cell_formula_units_Z   1
loop_
 _symmetry_equiv_pos_site_id
 _symmetry_equiv_pos_as_xyz
  1  'x, y, z'
loop_
 _atom_site_type_symbol
 _atom_site_label
 _atom_site_symmetry_multiplicity
 _atom_site_fract_x
 _atom_site_fract_y
 _atom_site_fract_z
 _atom_site_occupancy
  Th  Th0  1  0.749999  0.875000  0.125000  1
  Th  Th1  1  0.250000  0.625000  0.375000  1
  Th  Th2  1  0.749999  0.375000  0.625000  1
  U  U3  1  0.250000  0.125000  0.875000  1
  B  B4  1  0.914308  0.623484  0.060887  1
  B  B5  1  0.416458  0.855470  0.127239  1
  B  B6  1  0.083541  0.872761  0.144530  1
  B  B7  1  0.584385  0.438657  0.208606  1
  B  B8  1  0.414794  0.350416  0.287267  1
  B  B9  1  0.914308  0.290823  0.353421  1
  B  B10  1  0.585692  0.939113  0.376516  1
  B  B11  1  0.083541  0.210780  0.439012  1
  B  B12  1  0.915615  0.791394  0.561343  1
  B  B13  1  0.414794  0.064378  0.627528  1
  B  B14  1  0.085205  0.712733  0.649584  1
  B  B15  1  0.585692  0.646579  0.709176  1
  B  B16  1  0.416458  0.560988  0.789220  1
  B  B17  1  0.915615  0.124221  0.854272  1
  B  B18  1  0.584385  0.145728  0.875779  1
  B  B19  1  0.085205  0.372472  0.935622  1
  Ru  Ru20  1  0.873183  0.321001  0.041978  1
  Ru  Ru21  1  0.371491  0.532425  0.046290  1
  Ru  Ru22  1  0.128509  0.174798  0.160933  1
  Ru  Ru23  1  0.623659  0.169068  0.176673  1
  Ru  Ru24  1  0.370348  0.037840  0.320861  1
  Ru  Ru25  1  0.873183  0.552181  0.331205  1
  Ru  Ru26  1  0.626817  0.668795  0.447819  1
  Ru  Ru27  1  0.128509  0.953710  0.467574  1
  Ru  Ru28  1  0.876341  0.053014  0.545409  1
  Ru  Ru29  1  0.370348  0.332506  0.549487  1
  Ru  Ru30  1  0.129652  0.450513  0.667493  1
  Ru  Ru31  1  0.626817  0.958022  0.678999  1
  Ru  Ru32  1  0.371491  0.839066  0.825202  1
  Ru  Ru33  1  0.876341  0.823327  0.830932  1
  Ru  Ru34  1  0.623659  0.454591  0.946986  1
  Ru  Ru35  1  0.129652  0.679139  0.962159  1
