# generated using pymatgen
data_Pr2YSn2Hg3
_symmetry_space_group_name_H-M   'P 1'
_cell_length_a   6.46198154
_cell_length_b   6.46198146
_cell_length_c   10.68152800
_cell_angle_alpha   90.00000000
_cell_angle_beta   90.00000000
_cell_angle_gamma   102.34296256
_symmetry_Int_Tables_number   1
_chemical_formula_structural   Pr2YSn2Hg3
_chemical_formula_sum   'Pr4 Y2 Sn4 Hg6'
_cell_volume   435.72100318
_cell_formula_units_Z   2
loop_
 _symmetry_equiv_pos_site_id
 _symmetry_equiv_pos_as_xyz
  1  'x, y, z'
loop_
 _atom_site_type_symbol
 _atom_site_label
 _atom_site_symmetry_multiplicity
 _atom_site_fract_x
 _atom_site_fract_y
 _atom_site_fract_z
 _atom_site_occupancy
  Pr  Pr0  1  0.201393  0.798607  0.500000  1
  Pr  Pr1  1  0.201393  0.798607  0.000000  1
  Pr  Pr2  1  0.798607  0.201393  0.500000  1
  Pr  Pr3  1  0.798607  0.201393  0.000000  1
  Y  Y4  1  0.632899  0.632899  0.250000  1
  Y  Y5  1  0.367101  0.367101  0.750000  1
  Sn  Sn6  1  0.317663  0.317663  0.046979  1
  Sn  Sn7  1  0.682337  0.682337  0.953021  1
  Sn  Sn8  1  0.317663  0.317663  0.453021  1
  Sn  Sn9  1  0.682337  0.682337  0.546979  1
  Hg  Hg10  1  0.012910  0.012910  0.250000  1
  Hg  Hg11  1  0.987090  0.987090  0.750000  1
  Hg  Hg12  1  0.507654  0.072447  0.250000  1
  Hg  Hg13  1  0.927553  0.492346  0.750000  1
  Hg  Hg14  1  0.492346  0.927553  0.750000  1
  Hg  Hg15  1  0.072447  0.507654  0.250000  1
