# generated using pymatgen
data_Er2P4Ru5Rh
_symmetry_space_group_name_H-M   'P 1'
_cell_length_a   3.95619700
_cell_length_b   11.19225465
_cell_length_c   12.53524427
_cell_angle_alpha   89.72592873
_cell_angle_beta   90.00000000
_cell_angle_gamma   90.00000000
_symmetry_Int_Tables_number   1
_chemical_formula_structural   Er2P4Ru5Rh
_chemical_formula_sum   'Er6 P12 Ru15 Rh3'
_cell_volume   555.03877559
_cell_formula_units_Z   3
loop_
 _symmetry_equiv_pos_site_id
 _symmetry_equiv_pos_as_xyz
  1  'x, y, z'
loop_
 _atom_site_type_symbol
 _atom_site_label
 _atom_site_symmetry_multiplicity
 _atom_site_fract_x
 _atom_site_fract_y
 _atom_site_fract_z
 _atom_site_occupancy
  Er  Er0  1  0.750000  0.251109  0.474453  1
  Er  Er1  1  0.250000  0.749152  0.525293  1
  Er  Er2  1  0.250000  0.932208  0.795951  1
  Er  Er3  1  0.250000  0.568804  0.796014  1
  Er  Er4  1  0.750000  0.067290  0.204160  1
  Er  Er5  1  0.750000  0.432250  0.204003  1
  P  P6  1  0.250000  0.249247  0.119583  1
  P  P7  1  0.750000  0.751156  0.880469  1
  P  P8  1  0.250000  0.244131  0.656963  1
  P  P9  1  0.750000  0.749826  0.340402  1
  P  P10  1  0.250000  0.446011  0.384453  1
  P  P11  1  0.250000  0.052122  0.382925  1
  P  P12  1  0.750000  0.555744  0.615434  1
  P  P13  1  0.750000  0.947102  0.617203  1
  P  P14  1  0.250000  0.904197  0.105565  1
  P  P15  1  0.250000  0.595616  0.105748  1
  P  P16  1  0.750000  0.096388  0.893673  1
  P  P17  1  0.750000  0.405600  0.896991  1
  Ru  Ru18  1  0.250000  0.251819  0.842349  1
  Ru  Ru19  1  0.750000  0.749901  0.156022  1
  Ru  Ru20  1  0.750000  0.249386  0.013737  1
  Ru  Ru21  1  0.250000  0.750501  0.985906  1
  Ru  Ru22  1  0.250000  0.418162  0.010372  1
  Ru  Ru23  1  0.250000  0.081774  0.009887  1
  Ru  Ru24  1  0.750000  0.582531  0.989676  1
  Ru  Ru25  1  0.750000  0.918828  0.989301  1
  Ru  Ru26  1  0.250000  0.449223  0.572373  1
  Ru  Ru27  1  0.250000  0.047848  0.569944  1
  Ru  Ru28  1  0.750000  0.549168  0.429980  1
  Ru  Ru29  1  0.750000  0.949700  0.429655  1
  Ru  Ru30  1  0.250000  0.871555  0.286569  1
  Ru  Ru31  1  0.250000  0.627166  0.286784  1
  Ru  Ru32  1  0.750000  0.129242  0.712334  1
  Rh  Rh33  1  0.250000  0.249805  0.306236  1
  Rh  Rh34  1  0.750000  0.750144  0.694079  1
  Rh  Rh35  1  0.750000  0.375295  0.715513  1
