# generated using pymatgen
data_TbY3(CoOs)4
_symmetry_space_group_name_H-M   'P 1'
_cell_length_a   5.25084781
_cell_length_b   5.11551864
_cell_length_c   9.12552714
_cell_angle_alpha   73.72271869
_cell_angle_beta   89.59514945
_cell_angle_gamma   119.15103054
_symmetry_Int_Tables_number   1
_chemical_formula_structural   TbY3(CoOs)4
_chemical_formula_sum   'Tb1 Y3 Co4 Os4'
_cell_volume   202.45421708
_cell_formula_units_Z   1
loop_
 _symmetry_equiv_pos_site_id
 _symmetry_equiv_pos_as_xyz
  1  'x, y, z'
loop_
 _atom_site_type_symbol
 _atom_site_label
 _atom_site_symmetry_multiplicity
 _atom_site_fract_x
 _atom_site_fract_y
 _atom_site_fract_z
 _atom_site_occupancy
  Tb  Tb0  1  0.878430  0.752234  0.373960  1
  Y  Y1  1  0.378425  0.752269  0.873887  1
  Y  Y2  1  0.996653  0.997835  0.000982  1
  Y  Y3  1  0.496629  0.997744  0.501141  1
  Co  Co4  1  0.187603  0.374996  0.437611  1
  Co  Co5  1  0.687430  0.375012  0.937406  1
  Co  Co6  1  0.937510  0.375260  0.186989  1
  Co  Co7  1  0.437500  0.374753  0.687996  1
  Os  Os8  1  0.437329  0.375140  0.187280  1
  Os  Os9  1  0.937580  0.375083  0.687733  1
  Os  Os10  1  0.437329  0.874909  0.187280  1
  Os  Os11  1  0.937580  0.874764  0.687733  1
