# generated using pymatgen
data_Nd4Ga24IrPt8
_symmetry_space_group_name_H-M   'P 1'
_cell_length_a   7.59822733
_cell_length_b   7.62748535
_cell_length_c   13.40651718
_cell_angle_alpha   84.63275008
_cell_angle_beta   79.26500020
_cell_angle_gamma   59.98571659
_symmetry_Int_Tables_number   1
_chemical_formula_structural   Nd4Ga24IrPt8
_chemical_formula_sum   'Nd4 Ga24 Ir1 Pt8'
_cell_volume   661.01285354
_cell_formula_units_Z   1
loop_
 _symmetry_equiv_pos_site_id
 _symmetry_equiv_pos_as_xyz
  1  'x, y, z'
loop_
 _atom_site_type_symbol
 _atom_site_label
 _atom_site_symmetry_multiplicity
 _atom_site_fract_x
 _atom_site_fract_y
 _atom_site_fract_z
 _atom_site_occupancy
  Nd  Nd0  1  0.395069  0.166772  0.809771  1
  Nd  Nd1  1  0.604931  0.833228  0.190229  1
  Nd  Nd2  1  0.730283  0.499113  0.810372  1
  Nd  Nd3  1  0.269717  0.500887  0.189628  1
  Ga  Ga4  1  0.689877  0.831401  0.941841  1
  Ga  Ga5  1  0.310123  0.168599  0.058159  1
  Ga  Ga6  1  0.145700  0.832192  0.560686  1
  Ga  Ga7  1  0.854300  0.167808  0.439314  1
  Ga  Ga8  1  0.480582  0.166523  0.556928  1
  Ga  Ga9  1  0.519418  0.833477  0.443072  1
  Ga  Ga10  1  0.219423  0.165438  0.327378  1
  Ga  Ga11  1  0.780577  0.834562  0.672622  1
  Ga  Ga12  1  0.436799  0.504826  0.671549  1
  Ga  Ga13  1  0.563201  0.495174  0.328451  1
  Ga  Ga14  1  0.107823  0.162371  0.669833  1
  Ga  Ga15  1  0.892177  0.837629  0.330167  1
  Ga  Ga16  1  0.351743  0.499232  0.942689  1
  Ga  Ga17  1  0.648257  0.500768  0.057311  1
  Ga  Ga18  1  0.017954  0.171728  0.949511  1
  Ga  Ga19  1  0.982046  0.828272  0.050489  1
  Ga  Ga20  1  0.185942  0.499094  0.442237  1
  Ga  Ga21  1  0.814058  0.500906  0.557763  1
  Ga  Ga22  1  0.738508  0.163662  0.182884  1
  Ga  Ga23  1  0.261492  0.836338  0.817116  1
  Ga  Ga24  1  0.061368  0.630387  0.818018  1
  Ga  Ga25  1  0.938632  0.369613  0.181982  1
  Ga  Ga26  1  0.859028  0.038285  0.816276  1
  Ga  Ga27  1  0.140972  0.961715  0.183725  1
  Ir  Ir28  1  0.000000  0.500000  0.000000  1
  Pt  Pt29  1  0.118693  0.496519  0.637962  1
  Pt  Pt30  1  0.881307  0.503481  0.362038  1
  Pt  Pt31  1  0.660028  0.169918  0.000054  1
  Pt  Pt32  1  0.339972  0.830082  0.999946  1
  Pt  Pt33  1  0.541030  0.167177  0.361623  1
  Pt  Pt34  1  0.458970  0.832823  0.638377  1
  Pt  Pt35  1  0.781013  0.171628  0.636147  1
  Pt  Pt36  1  0.218987  0.828372  0.363853  1
