# generated using pymatgen
data_Nd5TmAl16(SiOs)8
_symmetry_space_group_name_H-M   'P 1'
_cell_length_a   8.77433360
_cell_length_b   8.77433370
_cell_length_c   9.52294800
_cell_angle_alpha   90.00000000
_cell_angle_beta   90.00000000
_cell_angle_gamma   120.21470250
_symmetry_Int_Tables_number   1
_chemical_formula_structural   Nd5TmAl16(SiOs)8
_chemical_formula_sum   'Nd5 Tm1 Al16 Si8 Os8'
_cell_volume   633.55842925
_cell_formula_units_Z   1
loop_
 _symmetry_equiv_pos_site_id
 _symmetry_equiv_pos_as_xyz
  1  'x, y, z'
loop_
 _atom_site_type_symbol
 _atom_site_label
 _atom_site_symmetry_multiplicity
 _atom_site_fract_x
 _atom_site_fract_y
 _atom_site_fract_z
 _atom_site_occupancy
  Nd  Nd0  1  0.189749  0.381906  0.250000  1
  Nd  Nd1  1  0.810365  0.618094  0.750000  1
  Nd  Nd2  1  0.618094  0.810251  0.250000  1
  Nd  Nd3  1  0.381906  0.189635  0.750000  1
  Nd  Nd4  1  0.193148  0.806852  0.250000  1
  Tm  Tm5  1  0.801736  0.198264  0.750000  1
  Al  Al6  1  0.163900  0.328808  0.578620  1
  Al  Al7  1  0.834141  0.669386  0.424499  1
  Al  Al8  1  0.671192  0.836100  0.578620  1
  Al  Al9  1  0.834141  0.669386  0.075501  1
  Al  Al10  1  0.330614  0.165859  0.424499  1
  Al  Al11  1  0.163900  0.328808  0.921380  1
  Al  Al12  1  0.165171  0.834829  0.577378  1
  Al  Al13  1  0.330614  0.165859  0.075501  1
  Al  Al14  1  0.835537  0.164463  0.428354  1
  Al  Al15  1  0.671192  0.836100  0.921380  1
  Al  Al16  1  0.835537  0.164463  0.071646  1
  Al  Al17  1  0.165171  0.834829  0.922622  1
  Al  Al18  1  0.566164  0.433836  0.250000  1
  Al  Al19  1  0.433123  0.566877  0.750000  1
  Al  Al20  1  0.001271  0.998729  0.250000  1
  Al  Al21  1  0.994139  0.005861  0.750000  1
  Si  Si22  1  0.335663  0.664337  0.033960  1
  Si  Si23  1  0.665807  0.334193  0.961672  1
  Si  Si24  1  0.665807  0.334193  0.538328  1
  Si  Si25  1  0.335663  0.664337  0.466040  1
  Si  Si26  1  0.568402  0.127414  0.250000  1
  Si  Si27  1  0.438253  0.876053  0.750000  1
  Si  Si28  1  0.872586  0.431598  0.250000  1
  Si  Si29  1  0.123947  0.561747  0.750000  1
  Os  Os30  1  0.502052  0.001030  0.997872  1
  Os  Os31  1  0.998970  0.497948  0.997872  1
  Os  Os32  1  0.502052  0.001030  0.502128  1
  Os  Os33  1  0.500197  0.499803  0.999244  1
  Os  Os34  1  0.998970  0.497948  0.502128  1
  Os  Os35  1  0.500197  0.499803  0.500756  1
  Os  Os36  1  0.000317  0.999683  0.999734  1
  Os  Os37  1  0.000317  0.999683  0.500266  1
