# generated using pymatgen
data_LiTb3In2
_symmetry_space_group_name_H-M   'P 1'
_cell_length_a   5.32677000
_cell_length_b   5.32677038
_cell_length_c   6.55029500
_cell_angle_alpha   90.00000000
_cell_angle_beta   90.00000000
_cell_angle_gamma   120.00001007
_symmetry_Int_Tables_number   1
_chemical_formula_structural   LiTb3In2
_chemical_formula_sum   'Li1 Tb3 In2'
_cell_volume   160.96052067
_cell_formula_units_Z   1
loop_
 _symmetry_equiv_pos_site_id
 _symmetry_equiv_pos_as_xyz
  1  'x, y, z'
loop_
 _atom_site_type_symbol
 _atom_site_label
 _atom_site_symmetry_multiplicity
 _atom_site_fract_x
 _atom_site_fract_y
 _atom_site_fract_z
 _atom_site_occupancy
  Li  Li0  1  0.000000  0.000000  0.000000  1
  Tb  Tb1  1  0.000000  0.000000  0.500000  1
  Tb  Tb2  1  0.333333  0.666667  0.818345  1
  Tb  Tb3  1  0.666667  0.333333  0.181655  1
  In  In4  1  0.333333  0.666667  0.302372  1
  In  In5  1  0.666667  0.333333  0.697628  1
