# generated using pymatgen
data_LaPr5(Ir7Rh2)2
_symmetry_space_group_name_H-M   'P 1'
_cell_length_a   5.39587400
_cell_length_b   5.39587267
_cell_length_c   17.71816500
_cell_angle_alpha   90.00000000
_cell_angle_beta   90.00000000
_cell_angle_gamma   119.99999590
_symmetry_Int_Tables_number   1
_chemical_formula_structural   LaPr5(Ir7Rh2)2
_chemical_formula_sum   'La1 Pr5 Ir14 Rh4'
_cell_volume   446.75856150
_cell_formula_units_Z   1
loop_
 _symmetry_equiv_pos_site_id
 _symmetry_equiv_pos_as_xyz
  1  'x, y, z'
loop_
 _atom_site_type_symbol
 _atom_site_label
 _atom_site_symmetry_multiplicity
 _atom_site_fract_x
 _atom_site_fract_y
 _atom_site_fract_z
 _atom_site_occupancy
  La  La0  1  0.666667  0.333333  0.250000  1
  Pr  Pr1  1  0.333333  0.666667  0.541187  1
  Pr  Pr2  1  0.666667  0.333333  0.041282  1
  Pr  Pr3  1  0.666667  0.333333  0.458718  1
  Pr  Pr4  1  0.333333  0.666667  0.958813  1
  Pr  Pr5  1  0.333333  0.666667  0.750000  1
  Ir  Ir6  1  0.166599  0.333199  0.127683  1
  Ir  Ir7  1  0.833402  0.666804  0.627904  1
  Ir  Ir8  1  0.666801  0.833401  0.127683  1
  Ir  Ir9  1  0.166599  0.833401  0.127683  1
  Ir  Ir10  1  0.833402  0.166598  0.627904  1
  Ir  Ir11  1  0.333196  0.166598  0.627904  1
  Ir  Ir12  1  0.833402  0.666804  0.872096  1
  Ir  Ir13  1  0.833402  0.166598  0.872096  1
  Ir  Ir14  1  0.333196  0.166598  0.872096  1
  Ir  Ir15  1  0.666801  0.833401  0.372317  1
  Ir  Ir16  1  0.166599  0.833401  0.372317  1
  Ir  Ir17  1  0.166599  0.333199  0.372317  1
  Ir  Ir18  1  0.000000  0.000000  0.000010  1
  Ir  Ir19  1  0.000000  0.000000  0.499990  1
  Rh  Rh20  1  0.000000  0.000000  0.250000  1
  Rh  Rh21  1  0.000000  0.000000  0.750000  1
  Rh  Rh22  1  0.333333  0.666667  0.250000  1
  Rh  Rh23  1  0.666667  0.333333  0.750000  1
