# generated using pymatgen
data_Pr10Si16Hg
_symmetry_space_group_name_H-M   'P 1'
_cell_length_a   11.64113560
_cell_length_b   11.57973371
_cell_length_c   11.64113586
_cell_angle_alpha   144.88222629
_cell_angle_beta   136.72074779
_cell_angle_gamma   57.00606687
_symmetry_Int_Tables_number   1
_chemical_formula_structural   Pr10Si16Hg
_chemical_formula_sum   'Pr10 Si16 Hg1'
_cell_volume   613.67708809
_cell_formula_units_Z   1
loop_
 _symmetry_equiv_pos_site_id
 _symmetry_equiv_pos_as_xyz
  1  'x, y, z'
loop_
 _atom_site_type_symbol
 _atom_site_label
 _atom_site_symmetry_multiplicity
 _atom_site_fract_x
 _atom_site_fract_y
 _atom_site_fract_z
 _atom_site_occupancy
  Pr  Pr0  1  0.751600  0.762216  0.514408  1
  Pr  Pr1  1  0.442732  0.970452  0.015360  1
  Pr  Pr2  1  0.850702  0.363923  0.018625  1
  Pr  Pr3  1  0.955092  0.970452  0.527718  1
  Pr  Pr4  1  0.151236  0.163787  0.515790  1
  Pr  Pr5  1  0.345298  0.363923  0.513221  1
  Pr  Pr6  1  0.247809  0.762216  0.010616  1
  Pr  Pr7  1  0.546584  0.559071  0.500602  1
  Pr  Pr8  1  0.058470  0.559071  0.012488  1
  Pr  Pr9  1  0.647996  0.163787  0.012551  1
  Si  Si10  1  0.198391  0.610121  0.411729  1
  Si  Si11  1  0.999448  0.090460  0.091012  1
  Si  Si12  1  0.701202  0.284230  0.583028  1
  Si  Si13  1  0.801837  0.204056  0.402221  1
  Si  Si14  1  0.897867  0.502150  0.604283  1
  Si  Si15  1  0.408327  0.849000  0.440671  1
  Si  Si16  1  0.101176  0.704079  0.602902  1
  Si  Si17  1  0.300791  0.894153  0.593364  1
  Si  Si18  1  0.591756  0.040547  0.448791  1
  Si  Si19  1  0.998838  0.432790  0.433952  1
  Si  Si20  1  0.888729  0.834257  0.945528  1
  Si  Si21  1  0.399947  0.500044  0.100096  1
  Si  Si22  1  0.107904  0.052206  0.944303  1
  Si  Si23  1  0.295464  0.232870  0.937407  1
  Si  Si24  1  0.499050  0.417948  0.918898  1
  Si  Si25  1  0.597090  0.706129  0.109039  1
  Hg  Hg26  1  0.714666  0.667561  0.952895  1
