# generated using pymatgen
data_Cs2Li14Sn3O14
_symmetry_space_group_name_H-M   'P 1'
_cell_length_a   8.34493937
_cell_length_b   8.34494605
_cell_length_c   8.34495109
_cell_angle_alpha   128.06881491
_cell_angle_beta   123.35148930
_cell_angle_gamma   80.42261760
_symmetry_Int_Tables_number   1
_chemical_formula_structural   Cs2Li14Sn3O14
_chemical_formula_sum   'Cs2 Li14 Sn3 O14'
_cell_volume   368.75906682
_cell_formula_units_Z   1
loop_
 _symmetry_equiv_pos_site_id
 _symmetry_equiv_pos_as_xyz
  1  'x, y, z'
loop_
 _atom_site_type_symbol
 _atom_site_label
 _atom_site_symmetry_multiplicity
 _atom_site_fract_x
 _atom_site_fract_y
 _atom_site_fract_z
 _atom_site_occupancy
  Cs  Cs0  1  0.500000  0.767014  0.267014  1
  Cs  Cs1  1  0.500000  0.232986  0.732986  1
  Li  Li2  1  0.706257  0.135119  0.114102  1
  Li  Li3  1  0.978983  0.864881  0.571137  1
  Li  Li4  1  0.021018  0.592152  0.885897  1
  Li  Li5  1  0.293746  0.407847  0.428866  1
  Li  Li6  1  0.021017  0.135119  0.428863  1
  Li  Li7  1  0.842077  0.500000  0.342076  1
  Li  Li8  1  0.157923  0.500000  0.657924  1
  Li  Li9  1  0.415804  0.770235  0.645569  1
  Li  Li10  1  0.584196  0.229765  0.354431  1
  Li  Li11  1  0.875335  0.229767  0.645570  1
  Li  Li12  1  0.124665  0.770233  0.354430  1
  Li  Li13  1  0.706254  0.592153  0.571134  1
  Li  Li14  1  0.293743  0.864881  0.885898  1
  Li  Li15  1  0.978982  0.407848  0.114103  1
  Sn  Sn16  1  0.000000  0.000000  0.000000  1
  Sn  Sn17  1  0.267658  0.267658  0.000001  1
  Sn  Sn18  1  0.732342  0.732342  0.999999  1
  O  O19  1  0.050374  0.873164  0.177211  1
  O  O20  1  0.421787  0.635027  0.786762  1
  O  O21  1  0.848265  0.635026  0.213238  1
  O  O22  1  0.578213  0.364973  0.213238  1
  O  O23  1  0.151735  0.364974  0.786762  1
  O  O24  1  0.747332  0.031861  0.284528  1
  O  O25  1  0.252669  0.537197  0.284529  1
  O  O26  1  0.252668  0.968139  0.715472  1
  O  O27  1  0.747331  0.462803  0.715471  1
  O  O28  1  0.999999  0.712438  0.712438  1
  O  O29  1  0.000001  0.287562  0.287562  1
  O  O30  1  0.695953  0.873164  0.822788  1
  O  O31  1  0.304047  0.126836  0.177212  1
  O  O32  1  0.949626  0.126836  0.822789  1
