# generated using pymatgen
data_Ho6Er2Ti11Si16Au
_symmetry_space_group_name_H-M   'P 1'
_cell_length_a   7.05751489
_cell_length_b   7.05670840
_cell_length_c   12.86836703
_cell_angle_alpha   90.12839519
_cell_angle_beta   89.87180944
_cell_angle_gamma   89.63266171
_symmetry_Int_Tables_number   1
_chemical_formula_structural   Ho6Er2Ti11Si16Au
_chemical_formula_sum   'Ho6 Er2 Ti11 Si16 Au1'
_cell_volume   640.86462104
_cell_formula_units_Z   1
loop_
 _symmetry_equiv_pos_site_id
 _symmetry_equiv_pos_as_xyz
  1  'x, y, z'
loop_
 _atom_site_type_symbol
 _atom_site_label
 _atom_site_symmetry_multiplicity
 _atom_site_fract_x
 _atom_site_fract_y
 _atom_site_fract_z
 _atom_site_occupancy
  Ho  Ho0  1  0.340795  0.002431  0.466800  1
  Ho  Ho1  1  0.497353  0.841014  0.716829  1
  Ho  Ho2  1  0.501358  0.157443  0.214336  1
  Ho  Ho3  1  0.841116  0.497349  0.283178  1
  Ho  Ho4  1  0.157347  0.501346  0.785655  1
  Ho  Ho5  1  0.656527  0.000743  0.968815  1
  Er  Er6  1  0.002097  0.341069  0.533302  1
  Er  Er7  1  0.000836  0.656334  0.031216  1
  Ti  Ti8  1  0.174793  0.826107  0.249408  1
  Ti  Ti9  1  0.826219  0.174911  0.750459  1
  Ti  Ti10  1  0.672881  0.672653  0.500021  1
  Ti  Ti11  1  0.147456  0.007158  0.876843  1
  Ti  Ti12  1  0.495129  0.650831  0.122817  1
  Ti  Ti13  1  0.507022  0.350793  0.625423  1
  Ti  Ti14  1  0.650979  0.495216  0.877201  1
  Ti  Ti15  1  0.350720  0.506908  0.374592  1
  Ti  Ti16  1  0.850420  0.992169  0.374265  1
  Ti  Ti17  1  0.007190  0.147467  0.123186  1
  Ti  Ti18  1  0.992140  0.850423  0.625786  1
  Si  Si19  1  0.201852  0.133085  0.684061  1
  Si  Si20  1  0.373521  0.719872  0.928597  1
  Si  Si21  1  0.631850  0.293643  0.432362  1
  Si  Si22  1  0.720327  0.374174  0.071469  1
  Si  Si23  1  0.293393  0.631270  0.567747  1
  Si  Si24  1  0.797744  0.866530  0.182329  1
  Si  Si25  1  0.132784  0.202197  0.315873  1
  Si  Si26  1  0.866851  0.797441  0.817600  1
  Si  Si27  1  0.286035  0.937610  0.065792  1
  Si  Si28  1  0.547059  0.791229  0.314369  1
  Si  Si29  1  0.454487  0.207964  0.809805  1
  Si  Si30  1  0.791451  0.546766  0.685478  1
  Si  Si31  1  0.207751  0.454666  0.190001  1
  Si  Si32  1  0.708812  0.048169  0.564492  1
  Si  Si33  1  0.938050  0.286713  0.934282  1
  Si  Si34  1  0.047848  0.708237  0.435626  1
  Au  Au35  1  0.327809  0.328071  0.999983  1
