# generated using pymatgen
data_TbEr3UAl15
_symmetry_space_group_name_H-M   'P 1'
_cell_length_a   12.47134134
_cell_length_b   12.47134102
_cell_length_c   12.47133986
_cell_angle_alpha   28.30928380
_cell_angle_beta   28.30928777
_cell_angle_gamma   28.30928774
_symmetry_Int_Tables_number   1
_chemical_formula_structural   TbEr3UAl15
_chemical_formula_sum   'Tb1 Er3 U1 Al15'
_cell_volume   385.46623623
_cell_formula_units_Z   1
loop_
 _symmetry_equiv_pos_site_id
 _symmetry_equiv_pos_as_xyz
  1  'x, y, z'
loop_
 _atom_site_type_symbol
 _atom_site_label
 _atom_site_symmetry_multiplicity
 _atom_site_fract_x
 _atom_site_fract_y
 _atom_site_fract_z
 _atom_site_occupancy
  Tb  Tb0  1  0.400450  0.400450  0.400450  1
  Er  Er1  1  0.000269  0.000269  0.000269  1
  Er  Er2  1  0.131252  0.131252  0.131252  1
  Er  Er3  1  0.599293  0.599293  0.599293  1
  U  U4  1  0.869604  0.869604  0.869604  1
  Al  Al5  1  0.500158  0.500158  0.998490  1
  Al  Al6  1  0.998490  0.500158  0.500158  1
  Al  Al7  1  0.500158  0.998490  0.500158  1
  Al  Al8  1  0.364774  0.868782  0.364774  1
  Al  Al9  1  0.364774  0.364774  0.868782  1
  Al  Al10  1  0.868782  0.364774  0.364774  1
  Al  Al11  1  0.639730  0.123277  0.639730  1
  Al  Al12  1  0.639730  0.639730  0.123277  1
  Al  Al13  1  0.123277  0.639730  0.639730  1
  Al  Al14  1  0.115237  0.570814  0.115237  1
  Al  Al15  1  0.115237  0.115237  0.570814  1
  Al  Al16  1  0.570814  0.115237  0.115237  1
  Al  Al17  1  0.883217  0.431536  0.883217  1
  Al  Al18  1  0.883217  0.883217  0.431536  1
  Al  Al19  1  0.431536  0.883217  0.883217  1
