# generated using pymatgen
data_Tb3Y2CoSb2
_symmetry_space_group_name_H-M   'P 1'
_cell_length_a   7.97002200
_cell_length_b   8.74440400
_cell_length_c   12.23184000
_cell_angle_alpha   90.00000000
_cell_angle_beta   90.00000000
_cell_angle_gamma   90.00000000
_symmetry_Int_Tables_number   1
_chemical_formula_structural   Tb3Y2CoSb2
_chemical_formula_sum   'Tb12 Y8 Co4 Sb8'
_cell_volume   852.47475359
_cell_formula_units_Z   4
loop_
 _symmetry_equiv_pos_site_id
 _symmetry_equiv_pos_as_xyz
  1  'x, y, z'
loop_
 _atom_site_type_symbol
 _atom_site_label
 _atom_site_symmetry_multiplicity
 _atom_site_fract_x
 _atom_site_fract_y
 _atom_site_fract_z
 _atom_site_occupancy
  Tb  Tb0  1  0.622341  0.750000  0.305276  1
  Tb  Tb1  1  0.122341  0.250000  0.194724  1
  Tb  Tb2  1  0.377659  0.250000  0.694724  1
  Tb  Tb3  1  0.877659  0.750000  0.805276  1
  Tb  Tb4  1  0.821341  0.965009  0.065031  1
  Tb  Tb5  1  0.321341  0.034991  0.434969  1
  Tb  Tb6  1  0.178659  0.465009  0.934969  1
  Tb  Tb7  1  0.678659  0.534991  0.565031  1
  Tb  Tb8  1  0.178659  0.034991  0.934969  1
  Tb  Tb9  1  0.678659  0.965009  0.565031  1
  Tb  Tb10  1  0.821341  0.534991  0.065031  1
  Tb  Tb11  1  0.321341  0.465009  0.434969  1
  Y  Y12  1  0.155785  0.750000  0.204055  1
  Y  Y13  1  0.655785  0.250000  0.295945  1
  Y  Y14  1  0.844215  0.250000  0.795945  1
  Y  Y15  1  0.344215  0.750000  0.704055  1
  Y  Y16  1  0.455686  0.750000  0.998261  1
  Y  Y17  1  0.955686  0.250000  0.501739  1
  Y  Y18  1  0.544314  0.250000  0.001739  1
  Y  Y19  1  0.044314  0.750000  0.498261  1
  Co  Co20  1  0.434703  0.750000  0.489251  1
  Co  Co21  1  0.934703  0.250000  0.010749  1
  Co  Co22  1  0.565297  0.250000  0.510749  1
  Co  Co23  1  0.065297  0.750000  0.989251  1
  Sb  Sb24  1  0.927754  0.991521  0.327113  1
  Sb  Sb25  1  0.427754  0.008479  0.172887  1
  Sb  Sb26  1  0.072246  0.491521  0.672887  1
  Sb  Sb27  1  0.572246  0.508479  0.827113  1
  Sb  Sb28  1  0.072246  0.008479  0.672887  1
  Sb  Sb29  1  0.572246  0.991521  0.827113  1
  Sb  Sb30  1  0.927754  0.508479  0.327113  1
  Sb  Sb31  1  0.427754  0.491521  0.172887  1
