# generated using pymatgen
data_Li2Si2PdRh3
_symmetry_space_group_name_H-M   'P 1'
_cell_length_a   4.11103300
_cell_length_b   5.83861105
_cell_length_c   12.33954949
_cell_angle_alpha   89.83600240
_cell_angle_beta   90.00072439
_cell_angle_gamma   89.99980481
_symmetry_Int_Tables_number   1
_chemical_formula_structural   Li2Si2PdRh3
_chemical_formula_sum   'Li6 Si6 Pd3 Rh9'
_cell_volume   296.18157133
_cell_formula_units_Z   3
loop_
 _symmetry_equiv_pos_site_id
 _symmetry_equiv_pos_as_xyz
  1  'x, y, z'
loop_
 _atom_site_type_symbol
 _atom_site_label
 _atom_site_symmetry_multiplicity
 _atom_site_fract_x
 _atom_site_fract_y
 _atom_site_fract_z
 _atom_site_occupancy
  Li  Li0  1  0.999999  0.499262  0.999613  1
  Li  Li1  1  0.499870  0.000240  0.167592  1
  Li  Li2  1  0.999910  0.500889  0.334013  1
  Li  Li3  1  0.499995  0.000611  0.500229  1
  Li  Li4  1  0.000093  0.498731  0.666405  1
  Li  Li5  1  0.500126  0.999975  0.832238  1
  Si  Si6  1  0.000011  0.993935  0.994549  1
  Si  Si7  1  0.499883  0.512450  0.176564  1
  Si  Si8  1  0.999912  0.995634  0.339256  1
  Si  Si9  1  0.499997  0.499541  0.500554  1
  Si  Si10  1  0.000096  0.000106  0.665600  1
  Si  Si11  1  0.500107  0.499167  0.823555  1
  Pd  Pd12  1  0.499997  0.251307  0.001238  1
  Pd  Pd13  1  0.499996  0.746423  0.000381  1
  Pd  Pd14  1  0.999937  0.250730  0.165247  1
  Rh  Rh15  1  0.999900  0.752917  0.164440  1
  Rh  Rh16  1  0.499908  0.249793  0.332311  1
  Rh  Rh17  1  0.499941  0.752740  0.333952  1
  Rh  Rh18  1  0.999978  0.250076  0.499676  1
  Rh  Rh19  1  0.000017  0.748408  0.500828  1
  Rh  Rh20  1  0.500086  0.248360  0.666064  1
  Rh  Rh21  1  0.500067  0.751269  0.666145  1
  Rh  Rh22  1  0.000117  0.249537  0.835236  1
  Rh  Rh23  1  0.000053  0.747910  0.834318  1
