# generated using pymatgen
data_Sr3(GaIr)2
_symmetry_space_group_name_H-M   'P 1'
_cell_length_a   6.16270000
_cell_length_b   8.18711600
_cell_length_c   14.11385200
_cell_angle_alpha   90.00000000
_cell_angle_beta   90.00000000
_cell_angle_gamma   90.00000000
_symmetry_Int_Tables_number   1
_chemical_formula_structural   Sr3(GaIr)2
_chemical_formula_sum   'Sr12 Ga8 Ir8'
_cell_volume   712.11072986
_cell_formula_units_Z   4
loop_
 _symmetry_equiv_pos_site_id
 _symmetry_equiv_pos_as_xyz
  1  'x, y, z'
loop_
 _atom_site_type_symbol
 _atom_site_label
 _atom_site_symmetry_multiplicity
 _atom_site_fract_x
 _atom_site_fract_y
 _atom_site_fract_z
 _atom_site_occupancy
  Sr  Sr0  1  0.630878  0.238517  0.250000  1
  Sr  Sr1  1  0.369122  0.761483  0.750000  1
  Sr  Sr2  1  0.369122  0.738517  0.250000  1
  Sr  Sr3  1  0.630878  0.261483  0.750000  1
  Sr  Sr4  1  0.141726  0.395370  0.097043  1
  Sr  Sr5  1  0.858274  0.604630  0.902957  1
  Sr  Sr6  1  0.858274  0.604630  0.597043  1
  Sr  Sr7  1  0.858274  0.895370  0.402957  1
  Sr  Sr8  1  0.141726  0.395370  0.402957  1
  Sr  Sr9  1  0.141726  0.104630  0.597043  1
  Sr  Sr10  1  0.141726  0.104630  0.902957  1
  Sr  Sr11  1  0.858274  0.895370  0.097043  1
  Ga  Ga12  1  0.178210  0.086031  0.250000  1
  Ga  Ga13  1  0.821790  0.913969  0.750000  1
  Ga  Ga14  1  0.821790  0.586031  0.250000  1
  Ga  Ga15  1  0.178210  0.413969  0.750000  1
  Ga  Ga16  1  0.586430  0.250000  0.000000  1
  Ga  Ga17  1  0.413570  0.750000  0.000000  1
  Ga  Ga18  1  0.413570  0.750000  0.500000  1
  Ga  Ga19  1  0.586430  0.250000  0.500000  1
  Ir  Ir20  1  0.364497  0.024301  0.092328  1
  Ir  Ir21  1  0.635503  0.975699  0.907672  1
  Ir  Ir22  1  0.635503  0.975699  0.592328  1
  Ir  Ir23  1  0.635503  0.524301  0.407672  1
  Ir  Ir24  1  0.364497  0.024301  0.407672  1
  Ir  Ir25  1  0.364497  0.475699  0.592328  1
  Ir  Ir26  1  0.364497  0.475699  0.907672  1
  Ir  Ir27  1  0.635503  0.524301  0.092328  1
