# generated using pymatgen
data_Pr2B6Ir2Rh7
_symmetry_space_group_name_H-M   'P 1'
_cell_length_a   5.67966983
_cell_length_b   5.68957238
_cell_length_c   8.60266400
_cell_angle_alpha   90.00000000
_cell_angle_beta   90.00000000
_cell_angle_gamma   120.05768536
_symmetry_Int_Tables_number   1
_chemical_formula_structural   Pr2B6Ir2Rh7
_chemical_formula_sum   'Pr2 B6 Ir2 Rh7'
_cell_volume   240.60994338
_cell_formula_units_Z   1
loop_
 _symmetry_equiv_pos_site_id
 _symmetry_equiv_pos_as_xyz
  1  'x, y, z'
loop_
 _atom_site_type_symbol
 _atom_site_label
 _atom_site_symmetry_multiplicity
 _atom_site_fract_x
 _atom_site_fract_y
 _atom_site_fract_z
 _atom_site_occupancy
  Pr  Pr0  1  0.000000  0.000000  0.706869  1
  Pr  Pr1  1  0.000000  0.000000  0.293131  1
  B  B2  1  0.666706  0.333353  0.000000  1
  B  B3  1  0.333294  0.666647  0.000000  1
  B  B4  1  0.664600  0.332299  0.667522  1
  B  B5  1  0.335400  0.667701  0.667522  1
  B  B6  1  0.335400  0.667701  0.332478  1
  B  B7  1  0.664600  0.332299  0.332478  1
  Ir  Ir8  1  0.500000  0.500000  0.500000  1
  Ir  Ir9  1  0.500000  0.000000  0.500000  1
  Rh  Rh10  1  0.500000  0.500000  0.837636  1
  Rh  Rh11  1  0.500000  0.000000  0.837636  1
  Rh  Rh12  1  0.000000  0.500000  0.837107  1
  Rh  Rh13  1  0.500000  0.500000  0.162364  1
  Rh  Rh14  1  0.500000  0.000000  0.162364  1
  Rh  Rh15  1  0.000000  0.500000  0.162893  1
  Rh  Rh16  1  0.000000  0.500000  0.500000  1
