# generated using pymatgen
data_Pa4Cd2Co3Pt
_symmetry_space_group_name_H-M   'P 1'
_cell_length_a   7.58629548
_cell_length_b   7.58629548
_cell_length_c   3.46983200
_cell_angle_alpha   90.00000000
_cell_angle_beta   90.00000000
_cell_angle_gamma   90.76370312
_symmetry_Int_Tables_number   1
_chemical_formula_structural   Pa4Cd2Co3Pt
_chemical_formula_sum   'Pa4 Cd2 Co3 Pt1'
_cell_volume   199.67761241
_cell_formula_units_Z   1
loop_
 _symmetry_equiv_pos_site_id
 _symmetry_equiv_pos_as_xyz
  1  'x, y, z'
loop_
 _atom_site_type_symbol
 _atom_site_label
 _atom_site_symmetry_multiplicity
 _atom_site_fract_x
 _atom_site_fract_y
 _atom_site_fract_z
 _atom_site_occupancy
  Pa  Pa0  1  0.149216  0.350784  0.500000  1
  Pa  Pa1  1  0.333057  0.816148  0.500000  1
  Pa  Pa2  1  0.825780  0.674220  0.500000  1
  Pa  Pa3  1  0.683852  0.166943  0.500000  1
  Cd  Cd4  1  0.502702  0.496606  0.000000  1
  Cd  Cd5  1  0.003394  0.997298  0.000000  1
  Co  Co6  1  0.635795  0.864205  0.000000  1
  Co  Co7  1  0.129779  0.633559  0.000000  1
  Co  Co8  1  0.866441  0.370221  0.000000  1
  Pt  Pt9  1  0.369984  0.130016  0.000000  1
