# generated using pymatgen
data_Pa4Co17(TcAs4)3
_symmetry_space_group_name_H-M   'P 1'
_cell_length_a   3.86048400
_cell_length_b   12.31333947
_cell_length_c   10.84713231
_cell_angle_alpha   90.29125459
_cell_angle_beta   90.00000000
_cell_angle_gamma   90.00000000
_symmetry_Int_Tables_number   1
_chemical_formula_structural   Pa4Co17(TcAs4)3
_chemical_formula_sum   'Pa4 Co17 Tc3 As12'
_cell_volume   515.61665346
_cell_formula_units_Z   1
loop_
 _symmetry_equiv_pos_site_id
 _symmetry_equiv_pos_as_xyz
  1  'x, y, z'
loop_
 _atom_site_type_symbol
 _atom_site_label
 _atom_site_symmetry_multiplicity
 _atom_site_fract_x
 _atom_site_fract_y
 _atom_site_fract_z
 _atom_site_occupancy
  Pa  Pa0  1  0.750000  0.702561  0.076358  1
  Pa  Pa1  1  0.250000  0.298453  0.921206  1
  Pa  Pa2  1  0.250000  0.799619  0.574912  1
  Pa  Pa3  1  0.750000  0.198251  0.424691  1
  Co  Co4  1  0.750000  0.200346  0.110818  1
  Co  Co5  1  0.750000  0.000146  0.210027  1
  Co  Co6  1  0.250000  0.009934  0.795765  1
  Co  Co7  1  0.250000  0.507757  0.707040  1
  Co  Co8  1  0.750000  0.490009  0.290433  1
  Co  Co9  1  0.750000  0.670909  0.786649  1
  Co  Co10  1  0.250000  0.322800  0.210266  1
  Co  Co11  1  0.250000  0.827305  0.283198  1
  Co  Co12  1  0.750000  0.172630  0.717658  1
  Co  Co13  1  0.750000  0.936538  0.972662  1
  Co  Co14  1  0.250000  0.074973  0.028756  1
  Co  Co15  1  0.250000  0.566932  0.471251  1
  Co  Co16  1  0.750000  0.431332  0.526208  1
  Co  Co17  1  0.750000  0.981562  0.593303  1
  Co  Co18  1  0.250000  0.019765  0.405043  1
  Co  Co19  1  0.250000  0.513836  0.092271  1
  Co  Co20  1  0.750000  0.476102  0.910365  1
  Tc  Tc21  1  0.750000  0.701070  0.390408  1
  Tc  Tc22  1  0.250000  0.298280  0.608002  1
  Tc  Tc23  1  0.250000  0.799239  0.892104  1
  As  As24  1  0.750000  0.608506  0.591620  1
  As  As25  1  0.250000  0.390018  0.405874  1
  As  As26  1  0.250000  0.894975  0.091485  1
  As  As27  1  0.750000  0.113637  0.913348  1
  As  As28  1  0.750000  0.900257  0.393480  1
  As  As29  1  0.250000  0.099212  0.606877  1
  As  As30  1  0.250000  0.598874  0.896126  1
  As  As31  1  0.750000  0.392328  0.106205  1
  As  As32  1  0.750000  0.868847  0.771911  1
  As  As33  1  0.250000  0.134191  0.226381  1
  As  As34  1  0.250000  0.630129  0.269783  1
  As  As35  1  0.750000  0.368677  0.727515  1
