# generated using pymatgen
data_Eu2AgIrO7
_symmetry_space_group_name_H-M   'P 1'
_cell_length_a   6.43510302
_cell_length_b   6.59907479
_cell_length_c   7.63886400
_cell_angle_alpha   90.00000000
_cell_angle_beta   90.00000000
_cell_angle_gamma   112.56284975
_symmetry_Int_Tables_number   1
_chemical_formula_structural   Eu2AgIrO7
_chemical_formula_sum   'Eu4 Ag2 Ir2 O14'
_cell_volume   299.56084278
_cell_formula_units_Z   2
loop_
 _symmetry_equiv_pos_site_id
 _symmetry_equiv_pos_as_xyz
  1  'x, y, z'
loop_
 _atom_site_type_symbol
 _atom_site_label
 _atom_site_symmetry_multiplicity
 _atom_site_fract_x
 _atom_site_fract_y
 _atom_site_fract_z
 _atom_site_occupancy
  Eu  Eu0  1  0.000000  0.000000  0.000000  1
  Eu  Eu1  1  0.000000  0.000000  0.500000  1
  Eu  Eu2  1  0.960711  0.490377  0.750000  1
  Eu  Eu3  1  0.039289  0.509623  0.250000  1
  Ag  Ag4  1  0.487910  0.986340  0.750000  1
  Ag  Ag5  1  0.512090  0.013660  0.250000  1
  Ir  Ir6  1  0.500000  0.500000  0.000000  1
  Ir  Ir7  1  0.500000  0.500000  0.500000  1
  O  O8  1  0.592958  0.514216  0.750000  1
  O  O9  1  0.407042  0.485784  0.250000  1
  O  O10  1  0.839101  0.111014  0.750000  1
  O  O11  1  0.160899  0.888986  0.250000  1
  O  O12  1  0.133343  0.868203  0.750000  1
  O  O13  1  0.866657  0.131797  0.250000  1
  O  O14  1  0.446236  0.197133  0.002057  1
  O  O15  1  0.553764  0.802867  0.502057  1
  O  O16  1  0.172993  0.412857  0.967892  1
  O  O17  1  0.827007  0.587143  0.467892  1
  O  O18  1  0.446236  0.197133  0.497943  1
  O  O19  1  0.553764  0.802867  0.997943  1
  O  O20  1  0.827007  0.587143  0.032108  1
  O  O21  1  0.172993  0.412857  0.532108  1
