# generated using pymatgen
data_Si3Ni8Mo12AsC4
_symmetry_space_group_name_H-M   'P 1'
_cell_length_a   7.85034752
_cell_length_b   7.88215453
_cell_length_c   7.88215500
_cell_angle_alpha   60.00000225
_cell_angle_beta   59.86588337
_cell_angle_gamma   59.86587996
_symmetry_Int_Tables_number   1
_chemical_formula_structural   Si3Ni8Mo12AsC4
_chemical_formula_sum   'Si3 Ni8 Mo12 As1 C4'
_cell_volume   344.17587609
_cell_formula_units_Z   1
loop_
 _symmetry_equiv_pos_site_id
 _symmetry_equiv_pos_as_xyz
  1  'x, y, z'
loop_
 _atom_site_type_symbol
 _atom_site_label
 _atom_site_symmetry_multiplicity
 _atom_site_fract_x
 _atom_site_fract_y
 _atom_site_fract_z
 _atom_site_occupancy
  Si  Si0  1  0.125000  0.125000  0.125000  1
  Si  Si1  1  0.125000  0.125000  0.625000  1
  Si  Si2  1  0.125000  0.625000  0.125000  1
  Ni  Ni3  1  0.920971  0.915605  0.247819  1
  Ni  Ni4  1  0.329029  0.334395  0.334395  1
  Ni  Ni5  1  0.243809  0.918731  0.918731  1
  Ni  Ni6  1  0.329029  0.002181  0.334395  1
  Ni  Ni7  1  0.006191  0.331269  0.331269  1
  Ni  Ni8  1  0.329029  0.334395  0.002181  1
  Ni  Ni9  1  0.920971  0.915605  0.915605  1
  Ni  Ni10  1  0.920971  0.247819  0.915605  1
  Mo  Mo11  1  0.692981  0.309885  0.309885  1
  Mo  Mo12  1  0.943126  0.942271  0.557301  1
  Mo  Mo13  1  0.692981  0.687249  0.309885  1
  Mo  Mo14  1  0.692981  0.309885  0.687249  1
  Mo  Mo15  1  0.306874  0.692699  0.307729  1
  Mo  Mo16  1  0.557019  0.940115  0.562751  1
  Mo  Mo17  1  0.557019  0.940115  0.940115  1
  Mo  Mo18  1  0.943126  0.557301  0.557301  1
  Mo  Mo19  1  0.943126  0.557301  0.942271  1
  Mo  Mo20  1  0.306874  0.307729  0.692699  1
  Mo  Mo21  1  0.557019  0.562751  0.940115  1
  Mo  Mo22  1  0.306874  0.692699  0.692699  1
  As  As23  1  0.625000  0.125000  0.125000  1
  C  C24  1  0.625000  0.625000  0.625000  1
  C  C25  1  0.625000  0.625000  0.125000  1
  C  C26  1  0.125000  0.625000  0.625000  1
  C  C27  1  0.625000  0.125000  0.625000  1
