# generated using pymatgen
data_Lu10IrRuRh2
_symmetry_space_group_name_H-M   'P 1'
_cell_length_a   6.31168457
_cell_length_b   7.12259509
_cell_length_c   8.31918687
_cell_angle_alpha   96.61629080
_cell_angle_beta   112.56891748
_cell_angle_gamma   90.02100485
_symmetry_Int_Tables_number   1
_chemical_formula_structural   Lu10IrRuRh2
_chemical_formula_sum   'Lu10 Ir1 Ru1 Rh2'
_cell_volume   342.64727374
_cell_formula_units_Z   1
loop_
 _symmetry_equiv_pos_site_id
 _symmetry_equiv_pos_as_xyz
  1  'x, y, z'
loop_
 _atom_site_type_symbol
 _atom_site_label
 _atom_site_symmetry_multiplicity
 _atom_site_fract_x
 _atom_site_fract_y
 _atom_site_fract_z
 _atom_site_occupancy
  Lu  Lu0  1  0.528554  0.082142  0.819389  1
  Lu  Lu1  1  0.474314  0.917788  0.183905  1
  Lu  Lu2  1  0.712132  0.416510  0.187338  1
  Lu  Lu3  1  0.289718  0.581699  0.813412  1
  Lu  Lu4  1  0.285689  0.313781  0.437852  1
  Lu  Lu5  1  0.711981  0.685154  0.561650  1
  Lu  Lu6  1  0.850202  0.182964  0.559043  1
  Lu  Lu7  1  0.147011  0.819468  0.439348  1
  Lu  Lu8  1  0.076794  0.249344  0.000307  1
  Lu  Lu9  1  0.924664  0.751716  0.000268  1
  Ir  Ir10  1  0.107000  0.925125  0.782123  1
  Ru  Ru11  1  0.890103  0.074157  0.215040  1
  Rh  Rh12  1  0.326152  0.573491  0.221701  1
  Rh  Rh13  1  0.675685  0.426662  0.778623  1
