# generated using pymatgen
data_Sr2CuSn4Au
_symmetry_space_group_name_H-M   'P 1'
_cell_length_a   10.20779841
_cell_length_b   10.20779850
_cell_length_c   4.68217300
_cell_angle_alpha   90.00000000
_cell_angle_beta   90.00000000
_cell_angle_gamma   153.25780181
_symmetry_Int_Tables_number   1
_chemical_formula_structural   Sr2CuSn4Au
_chemical_formula_sum   'Sr2 Cu1 Sn4 Au1'
_cell_volume   219.53400149
_cell_formula_units_Z   1
loop_
 _symmetry_equiv_pos_site_id
 _symmetry_equiv_pos_as_xyz
  1  'x, y, z'
loop_
 _atom_site_type_symbol
 _atom_site_label
 _atom_site_symmetry_multiplicity
 _atom_site_fract_x
 _atom_site_fract_y
 _atom_site_fract_z
 _atom_site_occupancy
  Sr  Sr0  1  0.608747  0.391253  0.750000  1
  Sr  Sr1  1  0.390664  0.609336  0.250000  1
  Cu  Cu2  1  0.175494  0.824506  0.250000  1
  Sn  Sn3  1  0.745763  0.254237  0.250000  1
  Sn  Sn4  1  0.046080  0.953920  0.250000  1
  Sn  Sn5  1  0.243412  0.756588  0.750000  1
  Sn  Sn6  1  0.962864  0.037136  0.750000  1
  Au  Au7  1  0.826976  0.173024  0.750000  1
