# generated using pymatgen
data_AcSm(Ge2Pt)2
_symmetry_space_group_name_H-M   'P 1'
_cell_length_a   9.79024341
_cell_length_b   9.79024260
_cell_length_c   9.79024292
_cell_angle_alpha   153.33846176
_cell_angle_beta   125.72297496
_cell_angle_gamma   61.47516399
_symmetry_Int_Tables_number   1
_chemical_formula_structural   AcSm(Ge2Pt)2
_chemical_formula_sum   'Ac2 Sm2 Ge8 Pt4'
_cell_volume   339.31521729
_cell_formula_units_Z   2
loop_
 _symmetry_equiv_pos_site_id
 _symmetry_equiv_pos_as_xyz
  1  'x, y, z'
loop_
 _atom_site_type_symbol
 _atom_site_label
 _atom_site_symmetry_multiplicity
 _atom_site_fract_x
 _atom_site_fract_y
 _atom_site_fract_z
 _atom_site_occupancy
  Ac  Ac0  1  0.242708  0.000000  0.242708  1
  Ac  Ac1  1  0.757292  0.000000  0.757292  1
  Sm  Sm2  1  0.203659  0.203659  0.000000  1
  Sm  Sm3  1  0.796341  0.796341  0.000000  1
  Ge  Ge4  1  0.077430  0.577430  0.500000  1
  Ge  Ge5  1  0.575187  0.575187  0.000000  1
  Ge  Ge6  1  0.550692  0.200847  0.349845  1
  Ge  Ge7  1  0.851001  0.200847  0.650155  1
  Ge  Ge8  1  0.148999  0.799153  0.349845  1
  Ge  Ge9  1  0.449308  0.799153  0.650155  1
  Ge  Ge10  1  0.424813  0.424813  0.000000  1
  Ge  Ge11  1  0.922570  0.422570  0.500000  1
  Pt  Pt12  1  0.405587  0.652262  0.753325  1
  Pt  Pt13  1  0.898937  0.652262  0.246675  1
  Pt  Pt14  1  0.101063  0.347738  0.753325  1
  Pt  Pt15  1  0.594413  0.347738  0.246675  1
