# generated using pymatgen
data_Zn3SbRh4
_symmetry_space_group_name_H-M   'P 1'
_cell_length_a   7.57801107
_cell_length_b   7.57801162
_cell_length_c   7.57801130
_cell_angle_alpha   33.49455767
_cell_angle_beta   33.49456730
_cell_angle_gamma   33.49455081
_symmetry_Int_Tables_number   1
_chemical_formula_structural   Zn3SbRh4
_chemical_formula_sum   'Zn3 Sb1 Rh4'
_cell_volume   118.03702528
_cell_formula_units_Z   1
loop_
 _symmetry_equiv_pos_site_id
 _symmetry_equiv_pos_as_xyz
  1  'x, y, z'
loop_
 _atom_site_type_symbol
 _atom_site_label
 _atom_site_symmetry_multiplicity
 _atom_site_fract_x
 _atom_site_fract_y
 _atom_site_fract_z
 _atom_site_occupancy
  Zn  Zn0  1  0.242811  0.242811  0.242811  1
  Zn  Zn1  1  0.757189  0.757189  0.757189  1
  Zn  Zn2  1  0.500000  0.500000  0.500000  1
  Sb  Sb3  1  0.000000  0.000000  0.000000  1
  Rh  Rh4  1  0.877180  0.877180  0.877180  1
  Rh  Rh5  1  0.373623  0.373623  0.373623  1
  Rh  Rh6  1  0.122820  0.122820  0.122820  1
  Rh  Rh7  1  0.626377  0.626377  0.626377  1
