# generated using pymatgen
data_TbY4Tm7Os4
_symmetry_space_group_name_H-M   'P 1'
_cell_length_a   7.40416079
_cell_length_b   8.96353426
_cell_length_c   6.28149189
_cell_angle_alpha   89.73808988
_cell_angle_beta   89.93587737
_cell_angle_gamma   89.99335903
_symmetry_Int_Tables_number   1
_chemical_formula_structural   TbY4Tm7Os4
_chemical_formula_sum   'Tb1 Y4 Tm7 Os4'
_cell_volume   416.88197285
_cell_formula_units_Z   1
loop_
 _symmetry_equiv_pos_site_id
 _symmetry_equiv_pos_as_xyz
  1  'x, y, z'
loop_
 _atom_site_type_symbol
 _atom_site_label
 _atom_site_symmetry_multiplicity
 _atom_site_fract_x
 _atom_site_fract_y
 _atom_site_fract_z
 _atom_site_occupancy
  Tb  Tb0  1  0.175263  0.062757  0.167103  1
  Y  Y1  1  0.038024  0.251351  0.629642  1
  Y  Y2  1  0.961404  0.748924  0.371601  1
  Y  Y3  1  0.461856  0.748851  0.127958  1
  Y  Y4  1  0.538969  0.250435  0.870871  1
  Tm  Tm5  1  0.824603  0.936396  0.832606  1
  Tm  Tm6  1  0.326125  0.936521  0.666538  1
  Tm  Tm7  1  0.825130  0.562644  0.833087  1
  Tm  Tm8  1  0.674350  0.062693  0.334260  1
  Tm  Tm9  1  0.173816  0.438709  0.166725  1
  Tm  Tm10  1  0.674965  0.437143  0.333767  1
  Tm  Tm11  1  0.325757  0.562432  0.665988  1
  Os  Os12  1  0.383768  0.251530  0.456712  1
  Os  Os13  1  0.617190  0.750971  0.544316  1
  Os  Os14  1  0.116540  0.747726  0.954124  1
  Os  Os15  1  0.882242  0.250916  0.044702  1
