# generated using pymatgen
data_K3GdGe2O7
_symmetry_space_group_name_H-M   'P 1'
_cell_length_a   6.00722900
_cell_length_b   6.00722882
_cell_length_c   14.84405800
_cell_angle_alpha   90.00000000
_cell_angle_beta   90.00000000
_cell_angle_gamma   119.99999549
_symmetry_Int_Tables_number   1
_chemical_formula_structural   K3GdGe2O7
_chemical_formula_sum   'K6 Gd2 Ge4 O14'
_cell_volume   463.90778082
_cell_formula_units_Z   2
loop_
 _symmetry_equiv_pos_site_id
 _symmetry_equiv_pos_as_xyz
  1  'x, y, z'
loop_
 _atom_site_type_symbol
 _atom_site_label
 _atom_site_symmetry_multiplicity
 _atom_site_fract_x
 _atom_site_fract_y
 _atom_site_fract_z
 _atom_site_occupancy
  K  K0  1  0.333333  0.666667  0.412191  1
  K  K1  1  0.000000  0.000000  0.250000  1
  K  K2  1  0.666667  0.333333  0.587809  1
  K  K3  1  0.333333  0.666667  0.087809  1
  K  K4  1  0.666667  0.333333  0.912191  1
  K  K5  1  0.000000  0.000000  0.750000  1
  Gd  Gd6  1  0.000000  0.000000  0.500000  1
  Gd  Gd7  1  0.000000  0.000000  0.000000  1
  Ge  Ge8  1  0.333333  0.666667  0.630282  1
  Ge  Ge9  1  0.666667  0.333333  0.369718  1
  Ge  Ge10  1  0.666667  0.333333  0.130282  1
  Ge  Ge11  1  0.333333  0.666667  0.869718  1
  O  O12  1  0.345461  0.172730  0.405673  1
  O  O13  1  0.827270  0.172730  0.094327  1
  O  O14  1  0.172730  0.345461  0.594327  1
  O  O15  1  0.172730  0.827270  0.905673  1
  O  O16  1  0.654539  0.827270  0.905673  1
  O  O17  1  0.654539  0.827270  0.594327  1
  O  O18  1  0.345461  0.172730  0.094327  1
  O  O19  1  0.172730  0.827270  0.594327  1
  O  O20  1  0.827270  0.172730  0.405673  1
  O  O21  1  0.172730  0.345461  0.905673  1
  O  O22  1  0.827270  0.654539  0.094327  1
  O  O23  1  0.827270  0.654539  0.405673  1
  O  O24  1  0.666667  0.333333  0.250000  1
  O  O25  1  0.333333  0.666667  0.750000  1
