# generated using pymatgen
data_Er3Pt2Pb3
_symmetry_space_group_name_H-M   'P 1'
_cell_length_a   7.87057400
_cell_length_b   7.87057484
_cell_length_c   3.65075700
_cell_angle_alpha   90.00000000
_cell_angle_beta   90.00000000
_cell_angle_gamma   119.99999646
_symmetry_Int_Tables_number   1
_chemical_formula_structural   Er3Pt2Pb3
_chemical_formula_sum   'Er3 Pt2 Pb3'
_cell_volume   195.85128866
_cell_formula_units_Z   1
loop_
 _symmetry_equiv_pos_site_id
 _symmetry_equiv_pos_as_xyz
  1  'x, y, z'
loop_
 _atom_site_type_symbol
 _atom_site_label
 _atom_site_symmetry_multiplicity
 _atom_site_fract_x
 _atom_site_fract_y
 _atom_site_fract_z
 _atom_site_occupancy
  Er  Er0  1  0.584937  0.000000  0.500000  1
  Er  Er1  1  0.415064  0.415064  0.500000  1
  Er  Er2  1  0.000000  0.584937  0.500000  1
  Pt  Pt3  1  0.666667  0.333333  0.000000  1
  Pt  Pt4  1  0.333333  0.666667  0.000000  1
  Pb  Pb5  1  0.241943  0.000000  0.000000  1
  Pb  Pb6  1  0.000000  0.241942  0.000000  1
  Pb  Pb7  1  0.758057  0.758057  0.000000  1
