# generated using pymatgen
data_Gd4Ho3Er(B6Os)4
_symmetry_space_group_name_H-M   'P 1'
_cell_length_a   3.65792100
_cell_length_b   9.16251002
_cell_length_c   11.55001003
_cell_angle_alpha   90.00824819
_cell_angle_beta   90.00000000
_cell_angle_gamma   90.00000000
_symmetry_Int_Tables_number   1
_chemical_formula_structural   Gd4Ho3Er(B6Os)4
_chemical_formula_sum   'Gd4 Ho3 Er1 B24 Os4'
_cell_volume   387.10710407
_cell_formula_units_Z   1
loop_
 _symmetry_equiv_pos_site_id
 _symmetry_equiv_pos_as_xyz
  1  'x, y, z'
loop_
 _atom_site_type_symbol
 _atom_site_label
 _atom_site_symmetry_multiplicity
 _atom_site_fract_x
 _atom_site_fract_y
 _atom_site_fract_z
 _atom_site_occupancy
  Gd  Gd0  1  0.000000  0.322422  0.413905  1
  Gd  Gd1  1  0.000000  0.677632  0.586312  1
  Gd  Gd2  1  0.000000  0.822326  0.086045  1
  Gd  Gd3  1  0.000000  0.177657  0.913734  1
  Ho  Ho4  1  0.000000  0.944227  0.372917  1
  Ho  Ho5  1  0.000000  0.055612  0.627240  1
  Ho  Ho6  1  0.000000  0.444383  0.126911  1
  Er  Er7  1  0.000000  0.555737  0.872819  1
  B  B8  1  0.500000  0.554603  0.432416  1
  B  B9  1  0.500000  0.445484  0.567708  1
  B  B10  1  0.500000  0.054537  0.067567  1
  B  B11  1  0.500000  0.945338  0.932352  1
  B  B12  1  0.500000  0.748493  0.419420  1
  B  B13  1  0.500000  0.251553  0.580658  1
  B  B14  1  0.500000  0.248530  0.080556  1
  B  B15  1  0.500000  0.751215  0.919362  1
  B  B16  1  0.500000  0.791292  0.266722  1
  B  B17  1  0.500000  0.208832  0.733323  1
  B  B18  1  0.500000  0.291321  0.233230  1
  B  B19  1  0.500000  0.708440  0.766803  1
  B  B20  1  0.500000  0.631760  0.185294  1
  B  B21  1  0.500000  0.368446  0.814774  1
  B  B22  1  0.500000  0.131767  0.314659  1
  B  B23  1  0.500000  0.868115  0.685403  1
  B  B24  1  0.500000  0.984090  0.213308  1
  B  B25  1  0.500000  0.015809  0.786707  1
  B  B26  1  0.500000  0.484122  0.286651  1
  B  B27  1  0.500000  0.516089  0.713552  1
  B  B28  1  0.500000  0.606693  0.029146  1
  B  B29  1  0.500000  0.393538  0.970346  1
  B  B30  1  0.500000  0.106890  0.470528  1
  B  B31  1  0.500000  0.893082  0.529510  1
  Os  Os32  1  0.000000  0.638339  0.320719  1
  Os  Os33  1  0.000000  0.361954  0.679495  1
  Os  Os34  1  0.000000  0.138291  0.179154  1
  Os  Os35  1  0.000000  0.861380  0.820757  1
