# generated using pymatgen
data_Rb2Te3PtO12
_symmetry_space_group_name_H-M   'P 1'
_cell_length_a   7.16375937
_cell_length_b   7.16375936
_cell_length_c   7.16497999
_cell_angle_alpha   61.65592941
_cell_angle_beta   61.65593175
_cell_angle_gamma   61.66703730
_symmetry_Int_Tables_number   1
_chemical_formula_structural   Rb2Te3PtO12
_chemical_formula_sum   'Rb2 Te3 Pt1 O12'
_cell_volume   269.68062402
_cell_formula_units_Z   1
loop_
 _symmetry_equiv_pos_site_id
 _symmetry_equiv_pos_as_xyz
  1  'x, y, z'
loop_
 _atom_site_type_symbol
 _atom_site_label
 _atom_site_symmetry_multiplicity
 _atom_site_fract_x
 _atom_site_fract_y
 _atom_site_fract_z
 _atom_site_occupancy
  Rb  Rb0  1  0.119648  0.129589  0.624659  1
  Rb  Rb1  1  0.870411  0.880352  0.375341  1
  Te  Te2  1  0.497290  0.002458  0.999860  1
  Te  Te3  1  0.997542  0.502710  0.000140  1
  Te  Te4  1  0.497304  0.502696  0.500000  1
  Pt  Pt5  1  0.497905  0.502095  0.000000  1
  O  O6  1  0.818902  0.823976  0.926735  1
  O  O7  1  0.416886  0.420517  0.334813  1
  O  O8  1  0.416519  0.837145  0.918086  1
  O  O9  1  0.818762  0.429060  0.321370  1
  O  O10  1  0.832553  0.421016  0.918924  1
  O  O11  1  0.423914  0.823921  0.321325  1
  O  O12  1  0.176024  0.181098  0.073265  1
  O  O13  1  0.579483  0.583114  0.665187  1
  O  O14  1  0.578984  0.167447  0.081076  1
  O  O15  1  0.176079  0.576086  0.678675  1
  O  O16  1  0.162855  0.583481  0.081914  1
  O  O17  1  0.570940  0.181238  0.678630  1
