# generated using pymatgen
data_Li8Dy8Si7Sb
_symmetry_space_group_name_H-M   'P 1'
_cell_length_a   8.82400800
_cell_length_b   8.82105244
_cell_length_c   7.08314196
_cell_angle_alpha   90.12114733
_cell_angle_beta   90.00000000
_cell_angle_gamma   120.01108423
_symmetry_Int_Tables_number   1
_chemical_formula_structural   Li8Dy8Si7Sb
_chemical_formula_sum   'Li8 Dy8 Si7 Sb1'
_cell_volume   477.41170394
_cell_formula_units_Z   1
loop_
 _symmetry_equiv_pos_site_id
 _symmetry_equiv_pos_as_xyz
  1  'x, y, z'
loop_
 _atom_site_type_symbol
 _atom_site_label
 _atom_site_symmetry_multiplicity
 _atom_site_fract_x
 _atom_site_fract_y
 _atom_site_fract_z
 _atom_site_occupancy
  Li  Li0  1  0.166710  0.333421  0.284508  1
  Li  Li1  1  0.170022  0.834223  0.288072  1
  Li  Li2  1  0.664201  0.834223  0.288072  1
  Li  Li3  1  0.833095  0.666190  0.786171  1
  Li  Li4  1  0.823674  0.162308  0.791821  1
  Li  Li5  1  0.338633  0.162308  0.791821  1
  Li  Li6  1  0.338049  0.676099  0.665539  1
  Li  Li7  1  0.665292  0.330584  0.168450  1
  Dy  Dy8  1  0.514059  0.028116  0.493774  1
  Dy  Dy9  1  0.522565  0.491398  0.491035  1
  Dy  Dy10  1  0.968835  0.491398  0.491035  1
  Dy  Dy11  1  0.485938  0.971878  0.996304  1
  Dy  Dy12  1  0.497065  0.518593  0.999394  1
  Dy  Dy13  1  0.021527  0.518593  0.999394  1
  Dy  Dy14  1  0.993706  0.987412  0.498457  1
  Dy  Dy15  1  0.996496  0.992992  0.006025  1
  Si  Si16  1  0.165772  0.832416  0.729404  1
  Si  Si17  1  0.666644  0.832416  0.729404  1
  Si  Si18  1  0.833415  0.666831  0.230901  1
  Si  Si19  1  0.833580  0.167205  0.229224  1
  Si  Si20  1  0.333624  0.167205  0.229224  1
  Si  Si21  1  0.332942  0.665886  0.260728  1
  Si  Si22  1  0.667328  0.334655  0.761807  1
  Sb  Sb23  1  0.166825  0.333650  0.731433  1
