# generated using pymatgen
data_Li6NpFe5Rh12
_symmetry_space_group_name_H-M   'P 1'
_cell_length_a   4.22993100
_cell_length_b   6.05629300
_cell_length_c   12.60475600
_cell_angle_alpha   89.99996290
_cell_angle_beta   89.99869935
_cell_angle_gamma   89.99994453
_symmetry_Int_Tables_number   1
_chemical_formula_structural   Li6NpFe5Rh12
_chemical_formula_sum   'Li6 Np1 Fe5 Rh12'
_cell_volume   322.90487672
_cell_formula_units_Z   1
loop_
 _symmetry_equiv_pos_site_id
 _symmetry_equiv_pos_as_xyz
  1  'x, y, z'
loop_
 _atom_site_type_symbol
 _atom_site_label
 _atom_site_symmetry_multiplicity
 _atom_site_fract_x
 _atom_site_fract_y
 _atom_site_fract_z
 _atom_site_occupancy
  Li  Li0  1  0.000001  0.500004  0.000066  1
  Li  Li1  1  0.499936  0.000002  0.175516  1
  Li  Li2  1  0.999889  0.499992  0.337181  1
  Li  Li3  1  0.500000  0.000010  0.499992  1
  Li  Li4  1  0.000107  0.499995  0.662772  1
  Li  Li5  1  0.500056  0.999998  0.824494  1
  Np  Np6  1  0.000001  0.000002  0.999983  1
  Fe  Fe7  1  0.499884  0.500001  0.175132  1
  Fe  Fe8  1  0.999893  0.999996  0.337825  1
  Fe  Fe9  1  0.500000  0.500005  0.500005  1
  Fe  Fe10  1  0.000109  0.999997  0.662195  1
  Fe  Fe11  1  0.500114  0.500000  0.824859  1
  Rh  Rh12  1  0.500001  0.263086  0.999990  1
  Rh  Rh13  1  0.500001  0.736914  0.999991  1
  Rh  Rh14  1  0.999903  0.251891  0.168016  1
  Rh  Rh15  1  0.999902  0.748109  0.168019  1
  Rh  Rh16  1  0.499890  0.248926  0.334910  1
  Rh  Rh17  1  0.499890  0.751073  0.334914  1
  Rh  Rh18  1  0.000000  0.250027  0.500006  1
  Rh  Rh19  1  0.000000  0.749971  0.500005  1
  Rh  Rh20  1  0.500109  0.248922  0.665096  1
  Rh  Rh21  1  0.500110  0.751076  0.665092  1
  Rh  Rh22  1  0.000097  0.251936  0.831973  1
  Rh  Rh23  1  0.000097  0.748064  0.831971  1
