# generated using pymatgen
data_Ho3Mg2ScGa2Au
_symmetry_space_group_name_H-M   'P 1'
_cell_length_a   7.34207800
_cell_length_b   7.30813924
_cell_length_c   4.43884400
_cell_angle_alpha   90.00000000
_cell_angle_beta   90.00000000
_cell_angle_gamma   120.15374954
_symmetry_Int_Tables_number   1
_chemical_formula_structural   Ho3Mg2ScGa2Au
_chemical_formula_sum   'Ho3 Mg2 Sc1 Ga2 Au1'
_cell_volume   205.94506498
_cell_formula_units_Z   1
loop_
 _symmetry_equiv_pos_site_id
 _symmetry_equiv_pos_as_xyz
  1  'x, y, z'
loop_
 _atom_site_type_symbol
 _atom_site_label
 _atom_site_symmetry_multiplicity
 _atom_site_fract_x
 _atom_site_fract_y
 _atom_site_fract_z
 _atom_site_occupancy
  Ho  Ho0  1  0.586041  0.000000  0.000000  1
  Ho  Ho1  1  0.000109  0.579615  0.000000  1
  Ho  Ho2  1  0.420494  0.420385  0.000000  1
  Mg  Mg3  1  0.997715  0.245051  0.500000  1
  Mg  Mg4  1  0.752664  0.754949  0.500000  1
  Sc  Sc5  1  0.242362  0.000000  0.500000  1
  Ga  Ga6  1  0.332674  0.668766  0.500000  1
  Ga  Ga7  1  0.663909  0.331234  0.500000  1
  Au  Au8  1  0.004033  0.000000  0.000000  1
