# generated using pymatgen
data_DySi(GeRh2)3
_symmetry_space_group_name_H-M   'P 1'
_cell_length_a   7.16495800
_cell_length_b   7.16495694
_cell_length_c   3.83420100
_cell_angle_alpha   90.00000000
_cell_angle_beta   90.00000000
_cell_angle_gamma   119.99999565
_symmetry_Int_Tables_number   1
_chemical_formula_structural   DySi(GeRh2)3
_chemical_formula_sum   'Dy1 Si1 Ge3 Rh6'
_cell_volume   170.46403356
_cell_formula_units_Z   1
loop_
 _symmetry_equiv_pos_site_id
 _symmetry_equiv_pos_as_xyz
  1  'x, y, z'
loop_
 _atom_site_type_symbol
 _atom_site_label
 _atom_site_symmetry_multiplicity
 _atom_site_fract_x
 _atom_site_fract_y
 _atom_site_fract_z
 _atom_site_occupancy
  Dy  Dy0  1  0.000000  0.000000  0.000000  1
  Si  Si1  1  0.333333  0.666667  0.000000  1
  Ge  Ge2  1  0.803146  0.196854  0.500000  1
  Ge  Ge3  1  0.803146  0.606291  0.500000  1
  Ge  Ge4  1  0.393709  0.196854  0.500000  1
  Rh  Rh5  1  0.530344  0.469656  0.000000  1
  Rh  Rh6  1  0.530344  0.060689  0.000000  1
  Rh  Rh7  1  0.939311  0.469656  0.000000  1
  Rh  Rh8  1  0.201889  0.798111  0.500000  1
  Rh  Rh9  1  0.201889  0.403779  0.500000  1
  Rh  Rh10  1  0.596221  0.798111  0.500000  1
