# generated using pymatgen
data_MgMn2Pt5
_symmetry_space_group_name_H-M   'P 1'
_cell_length_a   5.51295001
_cell_length_b   5.51294925
_cell_length_c   4.04181000
_cell_angle_alpha   90.00000000
_cell_angle_beta   90.00000000
_cell_angle_gamma   92.27254545
_symmetry_Int_Tables_number   1
_chemical_formula_structural   MgMn2Pt5
_chemical_formula_sum   'Mg1 Mn2 Pt5'
_cell_volume   122.74455633
_cell_formula_units_Z   1
loop_
 _symmetry_equiv_pos_site_id
 _symmetry_equiv_pos_as_xyz
  1  'x, y, z'
loop_
 _atom_site_type_symbol
 _atom_site_label
 _atom_site_symmetry_multiplicity
 _atom_site_fract_x
 _atom_site_fract_y
 _atom_site_fract_z
 _atom_site_occupancy
  Mg  Mg0  1  0.000000  0.000000  0.000000  1
  Mn  Mn1  1  0.732497  0.267503  0.499999  1
  Mn  Mn2  1  0.267503  0.732497  0.499999  1
  Pt  Pt3  1  0.499999  0.000000  0.000000  1
  Pt  Pt4  1  0.000000  0.499999  0.000000  1
  Pt  Pt5  1  0.500000  0.500000  0.000000  1
  Pt  Pt6  1  0.236883  0.236883  0.499999  1
  Pt  Pt7  1  0.763117  0.763117  0.499999  1
