# generated using pymatgen
data_Dy5Y3Cd2(SnAu4)2
_symmetry_space_group_name_H-M   'P 1'
_cell_length_a   8.02289387
_cell_length_b   8.02288087
_cell_length_c   7.37060900
_cell_angle_alpha   90.00155623
_cell_angle_beta   89.99806447
_cell_angle_gamma   90.05323306
_symmetry_Int_Tables_number   1
_chemical_formula_structural   Dy5Y3Cd2(SnAu4)2
_chemical_formula_sum   'Dy5 Y3 Cd2 Sn2 Au8'
_cell_volume   474.42173315
_cell_formula_units_Z   1
loop_
 _symmetry_equiv_pos_site_id
 _symmetry_equiv_pos_as_xyz
  1  'x, y, z'
loop_
 _atom_site_type_symbol
 _atom_site_label
 _atom_site_symmetry_multiplicity
 _atom_site_fract_x
 _atom_site_fract_y
 _atom_site_fract_z
 _atom_site_occupancy
  Dy  Dy0  1  0.658959  0.658959  0.000001  1
  Dy  Dy1  1  0.682578  0.682577  0.499999  1
  Dy  Dy2  1  0.317437  0.317438  0.500001  1
  Dy  Dy3  1  0.182606  0.817444  0.999994  1
  Dy  Dy4  1  0.817444  0.182606  0.000005  1
  Y  Y5  1  0.840906  0.159039  0.499992  1
  Y  Y6  1  0.159037  0.840904  0.500008  1
  Y  Y7  1  0.341009  0.341008  0.000000  1
  Cd  Cd8  1  0.499975  0.999973  0.249999  1
  Cd  Cd9  1  0.999973  0.499976  0.750001  1
  Sn  Sn10  1  0.499981  0.000011  0.750053  1
  Sn  Sn11  1  0.000010  0.499981  0.249947  1
  Au  Au12  1  0.624825  0.368842  0.273574  1
  Au  Au13  1  0.375441  0.631431  0.273551  1
  Au  Au14  1  0.124771  0.131327  0.773778  1
  Au  Au15  1  0.874998  0.868450  0.774040  1
  Au  Au16  1  0.368842  0.624824  0.726426  1
  Au  Au17  1  0.631431  0.375442  0.726449  1
  Au  Au18  1  0.868450  0.874998  0.225959  1
  Au  Au19  1  0.131326  0.124771  0.226222  1
