# generated using pymatgen
data_RbFeSi3O8
_symmetry_space_group_name_H-M   'P 1'
_cell_length_a   7.41783727
_cell_length_b   7.83504142
_cell_length_c   8.17459100
_cell_angle_alpha   111.27405822
_cell_angle_beta   104.61948059
_cell_angle_gamma   103.93447068
_symmetry_Int_Tables_number   1
_chemical_formula_structural   RbFeSi3O8
_chemical_formula_sum   'Rb2 Fe2 Si6 O16'
_cell_volume   398.22117676
_cell_formula_units_Z   2
loop_
 _symmetry_equiv_pos_site_id
 _symmetry_equiv_pos_as_xyz
  1  'x, y, z'
loop_
 _atom_site_type_symbol
 _atom_site_label
 _atom_site_symmetry_multiplicity
 _atom_site_fract_x
 _atom_site_fract_y
 _atom_site_fract_z
 _atom_site_occupancy
  Rb  Rb0  1  0.140129  0.295370  0.284960  1
  Rb  Rb1  1  0.859871  0.704630  0.715040  1
  Fe  Fe2  1  0.209409  0.816392  0.203656  1
  Fe  Fe3  1  0.790591  0.183608  0.796344  1
  Si  Si4  1  0.245136  0.196338  0.826665  1
  Si  Si5  1  0.754864  0.803662  0.173335  1
  Si  Si6  1  0.334410  0.593860  0.842623  1
  Si  Si7  1  0.354216  0.829292  0.606921  1
  Si  Si8  1  0.665590  0.406140  0.157377  1
  Si  Si9  1  0.645784  0.170708  0.393079  1
  O  O10  1  0.278540  0.654391  0.669869  1
  O  O11  1  0.721460  0.345609  0.330131  1
  O  O12  1  0.403946  0.070743  0.304436  1
  O  O13  1  0.423155  0.295990  0.037580  1
  O  O14  1  0.596054  0.929257  0.695564  1
  O  O15  1  0.576845  0.704010  0.962420  1
  O  O16  1  0.256628  0.714217  0.377601  1
  O  O17  1  0.277790  0.353484  0.736640  1
  O  O18  1  0.743372  0.285783  0.622399  1
  O  O19  1  0.722210  0.646516  0.263360  1
  O  O20  1  0.204625  0.647134  0.970338  1
  O  O21  1  0.253931  0.993062  0.683395  1
  O  O22  1  0.795375  0.352866  0.029662  1
  O  O23  1  0.746069  0.006938  0.316605  1
  O  O24  1  0.965492  0.856996  0.145945  1
  O  O25  1  0.034508  0.143004  0.854055  1
