# generated using pymatgen
data_AuSe8I3
_symmetry_space_group_name_H-M   'P 1'
_cell_length_a   8.79837915
_cell_length_b   11.80722527
_cell_length_c   11.95125504
_cell_angle_alpha   101.14485553
_cell_angle_beta   104.21552338
_cell_angle_gamma   105.03010990
_symmetry_Int_Tables_number   1
_chemical_formula_structural   AuSe8I3
_chemical_formula_sum   'Au2 Se16 I6'
_cell_volume   1117.71554365
_cell_formula_units_Z   2
loop_
 _symmetry_equiv_pos_site_id
 _symmetry_equiv_pos_as_xyz
  1  'x, y, z'
loop_
 _atom_site_type_symbol
 _atom_site_label
 _atom_site_symmetry_multiplicity
 _atom_site_fract_x
 _atom_site_fract_y
 _atom_site_fract_z
 _atom_site_occupancy
  Au  Au0  1  0.805246  0.955079  0.849744  1
  Au  Au1  1  0.194754  0.044921  0.150256  1
  Se  Se2  1  0.858955  0.531011  0.830376  1
  Se  Se3  1  0.141045  0.468989  0.169624  1
  Se  Se4  1  0.727209  0.442696  0.622254  1
  Se  Se5  1  0.272791  0.557304  0.377746  1
  Se  Se6  1  0.728681  0.239220  0.583422  1
  Se  Se7  1  0.271319  0.760780  0.416578  1
  Se  Se8  1  0.931950  0.229945  0.490301  1
  Se  Se9  1  0.068050  0.770055  0.509699  1
  Se  Se10  1  0.862446  0.361686  0.142680  1
  Se  Se11  1  0.137554  0.638314  0.857320  1
  Se  Se12  1  0.705943  0.491856  0.098107  1
  Se  Se13  1  0.294057  0.508144  0.901893  1
  Se  Se14  1  0.642808  0.570552  0.271977  1
  Se  Se15  1  0.357192  0.429448  0.728023  1
  Se  Se16  1  0.830648  0.772380  0.362101  1
  Se  Se17  1  0.169352  0.227620  0.637899  1
  I  I18  1  0.494648  0.953015  0.798800  1
  I  I19  1  0.505352  0.046985  0.201200  1
  I  I20  1  0.870802  0.027878  0.095977  1
  I  I21  1  0.129198  0.972122  0.904023  1
  I  I22  1  0.765321  0.870279  0.616885  1
  I  I23  1  0.234679  0.129721  0.383115  1
