# generated using pymatgen
data_Tm10(IrPt)3
_symmetry_space_group_name_H-M   'P 1'
_cell_length_a   10.88046626
_cell_length_b   10.87557800
_cell_length_c   6.27640328
_cell_angle_alpha   90.00000000
_cell_angle_beta   90.07355491
_cell_angle_gamma   90.00000000
_symmetry_Int_Tables_number   1
_chemical_formula_structural   Tm10(IrPt)3
_chemical_formula_sum   'Tm20 Ir6 Pt6'
_cell_volume   742.69472108
_cell_formula_units_Z   2
loop_
 _symmetry_equiv_pos_site_id
 _symmetry_equiv_pos_as_xyz
  1  'x, y, z'
loop_
 _atom_site_type_symbol
 _atom_site_label
 _atom_site_symmetry_multiplicity
 _atom_site_fract_x
 _atom_site_fract_y
 _atom_site_fract_z
 _atom_site_occupancy
  Tm  Tm0  1  0.295860  0.090222  0.374122  1
  Tm  Tm1  1  0.295860  0.909778  0.874122  1
  Tm  Tm2  1  0.703799  0.086808  0.873554  1
  Tm  Tm3  1  0.703799  0.913192  0.373554  1
  Tm  Tm4  1  0.583435  0.792950  0.873751  1
  Tm  Tm5  1  0.583435  0.207050  0.373751  1
  Tm  Tm6  1  0.411212  0.793773  0.378746  1
  Tm  Tm7  1  0.411212  0.206227  0.878746  1
  Tm  Tm8  1  0.208699  0.414591  0.623018  1
  Tm  Tm9  1  0.208699  0.585409  0.123018  1
  Tm  Tm10  1  0.795850  0.412852  0.124353  1
  Tm  Tm11  1  0.795850  0.587148  0.624353  1
  Tm  Tm12  1  0.914157  0.703988  0.126224  1
  Tm  Tm13  1  0.914157  0.296012  0.626224  1
  Tm  Tm14  1  0.091127  0.703955  0.626083  1
  Tm  Tm15  1  0.091127  0.296045  0.126083  1
  Tm  Tm16  1  0.999935  0.999797  0.499851  1
  Tm  Tm17  1  0.999935  0.000203  0.999851  1
  Tm  Tm18  1  0.497086  0.499178  0.999995  1
  Tm  Tm19  1  0.497086  0.500822  0.499995  1
  Ir  Ir20  1  0.346446  0.345304  0.250604  1
  Ir  Ir21  1  0.346446  0.654696  0.750604  1
  Ir  Ir22  1  0.500300  0.999806  0.121069  1
  Ir  Ir23  1  0.500300  0.000194  0.621069  1
  Ir  Ir24  1  0.999529  0.500420  0.879005  1
  Ir  Ir25  1  0.999529  0.499580  0.379005  1
  Pt  Pt26  1  0.844777  0.153737  0.250928  1
  Pt  Pt27  1  0.844777  0.846263  0.750928  1
  Pt  Pt28  1  0.152952  0.154079  0.749168  1
  Pt  Pt29  1  0.152952  0.845921  0.249168  1
  Pt  Pt30  1  0.654837  0.346268  0.749528  1
  Pt  Pt31  1  0.654837  0.653732  0.249528  1
