# generated using pymatgen
data_Tm19LuHgBi11
_symmetry_space_group_name_H-M   'P 1'
_cell_length_a   8.14737977
_cell_length_b   9.42589200
_cell_length_c   11.89385524
_cell_angle_alpha   90.00000000
_cell_angle_beta   89.63291724
_cell_angle_gamma   90.00000000
_symmetry_Int_Tables_number   1
_chemical_formula_structural   Tm19LuHgBi11
_chemical_formula_sum   'Tm19 Lu1 Hg1 Bi11'
_cell_volume   913.38558745
_cell_formula_units_Z   1
loop_
 _symmetry_equiv_pos_site_id
 _symmetry_equiv_pos_as_xyz
  1  'x, y, z'
loop_
 _atom_site_type_symbol
 _atom_site_label
 _atom_site_symmetry_multiplicity
 _atom_site_fract_x
 _atom_site_fract_y
 _atom_site_fract_z
 _atom_site_occupancy
  Tm  Tm0  1  0.978370  0.750000  0.489446  1
  Tm  Tm1  1  0.475426  0.750000  0.010526  1
  Tm  Tm2  1  0.525203  0.250000  0.989809  1
  Tm  Tm3  1  0.355581  0.250000  0.289936  1
  Tm  Tm4  1  0.647351  0.750000  0.716845  1
  Tm  Tm5  1  0.149062  0.750000  0.783450  1
  Tm  Tm6  1  0.853587  0.250000  0.215458  1
  Tm  Tm7  1  0.191665  0.250000  0.779818  1
  Tm  Tm8  1  0.809664  0.750000  0.216981  1
  Tm  Tm9  1  0.312818  0.750000  0.281773  1
  Tm  Tm10  1  0.679681  0.250000  0.713119  1
  Tm  Tm11  1  0.192975  0.065828  0.060550  1
  Tm  Tm12  1  0.806821  0.934149  0.940726  1
  Tm  Tm13  1  0.307154  0.945778  0.559788  1
  Tm  Tm14  1  0.806821  0.565851  0.940726  1
  Tm  Tm15  1  0.688308  0.069919  0.443840  1
  Tm  Tm16  1  0.192975  0.434172  0.060550  1
  Tm  Tm17  1  0.688308  0.430081  0.443840  1
  Tm  Tm18  1  0.307154  0.554222  0.559788  1
  Lu  Lu19  1  0.033814  0.250000  0.508410  1
  Hg  Hg20  1  0.405374  0.250000  0.540826  1
  Bi  Bi21  1  0.594080  0.750000  0.457393  1
  Bi  Bi22  1  0.094811  0.750000  0.042991  1
  Bi  Bi23  1  0.905921  0.250000  0.954659  1
  Bi  Bi24  1  0.062562  0.002524  0.323681  1
  Bi  Bi25  1  0.935664  0.997268  0.675437  1
  Bi  Bi26  1  0.435713  0.996758  0.825711  1
  Bi  Bi27  1  0.935664  0.502732  0.675437  1
  Bi  Bi28  1  0.564600  0.003765  0.174549  1
  Bi  Bi29  1  0.062562  0.497476  0.323681  1
  Bi  Bi30  1  0.564600  0.496235  0.174549  1
  Bi  Bi31  1  0.435713  0.503242  0.825711  1
