# generated using pymatgen
data_Ta10GaOs4
_symmetry_space_group_name_H-M   'P 1'
_cell_length_a   9.90289800
_cell_length_b   9.90289800
_cell_length_c   5.17239100
_cell_angle_alpha   90.00000000
_cell_angle_beta   90.00000000
_cell_angle_gamma   90.00000000
_symmetry_Int_Tables_number   1
_chemical_formula_structural   Ta10GaOs4
_chemical_formula_sum   'Ta20 Ga2 Os8'
_cell_volume   507.24287921
_cell_formula_units_Z   2
loop_
 _symmetry_equiv_pos_site_id
 _symmetry_equiv_pos_as_xyz
  1  'x, y, z'
loop_
 _atom_site_type_symbol
 _atom_site_label
 _atom_site_symmetry_multiplicity
 _atom_site_fract_x
 _atom_site_fract_y
 _atom_site_fract_z
 _atom_site_occupancy
  Ta  Ta0  1  0.395266  0.395266  0.000000  1
  Ta  Ta1  1  0.895266  0.104734  0.500000  1
  Ta  Ta2  1  0.104734  0.895266  0.500000  1
  Ta  Ta3  1  0.604734  0.604734  0.000000  1
  Ta  Ta4  1  0.128680  0.465012  0.000000  1
  Ta  Ta5  1  0.965012  0.371320  0.500000  1
  Ta  Ta6  1  0.034988  0.628680  0.500000  1
  Ta  Ta7  1  0.871320  0.534988  0.000000  1
  Ta  Ta8  1  0.371320  0.965012  0.500000  1
  Ta  Ta9  1  0.628680  0.034988  0.500000  1
  Ta  Ta10  1  0.465012  0.128680  0.000000  1
  Ta  Ta11  1  0.534988  0.871320  0.000000  1
  Ta  Ta12  1  0.182909  0.182909  0.250578  1
  Ta  Ta13  1  0.682909  0.317091  0.750578  1
  Ta  Ta14  1  0.317091  0.682909  0.750578  1
  Ta  Ta15  1  0.817091  0.817091  0.250578  1
  Ta  Ta16  1  0.317091  0.682909  0.249422  1
  Ta  Ta17  1  0.682909  0.317091  0.249422  1
  Ta  Ta18  1  0.182909  0.182909  0.749422  1
  Ta  Ta19  1  0.817091  0.817091  0.749422  1
  Ga  Ga20  1  0.000000  0.000000  0.000000  1
  Ga  Ga21  1  0.500000  0.500000  0.500000  1
  Os  Os22  1  0.257091  0.935606  0.000000  1
  Os  Os23  1  0.435606  0.242909  0.500000  1
  Os  Os24  1  0.564394  0.757091  0.500000  1
  Os  Os25  1  0.742909  0.064394  0.000000  1
  Os  Os26  1  0.242909  0.435606  0.500000  1
  Os  Os27  1  0.757091  0.564394  0.500000  1
  Os  Os28  1  0.935606  0.257091  0.000000  1
  Os  Os29  1  0.064394  0.742909  0.000000  1
