# generated using pymatgen
data_VOsBr9
_symmetry_space_group_name_H-M   'P 1'
_cell_length_a   7.88403497
_cell_length_b   10.12595527
_cell_length_c   10.63318598
_cell_angle_alpha   101.96571270
_cell_angle_beta   96.24651974
_cell_angle_gamma   96.02793195
_symmetry_Int_Tables_number   1
_chemical_formula_structural   VOsBr9
_chemical_formula_sum   'V2 Os2 Br18'
_cell_volume   818.37419675
_cell_formula_units_Z   2
loop_
 _symmetry_equiv_pos_site_id
 _symmetry_equiv_pos_as_xyz
  1  'x, y, z'
loop_
 _atom_site_type_symbol
 _atom_site_label
 _atom_site_symmetry_multiplicity
 _atom_site_fract_x
 _atom_site_fract_y
 _atom_site_fract_z
 _atom_site_occupancy
  V  V0  1  0.051547  0.190762  0.780327  1
  V  V1  1  0.948453  0.809238  0.219673  1
  Os  Os2  1  0.607238  0.626058  0.662699  1
  Os  Os3  1  0.392762  0.373942  0.337301  1
  Br  Br4  1  0.381083  0.571555  0.237556  1
  Br  Br5  1  0.618917  0.428445  0.762444  1
  Br  Br6  1  0.417420  0.185610  0.448691  1
  Br  Br7  1  0.582580  0.814390  0.551309  1
  Br  Br8  1  0.092245  0.290197  0.253099  1
  Br  Br9  1  0.907755  0.709803  0.746901  1
  Br  Br10  1  0.513031  0.250194  0.152315  1
  Br  Br11  1  0.486969  0.749806  0.847685  1
  Br  Br12  1  0.303547  0.516969  0.545783  1
  Br  Br13  1  0.696453  0.483031  0.454217  1
  Br  Br14  1  0.832047  0.598340  0.104726  1
  Br  Br15  1  0.167953  0.401660  0.895274  1
  Br  Br16  1  0.945027  0.198000  0.574887  1
  Br  Br17  1  0.054973  0.802000  0.425113  1
  Br  Br18  1  0.262079  0.052077  0.770963  1
  Br  Br19  1  0.737921  0.947923  0.229037  1
  Br  Br20  1  0.835512  0.104892  0.878663  1
  Br  Br21  1  0.164488  0.895108  0.121337  1
