# generated using pymatgen
data_Li7Ac8AgSn8
_symmetry_space_group_name_H-M   'P 1'
_cell_length_a   9.87566400
_cell_length_b   9.88166060
_cell_length_c   8.26694800
_cell_angle_alpha   89.99449172
_cell_angle_beta   90.00000000
_cell_angle_gamma   119.97992120
_symmetry_Int_Tables_number   1
_chemical_formula_structural   Li7Ac8AgSn8
_chemical_formula_sum   'Li7 Ac8 Ag1 Sn8'
_cell_volume   698.81128165
_cell_formula_units_Z   1
loop_
 _symmetry_equiv_pos_site_id
 _symmetry_equiv_pos_as_xyz
  1  'x, y, z'
loop_
 _atom_site_type_symbol
 _atom_site_label
 _atom_site_symmetry_multiplicity
 _atom_site_fract_x
 _atom_site_fract_y
 _atom_site_fract_z
 _atom_site_occupancy
  Li  Li0  1  0.165741  0.832114  0.284471  1
  Li  Li1  1  0.666373  0.832114  0.284471  1
  Li  Li2  1  0.832794  0.665588  0.783908  1
  Li  Li3  1  0.832445  0.166720  0.783571  1
  Li  Li4  1  0.334274  0.166720  0.783571  1
  Li  Li5  1  0.333886  0.667774  0.674874  1
  Li  Li6  1  0.667637  0.335274  0.172432  1
  Ac  Ac7  1  0.512449  0.024899  0.498179  1
  Ac  Ac8  1  0.510211  0.486886  0.494951  1
  Ac  Ac9  1  0.976674  0.486886  0.494951  1
  Ac  Ac10  1  0.487871  0.975741  0.995289  1
  Ac  Ac11  1  0.484621  0.510602  0.997541  1
  Ac  Ac12  1  0.025983  0.510602  0.997541  1
  Ac  Ac13  1  0.000631  0.001262  0.498045  1
  Ac  Ac14  1  0.001241  0.002482  0.000797  1
  Ag  Ag15  1  0.166965  0.333931  0.282607  1
  Sn  Sn16  1  0.166671  0.333343  0.727412  1
  Sn  Sn17  1  0.166232  0.832963  0.727962  1
  Sn  Sn18  1  0.666729  0.832963  0.727962  1
  Sn  Sn19  1  0.833331  0.666661  0.227026  1
  Sn  Sn20  1  0.829016  0.164536  0.226499  1
  Sn  Sn21  1  0.335521  0.164536  0.226499  1
  Sn  Sn22  1  0.335893  0.671787  0.275890  1
  Sn  Sn23  1  0.666812  0.333621  0.775524  1
