# generated using pymatgen
data_La2Pr6Cd2IrPd
_symmetry_space_group_name_H-M   'P 1'
_cell_length_a   10.09684565
_cell_length_b   10.09684556
_cell_length_c   10.07596300
_cell_angle_alpha   60.06839610
_cell_angle_beta   60.06839639
_cell_angle_gamma   60.28038393
_symmetry_Int_Tables_number   1
_chemical_formula_structural   La2Pr6Cd2IrPd
_chemical_formula_sum   'La4 Pr12 Cd4 Ir2 Pd2'
_cell_volume   728.62645816
_cell_formula_units_Z   2
loop_
 _symmetry_equiv_pos_site_id
 _symmetry_equiv_pos_as_xyz
  1  'x, y, z'
loop_
 _atom_site_type_symbol
 _atom_site_label
 _atom_site_symmetry_multiplicity
 _atom_site_fract_x
 _atom_site_fract_y
 _atom_site_fract_z
 _atom_site_occupancy
  La  La0  1  0.349892  0.349892  0.344018  1
  La  La1  1  0.349892  0.349892  0.956198  1
  La  La2  1  0.356772  0.946763  0.348232  1
  La  La3  1  0.946763  0.356772  0.348232  1
  Pr  Pr4  1  0.805657  0.190655  0.189561  1
  Pr  Pr5  1  0.190655  0.805657  0.814127  1
  Pr  Pr6  1  0.190655  0.805657  0.189561  1
  Pr  Pr7  1  0.805657  0.190655  0.814127  1
  Pr  Pr8  1  0.191444  0.191444  0.808556  1
  Pr  Pr9  1  0.810953  0.810953  0.189047  1
  Pr  Pr10  1  0.938392  0.565754  0.561340  1
  Pr  Pr11  1  0.565754  0.938392  0.934513  1
  Pr  Pr12  1  0.565754  0.938392  0.561340  1
  Pr  Pr13  1  0.938392  0.565754  0.934513  1
  Pr  Pr14  1  0.563640  0.563640  0.936360  1
  Pr  Pr15  1  0.936908  0.936908  0.563092  1
  Cd  Cd16  1  0.580123  0.580123  0.580800  1
  Cd  Cd17  1  0.580123  0.580123  0.258953  1
  Cd  Cd18  1  0.578950  0.260215  0.580417  1
  Cd  Cd19  1  0.260215  0.578950  0.580417  1
  Ir  Ir20  1  0.140996  0.569911  0.144547  1
  Ir  Ir21  1  0.569911  0.140996  0.144547  1
  Pd  Pd22  1  0.141251  0.141251  0.146844  1
  Pd  Pd23  1  0.141251  0.141251  0.570654  1
