# generated using pymatgen
data_Dy2Er(SiNi3)2
_symmetry_space_group_name_H-M   'P 1'
_cell_length_a   7.57719989
_cell_length_b   7.57720095
_cell_length_c   7.59130954
_cell_angle_alpha   109.42290792
_cell_angle_beta   109.42291183
_cell_angle_gamma   109.49258551
_symmetry_Int_Tables_number   1
_chemical_formula_structural   Dy2Er(SiNi3)2
_chemical_formula_sum   'Dy4 Er2 Si4 Ni12'
_cell_volume   335.82645293
_cell_formula_units_Z   2
loop_
 _symmetry_equiv_pos_site_id
 _symmetry_equiv_pos_as_xyz
  1  'x, y, z'
loop_
 _atom_site_type_symbol
 _atom_site_label
 _atom_site_symmetry_multiplicity
 _atom_site_fract_x
 _atom_site_fract_y
 _atom_site_fract_z
 _atom_site_occupancy
  Dy  Dy0  1  0.715133  0.715133  0.000332  1
  Dy  Dy1  1  0.285163  0.000230  0.285393  1
  Dy  Dy2  1  0.000230  0.285163  0.285393  1
  Dy  Dy3  1  0.285199  0.285199  0.000332  1
  Er  Er4  1  0.713927  0.000289  0.714216  1
  Er  Er5  1  0.000289  0.713927  0.714216  1
  Si  Si6  1  0.999868  0.999868  0.500743  1
  Si  Si7  1  0.999995  0.499995  0.999991  1
  Si  Si8  1  0.499995  0.999995  0.999991  1
  Si  Si9  1  0.500875  0.500875  0.500743  1
  Ni  Ni10  1  0.331083  0.331083  0.662166  1
  Ni  Ni11  1  0.667950  0.998930  0.331082  1
  Ni  Ni12  1  0.998930  0.667950  0.331082  1
  Ni  Ni13  1  0.668464  0.329004  0.997468  1
  Ni  Ni14  1  0.332153  0.663134  0.331082  1
  Ni  Ni15  1  0.998726  0.329325  0.668970  1
  Ni  Ni16  1  0.329004  0.668464  0.997468  1
  Ni  Ni17  1  0.329325  0.998726  0.668970  1
  Ni  Ni18  1  0.663134  0.332153  0.331082  1
  Ni  Ni19  1  0.670668  0.670668  0.341336  1
  Ni  Ni20  1  0.670245  0.339644  0.668970  1
  Ni  Ni21  1  0.339644  0.670245  0.668970  1
