# generated using pymatgen
data_Li6DyPu2N6
_symmetry_space_group_name_H-M   'P 1'
_cell_length_a   6.00798600
_cell_length_b   6.00798743
_cell_length_c   5.46123400
_cell_angle_alpha   90.00000000
_cell_angle_beta   90.00000000
_cell_angle_gamma   120.00001414
_symmetry_Int_Tables_number   1
_chemical_formula_structural   Li6DyPu2N6
_chemical_formula_sum   'Li6 Dy1 Pu2 N6'
_cell_volume   170.71798757
_cell_formula_units_Z   1
loop_
 _symmetry_equiv_pos_site_id
 _symmetry_equiv_pos_as_xyz
  1  'x, y, z'
loop_
 _atom_site_type_symbol
 _atom_site_label
 _atom_site_symmetry_multiplicity
 _atom_site_fract_x
 _atom_site_fract_y
 _atom_site_fract_z
 _atom_site_occupancy
  Li  Li0  1  0.989544  0.660176  0.608464  1
  Li  Li1  1  0.339824  0.329369  0.608464  1
  Li  Li2  1  0.670631  0.010456  0.608464  1
  Li  Li3  1  0.010456  0.339824  0.391536  1
  Li  Li4  1  0.660176  0.670631  0.391536  1
  Li  Li5  1  0.329369  0.989544  0.391536  1
  Dy  Dy6  1  0.000000  0.000000  0.000000  1
  Pu  Pu7  1  0.333333  0.666667  0.996083  1
  Pu  Pu8  1  0.666667  0.333333  0.003917  1
  N  N9  1  0.000719  0.653099  0.223989  1
  N  N10  1  0.346901  0.347621  0.223989  1
  N  N11  1  0.652379  0.999281  0.223989  1
  N  N12  1  0.999281  0.346901  0.776011  1
  N  N13  1  0.653099  0.652379  0.776011  1
  N  N14  1  0.347621  0.000719  0.776011  1
