# generated using pymatgen
data_Ho8Zr6TiSi16W5
_symmetry_space_group_name_H-M   'P 1'
_cell_length_a   7.11381061
_cell_length_b   7.10457616
_cell_length_c   13.06124646
_cell_angle_alpha   89.86694925
_cell_angle_beta   90.06059749
_cell_angle_gamma   89.90381048
_symmetry_Int_Tables_number   1
_chemical_formula_structural   Ho8Zr6TiSi16W5
_chemical_formula_sum   'Ho8 Zr6 Ti1 Si16 W5'
_cell_volume   660.12027207
_cell_formula_units_Z   1
loop_
 _symmetry_equiv_pos_site_id
 _symmetry_equiv_pos_as_xyz
  1  'x, y, z'
loop_
 _atom_site_type_symbol
 _atom_site_label
 _atom_site_symmetry_multiplicity
 _atom_site_fract_x
 _atom_site_fract_y
 _atom_site_fract_z
 _atom_site_occupancy
  Ho  Ho0  1  0.346644  0.000033  0.467917  1
  Ho  Ho1  1  0.499600  0.846318  0.718534  1
  Ho  Ho2  1  0.499367  0.154035  0.213960  1
  Ho  Ho3  1  0.846216  0.499615  0.285652  1
  Ho  Ho4  1  0.153899  0.499604  0.782225  1
  Ho  Ho5  1  0.656614  0.998706  0.964602  1
  Ho  Ho6  1  0.001658  0.342142  0.536565  1
  Ho  Ho7  1  0.999529  0.655610  0.030147  1
  Zr  Zr8  1  0.491968  0.650500  0.122931  1
  Zr  Zr9  1  0.505169  0.350801  0.628895  1
  Zr  Zr10  1  0.647835  0.491477  0.871934  1
  Zr  Zr11  1  0.351665  0.507142  0.376257  1
  Zr  Zr12  1  0.852635  0.995430  0.374691  1
  Zr  Zr13  1  0.002920  0.146827  0.125316  1
  Ti  Ti14  1  0.992700  0.850633  0.625348  1
  Si  Si15  1  0.194921  0.128799  0.686485  1
  Si  Si16  1  0.358281  0.711666  0.927179  1
  Si  Si17  1  0.641625  0.299643  0.435687  1
  Si  Si18  1  0.700282  0.359200  0.065768  1
  Si  Si19  1  0.293655  0.643209  0.570664  1
  Si  Si20  1  0.798753  0.856313  0.182755  1
  Si  Si21  1  0.143053  0.201443  0.317382  1
  Si  Si22  1  0.870768  0.805614  0.816250  1
  Si  Si23  1  0.295443  0.955134  0.060422  1
  Si  Si24  1  0.548698  0.797515  0.316132  1
  Si  Si25  1  0.438282  0.201509  0.818472  1
  Si  Si26  1  0.798367  0.559222  0.681291  1
  Si  Si27  1  0.202156  0.451512  0.183291  1
  Si  Si28  1  0.711508  0.044433  0.568546  1
  Si  Si29  1  0.956549  0.289245  0.931655  1
  Si  Si30  1  0.047145  0.704921  0.438502  1
  W  W31  1  0.320549  0.322816  0.998307  1
  W  W32  1  0.173828  0.825798  0.249073  1
  W  W33  1  0.832351  0.168314  0.750519  1
  W  W34  1  0.678274  0.677979  0.501346  1
  W  W35  1  0.147090  0.006842  0.875300  1
