# generated using pymatgen
data_Ta2(TiTc)3
_symmetry_space_group_name_H-M   'P 1'
_cell_length_a   3.16695800
_cell_length_b   3.16695800
_cell_length_c   12.73341700
_cell_angle_alpha   90.00000000
_cell_angle_beta   90.00000000
_cell_angle_gamma   90.00000000
_symmetry_Int_Tables_number   1
_chemical_formula_structural   Ta2(TiTc)3
_chemical_formula_sum   'Ta2 Ti3 Tc3'
_cell_volume   127.71137168
_cell_formula_units_Z   1
loop_
 _symmetry_equiv_pos_site_id
 _symmetry_equiv_pos_as_xyz
  1  'x, y, z'
loop_
 _atom_site_type_symbol
 _atom_site_label
 _atom_site_symmetry_multiplicity
 _atom_site_fract_x
 _atom_site_fract_y
 _atom_site_fract_z
 _atom_site_occupancy
  Ta  Ta0  1  0.000000  0.000000  0.258132  1
  Ta  Ta1  1  0.000000  0.000000  0.741868  1
  Ti  Ti2  1  0.499999  0.499999  0.115245  1
  Ti  Ti3  1  0.000000  0.000000  0.500000  1
  Ti  Ti4  1  0.499999  0.499999  0.884756  1
  Tc  Tc5  1  0.000000  0.000000  0.000000  1
  Tc  Tc6  1  0.499999  0.499999  0.376616  1
  Tc  Tc7  1  0.499999  0.499999  0.623384  1
