# generated using pymatgen
data_Cs9Rb5Nb2(In3P5)2
_symmetry_space_group_name_H-M   'P 1'
_cell_length_a   8.62828821
_cell_length_b   9.52318200
_cell_length_c   14.79674144
_cell_angle_alpha   84.93209437
_cell_angle_beta   84.51647464
_cell_angle_gamma   87.19271188
_symmetry_Int_Tables_number   1
_chemical_formula_structural   Cs9Rb5Nb2(In3P5)2
_chemical_formula_sum   'Cs9 Rb5 Nb2 In6 P10'
_cell_volume   1204.52678124
_cell_formula_units_Z   1
loop_
 _symmetry_equiv_pos_site_id
 _symmetry_equiv_pos_as_xyz
  1  'x, y, z'
loop_
 _atom_site_type_symbol
 _atom_site_label
 _atom_site_symmetry_multiplicity
 _atom_site_fract_x
 _atom_site_fract_y
 _atom_site_fract_z
 _atom_site_occupancy
  Cs  Cs0  1  0.254966  0.498498  0.027053  1
  Cs  Cs1  1  0.684906  0.080550  0.889370  1
  Cs  Cs2  1  0.316749  0.920746  0.109437  1
  Cs  Cs3  1  0.686014  0.654469  0.401059  1
  Cs  Cs4  1  0.318655  0.347341  0.598174  1
  Cs  Cs5  1  0.756262  0.985522  0.534324  1
  Cs  Cs6  1  0.240627  0.013686  0.466344  1
  Cs  Cs7  1  0.826442  0.361136  0.649526  1
  Cs  Cs8  1  0.178117  0.637809  0.350726  1
  Rb  Rb9  1  0.820617  0.804620  0.135566  1
  Rb  Rb10  1  0.183524  0.194729  0.862752  1
  Rb  Rb11  1  0.274179  0.257065  0.247857  1
  Rb  Rb12  1  0.725528  0.740055  0.754492  1
  Rb  Rb13  1  0.738175  0.496232  0.975685  1
  Nb  Nb14  1  0.652039  0.393492  0.223708  1
  Nb  Nb15  1  0.349084  0.608619  0.775797  1
  In  In16  1  0.907045  0.274259  0.370060  1
  In  In17  1  0.090436  0.723920  0.630624  1
  In  In18  1  0.941448  0.187299  0.129604  1
  In  In19  1  0.057186  0.811495  0.871044  1
  In  In20  1  0.636737  0.047160  0.292014  1
  In  In21  1  0.360349  0.953971  0.705910  1
  P  P22  1  0.498432  0.595291  0.186853  1
  P  P23  1  0.508266  0.409809  0.812521  1
  P  P24  1  0.925859  0.446947  0.209266  1
  P  P25  1  0.075707  0.551404  0.791889  1
  P  P26  1  0.587425  0.293094  0.380593  1
  P  P27  1  0.410592  0.708209  0.618592  1
  P  P28  1  0.624004  0.202232  0.125733  1
  P  P29  1  0.374332  0.802391  0.872319  1
  P  P30  1  0.962755  0.011380  0.292944  1
  P  P31  1  0.033548  0.986567  0.708168  1
