# generated using pymatgen
data_Dy3Ho2Bi2Pt
_symmetry_space_group_name_H-M   'P 1'
_cell_length_a   8.06505400
_cell_length_b   9.02081900
_cell_length_c   12.42484700
_cell_angle_alpha   90.00000000
_cell_angle_beta   90.00000000
_cell_angle_gamma   90.00000000
_symmetry_Int_Tables_number   1
_chemical_formula_structural   Dy3Ho2Bi2Pt
_chemical_formula_sum   'Dy12 Ho8 Bi8 Pt4'
_cell_volume   903.94976879
_cell_formula_units_Z   4
loop_
 _symmetry_equiv_pos_site_id
 _symmetry_equiv_pos_as_xyz
  1  'x, y, z'
loop_
 _atom_site_type_symbol
 _atom_site_label
 _atom_site_symmetry_multiplicity
 _atom_site_fract_x
 _atom_site_fract_y
 _atom_site_fract_z
 _atom_site_occupancy
  Dy  Dy0  1  0.164566  0.750000  0.209810  1
  Dy  Dy1  1  0.335434  0.750000  0.709810  1
  Dy  Dy2  1  0.835434  0.250000  0.790190  1
  Dy  Dy3  1  0.664566  0.250000  0.290190  1
  Dy  Dy4  1  0.451212  0.750000  0.999910  1
  Dy  Dy5  1  0.048788  0.750000  0.499910  1
  Dy  Dy6  1  0.548788  0.250000  0.000090  1
  Dy  Dy7  1  0.951212  0.250000  0.500090  1
  Dy  Dy8  1  0.627568  0.750000  0.303231  1
  Dy  Dy9  1  0.872432  0.750000  0.803231  1
  Dy  Dy10  1  0.372432  0.250000  0.696769  1
  Dy  Dy11  1  0.127568  0.250000  0.196769  1
  Ho  Ho12  1  0.822590  0.547184  0.066411  1
  Ho  Ho13  1  0.677410  0.952816  0.566411  1
  Ho  Ho14  1  0.177410  0.047184  0.933589  1
  Ho  Ho15  1  0.322590  0.452816  0.433589  1
  Ho  Ho16  1  0.177410  0.452816  0.933589  1
  Ho  Ho17  1  0.322590  0.047184  0.433589  1
  Ho  Ho18  1  0.822590  0.952816  0.066411  1
  Ho  Ho19  1  0.677410  0.547184  0.566411  1
  Bi  Bi20  1  0.932627  0.509811  0.326911  1
  Bi  Bi21  1  0.567373  0.990189  0.826911  1
  Bi  Bi22  1  0.067373  0.009811  0.673089  1
  Bi  Bi23  1  0.432627  0.490189  0.173089  1
  Bi  Bi24  1  0.067373  0.490189  0.673089  1
  Bi  Bi25  1  0.432627  0.009811  0.173089  1
  Bi  Bi26  1  0.932627  0.990189  0.326911  1
  Bi  Bi27  1  0.567373  0.509811  0.826911  1
  Pt  Pt28  1  0.422740  0.750000  0.488585  1
  Pt  Pt29  1  0.077260  0.750000  0.988585  1
  Pt  Pt30  1  0.577260  0.250000  0.511415  1
  Pt  Pt31  1  0.922740  0.250000  0.011415  1
