# generated using pymatgen
data_SrLi3ReN3
_symmetry_space_group_name_H-M   'P 1'
_cell_length_a   7.41178071
_cell_length_b   7.41178043
_cell_length_c   7.41178117
_cell_angle_alpha   46.90771875
_cell_angle_beta   46.90772190
_cell_angle_gamma   46.90772020
_symmetry_Int_Tables_number   1
_chemical_formula_structural   SrLi3ReN3
_chemical_formula_sum   'Sr2 Li6 Re2 N6'
_cell_volume   198.43860949
_cell_formula_units_Z   2
loop_
 _symmetry_equiv_pos_site_id
 _symmetry_equiv_pos_as_xyz
  1  'x, y, z'
loop_
 _atom_site_type_symbol
 _atom_site_label
 _atom_site_symmetry_multiplicity
 _atom_site_fract_x
 _atom_site_fract_y
 _atom_site_fract_z
 _atom_site_occupancy
  Sr  Sr0  1  0.337748  0.337748  0.337748  1
  Sr  Sr1  1  0.662252  0.662252  0.662252  1
  Li  Li2  1  0.472866  0.238359  0.894515  1
  Li  Li3  1  0.894515  0.472866  0.238359  1
  Li  Li4  1  0.761641  0.105485  0.527134  1
  Li  Li5  1  0.238359  0.894515  0.472866  1
  Li  Li6  1  0.105485  0.527134  0.761641  1
  Li  Li7  1  0.527134  0.761641  0.105485  1
  Re  Re8  1  0.061502  0.061502  0.061502  1
  Re  Re9  1  0.938498  0.938498  0.938498  1
  N  N10  1  0.604167  0.902884  0.212451  1
  N  N11  1  0.787549  0.395833  0.097116  1
  N  N12  1  0.395833  0.097116  0.787549  1
  N  N13  1  0.097116  0.787549  0.395833  1
  N  N14  1  0.212451  0.604167  0.902884  1
  N  N15  1  0.902884  0.212451  0.604167  1
