# generated using pymatgen
data_TbHo(Ni2As)4
_symmetry_space_group_name_H-M   'P 1'
_cell_length_a   7.25693628
_cell_length_b   7.25693628
_cell_length_c   3.78971000
_cell_angle_alpha   90.00000000
_cell_angle_beta   90.00000000
_cell_angle_gamma   89.93187924
_symmetry_Int_Tables_number   1
_chemical_formula_structural   TbHo(Ni2As)4
_chemical_formula_sum   'Tb1 Ho1 Ni8 As4'
_cell_volume   199.57782737
_cell_formula_units_Z   1
loop_
 _symmetry_equiv_pos_site_id
 _symmetry_equiv_pos_as_xyz
  1  'x, y, z'
loop_
 _atom_site_type_symbol
 _atom_site_label
 _atom_site_symmetry_multiplicity
 _atom_site_fract_x
 _atom_site_fract_y
 _atom_site_fract_z
 _atom_site_occupancy
  Tb  Tb0  1  0.500000  0.500000  0.000000  1
  Ho  Ho1  1  0.000000  0.000000  0.500000  1
  Ni  Ni2  1  0.589051  0.153088  0.500000  1
  Ni  Ni3  1  0.410949  0.846912  0.500000  1
  Ni  Ni4  1  0.088712  0.346374  0.000000  1
  Ni  Ni5  1  0.911288  0.653626  0.000000  1
  Ni  Ni6  1  0.153088  0.589051  0.500000  1
  Ni  Ni7  1  0.846912  0.410949  0.500000  1
  Ni  Ni8  1  0.346374  0.088712  0.000000  1
  Ni  Ni9  1  0.653626  0.911288  0.000000  1
  As  As10  1  0.718530  0.718530  0.500000  1
  As  As11  1  0.281470  0.281470  0.500000  1
  As  As12  1  0.217045  0.782955  0.000000  1
  As  As13  1  0.782955  0.217045  0.000000  1
