# generated using pymatgen
data_Tl5Tc3Se7
_symmetry_space_group_name_H-M   'P 1'
_cell_length_a   11.04818408
_cell_length_b   10.99592249
_cell_length_c   11.03341600
_cell_angle_alpha   60.11234848
_cell_angle_beta   61.14882785
_cell_angle_gamma   60.15635720
_symmetry_Int_Tables_number   1
_chemical_formula_structural   Tl5Tc3Se7
_chemical_formula_sum   'Tl10 Tc6 Se14'
_cell_volume   957.72599131
_cell_formula_units_Z   2
loop_
 _symmetry_equiv_pos_site_id
 _symmetry_equiv_pos_as_xyz
  1  'x, y, z'
loop_
 _atom_site_type_symbol
 _atom_site_label
 _atom_site_symmetry_multiplicity
 _atom_site_fract_x
 _atom_site_fract_y
 _atom_site_fract_z
 _atom_site_occupancy
  Tl  Tl0  1  0.017370  0.985332  0.011965  1
  Tl  Tl1  1  0.994922  0.015750  0.388951  1
  Tl  Tl2  1  0.391210  0.011073  0.989602  1
  Tl  Tl3  1  0.135386  0.135837  0.592941  1
  Tl  Tl4  1  0.594716  0.157318  0.090648  1
  Tl  Tl5  1  0.391210  0.608115  0.989602  1
  Tl  Tl6  1  0.572223  0.990216  0.447344  1
  Tl  Tl7  1  0.994922  0.600375  0.388951  1
  Tl  Tl8  1  0.883869  0.398824  0.881828  1
  Tl  Tl9  1  0.883869  0.835479  0.881828  1
  Tc  Tc10  1  0.381237  0.378146  0.620139  1
  Tc  Tc11  1  0.379476  0.619702  0.381121  1
  Tc  Tc12  1  0.617423  0.378271  0.383329  1
  Tc  Tc13  1  0.381237  0.620477  0.620139  1
  Tc  Tc14  1  0.622056  0.377610  0.622723  1
  Tc  Tc15  1  0.617423  0.620978  0.383329  1
  Se  Se16  1  0.207579  0.790420  0.211582  1
  Se  Se17  1  0.212602  0.206570  0.784943  1
  Se  Se18  1  0.159188  0.614391  0.612027  1
  Se  Se19  1  0.383474  0.384914  0.386102  1
  Se  Se20  1  0.389749  0.383563  0.843126  1
  Se  Se21  1  0.776803  0.199121  0.221296  1
  Se  Se22  1  0.610349  0.614472  0.160709  1
  Se  Se23  1  0.615882  0.152444  0.618558  1
  Se  Se24  1  0.383474  0.845510  0.386102  1
  Se  Se25  1  0.212602  0.795886  0.784943  1
  Se  Se26  1  0.615882  0.613117  0.618558  1
  Se  Se27  1  0.840794  0.384657  0.389892  1
  Se  Se28  1  0.801469  0.203852  0.790828  1
  Se  Se29  1  0.776803  0.802782  0.221296  1
