# generated using pymatgen
data_Y4Al18Co4PdPt
_symmetry_space_group_name_H-M   'P 1'
_cell_length_a   7.48718345
_cell_length_b   7.48717665
_cell_length_c   9.39094400
_cell_angle_alpha   90.00118055
_cell_angle_beta   90.00138843
_cell_angle_gamma   119.55533947
_symmetry_Int_Tables_number   1
_chemical_formula_structural   Y4Al18Co4PdPt
_chemical_formula_sum   'Y4 Al18 Co4 Pd1 Pt1'
_cell_volume   457.93621499
_cell_formula_units_Z   1
loop_
 _symmetry_equiv_pos_site_id
 _symmetry_equiv_pos_as_xyz
  1  'x, y, z'
loop_
 _atom_site_type_symbol
 _atom_site_label
 _atom_site_symmetry_multiplicity
 _atom_site_fract_x
 _atom_site_fract_y
 _atom_site_fract_z
 _atom_site_occupancy
  Y  Y0  1  0.993782  0.669191  0.250585  1
  Y  Y1  1  0.006507  0.331144  0.749893  1
  Y  Y2  1  0.668855  0.993493  0.250107  1
  Y  Y3  1  0.330808  0.006217  0.749415  1
  Al  Al4  1  0.120877  0.120888  0.250203  1
  Al  Al5  1  0.879113  0.879124  0.749796  1
  Al  Al6  1  0.331208  0.325293  0.545859  1
  Al  Al7  1  0.668867  0.674663  0.046613  1
  Al  Al8  1  0.325337  0.331133  0.953387  1
  Al  Al9  1  0.674707  0.668791  0.454141  1
  Al  Al10  1  0.340845  0.548920  0.241958  1
  Al  Al11  1  0.659077  0.450494  0.741646  1
  Al  Al12  1  0.549506  0.340922  0.258354  1
  Al  Al13  1  0.451080  0.659156  0.758042  1
  Al  Al14  1  0.006443  0.334041  0.073001  1
  Al  Al15  1  0.993502  0.665950  0.572706  1
  Al  Al16  1  0.334050  0.006498  0.427293  1
  Al  Al17  1  0.665959  0.993558  0.926999  1
  Al  Al18  1  0.009808  0.673945  0.927053  1
  Al  Al19  1  0.990006  0.326199  0.426931  1
  Al  Al20  1  0.673801  0.009995  0.573069  1
  Al  Al21  1  0.326055  0.990192  0.072948  1
  Co  Co22  1  0.000140  0.999861  0.000001  1
  Co  Co23  1  0.999773  0.000227  0.500000  1
  Co  Co24  1  0.329292  0.670708  0.000000  1
  Co  Co25  1  0.670656  0.329344  0.499999  1
  Pd  Pd26  1  0.672087  0.327913  0.000001  1
  Pt  Pt27  1  0.327859  0.672141  0.500000  1
