# generated using pymatgen
data_Tb3ZnIn3CuPt
_symmetry_space_group_name_H-M   'P 1'
_cell_length_a   7.67004000
_cell_length_b   7.67003871
_cell_length_c   3.89710000
_cell_angle_alpha   90.00000000
_cell_angle_beta   90.00000000
_cell_angle_gamma   120.00000556
_symmetry_Int_Tables_number   1
_chemical_formula_structural   Tb3ZnIn3CuPt
_chemical_formula_sum   'Tb3 Zn1 In3 Cu1 Pt1'
_cell_volume   198.54883450
_cell_formula_units_Z   1
loop_
 _symmetry_equiv_pos_site_id
 _symmetry_equiv_pos_as_xyz
  1  'x, y, z'
loop_
 _atom_site_type_symbol
 _atom_site_label
 _atom_site_symmetry_multiplicity
 _atom_site_fract_x
 _atom_site_fract_y
 _atom_site_fract_z
 _atom_site_occupancy
  Tb  Tb0  1  0.014927  0.600106  0.500000  1
  Tb  Tb1  1  0.399894  0.414821  0.500000  1
  Tb  Tb2  1  0.585179  0.985073  0.500000  1
  Zn  Zn3  1  0.666667  0.333333  0.000000  1
  In  In4  1  0.752893  0.746575  0.000000  1
  In  In5  1  0.993681  0.247107  0.000000  1
  In  In6  1  0.253425  0.006319  0.000000  1
  Cu  Cu7  1  0.000000  0.000000  0.500000  1
  Pt  Pt8  1  0.333333  0.666667  0.000000  1
