# generated using pymatgen
data_NdHo2P4Pd7
_symmetry_space_group_name_H-M   'P 1'
_cell_length_a   7.95953983
_cell_length_b   7.95954003
_cell_length_c   9.49975230
_cell_angle_alpha   55.90765891
_cell_angle_beta   55.90765802
_cell_angle_gamma   29.28151631
_symmetry_Int_Tables_number   1
_chemical_formula_structural   NdHo2P4Pd7
_chemical_formula_sum   'Nd1 Ho2 P4 Pd7'
_cell_volume   239.93322523
_cell_formula_units_Z   1
loop_
 _symmetry_equiv_pos_site_id
 _symmetry_equiv_pos_as_xyz
  1  'x, y, z'
loop_
 _atom_site_type_symbol
 _atom_site_label
 _atom_site_symmetry_multiplicity
 _atom_site_fract_x
 _atom_site_fract_y
 _atom_site_fract_z
 _atom_site_occupancy
  Nd  Nd0  1  0.000000  0.000000  0.000000  1
  Ho  Ho1  1  0.679379  0.679379  0.324152  1
  Ho  Ho2  1  0.320621  0.320621  0.675848  1
  P  P3  1  0.337909  0.337909  0.257875  1
  P  P4  1  0.662091  0.662091  0.742125  1
  P  P5  1  0.893147  0.893147  0.817109  1
  P  P6  1  0.106853  0.106853  0.182891  1
  Pd  Pd7  1  0.304558  0.304558  0.030854  1
  Pd  Pd8  1  0.695442  0.695442  0.969146  1
  Pd  Pd9  1  0.509762  0.509762  0.712349  1
  Pd  Pd10  1  0.830130  0.830130  0.425414  1
  Pd  Pd11  1  0.490238  0.490238  0.287651  1
  Pd  Pd12  1  0.169870  0.169870  0.574586  1
  Pd  Pd13  1  0.000000  0.000000  0.500000  1
