# generated using pymatgen
data_Tb3ErGa18(PdRh2)2
_symmetry_space_group_name_H-M   'P 1'
_cell_length_a   7.61436547
_cell_length_b   7.61516265
_cell_length_c   9.51389900
_cell_angle_alpha   90.00000000
_cell_angle_beta   90.00000000
_cell_angle_gamma   119.85437238
_symmetry_Int_Tables_number   1
_chemical_formula_structural   Tb3ErGa18(PdRh2)2
_chemical_formula_sum   'Tb3 Er1 Ga18 Pd2 Rh4'
_cell_volume   478.45103988
_cell_formula_units_Z   1
loop_
 _symmetry_equiv_pos_site_id
 _symmetry_equiv_pos_as_xyz
  1  'x, y, z'
loop_
 _atom_site_type_symbol
 _atom_site_label
 _atom_site_symmetry_multiplicity
 _atom_site_fract_x
 _atom_site_fract_y
 _atom_site_fract_z
 _atom_site_occupancy
  Tb  Tb0  1  0.996720  0.669313  0.250000  1
  Tb  Tb1  1  0.003229  0.330679  0.750000  1
  Tb  Tb2  1  0.669239  0.996686  0.250000  1
  Er  Er3  1  0.330803  0.003216  0.750000  1
  Ga  Ga4  1  0.129101  0.129053  0.250000  1
  Ga  Ga5  1  0.871438  0.871129  0.750000  1
  Ga  Ga6  1  0.999419  0.337316  0.080437  1
  Ga  Ga7  1  0.001160  0.663303  0.919245  1
  Ga  Ga8  1  0.001160  0.663303  0.580755  1
  Ga  Ga9  1  0.337291  0.999378  0.419961  1
  Ga  Ga10  1  0.999419  0.337316  0.419563  1
  Ga  Ga11  1  0.662113  0.000577  0.580786  1
  Ga  Ga12  1  0.662113  0.000577  0.919214  1
  Ga  Ga13  1  0.337291  0.999378  0.080039  1
  Ga  Ga14  1  0.336230  0.335724  0.566763  1
  Ga  Ga15  1  0.663773  0.663780  0.433620  1
  Ga  Ga16  1  0.663773  0.663780  0.066380  1
  Ga  Ga17  1  0.336230  0.335724  0.933237  1
  Ga  Ga18  1  0.336963  0.546626  0.250000  1
  Ga  Ga19  1  0.662608  0.452828  0.750000  1
  Ga  Ga20  1  0.546587  0.336945  0.250000  1
  Ga  Ga21  1  0.453269  0.663309  0.750000  1
  Pd  Pd22  1  0.000106  0.000040  0.999854  1
  Pd  Pd23  1  0.000106  0.000040  0.500146  1
  Rh  Rh24  1  0.671233  0.328610  0.999778  1
  Rh  Rh25  1  0.328696  0.671378  0.999774  1
  Rh  Rh26  1  0.328696  0.671378  0.500226  1
  Rh  Rh27  1  0.671233  0.328610  0.500222  1
