# generated using pymatgen
data_Hf11Nb(Ga3Sb)3
_symmetry_space_group_name_H-M   'P 1'
_cell_length_a   5.65555170
_cell_length_b   8.70843420
_cell_length_c   9.30487503
_cell_angle_alpha   89.76096213
_cell_angle_beta   90.04512296
_cell_angle_gamma   90.03545102
_symmetry_Int_Tables_number   1
_chemical_formula_structural   Hf11Nb(Ga3Sb)3
_chemical_formula_sum   'Hf11 Nb1 Ga9 Sb3'
_cell_volume   458.27018153
_cell_formula_units_Z   1
loop_
 _symmetry_equiv_pos_site_id
 _symmetry_equiv_pos_as_xyz
  1  'x, y, z'
loop_
 _atom_site_type_symbol
 _atom_site_label
 _atom_site_symmetry_multiplicity
 _atom_site_fract_x
 _atom_site_fract_y
 _atom_site_fract_z
 _atom_site_occupancy
  Hf  Hf0  1  0.496969  0.253630  0.884490  1
  Hf  Hf1  1  0.002745  0.253106  0.883628  1
  Hf  Hf2  1  0.497027  0.744886  0.119030  1
  Hf  Hf3  1  0.751281  0.470212  0.612141  1
  Hf  Hf4  1  0.249596  0.529748  0.376989  1
  Hf  Hf5  1  0.750250  0.968179  0.390601  1
  Hf  Hf6  1  0.248705  0.030266  0.611048  1
  Hf  Hf7  1  0.750411  0.379294  0.196820  1
  Hf  Hf8  1  0.249682  0.616843  0.809648  1
  Hf  Hf9  1  0.750201  0.875442  0.803944  1
  Hf  Hf10  1  0.249660  0.132730  0.192903  1
  Nb  Nb11  1  0.002335  0.746395  0.117316  1
  Ga  Ga12  1  0.003817  0.747806  0.572636  1
  Ga  Ga13  1  0.500388  0.250253  0.428319  1
  Ga  Ga14  1  0.999760  0.250417  0.427888  1
  Ga  Ga15  1  0.496041  0.747793  0.572071  1
  Ga  Ga16  1  0.248039  0.449458  0.084095  1
  Ga  Ga17  1  0.749944  0.140747  0.647105  1
  Ga  Ga18  1  0.247701  0.864311  0.351555  1
  Ga  Ga19  1  0.752566  0.639665  0.354467  1
  Ga  Ga20  1  0.250033  0.362104  0.642898  1
  Sb  Sb21  1  0.752083  0.050742  0.088020  1
  Sb  Sb22  1  0.248714  0.945912  0.914268  1
  Sb  Sb23  1  0.752050  0.550059  0.918119  1
