# generated using pymatgen
data_Ho5Bi2P
_symmetry_space_group_name_H-M   'P 1'
_cell_length_a   7.96193900
_cell_length_b   8.95315900
_cell_length_c   12.10073000
_cell_angle_alpha   90.00000000
_cell_angle_beta   90.00000000
_cell_angle_gamma   90.00000000
_symmetry_Int_Tables_number   1
_chemical_formula_structural   Ho5Bi2P
_chemical_formula_sum   'Ho20 Bi8 P4'
_cell_volume   862.59455805
_cell_formula_units_Z   4
loop_
 _symmetry_equiv_pos_site_id
 _symmetry_equiv_pos_as_xyz
  1  'x, y, z'
loop_
 _atom_site_type_symbol
 _atom_site_label
 _atom_site_symmetry_multiplicity
 _atom_site_fract_x
 _atom_site_fract_y
 _atom_site_fract_z
 _atom_site_occupancy
  Ho  Ho0  1  0.849885  0.750000  0.794323  1
  Ho  Ho1  1  0.150115  0.250000  0.205677  1
  Ho  Ho2  1  0.349885  0.250000  0.705677  1
  Ho  Ho3  1  0.650115  0.750000  0.294323  1
  Ho  Ho4  1  0.375804  0.750000  0.699395  1
  Ho  Ho5  1  0.624196  0.250000  0.300605  1
  Ho  Ho6  1  0.875804  0.250000  0.800605  1
  Ho  Ho7  1  0.124196  0.750000  0.199395  1
  Ho  Ho8  1  0.958332  0.750000  0.501836  1
  Ho  Ho9  1  0.041668  0.250000  0.498164  1
  Ho  Ho10  1  0.458332  0.250000  0.998164  1
  Ho  Ho11  1  0.541668  0.750000  0.001836  1
  Ho  Ho12  1  0.682419  0.050320  0.564188  1
  Ho  Ho13  1  0.317581  0.949680  0.435812  1
  Ho  Ho14  1  0.182419  0.949680  0.935812  1
  Ho  Ho15  1  0.317581  0.550320  0.435812  1
  Ho  Ho16  1  0.817581  0.050320  0.064188  1
  Ho  Ho17  1  0.682419  0.449680  0.564188  1
  Ho  Ho18  1  0.817581  0.449680  0.064188  1
  Ho  Ho19  1  0.182419  0.550320  0.935812  1
  Bi  Bi20  1  0.576418  0.490928  0.826657  1
  Bi  Bi21  1  0.423582  0.509072  0.173343  1
  Bi  Bi22  1  0.076418  0.509072  0.673343  1
  Bi  Bi23  1  0.423582  0.990928  0.173343  1
  Bi  Bi24  1  0.923582  0.490928  0.326657  1
  Bi  Bi25  1  0.576418  0.009072  0.826657  1
  Bi  Bi26  1  0.923582  0.009072  0.326657  1
  Bi  Bi27  1  0.076418  0.990928  0.673343  1
  P  P28  1  0.575337  0.750000  0.512450  1
  P  P29  1  0.424663  0.250000  0.487550  1
  P  P30  1  0.075337  0.250000  0.987550  1
  P  P31  1  0.924663  0.750000  0.012450  1
