# generated using pymatgen
data_NdNiAsH
_symmetry_space_group_name_H-M   'P 1'
_cell_length_a   4.07514500
_cell_length_b   8.51329200
_cell_length_c   7.12857900
_cell_angle_alpha   90.00000000
_cell_angle_beta   90.00000000
_cell_angle_gamma   90.00000000
_symmetry_Int_Tables_number   1
_chemical_formula_structural   NdNiAsH
_chemical_formula_sum   'Nd4 Ni4 As4 H4'
_cell_volume   247.31107359
_cell_formula_units_Z   4
loop_
 _symmetry_equiv_pos_site_id
 _symmetry_equiv_pos_as_xyz
  1  'x, y, z'
loop_
 _atom_site_type_symbol
 _atom_site_label
 _atom_site_symmetry_multiplicity
 _atom_site_fract_x
 _atom_site_fract_y
 _atom_site_fract_z
 _atom_site_occupancy
  Nd  Nd0  1  0.750000  0.506471  0.752739  1
  Nd  Nd1  1  0.250000  0.493529  0.247261  1
  Nd  Nd2  1  0.250000  0.993529  0.252739  1
  Nd  Nd3  1  0.750000  0.006471  0.747261  1
  Ni  Ni4  1  0.750000  0.233207  0.413462  1
  Ni  Ni5  1  0.250000  0.766793  0.586538  1
  Ni  Ni6  1  0.250000  0.266793  0.913462  1
  Ni  Ni7  1  0.750000  0.733207  0.086538  1
  As  As8  1  0.750000  0.236058  0.080030  1
  As  As9  1  0.250000  0.763942  0.919970  1
  As  As10  1  0.250000  0.263942  0.580030  1
  As  As11  1  0.750000  0.736058  0.419970  1
  H  H12  1  0.250000  0.952963  0.582306  1
  H  H13  1  0.750000  0.047037  0.417694  1
  H  H14  1  0.750000  0.547037  0.082306  1
  H  H15  1  0.250000  0.452963  0.917694  1
