# generated using pymatgen
data_Li4Ca5Hg4
_symmetry_space_group_name_H-M   'P 1'
_cell_length_a   9.03713526
_cell_length_b   9.03713432
_cell_length_c   9.03713463
_cell_angle_alpha   93.64703658
_cell_angle_beta   93.64703754
_cell_angle_gamma   150.78334850
_symmetry_Int_Tables_number   1
_chemical_formula_structural   Li4Ca5Hg4
_chemical_formula_sum   'Li4 Ca5 Hg4'
_cell_volume   348.61122953
_cell_formula_units_Z   1
loop_
 _symmetry_equiv_pos_site_id
 _symmetry_equiv_pos_as_xyz
  1  'x, y, z'
loop_
 _atom_site_type_symbol
 _atom_site_label
 _atom_site_symmetry_multiplicity
 _atom_site_fract_x
 _atom_site_fract_y
 _atom_site_fract_z
 _atom_site_occupancy
  Li  Li0  1  0.601268  0.076797  0.678065  1
  Li  Li1  1  0.923203  0.601268  0.524471  1
  Li  Li2  1  0.076797  0.398732  0.475529  1
  Li  Li3  1  0.398732  0.923203  0.321935  1
  Ca  Ca4  1  0.128909  0.791271  0.920180  1
  Ca  Ca5  1  0.208729  0.128909  0.337638  1
  Ca  Ca6  1  0.871091  0.208729  0.079820  1
  Ca  Ca7  1  0.500000  0.500000  0.000000  1
  Ca  Ca8  1  0.791271  0.871091  0.662362  1
  Hg  Hg9  1  0.441181  0.246274  0.687456  1
  Hg  Hg10  1  0.558819  0.753726  0.312544  1
  Hg  Hg11  1  0.246274  0.558819  0.805093  1
  Hg  Hg12  1  0.753726  0.441181  0.194907  1
