# generated using pymatgen
data_Dy2Re3Tc
_symmetry_space_group_name_H-M   'P 1'
_cell_length_a   5.38242700
_cell_length_b   5.38242667
_cell_length_c   8.98826500
_cell_angle_alpha   90.00000000
_cell_angle_beta   90.00000000
_cell_angle_gamma   119.99998360
_symmetry_Int_Tables_number   1
_chemical_formula_structural   Dy2Re3Tc
_chemical_formula_sum   'Dy4 Re6 Tc2'
_cell_volume   225.50846130
_cell_formula_units_Z   2
loop_
 _symmetry_equiv_pos_site_id
 _symmetry_equiv_pos_as_xyz
  1  'x, y, z'
loop_
 _atom_site_type_symbol
 _atom_site_label
 _atom_site_symmetry_multiplicity
 _atom_site_fract_x
 _atom_site_fract_y
 _atom_site_fract_z
 _atom_site_occupancy
  Dy  Dy0  1  0.333333  0.666667  0.437226  1
  Dy  Dy1  1  0.666667  0.333333  0.562774  1
  Dy  Dy2  1  0.666667  0.333333  0.937226  1
  Dy  Dy3  1  0.333333  0.666667  0.062774  1
  Re  Re4  1  0.828616  0.171384  0.250000  1
  Re  Re5  1  0.828616  0.657232  0.250000  1
  Re  Re6  1  0.342768  0.171384  0.250000  1
  Re  Re7  1  0.171384  0.828616  0.750000  1
  Re  Re8  1  0.171384  0.342768  0.750000  1
  Re  Re9  1  0.657232  0.828616  0.750000  1
  Tc  Tc10  1  0.000000  0.000000  0.500000  1
  Tc  Tc11  1  0.000000  0.000000  0.000000  1
