# generated using pymatgen
data_Tb2YGa6(Ni2Ru)3
_symmetry_space_group_name_H-M   'P 1'
_cell_length_a   9.12987100
_cell_length_b   9.12987106
_cell_length_c   3.90203800
_cell_angle_alpha   90.00000000
_cell_angle_beta   90.00000000
_cell_angle_gamma   120.00000341
_symmetry_Int_Tables_number   1
_chemical_formula_structural   Tb2YGa6(Ni2Ru)3
_chemical_formula_sum   'Tb2 Y1 Ga6 Ni6 Ru3'
_cell_volume   281.67700645
_cell_formula_units_Z   1
loop_
 _symmetry_equiv_pos_site_id
 _symmetry_equiv_pos_as_xyz
  1  'x, y, z'
loop_
 _atom_site_type_symbol
 _atom_site_label
 _atom_site_symmetry_multiplicity
 _atom_site_fract_x
 _atom_site_fract_y
 _atom_site_fract_z
 _atom_site_occupancy
  Tb  Tb0  1  0.000000  0.000000  0.000000  1
  Tb  Tb1  1  0.333333  0.666667  0.500000  1
  Y  Y2  1  0.666667  0.333333  0.500000  1
  Ga  Ga3  1  0.313744  0.313738  0.500000  1
  Ga  Ga4  1  0.686262  0.000006  0.500000  1
  Ga  Ga5  1  0.686262  0.686256  0.500000  1
  Ga  Ga6  1  0.999994  0.313738  0.500000  1
  Ga  Ga7  1  0.999994  0.686256  0.500000  1
  Ga  Ga8  1  0.313744  0.000006  0.500000  1
  Ni  Ni9  1  0.175902  0.351804  0.000000  1
  Ni  Ni10  1  0.824098  0.648195  0.000000  1
  Ni  Ni11  1  0.175902  0.824098  0.000000  1
  Ni  Ni12  1  0.648196  0.824098  0.000000  1
  Ni  Ni13  1  0.351805  0.175902  0.000000  1
  Ni  Ni14  1  0.824098  0.175902  0.000000  1
  Ru  Ru15  1  0.500006  0.000012  0.000000  1
  Ru  Ru16  1  0.999988  0.499994  0.000000  1
  Ru  Ru17  1  0.500006  0.499994  0.000000  1
