# generated using pymatgen
data_La2Co9Tc3P7
_symmetry_space_group_name_H-M   'P 1'
_cell_length_a   3.75491100
_cell_length_b   9.15686104
_cell_length_c   9.15686200
_cell_angle_alpha   120.00000348
_cell_angle_beta   90.00000000
_cell_angle_gamma   90.00000000
_symmetry_Int_Tables_number   1
_chemical_formula_structural   La2Co9Tc3P7
_chemical_formula_sum   'La2 Co9 Tc3 P7'
_cell_volume   272.66133502
_cell_formula_units_Z   1
loop_
 _symmetry_equiv_pos_site_id
 _symmetry_equiv_pos_as_xyz
  1  'x, y, z'
loop_
 _atom_site_type_symbol
 _atom_site_label
 _atom_site_symmetry_multiplicity
 _atom_site_fract_x
 _atom_site_fract_y
 _atom_site_fract_z
 _atom_site_occupancy
  La  La0  1  0.000000  0.666667  0.333333  1
  La  La1  1  0.500000  0.333333  0.666667  1
  Co  Co2  1  0.000000  0.569910  0.940246  1
  Co  Co3  1  0.000000  0.370336  0.430090  1
  Co  Co4  1  0.000000  0.059754  0.629664  1
  Co  Co5  1  0.000000  0.877279  0.153019  1
  Co  Co6  1  0.000000  0.275738  0.122721  1
  Co  Co7  1  0.000000  0.846981  0.724262  1
  Co  Co8  1  0.500000  0.946761  0.380696  1
  Co  Co9  1  0.500000  0.433933  0.053239  1
  Co  Co10  1  0.500000  0.619304  0.566067  1
  Tc  Tc11  1  0.500000  0.783565  0.900971  1
  Tc  Tc12  1  0.500000  0.117406  0.216435  1
  Tc  Tc13  1  0.500000  0.099029  0.882594  1
  P  P14  1  0.000000  0.000000  0.000000  1
  P  P15  1  0.500000  0.706181  0.107296  1
  P  P16  1  0.500000  0.401116  0.293819  1
  P  P17  1  0.500000  0.892704  0.598884  1
  P  P18  1  0.000000  0.595371  0.698735  1
  P  P19  1  0.000000  0.103365  0.404629  1
  P  P20  1  0.000000  0.301265  0.896635  1
