# generated using pymatgen
data_Lu4Ga24IrPt8
_symmetry_space_group_name_H-M   'P 1'
_cell_length_a   7.46492833
_cell_length_b   7.58719099
_cell_length_c   13.28581600
_cell_angle_alpha   84.99417259
_cell_angle_beta   79.84697437
_cell_angle_gamma   60.20304367
_symmetry_Int_Tables_number   1
_chemical_formula_structural   Lu4Ga24IrPt8
_chemical_formula_sum   'Lu4 Ga24 Ir1 Pt8'
_cell_volume   642.77024397
_cell_formula_units_Z   1
loop_
 _symmetry_equiv_pos_site_id
 _symmetry_equiv_pos_as_xyz
  1  'x, y, z'
loop_
 _atom_site_type_symbol
 _atom_site_label
 _atom_site_symmetry_multiplicity
 _atom_site_fract_x
 _atom_site_fract_y
 _atom_site_fract_z
 _atom_site_occupancy
  Lu  Lu0  1  0.399421  0.170320  0.809335  1
  Lu  Lu1  1  0.600579  0.829680  0.190665  1
  Lu  Lu2  1  0.733585  0.498669  0.810382  1
  Lu  Lu3  1  0.266415  0.501331  0.189618  1
  Ga  Ga4  1  0.687379  0.831637  0.938103  1
  Ga  Ga5  1  0.312621  0.168363  0.061897  1
  Ga  Ga6  1  0.142243  0.832853  0.560064  1
  Ga  Ga7  1  0.857757  0.167147  0.439936  1
  Ga  Ga8  1  0.476667  0.165636  0.556543  1
  Ga  Ga9  1  0.523333  0.834364  0.443457  1
  Ga  Ga10  1  0.222310  0.165404  0.318481  1
  Ga  Ga11  1  0.777690  0.834596  0.681519  1
  Ga  Ga12  1  0.435286  0.505197  0.678925  1
  Ga  Ga13  1  0.564714  0.494803  0.321075  1
  Ga  Ga14  1  0.105892  0.163262  0.677258  1
  Ga  Ga15  1  0.894108  0.836738  0.322742  1
  Ga  Ga16  1  0.357010  0.498041  0.940305  1
  Ga  Ga17  1  0.642990  0.501959  0.059695  1
  Ga  Ga18  1  0.022791  0.174686  0.943052  1
  Ga  Ga19  1  0.977209  0.825314  0.056948  1
  Ga  Ga20  1  0.189549  0.499211  0.443257  1
  Ga  Ga21  1  0.810451  0.500789  0.556743  1
  Ga  Ga22  1  0.731689  0.164078  0.180776  1
  Ga  Ga23  1  0.268311  0.835922  0.819224  1
  Ga  Ga24  1  0.063787  0.625737  0.819012  1
  Ga  Ga25  1  0.936213  0.374263  0.180988  1
  Ga  Ga26  1  0.861193  0.039078  0.817034  1
  Ga  Ga27  1  0.138807  0.960922  0.182966  1
  Ir  Ir28  1  0.000000  0.500000  0.000000  1
  Pt  Pt29  1  0.114945  0.493270  0.640766  1
  Pt  Pt30  1  0.885055  0.506730  0.359234  1
  Pt  Pt31  1  0.661026  0.168895  0.997463  1
  Pt  Pt32  1  0.338974  0.831105  0.002537  1
  Pt  Pt33  1  0.541715  0.166942  0.359166  1
  Pt  Pt34  1  0.458285  0.833058  0.640834  1
  Pt  Pt35  1  0.774962  0.174001  0.638426  1
  Pt  Pt36  1  0.225038  0.825999  0.361574  1
