# generated using pymatgen
data_LaYb9Pd3Ru
_symmetry_space_group_name_H-M   'P 1'
_cell_length_a   8.81055195
_cell_length_b   8.78213079
_cell_length_c   7.51409565
_cell_angle_alpha   83.21542630
_cell_angle_beta   83.28827485
_cell_angle_gamma   44.11598039
_symmetry_Int_Tables_number   1
_chemical_formula_structural   LaYb9Pd3Ru
_chemical_formula_sum   'La1 Yb9 Pd3 Ru1'
_cell_volume   401.45788460
_cell_formula_units_Z   1
loop_
 _symmetry_equiv_pos_site_id
 _symmetry_equiv_pos_as_xyz
  1  'x, y, z'
loop_
 _atom_site_type_symbol
 _atom_site_label
 _atom_site_symmetry_multiplicity
 _atom_site_fract_x
 _atom_site_fract_y
 _atom_site_fract_z
 _atom_site_occupancy
  La  La0  1  0.037771  0.775556  0.900785  1
  Yb  Yb1  1  0.203957  0.973086  0.576356  1
  Yb  Yb2  1  0.978216  0.203987  0.078260  1
  Yb  Yb3  1  0.802892  0.014371  0.418186  1
  Yb  Yb4  1  0.364913  0.202837  0.811563  1
  Yb  Yb5  1  0.800724  0.634042  0.680153  1
  Yb  Yb6  1  0.631176  0.801305  0.183362  1
  Yb  Yb7  1  0.199968  0.369221  0.324050  1
  Yb  Yb8  1  0.581132  0.419657  0.743622  1
  Yb  Yb9  1  0.421083  0.575489  0.257030  1
  Pd  Pd10  1  0.402792  0.819100  0.921155  1
  Pd  Pd11  1  0.822105  0.402230  0.416728  1
  Pd  Pd12  1  0.594603  0.182230  0.080157  1
  Ru  Ru13  1  0.158667  0.626889  0.608593  1
