# generated using pymatgen
data_Dy5Ho3Tc3B24Ru
_symmetry_space_group_name_H-M   'P 1'
_cell_length_a   3.67834200
_cell_length_b   9.15443529
_cell_length_c   11.54459806
_cell_angle_alpha   89.92863482
_cell_angle_beta   90.00000000
_cell_angle_gamma   90.00000000
_symmetry_Int_Tables_number   1
_chemical_formula_structural   Dy5Ho3Tc3B24Ru
_chemical_formula_sum   'Dy5 Ho3 Tc3 B24 Ru1'
_cell_volume   388.74260931
_cell_formula_units_Z   1
loop_
 _symmetry_equiv_pos_site_id
 _symmetry_equiv_pos_as_xyz
  1  'x, y, z'
loop_
 _atom_site_type_symbol
 _atom_site_label
 _atom_site_symmetry_multiplicity
 _atom_site_fract_x
 _atom_site_fract_y
 _atom_site_fract_z
 _atom_site_occupancy
  Dy  Dy0  1  0.000000  0.323746  0.413919  1
  Dy  Dy1  1  0.000000  0.675034  0.584106  1
  Dy  Dy2  1  0.000000  0.823062  0.087210  1
  Dy  Dy3  1  0.000000  0.177838  0.914521  1
  Dy  Dy4  1  0.000000  0.942578  0.370298  1
  Ho  Ho5  1  0.000000  0.057745  0.630852  1
  Ho  Ho6  1  0.000000  0.443111  0.130070  1
  Ho  Ho7  1  0.000000  0.557848  0.869156  1
  Tc  Tc8  1  0.000000  0.638168  0.320484  1
  Tc  Tc9  1  0.000000  0.361613  0.680044  1
  Tc  Tc10  1  0.000000  0.138262  0.178281  1
  B  B11  1  0.500000  0.553077  0.432702  1
  B  B12  1  0.500000  0.446565  0.566913  1
  B  B13  1  0.500000  0.053205  0.066918  1
  B  B14  1  0.500000  0.946004  0.932661  1
  B  B15  1  0.500000  0.748218  0.418608  1
  B  B16  1  0.500000  0.250800  0.581516  1
  B  B17  1  0.500000  0.249250  0.081283  1
  B  B18  1  0.500000  0.751518  0.918327  1
  B  B19  1  0.500000  0.791407  0.265576  1
  B  B20  1  0.500000  0.208526  0.735084  1
  B  B21  1  0.500000  0.291789  0.234432  1
  B  B22  1  0.500000  0.709337  0.765376  1
  B  B23  1  0.500000  0.631048  0.185541  1
  B  B24  1  0.500000  0.369055  0.814868  1
  B  B25  1  0.500000  0.130779  0.313947  1
  B  B26  1  0.500000  0.868815  0.685852  1
  B  B27  1  0.500000  0.982128  0.211723  1
  B  B28  1  0.500000  0.016538  0.788292  1
  B  B29  1  0.500000  0.482332  0.287780  1
  B  B30  1  0.500000  0.517542  0.711756  1
  B  B31  1  0.500000  0.602148  0.028057  1
  B  B32  1  0.500000  0.399456  0.971580  1
  B  B33  1  0.500000  0.101803  0.472299  1
  B  B34  1  0.500000  0.898109  0.529068  1
  Ru  Ru35  1  0.000000  0.861547  0.820902  1
