# generated using pymatgen
data_Nd2AlNi5(BIr)2
_symmetry_space_group_name_H-M   'P 1'
_cell_length_a   5.33003623
_cell_length_b   5.33003540
_cell_length_c   6.98984300
_cell_angle_alpha   90.00000000
_cell_angle_beta   90.00000000
_cell_angle_gamma   122.05937089
_symmetry_Int_Tables_number   1
_chemical_formula_structural   Nd2AlNi5(BIr)2
_chemical_formula_sum   'Nd2 Al1 Ni5 B2 Ir2'
_cell_volume   168.29322351
_cell_formula_units_Z   1
loop_
 _symmetry_equiv_pos_site_id
 _symmetry_equiv_pos_as_xyz
  1  'x, y, z'
loop_
 _atom_site_type_symbol
 _atom_site_label
 _atom_site_symmetry_multiplicity
 _atom_site_fract_x
 _atom_site_fract_y
 _atom_site_fract_z
 _atom_site_occupancy
  Nd  Nd0  1  0.000197  0.999803  0.500000  1
  Nd  Nd1  1  0.996031  0.003969  0.000000  1
  Al  Al2  1  0.319658  0.680342  0.000000  1
  Ni  Ni3  1  0.680074  0.319926  0.000000  1
  Ni  Ni4  1  0.500098  0.000769  0.297686  1
  Ni  Ni5  1  0.999231  0.499902  0.297686  1
  Ni  Ni6  1  0.500098  0.000769  0.702314  1
  Ni  Ni7  1  0.999231  0.499902  0.702314  1
  B  B8  1  0.669325  0.330675  0.500000  1
  B  B9  1  0.333259  0.666741  0.500000  1
  Ir  Ir10  1  0.501399  0.498601  0.283523  1
  Ir  Ir11  1  0.501399  0.498601  0.716477  1
