# generated using pymatgen
data_Ca4Ta2InFeO12
_symmetry_space_group_name_H-M   'P 1'
_cell_length_a   5.70128727
_cell_length_b   5.52502099
_cell_length_c   9.65876677
_cell_angle_alpha   55.25479491
_cell_angle_beta   89.72336607
_cell_angle_gamma   89.98237189
_symmetry_Int_Tables_number   1
_chemical_formula_structural   Ca4Ta2InFeO12
_chemical_formula_sum   'Ca4 Ta2 In1 Fe1 O12'
_cell_volume   249.99539285
_cell_formula_units_Z   1
loop_
 _symmetry_equiv_pos_site_id
 _symmetry_equiv_pos_as_xyz
  1  'x, y, z'
loop_
 _atom_site_type_symbol
 _atom_site_label
 _atom_site_symmetry_multiplicity
 _atom_site_fract_x
 _atom_site_fract_y
 _atom_site_fract_z
 _atom_site_occupancy
  Ca  Ca0  1  0.444522  0.228989  0.758115  1
  Ca  Ca1  1  0.555478  0.771011  0.241885  1
  Ca  Ca2  1  0.950343  0.758882  0.754780  1
  Ca  Ca3  1  0.049657  0.241118  0.245220  1
  Ta  Ta4  1  0.000000  0.500000  0.500000  1
  Ta  Ta5  1  0.500000  0.500000  0.000000  1
  In  In6  1  0.500000  0.000000  0.500000  1
  Fe  Fe7  1  0.000000  0.000000  0.000000  1
  O  O8  1  0.032708  0.348922  0.747032  1
  O  O9  1  0.967292  0.651078  0.252968  1
  O  O10  1  0.536361  0.636957  0.761442  1
  O  O11  1  0.463639  0.363043  0.238558  1
  O  O12  1  0.705133  0.835915  0.953867  1
  O  O13  1  0.294867  0.164085  0.046133  1
  O  O14  1  0.185893  0.152512  0.552368  1
  O  O15  1  0.814107  0.847488  0.447632  1
  O  O16  1  0.213107  0.754351  0.948189  1
  O  O17  1  0.786893  0.245649  0.051811  1
  O  O18  1  0.708170  0.261076  0.557304  1
  O  O19  1  0.291830  0.738924  0.442696  1
