# generated using pymatgen
data_La3Dy2Cr3(P3Ir4)4
_symmetry_space_group_name_H-M   'P 1'
_cell_length_a   12.74120400
_cell_length_b   12.74120457
_cell_length_c   3.98543700
_cell_angle_alpha   90.00000000
_cell_angle_beta   90.00000000
_cell_angle_gamma   119.99999851
_symmetry_Int_Tables_number   1
_chemical_formula_structural   La3Dy2Cr3(P3Ir4)4
_chemical_formula_sum   'La3 Dy2 Cr3 P12 Ir16'
_cell_volume   560.30893065
_cell_formula_units_Z   1
loop_
 _symmetry_equiv_pos_site_id
 _symmetry_equiv_pos_as_xyz
  1  'x, y, z'
loop_
 _atom_site_type_symbol
 _atom_site_label
 _atom_site_symmetry_multiplicity
 _atom_site_fract_x
 _atom_site_fract_y
 _atom_site_fract_z
 _atom_site_occupancy
  La  La0  1  0.000000  0.809767  0.000000  1
  La  La1  1  0.190233  0.190233  0.000000  1
  La  La2  1  0.809767  0.000000  0.000000  1
  Dy  Dy3  1  0.333333  0.666667  0.500000  1
  Dy  Dy4  1  0.666667  0.333333  0.500000  1
  Cr  Cr5  1  0.000000  0.451811  0.500000  1
  Cr  Cr6  1  0.548189  0.548189  0.500000  1
  Cr  Cr7  1  0.451811  0.000000  0.500000  1
  P  P8  1  0.000000  0.627026  0.500000  1
  P  P9  1  0.372974  0.372974  0.500000  1
  P  P10  1  0.627026  0.000000  0.500000  1
  P  P11  1  0.515564  0.685887  0.000000  1
  P  P12  1  0.314113  0.829677  0.000000  1
  P  P13  1  0.170323  0.484436  0.000000  1
  P  P14  1  0.484436  0.170323  0.000000  1
  P  P15  1  0.685887  0.515564  0.000000  1
  P  P16  1  0.829677  0.314113  0.000000  1
  P  P17  1  0.000000  0.181703  0.500000  1
  P  P18  1  0.818297  0.818297  0.500000  1
  P  P19  1  0.181703  0.000000  0.500000  1
  Ir  Ir20  1  0.507588  0.869168  0.000000  1
  Ir  Ir21  1  0.130832  0.638421  0.000000  1
  Ir  Ir22  1  0.361579  0.492412  0.000000  1
  Ir  Ir23  1  0.492412  0.361579  0.000000  1
  Ir  Ir24  1  0.869168  0.507588  0.000000  1
  Ir  Ir25  1  0.638421  0.130832  0.000000  1
  Ir  Ir26  1  0.000000  0.290041  0.000000  1
  Ir  Ir27  1  0.709959  0.709959  0.000000  1
  Ir  Ir28  1  0.290041  0.000000  0.000000  1
  Ir  Ir29  1  0.617610  0.796515  0.500000  1
  Ir  Ir30  1  0.203485  0.821095  0.500000  1
  Ir  Ir31  1  0.178905  0.382390  0.500000  1
  Ir  Ir32  1  0.382390  0.178905  0.500000  1
  Ir  Ir33  1  0.796515  0.617610  0.500000  1
  Ir  Ir34  1  0.821095  0.203485  0.500000  1
  Ir  Ir35  1  0.000000  0.000000  0.500000  1
