# generated using pymatgen
data_Dy5Tm3Re3B24Ir
_symmetry_space_group_name_H-M   'P 1'
_cell_length_a   3.66156000
_cell_length_b   9.14318475
_cell_length_c   11.53143002
_cell_angle_alpha   90.13665628
_cell_angle_beta   90.00000000
_cell_angle_gamma   90.00000000
_symmetry_Int_Tables_number   1
_chemical_formula_structural   Dy5Tm3Re3B24Ir
_chemical_formula_sum   'Dy5 Tm3 Re3 B24 Ir1'
_cell_volume   386.05180093
_cell_formula_units_Z   1
loop_
 _symmetry_equiv_pos_site_id
 _symmetry_equiv_pos_as_xyz
  1  'x, y, z'
loop_
 _atom_site_type_symbol
 _atom_site_label
 _atom_site_symmetry_multiplicity
 _atom_site_fract_x
 _atom_site_fract_y
 _atom_site_fract_z
 _atom_site_occupancy
  Dy  Dy0  1  0.000000  0.318250  0.415783  1
  Dy  Dy1  1  0.000000  0.678479  0.591565  1
  Dy  Dy2  1  0.000000  0.826841  0.081229  1
  Dy  Dy3  1  0.000000  0.177818  0.912539  1
  Dy  Dy4  1  0.000000  0.944111  0.370653  1
  Tm  Tm5  1  0.000000  0.056102  0.629498  1
  Tm  Tm6  1  0.000000  0.440978  0.127779  1
  Tm  Tm7  1  0.000000  0.556737  0.871609  1
  Re  Re8  1  0.000000  0.362453  0.678391  1
  Re  Re9  1  0.000000  0.139479  0.179852  1
  Re  Re10  1  0.000000  0.861361  0.820669  1
  B  B11  1  0.500000  0.553470  0.433559  1
  B  B12  1  0.500000  0.446351  0.567145  1
  B  B13  1  0.500000  0.053894  0.066589  1
  B  B14  1  0.500000  0.946907  0.932285  1
  B  B15  1  0.500000  0.748543  0.419877  1
  B  B16  1  0.500000  0.249971  0.581451  1
  B  B17  1  0.500000  0.250060  0.081292  1
  B  B18  1  0.500000  0.750942  0.918657  1
  B  B19  1  0.500000  0.790471  0.264956  1
  B  B20  1  0.500000  0.208279  0.734089  1
  B  B21  1  0.500000  0.292417  0.234711  1
  B  B22  1  0.500000  0.707839  0.766116  1
  B  B23  1  0.500000  0.630751  0.183855  1
  B  B24  1  0.500000  0.370003  0.814478  1
  B  B25  1  0.500000  0.131243  0.314615  1
  B  B26  1  0.500000  0.868918  0.685384  1
  B  B27  1  0.500000  0.983480  0.211757  1
  B  B28  1  0.500000  0.017533  0.786583  1
  B  B29  1  0.500000  0.482362  0.287241  1
  B  B30  1  0.500000  0.518332  0.712945  1
  B  B31  1  0.500000  0.602101  0.028784  1
  B  B32  1  0.500000  0.398932  0.972248  1
  B  B33  1  0.500000  0.101821  0.472211  1
  B  B34  1  0.500000  0.896037  0.528987  1
  Ir  Ir35  1  0.000000  0.636736  0.320620  1
