# generated using pymatgen
data_Dy6Y3Tm11Pt16
_symmetry_space_group_name_H-M   'P 1'
_cell_length_a   7.44259516
_cell_length_b   7.51636940
_cell_length_c   14.63032403
_cell_angle_alpha   89.96622996
_cell_angle_beta   90.00342841
_cell_angle_gamma   89.99749080
_symmetry_Int_Tables_number   1
_chemical_formula_structural   Dy6Y3Tm11Pt16
_chemical_formula_sum   'Dy6 Y3 Tm11 Pt16'
_cell_volume   818.43912091
_cell_formula_units_Z   1
loop_
 _symmetry_equiv_pos_site_id
 _symmetry_equiv_pos_as_xyz
  1  'x, y, z'
loop_
 _atom_site_type_symbol
 _atom_site_label
 _atom_site_symmetry_multiplicity
 _atom_site_fract_x
 _atom_site_fract_y
 _atom_site_fract_z
 _atom_site_occupancy
  Dy  Dy0  1  0.656224  0.832164  0.877984  1
  Dy  Dy1  1  0.998632  0.820508  0.406832  1
  Dy  Dy2  1  0.498187  0.679122  0.093788  1
  Dy  Dy3  1  0.501415  0.320620  0.592831  1
  Dy  Dy4  1  0.001880  0.180328  0.907044  1
  Dy  Dy5  1  0.001321  0.179283  0.592965  1
  Y  Y6  1  0.500928  0.320854  0.907008  1
  Y  Y7  1  0.498652  0.679216  0.406910  1
  Y  Y8  1  0.998859  0.820544  0.093140  1
  Tm  Tm9  1  0.681051  0.989860  0.250078  1
  Tm  Tm10  1  0.180996  0.510141  0.250102  1
  Tm  Tm11  1  0.819254  0.489387  0.749504  1
  Tm  Tm12  1  0.318629  0.010666  0.749593  1
  Tm  Tm13  1  0.656024  0.832407  0.622368  1
  Tm  Tm14  1  0.156268  0.667517  0.877352  1
  Tm  Tm15  1  0.843974  0.332525  0.377444  1
  Tm  Tm16  1  0.343727  0.167750  0.122711  1
  Tm  Tm17  1  0.343821  0.167556  0.377472  1
  Tm  Tm18  1  0.844173  0.332610  0.122968  1
  Tm  Tm19  1  0.156208  0.667497  0.622245  1
  Pt  Pt20  1  0.816547  0.641541  0.250214  1
  Pt  Pt21  1  0.316374  0.858547  0.250002  1
  Pt  Pt22  1  0.683811  0.142563  0.748932  1
  Pt  Pt23  1  0.182766  0.357953  0.749797  1
  Pt  Pt24  1  0.546261  0.384038  0.250078  1
  Pt  Pt25  1  0.046398  0.116001  0.250226  1
  Pt  Pt26  1  0.955104  0.884868  0.748980  1
  Pt  Pt27  1  0.452948  0.614376  0.748964  1
  Pt  Pt28  1  0.817910  0.533818  0.542105  1
  Pt  Pt29  1  0.315591  0.966776  0.958433  1
  Pt  Pt30  1  0.682324  0.034059  0.457885  1
  Pt  Pt31  1  0.182613  0.466104  0.042207  1
  Pt  Pt32  1  0.181864  0.465952  0.457888  1
  Pt  Pt33  1  0.681745  0.035241  0.043524  1
  Pt  Pt34  1  0.317795  0.966339  0.542120  1
  Pt  Pt35  1  0.819720  0.531265  0.958307  1
