# generated using pymatgen
data_LiNd3Zn2Ir2Pd
_symmetry_space_group_name_H-M   'P 1'
_cell_length_a   7.32821607
_cell_length_b   7.32821571
_cell_length_c   4.05065400
_cell_angle_alpha   90.00000000
_cell_angle_beta   90.00000000
_cell_angle_gamma   120.13474560
_symmetry_Int_Tables_number   1
_chemical_formula_structural   LiNd3Zn2Ir2Pd
_chemical_formula_sum   'Li1 Nd3 Zn2 Ir2 Pd1'
_cell_volume   188.13127903
_cell_formula_units_Z   1
loop_
 _symmetry_equiv_pos_site_id
 _symmetry_equiv_pos_as_xyz
  1  'x, y, z'
loop_
 _atom_site_type_symbol
 _atom_site_label
 _atom_site_symmetry_multiplicity
 _atom_site_fract_x
 _atom_site_fract_y
 _atom_site_fract_z
 _atom_site_occupancy
  Li  Li0  1  0.767159  0.767159  0.500000  1
  Nd  Nd1  1  0.411602  0.411602  0.000000  1
  Nd  Nd2  1  0.581431  0.000370  0.000000  1
  Nd  Nd3  1  0.000370  0.581431  0.000000  1
  Zn  Zn4  1  0.239690  0.994488  0.500000  1
  Zn  Zn5  1  0.994488  0.239690  0.500000  1
  Ir  Ir6  1  0.666137  0.329439  0.500000  1
  Ir  Ir7  1  0.329439  0.666137  0.500000  1
  Pd  Pd8  1  0.009684  0.009684  0.000000  1
