# generated using pymatgen
data_Pr4CuIrPt2
_symmetry_space_group_name_H-M   'P 1'
_cell_length_a   4.52662400
_cell_length_b   5.82393661
_cell_length_c   7.47919199
_cell_angle_alpha   89.61596366
_cell_angle_beta   90.00000000
_cell_angle_gamma   90.00000000
_symmetry_Int_Tables_number   1
_chemical_formula_structural   Pr4CuIrPt2
_chemical_formula_sum   'Pr4 Cu1 Ir1 Pt2'
_cell_volume   197.16779818
_cell_formula_units_Z   1
loop_
 _symmetry_equiv_pos_site_id
 _symmetry_equiv_pos_as_xyz
  1  'x, y, z'
loop_
 _atom_site_type_symbol
 _atom_site_label
 _atom_site_symmetry_multiplicity
 _atom_site_fract_x
 _atom_site_fract_y
 _atom_site_fract_z
 _atom_site_occupancy
  Pr  Pr0  1  0.000000  0.635201  0.314759  1
  Pr  Pr1  1  0.000000  0.861226  0.823422  1
  Pr  Pr2  1  0.500000  0.367515  0.692007  1
  Pr  Pr3  1  0.500000  0.141211  0.169592  1
  Cu  Cu4  1  0.000000  0.127064  0.464700  1
  Ir  Ir5  1  0.000000  0.337762  0.951874  1
  Pt  Pt6  1  0.500000  0.877128  0.534889  1
  Pt  Pt7  1  0.500000  0.652894  0.048759  1
