# generated using pymatgen
data_Ho5MnCo15(TcP4)3
_symmetry_space_group_name_H-M   'P 1'
_cell_length_a   12.00747404
_cell_length_b   12.03504714
_cell_length_c   3.69975400
_cell_angle_alpha   90.00000000
_cell_angle_beta   90.00000000
_cell_angle_gamma   119.91495099
_symmetry_Int_Tables_number   1
_chemical_formula_structural   Ho5MnCo15(TcP4)3
_chemical_formula_sum   'Ho5 Mn1 Co15 Tc3 P12'
_cell_volume   463.41969752
_cell_formula_units_Z   1
loop_
 _symmetry_equiv_pos_site_id
 _symmetry_equiv_pos_as_xyz
  1  'x, y, z'
loop_
 _atom_site_type_symbol
 _atom_site_label
 _atom_site_symmetry_multiplicity
 _atom_site_fract_x
 _atom_site_fract_y
 _atom_site_fract_z
 _atom_site_occupancy
  Ho  Ho0  1  0.667536  0.333702  0.000000  1
  Ho  Ho1  1  0.332942  0.666668  0.000000  1
  Ho  Ho2  1  0.815288  0.815074  0.500000  1
  Ho  Ho3  1  0.183971  0.000565  0.500000  1
  Ho  Ho4  1  0.999666  0.184686  0.500000  1
  Mn  Mn5  1  0.874436  0.353692  0.500000  1
  Co  Co6  1  0.645240  0.518561  0.500000  1
  Co  Co7  1  0.480752  0.125512  0.500000  1
  Co  Co8  1  0.355385  0.873634  0.500000  1
  Co  Co9  1  0.518087  0.644367  0.500000  1
  Co  Co10  1  0.128592  0.484491  0.500000  1
  Co  Co11  1  0.800918  0.172873  0.000000  1
  Co  Co12  1  0.822739  0.625724  0.000000  1
  Co  Co13  1  0.375469  0.198242  0.000000  1
  Co  Co14  1  0.178459  0.804414  0.000000  1
  Co  Co15  1  0.624125  0.821012  0.000000  1
  Co  Co16  1  0.196279  0.374957  0.000000  1
  Co  Co17  1  0.282324  0.282833  0.500000  1
  Co  Co18  1  0.716820  0.997848  0.500000  1
  Co  Co19  1  0.999970  0.719145  0.500000  1
  Co  Co20  1  0.000476  0.000502  0.000000  1
  Tc  Tc21  1  0.446597  0.446856  0.000000  1
  Tc  Tc22  1  0.552394  0.998734  0.000000  1
  Tc  Tc23  1  0.002578  0.556130  0.000000  1
  P  P24  1  0.686052  0.165397  0.500000  1
  P  P25  1  0.837316  0.518620  0.500000  1
  P  P26  1  0.480517  0.315375  0.500000  1
  P  P27  1  0.164927  0.685901  0.500000  1
  P  P28  1  0.519571  0.834752  0.500000  1
  P  P29  1  0.314780  0.480080  0.500000  1
  P  P30  1  0.178567  0.179317  0.000000  1
  P  P31  1  0.821081  0.998662  0.000000  1
  P  P32  1  0.999798  0.821862  0.000000  1
  P  P33  1  0.638309  0.637480  0.000000  1
  P  P34  1  0.362046  0.000721  0.000000  1
  P  P35  1  0.995991  0.361611  0.000000  1
