# generated using pymatgen
data_Li4Co9P12Rh11
_symmetry_space_group_name_H-M   'P 1'
_cell_length_a   3.66754000
_cell_length_b   10.56901922
_cell_length_c   12.02521335
_cell_angle_alpha   90.17140820
_cell_angle_beta   90.00000000
_cell_angle_gamma   90.00000000
_symmetry_Int_Tables_number   1
_chemical_formula_structural   Li4Co9P12Rh11
_chemical_formula_sum   'Li4 Co9 P12 Rh11'
_cell_volume   466.12285030
_cell_formula_units_Z   1
loop_
 _symmetry_equiv_pos_site_id
 _symmetry_equiv_pos_as_xyz
  1  'x, y, z'
loop_
 _atom_site_type_symbol
 _atom_site_label
 _atom_site_symmetry_multiplicity
 _atom_site_fract_x
 _atom_site_fract_y
 _atom_site_fract_z
 _atom_site_occupancy
  Li  Li0  1  0.250000  0.582735  0.708227  1
  Li  Li1  1  0.250000  0.913312  0.211761  1
  Li  Li2  1  0.750000  0.419573  0.290684  1
  Li  Li3  1  0.750000  0.082610  0.790055  1
  Co  Co4  1  0.750000  0.725890  0.320065  1
  Co  Co5  1  0.250000  0.883341  0.696497  1
  Co  Co6  1  0.250000  0.622034  0.199551  1
  Co  Co7  1  0.750000  0.111833  0.301578  1
  Co  Co8  1  0.750000  0.385589  0.802109  1
  Co  Co9  1  0.250000  0.463599  0.934149  1
  Co  Co10  1  0.250000  0.034072  0.430363  1
  Co  Co11  1  0.750000  0.538693  0.070272  1
  Co  Co12  1  0.750000  0.962651  0.565527  1
  P  P13  1  0.250000  0.433309  0.116448  1
  P  P14  1  0.250000  0.068708  0.612660  1
  P  P15  1  0.750000  0.569813  0.887640  1
  P  P16  1  0.750000  0.922640  0.382150  1
  P  P17  1  0.250000  0.270846  0.871449  1
  P  P18  1  0.250000  0.228044  0.371619  1
  P  P19  1  0.750000  0.730959  0.138604  1
  P  P20  1  0.750000  0.770757  0.627791  1
  P  P21  1  0.250000  0.603198  0.378593  1
  P  P22  1  0.250000  0.900216  0.882006  1
  P  P23  1  0.750000  0.403108  0.617269  1
  P  P24  1  0.750000  0.097960  0.118877  1
  Rh  Rh25  1  0.250000  0.712659  0.989934  1
  Rh  Rh26  1  0.250000  0.787905  0.484171  1
  Rh  Rh27  1  0.750000  0.286864  0.010321  1
  Rh  Rh28  1  0.750000  0.213842  0.509037  1
  Rh  Rh29  1  0.250000  0.410729  0.480028  1
  Rh  Rh30  1  0.250000  0.090238  0.981513  1
  Rh  Rh31  1  0.750000  0.593744  0.514811  1
  Rh  Rh32  1  0.750000  0.906645  0.021994  1
  Rh  Rh33  1  0.250000  0.230814  0.182692  1
  Rh  Rh34  1  0.250000  0.270484  0.681747  1
  Rh  Rh35  1  0.750000  0.770586  0.817804  1
