# generated using pymatgen
data_KPtOF4
_symmetry_space_group_name_H-M   'P 1'
_cell_length_a   5.96566300
_cell_length_b   5.43594154
_cell_length_c   15.55472078
_cell_angle_alpha   69.10876420
_cell_angle_beta   90.00000000
_cell_angle_gamma   90.00000000
_symmetry_Int_Tables_number   1
_chemical_formula_structural   KPtOF4
_chemical_formula_sum   'K4 Pt4 O4 F16'
_cell_volume   471.26264702
_cell_formula_units_Z   4
loop_
 _symmetry_equiv_pos_site_id
 _symmetry_equiv_pos_as_xyz
  1  'x, y, z'
loop_
 _atom_site_type_symbol
 _atom_site_label
 _atom_site_symmetry_multiplicity
 _atom_site_fract_x
 _atom_site_fract_y
 _atom_site_fract_z
 _atom_site_occupancy
  K  K0  1  0.612201  0.660165  0.840312  1
  K  K1  1  0.112201  0.339835  0.659688  1
  K  K2  1  0.387799  0.339835  0.159688  1
  K  K3  1  0.887799  0.660165  0.340312  1
  Pt  Pt4  1  0.126079  0.027364  0.913786  1
  Pt  Pt5  1  0.626079  0.972636  0.586214  1
  Pt  Pt6  1  0.873921  0.972636  0.086214  1
  Pt  Pt7  1  0.373921  0.027364  0.413786  1
  O  O8  1  0.623354  0.830458  0.487271  1
  O  O9  1  0.123354  0.169542  0.012729  1
  O  O10  1  0.376646  0.169542  0.512729  1
  O  O11  1  0.876646  0.830458  0.987271  1
  F  F12  1  0.158899  0.751758  0.478036  1
  F  F13  1  0.658899  0.248242  0.021964  1
  F  F14  1  0.841101  0.248242  0.521964  1
  F  F15  1  0.341101  0.751758  0.978036  1
  F  F16  1  0.924971  0.301310  0.837489  1
  F  F17  1  0.424971  0.698690  0.662511  1
  F  F18  1  0.075029  0.698690  0.162511  1
  F  F19  1  0.575029  0.301310  0.337489  1
  F  F20  1  0.111205  0.874004  0.816556  1
  F  F21  1  0.611205  0.125996  0.683444  1
  F  F22  1  0.888795  0.125996  0.183444  1
  F  F23  1  0.388795  0.874004  0.316556  1
  F  F24  1  0.374588  0.237446  0.840527  1
  F  F25  1  0.874588  0.762554  0.659473  1
  F  F26  1  0.625412  0.762554  0.159473  1
  F  F27  1  0.125412  0.237446  0.340527  1
