# generated using pymatgen
data_TbNd(ZnSi)2
_symmetry_space_group_name_H-M   'P 1'
_cell_length_a   4.17709100
_cell_length_b   4.17709182
_cell_length_c   16.30633100
_cell_angle_alpha   90.00000000
_cell_angle_beta   90.00000000
_cell_angle_gamma   120.00001727
_symmetry_Int_Tables_number   1
_chemical_formula_structural   TbNd(ZnSi)2
_chemical_formula_sum   'Tb2 Nd2 Zn4 Si4'
_cell_volume   246.39663274
_cell_formula_units_Z   2
loop_
 _symmetry_equiv_pos_site_id
 _symmetry_equiv_pos_as_xyz
  1  'x, y, z'
loop_
 _atom_site_type_symbol
 _atom_site_label
 _atom_site_symmetry_multiplicity
 _atom_site_fract_x
 _atom_site_fract_y
 _atom_site_fract_z
 _atom_site_occupancy
  Tb  Tb0  1  0.000000  0.000000  0.250000  1
  Tb  Tb1  1  0.000000  0.000000  0.750000  1
  Nd  Nd2  1  0.000000  0.000000  0.000000  1
  Nd  Nd3  1  0.000000  0.000000  0.500000  1
  Zn  Zn4  1  0.333333  0.666667  0.140485  1
  Zn  Zn5  1  0.666667  0.333333  0.859515  1
  Zn  Zn6  1  0.666667  0.333333  0.640485  1
  Zn  Zn7  1  0.333333  0.666667  0.359515  1
  Si  Si8  1  0.333333  0.666667  0.622395  1
  Si  Si9  1  0.666667  0.333333  0.377605  1
  Si  Si10  1  0.666667  0.333333  0.122395  1
  Si  Si11  1  0.333333  0.666667  0.877605  1
