# generated using pymatgen
data_Sc5Al2SiC4
_symmetry_space_group_name_H-M   'P 1'
_cell_length_a   10.09320800
_cell_length_b   10.09320800
_cell_length_c   3.30640400
_cell_angle_alpha   90.00000000
_cell_angle_beta   90.00000000
_cell_angle_gamma   90.00000000
_symmetry_Int_Tables_number   1
_chemical_formula_structural   Sc5Al2SiC4
_chemical_formula_sum   'Sc10 Al4 Si2 C8'
_cell_volume   336.83279123
_cell_formula_units_Z   2
loop_
 _symmetry_equiv_pos_site_id
 _symmetry_equiv_pos_as_xyz
  1  'x, y, z'
loop_
 _atom_site_type_symbol
 _atom_site_label
 _atom_site_symmetry_multiplicity
 _atom_site_fract_x
 _atom_site_fract_y
 _atom_site_fract_z
 _atom_site_occupancy
  Sc  Sc0  1  0.550156  0.730335  0.500000  1
  Sc  Sc1  1  0.449844  0.269665  0.500000  1
  Sc  Sc2  1  0.050156  0.769665  0.500000  1
  Sc  Sc3  1  0.949844  0.230335  0.500000  1
  Sc  Sc4  1  0.269665  0.550156  0.500000  1
  Sc  Sc5  1  0.730335  0.449844  0.500000  1
  Sc  Sc6  1  0.230335  0.050156  0.500000  1
  Sc  Sc7  1  0.769665  0.949844  0.500000  1
  Sc  Sc8  1  0.500000  0.000000  0.000000  1
  Sc  Sc9  1  0.000000  0.500000  0.000000  1
  Al  Al10  1  0.702492  0.202492  0.000000  1
  Al  Al11  1  0.297508  0.797508  0.000000  1
  Al  Al12  1  0.202492  0.297508  0.000000  1
  Al  Al13  1  0.797508  0.702492  0.000000  1
  Si  Si14  1  0.500000  0.500000  0.000000  1
  Si  Si15  1  0.000000  0.000000  0.000000  1
  C  C16  1  0.625352  0.125352  0.500000  1
  C  C17  1  0.374648  0.874648  0.500000  1
  C  C18  1  0.125352  0.374648  0.500000  1
  C  C19  1  0.874648  0.625352  0.500000  1
  C  C20  1  0.159127  0.659127  0.000000  1
  C  C21  1  0.840873  0.340873  0.000000  1
  C  C22  1  0.659127  0.840873  0.000000  1
  C  C23  1  0.340873  0.159127  0.000000  1
