# generated using pymatgen
data_Be15Nb6(CuNi3)2
_symmetry_space_group_name_H-M   'P 1'
_cell_length_a   7.58987691
_cell_length_b   7.58987686
_cell_length_c   7.58987710
_cell_angle_alpha   60.01536852
_cell_angle_beta   60.01536756
_cell_angle_gamma   60.01536662
_symmetry_Int_Tables_number   1
_chemical_formula_structural   Be15Nb6(CuNi3)2
_chemical_formula_sum   'Be15 Nb6 Cu2 Ni6'
_cell_volume   309.27191557
_cell_formula_units_Z   1
loop_
 _symmetry_equiv_pos_site_id
 _symmetry_equiv_pos_as_xyz
  1  'x, y, z'
loop_
 _atom_site_type_symbol
 _atom_site_label
 _atom_site_symmetry_multiplicity
 _atom_site_fract_x
 _atom_site_fract_y
 _atom_site_fract_z
 _atom_site_occupancy
  Be  Be0  1  0.325350  0.325350  0.325350  1
  Be  Be1  1  0.674650  0.674650  0.674650  1
  Be  Be2  1  0.327884  0.327884  0.021659  1
  Be  Be3  1  0.327884  0.021659  0.327884  1
  Be  Be4  1  0.672116  0.672116  0.978341  1
  Be  Be5  1  0.672116  0.978341  0.672116  1
  Be  Be6  1  0.021659  0.327884  0.327884  1
  Be  Be7  1  0.978341  0.672116  0.672116  1
  Be  Be8  1  0.500000  0.000000  0.000000  1
  Be  Be9  1  0.000000  0.500000  0.500000  1
  Be  Be10  1  0.000000  0.500000  0.000000  1
  Be  Be11  1  0.500000  0.000000  0.500000  1
  Be  Be12  1  0.000000  0.000000  0.500000  1
  Be  Be13  1  0.500000  0.500000  0.000000  1
  Be  Be14  1  0.000000  0.000000  0.000000  1
  Nb  Nb15  1  0.696695  0.299396  0.299396  1
  Nb  Nb16  1  0.303305  0.700604  0.700604  1
  Nb  Nb17  1  0.299396  0.696695  0.299396  1
  Nb  Nb18  1  0.700604  0.303305  0.700604  1
  Nb  Nb19  1  0.299396  0.299396  0.696695  1
  Nb  Nb20  1  0.700604  0.700604  0.303305  1
  Cu  Cu21  1  0.122383  0.122383  0.122383  1
  Cu  Cu22  1  0.877617  0.877617  0.877617  1
  Ni  Ni23  1  0.122443  0.122443  0.632135  1
  Ni  Ni24  1  0.122443  0.632135  0.122443  1
  Ni  Ni25  1  0.877557  0.877557  0.367865  1
  Ni  Ni26  1  0.877557  0.367865  0.877557  1
  Ni  Ni27  1  0.632135  0.122443  0.122443  1
  Ni  Ni28  1  0.367865  0.877557  0.877557  1
