# generated using pymatgen
data_NpSb12OsRu2Pt
_symmetry_space_group_name_H-M   'P 1'
_cell_length_a   8.14089434
_cell_length_b   8.14693362
_cell_length_c   8.13595772
_cell_angle_alpha   109.36459446
_cell_angle_beta   109.35371200
_cell_angle_gamma   109.47009632
_symmetry_Int_Tables_number   1
_chemical_formula_structural   NpSb12OsRu2Pt
_chemical_formula_sum   'Np1 Sb12 Os1 Ru2 Pt1'
_cell_volume   416.53755982
_cell_formula_units_Z   1
loop_
 _symmetry_equiv_pos_site_id
 _symmetry_equiv_pos_as_xyz
  1  'x, y, z'
loop_
 _atom_site_type_symbol
 _atom_site_label
 _atom_site_symmetry_multiplicity
 _atom_site_fract_x
 _atom_site_fract_y
 _atom_site_fract_z
 _atom_site_occupancy
  Np  Np0  1  0.000000  0.000000  0.000000  1
  Sb  Sb1  1  0.662994  0.850188  0.506310  1
  Sb  Sb2  1  0.337006  0.149812  0.493690  1
  Sb  Sb3  1  0.841646  0.178323  0.334440  1
  Sb  Sb4  1  0.821523  0.664138  0.156943  1
  Sb  Sb5  1  0.850484  0.506510  0.664445  1
  Sb  Sb6  1  0.178477  0.335862  0.843057  1
  Sb  Sb7  1  0.158354  0.821677  0.665560  1
  Sb  Sb8  1  0.506731  0.664781  0.850709  1
  Sb  Sb9  1  0.493269  0.335219  0.149291  1
  Sb  Sb10  1  0.149516  0.493490  0.335555  1
  Sb  Sb11  1  0.334379  0.841836  0.177251  1
  Sb  Sb12  1  0.665621  0.158164  0.822749  1
  Os  Os13  1  0.000000  0.000000  0.500000  1
  Ru  Ru14  1  0.500000  0.000000  0.000000  1
  Ru  Ru15  1  0.000000  0.500000  0.000000  1
  Pt  Pt16  1  0.500000  0.500000  0.500000  1
