# generated using pymatgen
data_Pr6Nd4CdSi4Ge
_symmetry_space_group_name_H-M   'P 1'
_cell_length_a   7.81933626
_cell_length_b   9.22897383
_cell_length_c   7.81678207
_cell_angle_alpha   114.93356432
_cell_angle_beta   90.26027695
_cell_angle_gamma   114.94235120
_symmetry_Int_Tables_number   1
_chemical_formula_structural   Pr6Nd4CdSi4Ge
_chemical_formula_sum   'Pr6 Nd4 Cd1 Si4 Ge1'
_cell_volume   452.26437892
_cell_formula_units_Z   1
loop_
 _symmetry_equiv_pos_site_id
 _symmetry_equiv_pos_as_xyz
  1  'x, y, z'
loop_
 _atom_site_type_symbol
 _atom_site_label
 _atom_site_symmetry_multiplicity
 _atom_site_fract_x
 _atom_site_fract_y
 _atom_site_fract_z
 _atom_site_occupancy
  Pr  Pr0  1  0.672392  0.719834  0.195334  1
  Pr  Pr1  1  0.047443  0.719834  0.524501  1
  Pr  Pr2  1  0.451776  0.279961  0.302661  1
  Pr  Pr3  1  0.828184  0.279961  0.977299  1
  Pr  Pr4  1  0.303070  0.279317  0.827335  1
  Pr  Pr5  1  0.976246  0.279317  0.451982  1
  Nd  Nd6  1  0.976351  0.952701  0.976351  1
  Nd  Nd7  1  0.522472  0.044944  0.522472  1
  Nd  Nd8  1  0.523008  0.722156  0.674459  1
  Nd  Nd9  1  0.199148  0.722156  0.047698  1
  Cd  Cd10  1  0.749552  0.499103  0.749552  1
  Si  Si11  1  0.882231  0.998173  0.615745  1
  Si  Si12  1  0.115943  0.998173  0.382429  1
  Si  Si13  1  0.615356  0.999498  0.115692  1
  Si  Si14  1  0.384142  0.999498  0.883806  1
  Ge  Ge15  1  0.252686  0.505372  0.252686  1
