# generated using pymatgen
data_CsCaFeF6
_symmetry_space_group_name_H-M   'P 1'
_cell_length_a   7.86246800
_cell_length_b   7.70491800
_cell_length_c   10.64394800
_cell_angle_alpha   90.00000000
_cell_angle_beta   90.00000000
_cell_angle_gamma   90.00000000
_symmetry_Int_Tables_number   1
_chemical_formula_structural   CsCaFeF6
_chemical_formula_sum   'Cs4 Ca4 Fe4 F24'
_cell_volume   644.80687030
_cell_formula_units_Z   4
loop_
 _symmetry_equiv_pos_site_id
 _symmetry_equiv_pos_as_xyz
  1  'x, y, z'
loop_
 _atom_site_type_symbol
 _atom_site_label
 _atom_site_symmetry_multiplicity
 _atom_site_fract_x
 _atom_site_fract_y
 _atom_site_fract_z
 _atom_site_occupancy
  Cs  Cs0  1  0.983026  0.250000  0.376118  1
  Cs  Cs1  1  0.483026  0.250000  0.123882  1
  Cs  Cs2  1  0.016974  0.750000  0.623882  1
  Cs  Cs3  1  0.516974  0.750000  0.876118  1
  Ca  Ca4  1  0.793210  0.250000  0.741039  1
  Ca  Ca5  1  0.293210  0.250000  0.758961  1
  Ca  Ca6  1  0.206790  0.750000  0.258961  1
  Ca  Ca7  1  0.706790  0.750000  0.241039  1
  Fe  Fe8  1  0.500000  0.000000  0.500000  1
  Fe  Fe9  1  0.000000  0.500000  0.000000  1
  Fe  Fe10  1  0.500000  0.500000  0.500000  1
  Fe  Fe11  1  0.000000  0.000000  0.000000  1
  F  F12  1  0.550764  0.250000  0.846938  1
  F  F13  1  0.050764  0.250000  0.653062  1
  F  F14  1  0.449236  0.750000  0.153062  1
  F  F15  1  0.949236  0.750000  0.346938  1
  F  F16  1  0.938497  0.250000  0.013642  1
  F  F17  1  0.438497  0.250000  0.486358  1
  F  F18  1  0.061503  0.750000  0.986358  1
  F  F19  1  0.561503  0.750000  0.513642  1
  F  F20  1  0.623427  0.005080  0.341542  1
  F  F21  1  0.123427  0.494920  0.158458  1
  F  F22  1  0.376573  0.505080  0.658458  1
  F  F23  1  0.876573  0.994920  0.841542  1
  F  F24  1  0.376573  0.994920  0.658458  1
  F  F25  1  0.876573  0.505080  0.841542  1
  F  F26  1  0.623427  0.494920  0.341542  1
  F  F27  1  0.123427  0.005080  0.158458  1
  F  F28  1  0.709742  0.055591  0.588539  1
  F  F29  1  0.209742  0.444409  0.911461  1
  F  F30  1  0.290258  0.555591  0.411461  1
  F  F31  1  0.790258  0.944409  0.088539  1
  F  F32  1  0.290258  0.944409  0.411461  1
  F  F33  1  0.790258  0.555591  0.088539  1
  F  F34  1  0.709742  0.444409  0.588539  1
  F  F35  1  0.209742  0.055591  0.911461  1
