# generated using pymatgen
data_Sc2Nb3Re19Tc5
_symmetry_space_group_name_H-M   'P 1'
_cell_length_a   8.42683734
_cell_length_b   8.43242579
_cell_length_c   8.42546464
_cell_angle_alpha   109.51334281
_cell_angle_beta   109.47375901
_cell_angle_gamma   109.44349993
_symmetry_Int_Tables_number   1
_chemical_formula_structural   Sc2Nb3Re19Tc5
_chemical_formula_sum   'Sc2 Nb3 Re19 Tc5'
_cell_volume   460.78481622
_cell_formula_units_Z   1
loop_
 _symmetry_equiv_pos_site_id
 _symmetry_equiv_pos_as_xyz
  1  'x, y, z'
loop_
 _atom_site_type_symbol
 _atom_site_label
 _atom_site_symmetry_multiplicity
 _atom_site_fract_x
 _atom_site_fract_y
 _atom_site_fract_z
 _atom_site_occupancy
  Sc  Sc0  1  0.998039  0.999751  0.628624  1
  Sc  Sc1  1  0.000048  0.999484  0.997247  1
  Nb  Nb2  1  0.368890  0.369458  0.369239  1
  Nb  Nb3  1  0.000998  0.630628  0.999572  1
  Nb  Nb4  1  0.631437  0.000074  0.001131  1
  Re  Re5  1  0.000578  0.676425  0.396833  1
  Re  Re6  1  0.601033  0.602186  0.281318  1
  Re  Re7  1  0.805870  0.806161  0.182201  1
  Re  Re8  1  0.375970  0.193004  0.000439  1
  Re  Re9  1  0.193281  0.375098  0.000278  1
  Re  Re10  1  0.622369  0.815702  0.623503  1
  Re  Re11  1  0.377935  0.000694  0.197154  1
  Re  Re12  1  0.000210  0.375627  0.197621  1
  Re  Re13  1  0.817381  0.623543  0.623121  1
  Re  Re14  1  0.182912  0.806228  0.806063  1
  Re  Re15  1  0.805228  0.181392  0.806963  1
  Re  Re16  1  0.195172  0.000986  0.376377  1
  Re  Re17  1  0.000100  0.194190  0.378101  1
  Re  Re18  1  0.624429  0.624602  0.820701  1
  Re  Re19  1  0.398119  0.000380  0.680194  1
  Re  Re20  1  0.602027  0.281855  0.599981  1
  Re  Re21  1  0.681557  0.399624  0.999613  1
  Re  Re22  1  0.397590  0.679422  0.998253  1
  Re  Re23  1  0.324174  0.325560  0.721635  1
  Tc  Tc24  1  0.998941  0.397530  0.681526  1
  Tc  Tc25  1  0.282113  0.601568  0.599694  1
  Tc  Tc26  1  0.718254  0.319769  0.317763  1
  Tc  Tc27  1  0.317725  0.717511  0.317348  1
  Tc  Tc28  1  0.677621  0.001549  0.397505  1
