# generated using pymatgen
data_Sr3Al2(SbAs)2
_symmetry_space_group_name_H-M   'P 1'
_cell_length_a   8.94441556
_cell_length_b   8.94441616
_cell_length_c   7.04227818
_cell_angle_alpha   89.26638738
_cell_angle_beta   89.26638787
_cell_angle_gamma   75.24687552
_symmetry_Int_Tables_number   1
_chemical_formula_structural   Sr3Al2(SbAs)2
_chemical_formula_sum   'Sr6 Al4 Sb4 As4'
_cell_volume   544.75504433
_cell_formula_units_Z   2
loop_
 _symmetry_equiv_pos_site_id
 _symmetry_equiv_pos_as_xyz
  1  'x, y, z'
loop_
 _atom_site_type_symbol
 _atom_site_label
 _atom_site_symmetry_multiplicity
 _atom_site_fract_x
 _atom_site_fract_y
 _atom_site_fract_z
 _atom_site_occupancy
  Sr  Sr0  1  0.004830  0.737086  0.531207  1
  Sr  Sr1  1  0.262914  0.995170  0.968793  1
  Sr  Sr2  1  0.995170  0.262914  0.468793  1
  Sr  Sr3  1  0.737086  0.004830  0.031207  1
  Sr  Sr4  1  0.411690  0.588310  0.250000  1
  Sr  Sr5  1  0.588310  0.411690  0.750000  1
  Al  Al6  1  0.815142  0.588822  0.088682  1
  Al  Al7  1  0.411178  0.184858  0.411318  1
  Al  Al8  1  0.184858  0.411178  0.911318  1
  Al  Al9  1  0.588822  0.815142  0.588682  1
  Sb  Sb10  1  0.063006  0.710920  0.025211  1
  Sb  Sb11  1  0.289080  0.936994  0.474789  1
  Sb  Sb12  1  0.936994  0.289080  0.974789  1
  Sb  Sb13  1  0.710920  0.063006  0.525211  1
  As  As14  1  0.739185  0.573733  0.429713  1
  As  As15  1  0.426267  0.260815  0.070287  1
  As  As16  1  0.260815  0.426267  0.570287  1
  As  As17  1  0.573733  0.739185  0.929713  1
