# generated using pymatgen
data_Yb5Y(Si3Os)8
_symmetry_space_group_name_H-M   'P 1'
_cell_length_a   10.17668312
_cell_length_b   10.17668251
_cell_length_c   8.17975959
_cell_angle_alpha   90.00708114
_cell_angle_beta   90.00707625
_cell_angle_gamma   132.60137072
_symmetry_Int_Tables_number   1
_chemical_formula_structural   Yb5Y(Si3Os)8
_chemical_formula_sum   'Yb5 Y1 Si24 Os8'
_cell_volume   623.56042048
_cell_formula_units_Z   1
loop_
 _symmetry_equiv_pos_site_id
 _symmetry_equiv_pos_as_xyz
  1  'x, y, z'
loop_
 _atom_site_type_symbol
 _atom_site_label
 _atom_site_symmetry_multiplicity
 _atom_site_fract_x
 _atom_site_fract_y
 _atom_site_fract_z
 _atom_site_occupancy
  Yb  Yb0  1  0.000000  0.000000  0.000000  1
  Yb  Yb1  1  0.000680  0.500485  0.249893  1
  Yb  Yb2  1  0.499515  0.999320  0.750107  1
  Yb  Yb3  1  0.999320  0.499515  0.750107  1
  Yb  Yb4  1  0.500485  0.000680  0.249893  1
  Y  Y5  1  0.500000  0.500000  0.500000  1
  Si  Si6  1  0.293945  0.706055  0.000000  1
  Si  Si7  1  0.793860  0.206140  0.500000  1
  Si  Si8  1  0.706055  0.293945  0.000000  1
  Si  Si9  1  0.206140  0.793860  0.500000  1
  Si  Si10  1  0.835260  0.835260  0.330472  1
  Si  Si11  1  0.164740  0.164740  0.669528  1
  Si  Si12  1  0.667725  0.667725  0.833356  1
  Si  Si13  1  0.332275  0.332275  0.166644  1
  Si  Si14  1  0.624767  0.389500  0.228355  1
  Si  Si15  1  0.610500  0.375233  0.771645  1
  Si  Si16  1  0.109444  0.875218  0.729869  1
  Si  Si17  1  0.124782  0.890556  0.270131  1
  Si  Si18  1  0.375233  0.610500  0.771645  1
  Si  Si19  1  0.389500  0.624767  0.228355  1
  Si  Si20  1  0.890556  0.124782  0.270131  1
  Si  Si21  1  0.875218  0.109444  0.729869  1
  Si  Si22  1  0.847356  0.613024  0.007546  1
  Si  Si23  1  0.386976  0.152644  0.992454  1
  Si  Si24  1  0.890575  0.654325  0.506547  1
  Si  Si25  1  0.345675  0.109425  0.493453  1
  Si  Si26  1  0.152644  0.386976  0.992454  1
  Si  Si27  1  0.613024  0.847356  0.007546  1
  Si  Si28  1  0.109425  0.345675  0.493453  1
  Si  Si29  1  0.654325  0.890575  0.506547  1
  Os  Os30  1  0.169425  0.830575  0.000000  1
  Os  Os31  1  0.668875  0.331125  0.500000  1
  Os  Os32  1  0.830575  0.169425  0.000000  1
  Os  Os33  1  0.331125  0.668875  0.500000  1
  Os  Os34  1  0.625891  0.625891  0.127022  1
  Os  Os35  1  0.374109  0.374109  0.872978  1
  Os  Os36  1  0.870987  0.870987  0.623410  1
  Os  Os37  1  0.129013  0.129013  0.376590  1
