# generated using pymatgen
data_Be8Cu4IrRh3
_symmetry_space_group_name_H-M   'P 1'
_cell_length_a   5.37866700
_cell_length_b   5.37985800
_cell_length_c   5.69345900
_cell_angle_alpha   90.00000000
_cell_angle_beta   89.99904884
_cell_angle_gamma   90.00000000
_symmetry_Int_Tables_number   1
_chemical_formula_structural   Be8Cu4IrRh3
_chemical_formula_sum   'Be8 Cu4 Ir1 Rh3'
_cell_volume   164.74857530
_cell_formula_units_Z   1
loop_
 _symmetry_equiv_pos_site_id
 _symmetry_equiv_pos_as_xyz
  1  'x, y, z'
loop_
 _atom_site_type_symbol
 _atom_site_label
 _atom_site_symmetry_multiplicity
 _atom_site_fract_x
 _atom_site_fract_y
 _atom_site_fract_z
 _atom_site_occupancy
  Be  Be0  1  0.999966  0.000141  0.247616  1
  Be  Be1  1  0.999966  0.499859  0.247616  1
  Be  Be2  1  0.499805  0.500003  0.251477  1
  Be  Be3  1  0.499805  0.999999  0.251477  1
  Be  Be4  1  0.500022  0.000209  0.748528  1
  Be  Be5  1  0.500022  0.499789  0.748528  1
  Be  Be6  1  0.000204  0.500050  0.752381  1
  Be  Be7  1  0.000204  0.999951  0.752381  1
  Cu  Cu8  1  0.749630  0.250000  0.999995  1
  Cu  Cu9  1  0.250425  0.750000  0.000003  1
  Cu  Cu10  1  0.750448  0.250000  0.499996  1
  Cu  Cu11  1  0.249548  0.750000  0.500004  1
  Ir  Ir12  1  0.251237  0.250000  0.999990  1
  Rh  Rh13  1  0.748640  0.750000  0.000012  1
  Rh  Rh14  1  0.248756  0.250000  0.499998  1
  Rh  Rh15  1  0.751326  0.750000  0.500000  1
