# generated using pymatgen
data_KSrZr2F11
_symmetry_space_group_name_H-M   'P 1'
_cell_length_a   6.26184295
_cell_length_b   6.26184335
_cell_length_c   8.08942616
_cell_angle_alpha   70.24134282
_cell_angle_beta   70.24134314
_cell_angle_gamma   73.95135387
_symmetry_Int_Tables_number   1
_chemical_formula_structural   KSrZr2F11
_chemical_formula_sum   'K1 Sr1 Zr2 F11'
_cell_volume   276.19276776
_cell_formula_units_Z   1
loop_
 _symmetry_equiv_pos_site_id
 _symmetry_equiv_pos_as_xyz
  1  'x, y, z'
loop_
 _atom_site_type_symbol
 _atom_site_label
 _atom_site_symmetry_multiplicity
 _atom_site_fract_x
 _atom_site_fract_y
 _atom_site_fract_z
 _atom_site_occupancy
  K  K0  1  0.000000  0.000000  0.000000  1
  Sr  Sr1  1  0.000000  0.000000  0.500000  1
  Zr  Zr2  1  0.505037  0.505037  0.767494  1
  Zr  Zr3  1  0.494963  0.494963  0.232506  1
  F  F4  1  0.217255  0.751743  0.301423  1
  F  F5  1  0.248257  0.782745  0.698577  1
  F  F6  1  0.782745  0.248257  0.698577  1
  F  F7  1  0.751743  0.217255  0.301423  1
  F  F8  1  0.500000  0.500000  0.500000  1
  F  F9  1  0.653291  0.346709  0.000000  1
  F  F10  1  0.346709  0.653291  0.000000  1
  F  F11  1  0.730876  0.730876  0.659618  1
  F  F12  1  0.269124  0.269124  0.340382  1
  F  F13  1  0.714288  0.714288  0.117376  1
  F  F14  1  0.285712  0.285712  0.882624  1
