# generated using pymatgen
data_Dy4HfPd13Pt2
_symmetry_space_group_name_H-M   'P 1'
_cell_length_a   4.09845300
_cell_length_b   4.09521700
_cell_length_c   20.47237400
_cell_angle_alpha   90.00000000
_cell_angle_beta   90.00000000
_cell_angle_gamma   90.00000000
_symmetry_Int_Tables_number   1
_chemical_formula_structural   Dy4HfPd13Pt2
_chemical_formula_sum   'Dy4 Hf1 Pd13 Pt2'
_cell_volume   343.60943890
_cell_formula_units_Z   1
loop_
 _symmetry_equiv_pos_site_id
 _symmetry_equiv_pos_as_xyz
  1  'x, y, z'
loop_
 _atom_site_type_symbol
 _atom_site_label
 _atom_site_symmetry_multiplicity
 _atom_site_fract_x
 _atom_site_fract_y
 _atom_site_fract_z
 _atom_site_occupancy
  Dy  Dy0  1  0.000000  0.000000  0.198228  1
  Dy  Dy1  1  0.000000  0.000000  0.398635  1
  Dy  Dy2  1  0.000000  0.000000  0.601338  1
  Dy  Dy3  1  0.000000  0.000000  0.801716  1
  Hf  Hf4  1  0.000000  0.000000  0.000622  1
  Pd  Pd5  1  0.500000  0.500000  0.196660  1
  Pd  Pd6  1  0.500000  0.500000  0.399244  1
  Pd  Pd7  1  0.500000  0.500000  0.600822  1
  Pd  Pd8  1  0.500000  0.500000  0.803236  1
  Pd  Pd9  1  0.500000  0.000000  0.297954  1
  Pd  Pd10  1  0.500000  0.000000  0.500018  1
  Pd  Pd11  1  0.500000  0.000000  0.702040  1
  Pd  Pd12  1  0.500000  0.000000  0.905249  1
  Pd  Pd13  1  0.000000  0.500000  0.094988  1
  Pd  Pd14  1  0.000000  0.500000  0.298094  1
  Pd  Pd15  1  0.000000  0.500000  0.500056  1
  Pd  Pd16  1  0.000000  0.500000  0.701991  1
  Pd  Pd17  1  0.000000  0.500000  0.905024  1
  Pt  Pt18  1  0.500000  0.500000  0.999742  1
  Pt  Pt19  1  0.500000  0.000000  0.094340  1
