# generated using pymatgen
data_Sm3LuSe3O4
_symmetry_space_group_name_H-M   'P 1'
_cell_length_a   6.66633366
_cell_length_b   6.66633352
_cell_length_c   8.34542400
_cell_angle_alpha   90.00000000
_cell_angle_beta   90.00000000
_cell_angle_gamma   145.82423949
_symmetry_Int_Tables_number   1
_chemical_formula_structural   Sm3LuSe3O4
_chemical_formula_sum   'Sm3 Lu1 Se3 O4'
_cell_volume   208.33045231
_cell_formula_units_Z   1
loop_
 _symmetry_equiv_pos_site_id
 _symmetry_equiv_pos_as_xyz
  1  'x, y, z'
loop_
 _atom_site_type_symbol
 _atom_site_label
 _atom_site_symmetry_multiplicity
 _atom_site_fract_x
 _atom_site_fract_y
 _atom_site_fract_z
 _atom_site_occupancy
  Sm  Sm0  1  0.318164  0.681836  0.240915  1
  Sm  Sm1  1  0.318164  0.681836  0.759085  1
  Sm  Sm2  1  0.999880  0.000120  0.000000  1
  Lu  Lu3  1  0.977708  0.022292  0.500000  1
  Se  Se4  1  0.687158  0.312842  0.000000  1
  Se  Se5  1  0.641555  0.358445  0.650534  1
  Se  Se6  1  0.641555  0.358445  0.349466  1
  O  O7  1  0.391813  0.608187  0.500000  1
  O  O8  1  0.914982  0.085018  0.747130  1
  O  O9  1  0.411471  0.588529  0.000000  1
  O  O10  1  0.914982  0.085018  0.252870  1
