# generated using pymatgen
data_Ho10Cd3Tc
_symmetry_space_group_name_H-M   'P 1'
_cell_length_a   9.49749100
_cell_length_b   9.49749084
_cell_length_c   9.92726800
_cell_angle_alpha   90.00000000
_cell_angle_beta   90.00000000
_cell_angle_gamma   120.00000405
_symmetry_Int_Tables_number   1
_chemical_formula_structural   Ho10Cd3Tc
_chemical_formula_sum   'Ho20 Cd6 Tc2'
_cell_volume   775.49345036
_cell_formula_units_Z   2
loop_
 _symmetry_equiv_pos_site_id
 _symmetry_equiv_pos_as_xyz
  1  'x, y, z'
loop_
 _atom_site_type_symbol
 _atom_site_label
 _atom_site_symmetry_multiplicity
 _atom_site_fract_x
 _atom_site_fract_y
 _atom_site_fract_z
 _atom_site_occupancy
  Ho  Ho0  1  0.000000  0.000000  0.500000  1
  Ho  Ho1  1  0.000000  0.000000  0.000000  1
  Ho  Ho2  1  0.209964  0.790036  0.441155  1
  Ho  Ho3  1  0.209964  0.419929  0.441155  1
  Ho  Ho4  1  0.580071  0.790036  0.441155  1
  Ho  Ho5  1  0.790036  0.209964  0.558845  1
  Ho  Ho6  1  0.790036  0.580071  0.558845  1
  Ho  Ho7  1  0.419929  0.209964  0.558845  1
  Ho  Ho8  1  0.790036  0.209964  0.941155  1
  Ho  Ho9  1  0.790036  0.580071  0.941155  1
  Ho  Ho10  1  0.419929  0.209964  0.941155  1
  Ho  Ho11  1  0.209964  0.790036  0.058845  1
  Ho  Ho12  1  0.209964  0.419929  0.058845  1
  Ho  Ho13  1  0.580071  0.790036  0.058845  1
  Ho  Ho14  1  0.539830  0.460170  0.250000  1
  Ho  Ho15  1  0.539830  0.079658  0.250000  1
  Ho  Ho16  1  0.920342  0.460170  0.250000  1
  Ho  Ho17  1  0.460170  0.539830  0.750000  1
  Ho  Ho18  1  0.460170  0.920342  0.750000  1
  Ho  Ho19  1  0.079658  0.539830  0.750000  1
  Cd  Cd20  1  0.885655  0.114345  0.250000  1
  Cd  Cd21  1  0.885655  0.771313  0.250000  1
  Cd  Cd22  1  0.228687  0.114345  0.250000  1
  Cd  Cd23  1  0.114345  0.885655  0.750000  1
  Cd  Cd24  1  0.114345  0.228687  0.750000  1
  Cd  Cd25  1  0.771313  0.885655  0.750000  1
  Tc  Tc26  1  0.333333  0.666667  0.250000  1
  Tc  Tc27  1  0.666667  0.333333  0.750000  1
