# generated using pymatgen
data_BeMo4P
_symmetry_space_group_name_H-M   'P 1'
_cell_length_a   4.77465181
_cell_length_b   4.77465164
_cell_length_c   4.77465112
_cell_angle_alpha   104.81789942
_cell_angle_beta   104.81790492
_cell_angle_gamma   119.24230915
_symmetry_Int_Tables_number   1
_chemical_formula_structural   BeMo4P
_chemical_formula_sum   'Be1 Mo4 P1'
_cell_volume   81.93721825
_cell_formula_units_Z   1
loop_
 _symmetry_equiv_pos_site_id
 _symmetry_equiv_pos_as_xyz
  1  'x, y, z'
loop_
 _atom_site_type_symbol
 _atom_site_label
 _atom_site_symmetry_multiplicity
 _atom_site_fract_x
 _atom_site_fract_y
 _atom_site_fract_z
 _atom_site_occupancy
  Be  Be0  1  0.750000  0.750000  0.000000  1
  Mo  Mo1  1  0.162089  0.662089  0.824176  1
  Mo  Mo2  1  0.337911  0.162089  0.500000  1
  Mo  Mo3  1  0.662089  0.837911  0.500000  1
  Mo  Mo4  1  0.837911  0.337911  0.175824  1
  P  P5  1  0.250000  0.250000  0.000000  1
