# generated using pymatgen
data_K4YUTe6
_symmetry_space_group_name_H-M   'P 1'
_cell_length_a   8.06548034
_cell_length_b   8.06548021
_cell_length_c   8.63959029
_cell_angle_alpha   80.90927940
_cell_angle_beta   80.90928082
_cell_angle_gamma   120.06300700
_symmetry_Int_Tables_number   1
_chemical_formula_structural   K4YUTe6
_chemical_formula_sum   'K4 Y1 U1 Te6'
_cell_volume   461.44374938
_cell_formula_units_Z   1
loop_
 _symmetry_equiv_pos_site_id
 _symmetry_equiv_pos_as_xyz
  1  'x, y, z'
loop_
 _atom_site_type_symbol
 _atom_site_label
 _atom_site_symmetry_multiplicity
 _atom_site_fract_x
 _atom_site_fract_y
 _atom_site_fract_z
 _atom_site_occupancy
  K  K0  1  0.345565  0.654435  0.500000  1
  K  K1  1  0.654344  0.345656  0.500000  1
  K  K2  1  0.000063  0.999937  0.500000  1
  K  K3  1  0.499959  0.500041  0.000000  1
  Y  Y4  1  0.167986  0.832014  0.000000  1
  U  U5  1  0.831923  0.168077  0.000000  1
  Te  Te6  1  0.793896  0.803461  0.208825  1
  Te  Te7  1  0.437463  0.061766  0.212819  1
  Te  Te8  1  0.051635  0.417605  0.212284  1
  Te  Te9  1  0.582395  0.948365  0.787716  1
  Te  Te10  1  0.938234  0.562537  0.787181  1
  Te  Te11  1  0.196539  0.206104  0.791175  1
