# generated using pymatgen
data_KSmPPt8
_symmetry_space_group_name_H-M   'P 1'
_cell_length_a   9.26405909
_cell_length_b   9.31346296
_cell_length_c   4.27627000
_cell_angle_alpha   90.00000000
_cell_angle_beta   90.00000000
_cell_angle_gamma   145.69536846
_symmetry_Int_Tables_number   1
_chemical_formula_structural   KSmPPt8
_chemical_formula_sum   'K1 Sm1 P1 Pt8'
_cell_volume   207.94241431
_cell_formula_units_Z   1
loop_
 _symmetry_equiv_pos_site_id
 _symmetry_equiv_pos_as_xyz
  1  'x, y, z'
loop_
 _atom_site_type_symbol
 _atom_site_label
 _atom_site_symmetry_multiplicity
 _atom_site_fract_x
 _atom_site_fract_y
 _atom_site_fract_z
 _atom_site_occupancy
  K  K0  1  0.613732  0.377163  0.500000  1
  Sm  Sm1  1  0.371402  0.625492  0.500000  1
  P  P2  1  0.220784  0.214479  0.000000  1
  Pt  Pt3  1  0.108472  0.886088  0.000000  1
  Pt  Pt4  1  0.895784  0.111164  0.000000  1
  Pt  Pt5  1  0.493998  0.980889  0.000000  1
  Pt  Pt6  1  0.997489  0.489837  0.000000  1
  Pt  Pt7  1  0.195852  0.789728  0.500000  1
  Pt  Pt8  1  0.794906  0.193531  0.500000  1
  Pt  Pt9  1  0.010183  0.012471  0.500000  1
  Pt  Pt10  1  0.611000  0.632759  0.000000  1
