# generated using pymatgen
data_Tb3Ho5Re(TcB8)3
_symmetry_space_group_name_H-M   'P 1'
_cell_length_a   3.68438000
_cell_length_b   9.15800694
_cell_length_c   11.54683702
_cell_angle_alpha   90.02238799
_cell_angle_beta   90.00000000
_cell_angle_gamma   90.00000000
_symmetry_Int_Tables_number   1
_chemical_formula_structural   Tb3Ho5Re(TcB8)3
_chemical_formula_sum   'Tb3 Ho5 Re1 Tc3 B24'
_cell_volume   389.60846801
_cell_formula_units_Z   1
loop_
 _symmetry_equiv_pos_site_id
 _symmetry_equiv_pos_as_xyz
  1  'x, y, z'
loop_
 _atom_site_type_symbol
 _atom_site_label
 _atom_site_symmetry_multiplicity
 _atom_site_fract_x
 _atom_site_fract_y
 _atom_site_fract_z
 _atom_site_occupancy
  Tb  Tb0  1  0.000000  0.323865  0.414111  1
  Tb  Tb1  1  0.000000  0.676382  0.585939  1
  Tb  Tb2  1  0.000000  0.823760  0.085938  1
  Ho  Ho3  1  0.000000  0.176355  0.914264  1
  Ho  Ho4  1  0.000000  0.942719  0.368954  1
  Ho  Ho5  1  0.000000  0.057965  0.630141  1
  Ho  Ho6  1  0.000000  0.442515  0.130751  1
  Ho  Ho7  1  0.000000  0.556189  0.869669  1
  Re  Re8  1  0.000000  0.861699  0.820549  1
  Tc  Tc9  1  0.000000  0.638960  0.320245  1
  Tc  Tc10  1  0.000000  0.360824  0.680003  1
  Tc  Tc11  1  0.000000  0.138946  0.179414  1
  B  B12  1  0.500000  0.553653  0.432530  1
  B  B13  1  0.500000  0.446423  0.567661  1
  B  B14  1  0.500000  0.053826  0.067079  1
  B  B15  1  0.500000  0.947125  0.932779  1
  B  B16  1  0.500000  0.749264  0.418029  1
  B  B17  1  0.500000  0.251004  0.582104  1
  B  B18  1  0.500000  0.249076  0.081278  1
  B  B19  1  0.500000  0.750642  0.918171  1
  B  B20  1  0.500000  0.791764  0.265296  1
  B  B21  1  0.500000  0.207929  0.735026  1
  B  B22  1  0.500000  0.291696  0.234473  1
  B  B23  1  0.500000  0.707990  0.765508  1
  B  B24  1  0.500000  0.630376  0.185584  1
  B  B25  1  0.500000  0.368882  0.814820  1
  B  B26  1  0.500000  0.130537  0.314282  1
  B  B27  1  0.500000  0.869925  0.685604  1
  B  B28  1  0.500000  0.982604  0.211747  1
  B  B29  1  0.500000  0.018480  0.788166  1
  B  B30  1  0.500000  0.482372  0.287989  1
  B  B31  1  0.500000  0.517306  0.712248  1
  B  B32  1  0.500000  0.598987  0.027740  1
  B  B33  1  0.500000  0.399652  0.972270  1
  B  B34  1  0.500000  0.099215  0.472079  1
  B  B35  1  0.500000  0.901094  0.527559  1
