# generated using pymatgen
data_RbNd2(CoH6)2
_symmetry_space_group_name_H-M   'P 1'
_cell_length_a   4.99237600
_cell_length_b   4.99237735
_cell_length_c   9.01525900
_cell_angle_alpha   90.00000000
_cell_angle_beta   90.00000000
_cell_angle_gamma   119.99999106
_symmetry_Int_Tables_number   1
_chemical_formula_structural   RbNd2(CoH6)2
_chemical_formula_sum   'Rb1 Nd2 Co2 H12'
_cell_volume   194.59136738
_cell_formula_units_Z   1
loop_
 _symmetry_equiv_pos_site_id
 _symmetry_equiv_pos_as_xyz
  1  'x, y, z'
loop_
 _atom_site_type_symbol
 _atom_site_label
 _atom_site_symmetry_multiplicity
 _atom_site_fract_x
 _atom_site_fract_y
 _atom_site_fract_z
 _atom_site_occupancy
  Rb  Rb0  1  0.000000  0.000000  0.000000  1
  Nd  Nd1  1  0.666667  0.333333  0.365561  1
  Nd  Nd2  1  0.333333  0.666667  0.634439  1
  Co  Co3  1  0.666667  0.333333  0.710267  1
  Co  Co4  1  0.333333  0.666667  0.289733  1
  H  H5  1  0.181996  0.818004  0.387841  1
  H  H6  1  0.636007  0.818004  0.387841  1
  H  H7  1  0.181996  0.363993  0.387841  1
  H  H8  1  0.818004  0.181996  0.612159  1
  H  H9  1  0.363993  0.181996  0.612159  1
  H  H10  1  0.818004  0.636007  0.612159  1
  H  H11  1  0.526773  0.053546  0.817973  1
  H  H12  1  0.526773  0.473227  0.817973  1
  H  H13  1  0.946454  0.473227  0.817973  1
  H  H14  1  0.473227  0.946454  0.182027  1
  H  H15  1  0.473227  0.526773  0.182027  1
  H  H16  1  0.053546  0.526773  0.182027  1
