# generated using pymatgen
data_Pr2Nd8C4I15
_symmetry_space_group_name_H-M   'P 1'
_cell_length_a   9.82675571
_cell_length_b   10.65989324
_cell_length_c   11.83006147
_cell_angle_alpha   93.71400127
_cell_angle_beta   114.31420519
_cell_angle_gamma   109.40392230
_symmetry_Int_Tables_number   1
_chemical_formula_structural   Pr2Nd8C4I15
_chemical_formula_sum   'Pr2 Nd8 C4 I15'
_cell_volume   1035.45981686
_cell_formula_units_Z   1
loop_
 _symmetry_equiv_pos_site_id
 _symmetry_equiv_pos_as_xyz
  1  'x, y, z'
loop_
 _atom_site_type_symbol
 _atom_site_label
 _atom_site_symmetry_multiplicity
 _atom_site_fract_x
 _atom_site_fract_y
 _atom_site_fract_z
 _atom_site_occupancy
  Pr  Pr0  1  0.294214  0.431773  0.954946  1
  Pr  Pr1  1  0.657756  0.254865  0.836210  1
  Nd  Nd2  1  0.595873  0.541096  0.340722  1
  Nd  Nd3  1  0.345082  0.744316  0.163084  1
  Nd  Nd4  1  0.774802  0.882268  0.256345  1
  Nd  Nd5  1  0.528623  0.185264  0.101524  1
  Nd  Nd6  1  0.225613  0.117591  0.745060  1
  Nd  Nd7  1  0.404311  0.459142  0.658984  1
  Nd  Nd8  1  0.472862  0.815871  0.898961  1
  Nd  Nd9  1  0.701591  0.567339  0.043974  1
  C  C10  1  0.483386  0.301716  0.938780  1
  C  C11  1  0.517895  0.699421  0.061492  1
  C  C12  1  0.454169  0.364008  0.835340  1
  C  C13  1  0.546478  0.636517  0.164694  1
  I  I14  1  0.208574  0.905875  0.938070  1
  I  I15  1  0.106211  0.188741  0.471544  1
  I  I16  1  0.154848  0.557853  0.701835  1
  I  I17  1  0.404024  0.968474  0.649096  1
  I  I18  1  0.712946  0.735221  0.822354  1
  I  I19  1  0.288571  0.263857  0.179835  1
  I  I20  1  0.845915  0.444411  0.295736  1
  I  I21  1  0.893538  0.810552  0.530002  1
  I  I22  1  0.359506  0.630529  0.411114  1
  I  I23  1  0.047845  0.831677  0.218327  1
  I  I24  1  0.793597  0.094381  0.064634  1
  I  I25  1  0.640776  0.371216  0.587196  1
  I  I26  1  0.947797  0.164156  0.779422  1
  I  I27  1  0.593117  0.029727  0.349728  1
  I  I28  1  0.000077  0.502141  0.000992  1
