# generated using pymatgen
data_SmYFe14(SiC)3
_symmetry_space_group_name_H-M   'P 1'
_cell_length_a   6.45402181
_cell_length_b   6.45402222
_cell_length_c   6.45402259
_cell_angle_alpha   83.73611679
_cell_angle_beta   83.73611611
_cell_angle_gamma   83.73611864
_symmetry_Int_Tables_number   1
_chemical_formula_structural   SmYFe14(SiC)3
_chemical_formula_sum   'Sm1 Y1 Fe14 Si3 C3'
_cell_volume   264.34957112
_cell_formula_units_Z   1
loop_
 _symmetry_equiv_pos_site_id
 _symmetry_equiv_pos_as_xyz
  1  'x, y, z'
loop_
 _atom_site_type_symbol
 _atom_site_label
 _atom_site_symmetry_multiplicity
 _atom_site_fract_x
 _atom_site_fract_y
 _atom_site_fract_z
 _atom_site_occupancy
  Sm  Sm0  1  0.349213  0.349213  0.349213  1
  Y  Y1  1  0.651893  0.651893  0.651893  1
  Fe  Fe2  1  0.715428  0.285013  0.999359  1
  Fe  Fe3  1  0.999359  0.715428  0.285013  1
  Fe  Fe4  1  0.285013  0.999359  0.715428  1
  Fe  Fe5  1  0.999359  0.285013  0.715428  1
  Fe  Fe6  1  0.715428  0.999359  0.285013  1
  Fe  Fe7  1  0.285013  0.715428  0.999359  1
  Fe  Fe8  1  0.339567  0.339567  0.864140  1
  Fe  Fe9  1  0.864140  0.339567  0.339567  1
  Fe  Fe10  1  0.339567  0.864140  0.339567  1
  Fe  Fe11  1  0.661035  0.661035  0.134843  1
  Fe  Fe12  1  0.134843  0.661035  0.661035  1
  Fe  Fe13  1  0.661035  0.134843  0.661035  1
  Fe  Fe14  1  0.902982  0.902982  0.902982  1
  Fe  Fe15  1  0.096461  0.096461  0.096461  1
  Si  Si16  1  0.000021  0.000021  0.500148  1
  Si  Si17  1  0.500148  0.000021  0.000021  1
  Si  Si18  1  0.000021  0.500148  0.000021  1
  C  C19  1  0.501363  0.501363  0.996748  1
  C  C20  1  0.996748  0.501363  0.501363  1
  C  C21  1  0.501363  0.996748  0.501363  1
