# generated using pymatgen
data_Dy3In2(SnIr)2
_symmetry_space_group_name_H-M   'P 1'
_cell_length_a   7.75824210
_cell_length_b   7.77873940
_cell_length_c   3.93303000
_cell_angle_alpha   90.00000000
_cell_angle_beta   90.00000000
_cell_angle_gamma   119.99697822
_symmetry_Int_Tables_number   1
_chemical_formula_structural   Dy3In2(SnIr)2
_chemical_formula_sum   'Dy3 In2 Sn2 Ir2'
_cell_volume   205.56239262
_cell_formula_units_Z   1
loop_
 _symmetry_equiv_pos_site_id
 _symmetry_equiv_pos_as_xyz
  1  'x, y, z'
loop_
 _atom_site_type_symbol
 _atom_site_label
 _atom_site_symmetry_multiplicity
 _atom_site_fract_x
 _atom_site_fract_y
 _atom_site_fract_z
 _atom_site_occupancy
  Dy  Dy0  1  0.049768  0.302482  0.500000  1
  Dy  Dy1  1  0.695911  0.743117  0.500000  1
  Dy  Dy2  1  0.255508  0.955447  0.500000  1
  In  In3  1  0.409983  0.330727  0.000000  1
  In  In4  1  0.333363  0.666693  0.000000  1
  Sn  Sn5  1  0.667185  0.081432  0.000000  1
  Sn  Sn6  1  0.917489  0.588199  0.000000  1
  Ir  Ir7  1  0.673775  0.334230  0.500000  1
  Ir  Ir8  1  0.997017  0.997673  0.000000  1
