# generated using pymatgen
data_SiNi4Ge(Mo3C)2
_symmetry_space_group_name_H-M   'P 1'
_cell_length_a   7.88667015
_cell_length_b   7.88666968
_cell_length_c   7.89649800
_cell_angle_alpha   59.95877608
_cell_angle_beta   59.95877805
_cell_angle_gamma   59.92530583
_symmetry_Int_Tables_number   1
_chemical_formula_structural   SiNi4Ge(Mo3C)2
_chemical_formula_sum   'Si2 Ni8 Ge2 Mo12 C4'
_cell_volume   346.88899639
_cell_formula_units_Z   2
loop_
 _symmetry_equiv_pos_site_id
 _symmetry_equiv_pos_as_xyz
  1  'x, y, z'
loop_
 _atom_site_type_symbol
 _atom_site_label
 _atom_site_symmetry_multiplicity
 _atom_site_fract_x
 _atom_site_fract_y
 _atom_site_fract_z
 _atom_site_occupancy
  Si  Si0  1  0.125000  0.125000  0.125000  1
  Si  Si1  1  0.125000  0.125000  0.625000  1
  Ni  Ni2  1  0.920240  0.920240  0.247715  1
  Ni  Ni3  1  0.329760  0.329760  0.338195  1
  Ni  Ni4  1  0.245565  0.923333  0.915551  1
  Ni  Ni5  1  0.326667  0.004435  0.334449  1
  Ni  Ni6  1  0.004435  0.326667  0.334449  1
  Ni  Ni7  1  0.329760  0.329760  0.002285  1
  Ni  Ni8  1  0.920240  0.920240  0.911805  1
  Ni  Ni9  1  0.923333  0.245565  0.915551  1
  Ge  Ge10  1  0.625000  0.125000  0.125000  1
  Ge  Ge11  1  0.125000  0.625000  0.125000  1
  Mo  Mo12  1  0.692002  0.309709  0.310157  1
  Mo  Mo13  1  0.941392  0.941392  0.558608  1
  Mo  Mo14  1  0.688552  0.688552  0.311448  1
  Mo  Mo15  1  0.692002  0.309709  0.688132  1
  Mo  Mo16  1  0.309709  0.692002  0.310157  1
  Mo  Mo17  1  0.557998  0.940291  0.561868  1
  Mo  Mo18  1  0.557998  0.940291  0.939843  1
  Mo  Mo19  1  0.940291  0.557998  0.561868  1
  Mo  Mo20  1  0.940291  0.557998  0.939843  1
  Mo  Mo21  1  0.308608  0.308608  0.691392  1
  Mo  Mo22  1  0.561448  0.561448  0.938552  1
  Mo  Mo23  1  0.309709  0.692002  0.688132  1
  C  C24  1  0.625000  0.625000  0.625000  1
  C  C25  1  0.625000  0.625000  0.125000  1
  C  C26  1  0.125000  0.625000  0.625000  1
  C  C27  1  0.625000  0.125000  0.625000  1
