# generated using pymatgen
data_Rb7MnO6
_symmetry_space_group_name_H-M   'P 1'
_cell_length_a   12.43562500
_cell_length_b   7.05080800
_cell_length_c   14.34875500
_cell_angle_alpha   90.00000000
_cell_angle_beta   90.00000000
_cell_angle_gamma   90.00000000
_symmetry_Int_Tables_number   1
_chemical_formula_structural   Rb7MnO6
_chemical_formula_sum   'Rb28 Mn4 O24'
_cell_volume   1258.11611767
_cell_formula_units_Z   4
loop_
 _symmetry_equiv_pos_site_id
 _symmetry_equiv_pos_as_xyz
  1  'x, y, z'
loop_
 _atom_site_type_symbol
 _atom_site_label
 _atom_site_symmetry_multiplicity
 _atom_site_fract_x
 _atom_site_fract_y
 _atom_site_fract_z
 _atom_site_occupancy
  Rb  Rb0  1  0.033495  0.739475  0.980373  1
  Rb  Rb1  1  0.466505  0.760525  0.480373  1
  Rb  Rb2  1  0.533495  0.760525  0.019627  1
  Rb  Rb3  1  0.966505  0.739475  0.519627  1
  Rb  Rb4  1  0.966505  0.260525  0.019627  1
  Rb  Rb5  1  0.533495  0.239475  0.519627  1
  Rb  Rb6  1  0.466505  0.239475  0.980373  1
  Rb  Rb7  1  0.033495  0.260525  0.480373  1
  Rb  Rb8  1  0.236718  0.837216  0.619916  1
  Rb  Rb9  1  0.263282  0.662784  0.119916  1
  Rb  Rb10  1  0.736718  0.662784  0.380084  1
  Rb  Rb11  1  0.763282  0.837216  0.880084  1
  Rb  Rb12  1  0.763282  0.162784  0.380084  1
  Rb  Rb13  1  0.736718  0.337216  0.880084  1
  Rb  Rb14  1  0.263282  0.337216  0.619916  1
  Rb  Rb15  1  0.236718  0.162784  0.119916  1
  Rb  Rb16  1  0.286620  0.626354  0.876465  1
  Rb  Rb17  1  0.213380  0.873646  0.376465  1
  Rb  Rb18  1  0.786620  0.873646  0.123535  1
  Rb  Rb19  1  0.713380  0.626354  0.623535  1
  Rb  Rb20  1  0.713380  0.373646  0.123535  1
  Rb  Rb21  1  0.786620  0.126354  0.623535  1
  Rb  Rb22  1  0.213380  0.126354  0.876465  1
  Rb  Rb23  1  0.286620  0.373646  0.376465  1
  Rb  Rb24  1  0.000000  0.440017  0.750000  1
  Rb  Rb25  1  0.500000  0.059983  0.250000  1
  Rb  Rb26  1  0.000000  0.559983  0.250000  1
  Rb  Rb27  1  0.500000  0.940017  0.750000  1
  Mn  Mn28  1  0.000000  0.935151  0.750000  1
  Mn  Mn29  1  0.500000  0.564849  0.250000  1
  Mn  Mn30  1  0.000000  0.064849  0.250000  1
  Mn  Mn31  1  0.500000  0.435151  0.750000  1
  O  O32  1  0.104813  0.791068  0.785013  1
  O  O33  1  0.395187  0.708932  0.285013  1
  O  O34  1  0.604813  0.708932  0.214987  1
  O  O35  1  0.895187  0.791068  0.714987  1
  O  O36  1  0.895187  0.208932  0.214987  1
  O  O37  1  0.604813  0.291068  0.714987  1
  O  O38  1  0.395187  0.291068  0.785013  1
  O  O39  1  0.104813  0.208932  0.285013  1
  O  O40  1  0.164793  0.582516  0.496565  1
  O  O41  1  0.335207  0.917484  0.996565  1
  O  O42  1  0.664793  0.917484  0.503435  1
  O  O43  1  0.835207  0.582516  0.003435  1
  O  O44  1  0.835207  0.417484  0.503435  1
  O  O45  1  0.664793  0.082516  0.003435  1
  O  O46  1  0.335207  0.082516  0.496565  1
  O  O47  1  0.164793  0.417484  0.996565  1
  O  O48  1  0.456981  0.577700  0.659627  1
  O  O49  1  0.043019  0.922300  0.159627  1
  O  O50  1  0.956981  0.922300  0.340373  1
  O  O51  1  0.543019  0.577700  0.840373  1
  O  O52  1  0.543019  0.422300  0.340373  1
  O  O53  1  0.956981  0.077700  0.840373  1
  O  O54  1  0.043019  0.077700  0.659627  1
  O  O55  1  0.456981  0.422300  0.159627  1
