# generated using pymatgen
data_Tb6UFe22
_symmetry_space_group_name_H-M   'P 1'
_cell_length_a   8.51784100
_cell_length_b   8.51784141
_cell_length_c   8.51784100
_cell_angle_alpha   120.00000230
_cell_angle_beta   90.00000000
_cell_angle_gamma   120.00000230
_symmetry_Int_Tables_number   1
_chemical_formula_structural   Tb6UFe22
_chemical_formula_sum   'Tb6 U1 Fe22'
_cell_volume   436.99209369
_cell_formula_units_Z   1
loop_
 _symmetry_equiv_pos_site_id
 _symmetry_equiv_pos_as_xyz
  1  'x, y, z'
loop_
 _atom_site_type_symbol
 _atom_site_label
 _atom_site_symmetry_multiplicity
 _atom_site_fract_x
 _atom_site_fract_y
 _atom_site_fract_z
 _atom_site_occupancy
  Tb  Tb0  1  0.293382  0.000000  0.293382  1
  Tb  Tb1  1  0.293382  0.586764  0.293382  1
  Tb  Tb2  1  0.706619  0.000000  0.293383  1
  Tb  Tb3  1  0.706618  0.000000  0.706618  1
  Tb  Tb4  1  0.293383  0.000000  0.706619  1
  Tb  Tb5  1  0.706619  0.413236  0.706619  1
  U  U6  1  0.000000  0.000000  0.000000  1
  Fe  Fe7  1  0.500000  0.000000  0.000000  1
  Fe  Fe8  1  0.000000  0.500000  0.000000  1
  Fe  Fe9  1  0.500000  0.500000  0.000000  1
  Fe  Fe10  1  0.675577  0.351156  0.026733  1
  Fe  Fe11  1  0.368289  0.245526  0.122762  1
  Fe  Fe12  1  0.877236  0.245526  0.122762  1
  Fe  Fe13  1  0.877236  0.754472  0.122762  1
  Fe  Fe14  1  0.675577  0.351156  0.324423  1
  Fe  Fe15  1  0.675577  0.648844  0.324423  1
  Fe  Fe16  1  0.973267  0.648844  0.324423  1
  Fe  Fe17  1  0.122762  0.245526  0.368289  1
  Fe  Fe18  1  0.000000  0.000000  0.500000  1
  Fe  Fe19  1  0.000000  0.500000  0.500000  1
  Fe  Fe20  1  0.500000  0.500000  0.500000  1
  Fe  Fe21  1  0.877236  0.754472  0.631710  1
  Fe  Fe22  1  0.026733  0.351156  0.675577  1
  Fe  Fe23  1  0.324423  0.351156  0.675577  1
  Fe  Fe24  1  0.324423  0.648844  0.675577  1
  Fe  Fe25  1  0.122762  0.245526  0.877236  1
  Fe  Fe26  1  0.122762  0.754472  0.877236  1
  Fe  Fe27  1  0.631710  0.754472  0.877236  1
  Fe  Fe28  1  0.324423  0.648844  0.973267  1
