# generated using pymatgen
data_YEr3Al24Pd8Rh
_symmetry_space_group_name_H-M   'P 1'
_cell_length_a   7.52688834
_cell_length_b   7.55334117
_cell_length_c   13.17395686
_cell_angle_alpha   84.58843484
_cell_angle_beta   79.11517995
_cell_angle_gamma   59.92959374
_symmetry_Int_Tables_number   1
_chemical_formula_structural   YEr3Al24Pd8Rh
_chemical_formula_sum   'Y1 Er3 Al24 Pd8 Rh1'
_cell_volume   636.51439792
_cell_formula_units_Z   1
loop_
 _symmetry_equiv_pos_site_id
 _symmetry_equiv_pos_as_xyz
  1  'x, y, z'
loop_
 _atom_site_type_symbol
 _atom_site_label
 _atom_site_symmetry_multiplicity
 _atom_site_fract_x
 _atom_site_fract_y
 _atom_site_fract_z
 _atom_site_occupancy
  Y  Y0  1  0.393751  0.168142  0.809557  1
  Er  Er1  1  0.606304  0.831678  0.190839  1
  Er  Er2  1  0.733489  0.497911  0.809125  1
  Er  Er3  1  0.266436  0.502135  0.190889  1
  Al  Al4  1  0.687557  0.829828  0.945821  1
  Al  Al5  1  0.312814  0.169568  0.055061  1
  Al  Al6  1  0.146293  0.832525  0.561715  1
  Al  Al7  1  0.853795  0.167434  0.438183  1
  Al  Al8  1  0.479709  0.166707  0.559342  1
  Al  Al9  1  0.520349  0.833245  0.440391  1
  Al  Al10  1  0.217463  0.165234  0.327837  1
  Al  Al11  1  0.783023  0.834395  0.671701  1
  Al  Al12  1  0.436138  0.507492  0.671621  1
  Al  Al13  1  0.564048  0.492742  0.327893  1
  Al  Al14  1  0.108649  0.159971  0.670009  1
  Al  Al15  1  0.891180  0.840040  0.329512  1
  Al  Al16  1  0.349434  0.499970  0.946047  1
  Al  Al17  1  0.650288  0.500749  0.054461  1
  Al  Al18  1  0.014579  0.171885  0.955309  1
  Al  Al19  1  0.984644  0.828280  0.045273  1
  Al  Al20  1  0.186638  0.499623  0.440707  1
  Al  Al21  1  0.813373  0.500409  0.559214  1
  Al  Al22  1  0.733574  0.163556  0.183178  1
  Al  Al23  1  0.266496  0.835582  0.816755  1
  Al  Al24  1  0.060268  0.629215  0.817716  1
  Al  Al25  1  0.938921  0.371559  0.182256  1
  Al  Al26  1  0.855877  0.042571  0.816655  1
  Al  Al27  1  0.144976  0.957302  0.183299  1
  Pd  Pd28  1  0.119590  0.492776  0.638846  1
  Pd  Pd29  1  0.880227  0.507475  0.360990  1
  Pd  Pd30  1  0.657077  0.171395  0.999766  1
  Pd  Pd31  1  0.343068  0.828443  0.000254  1
  Pd  Pd32  1  0.537638  0.166824  0.361576  1
  Pd  Pd33  1  0.462384  0.832889  0.638236  1
  Pd  Pd34  1  0.778514  0.174901  0.637490  1
  Pd  Pd35  1  0.221773  0.825097  0.362370  1
  Rh  Rh36  1  0.999666  0.500451  0.000105  1
