# generated using pymatgen
data_Gd3YTm2FeI10
_symmetry_space_group_name_H-M   'P 1'
_cell_length_a   7.82550506
_cell_length_b   9.81125128
_cell_length_c   9.83486500
_cell_angle_alpha   107.06455056
_cell_angle_beta   97.00396007
_cell_angle_gamma   104.64195674
_symmetry_Int_Tables_number   1
_chemical_formula_structural   Gd3YTm2FeI10
_chemical_formula_sum   'Gd3 Y1 Tm2 Fe1 I10'
_cell_volume   682.53470868
_cell_formula_units_Z   1
loop_
 _symmetry_equiv_pos_site_id
 _symmetry_equiv_pos_as_xyz
  1  'x, y, z'
loop_
 _atom_site_type_symbol
 _atom_site_label
 _atom_site_symmetry_multiplicity
 _atom_site_fract_x
 _atom_site_fract_y
 _atom_site_fract_z
 _atom_site_occupancy
  Gd  Gd0  1  0.896805  0.959574  0.210695  1
  Gd  Gd1  1  0.103402  0.038513  0.788040  1
  Gd  Gd2  1  0.032400  0.711124  0.912279  1
  Y  Y3  1  0.349000  0.125429  0.167977  1
  Tm  Tm4  1  0.967273  0.278441  0.082757  1
  Tm  Tm5  1  0.657186  0.879653  0.836030  1
  Fe  Fe6  1  0.000088  0.999032  0.999714  1
  I  I7  1  0.646261  0.556078  0.729224  1
  I  I8  1  0.339589  0.447405  0.268403  1
  I  I9  1  0.743420  0.915037  0.554655  1
  I  I10  1  0.252570  0.087059  0.448798  1
  I  I11  1  0.080190  0.365581  0.826700  1
  I  I12  1  0.915419  0.629642  0.176524  1
  I  I13  1  0.465921  0.821120  0.090080  1
  I  I14  1  0.539047  0.180416  0.910046  1
  I  I15  1  0.227720  0.751028  0.661898  1
  I  I16  1  0.783707  0.254866  0.336181  1
