# generated using pymatgen
data_Ho19Tm(InGa2)4
_symmetry_space_group_name_H-M   'P 1'
_cell_length_a   7.70623400
_cell_length_b   7.70623400
_cell_length_c   14.29171000
_cell_angle_alpha   90.00000000
_cell_angle_beta   90.00000000
_cell_angle_gamma   90.00000000
_symmetry_Int_Tables_number   1
_chemical_formula_structural   Ho19Tm(InGa2)4
_chemical_formula_sum   'Ho19 Tm1 In4 Ga8'
_cell_volume   848.72809693
_cell_formula_units_Z   1
loop_
 _symmetry_equiv_pos_site_id
 _symmetry_equiv_pos_as_xyz
  1  'x, y, z'
loop_
 _atom_site_type_symbol
 _atom_site_label
 _atom_site_symmetry_multiplicity
 _atom_site_fract_x
 _atom_site_fract_y
 _atom_site_fract_z
 _atom_site_occupancy
  Ho  Ho0  1  0.000000  0.500000  0.259856  1
  Ho  Ho1  1  0.500000  0.000000  0.240192  1
  Ho  Ho2  1  0.500000  0.000000  0.740155  1
  Ho  Ho3  1  0.673421  0.660721  0.606162  1
  Ho  Ho4  1  0.673289  0.339135  0.106081  1
  Ho  Ho5  1  0.826670  0.839184  0.393940  1
  Ho  Ho6  1  0.173130  0.838873  0.893859  1
  Ho  Ho7  1  0.326579  0.339279  0.606162  1
  Ho  Ho8  1  0.326711  0.660865  0.106081  1
  Ho  Ho9  1  0.173330  0.160816  0.393940  1
  Ho  Ho10  1  0.826870  0.161127  0.893859  1
  Ho  Ho11  1  0.660816  0.326670  0.393940  1
  Ho  Ho12  1  0.338873  0.326870  0.893859  1
  Ho  Ho13  1  0.160721  0.826579  0.606162  1
  Ho  Ho14  1  0.839135  0.826711  0.106081  1
  Ho  Ho15  1  0.339184  0.673330  0.393940  1
  Ho  Ho16  1  0.661127  0.673130  0.893859  1
  Ho  Ho17  1  0.839279  0.173421  0.606162  1
  Ho  Ho18  1  0.160865  0.173289  0.106081  1
  Tm  Tm19  1  0.000000  0.500000  0.759543  1
  In  In20  1  0.000000  0.500000  0.496439  1
  In  In21  1  0.000000  0.500000  0.996035  1
  In  In22  1  0.500000  0.000000  0.503684  1
  In  In23  1  0.500000  0.000000  0.003699  1
  Ga  Ga24  1  0.875825  0.875180  0.750057  1
  Ga  Ga25  1  0.875729  0.124304  0.250001  1
  Ga  Ga26  1  0.624304  0.624271  0.250001  1
  Ga  Ga27  1  0.375180  0.624175  0.750057  1
  Ga  Ga28  1  0.124175  0.124820  0.750057  1
  Ga  Ga29  1  0.124271  0.875696  0.250001  1
  Ga  Ga30  1  0.375696  0.375729  0.250001  1
  Ga  Ga31  1  0.624820  0.375825  0.750057  1
