# generated using pymatgen
data_Ho3Tm3Al19Si5Os8
_symmetry_space_group_name_H-M   'P 1'
_cell_length_a   8.67411700
_cell_length_b   8.66023799
_cell_length_c   9.55587200
_cell_angle_alpha   90.00000000
_cell_angle_beta   90.00000000
_cell_angle_gamma   120.05303202
_symmetry_Int_Tables_number   1
_chemical_formula_structural   Ho3Tm3Al19Si5Os8
_chemical_formula_sum   'Ho3 Tm3 Al19 Si5 Os8'
_cell_volume   621.33201101
_cell_formula_units_Z   1
loop_
 _symmetry_equiv_pos_site_id
 _symmetry_equiv_pos_as_xyz
  1  'x, y, z'
loop_
 _atom_site_type_symbol
 _atom_site_label
 _atom_site_symmetry_multiplicity
 _atom_site_fract_x
 _atom_site_fract_y
 _atom_site_fract_z
 _atom_site_occupancy
  Ho  Ho0  1  0.805641  0.611282  0.750000  1
  Ho  Ho1  1  0.389786  0.195333  0.750000  1
  Ho  Ho2  1  0.805547  0.195333  0.750000  1
  Tm  Tm3  1  0.195567  0.391134  0.250000  1
  Tm  Tm4  1  0.606461  0.805635  0.250000  1
  Tm  Tm5  1  0.199174  0.805635  0.250000  1
  Al  Al6  1  0.164634  0.329269  0.578597  1
  Al  Al7  1  0.834811  0.669623  0.421183  1
  Al  Al8  1  0.669897  0.835358  0.577242  1
  Al  Al9  1  0.834811  0.669623  0.078817  1
  Al  Al10  1  0.328877  0.165365  0.421326  1
  Al  Al11  1  0.164634  0.329269  0.921403  1
  Al  Al12  1  0.165462  0.835358  0.577242  1
  Al  Al13  1  0.328877  0.165365  0.078674  1
  Al  Al14  1  0.836488  0.165365  0.421326  1
  Al  Al15  1  0.669897  0.835358  0.922758  1
  Al  Al16  1  0.836488  0.165365  0.078674  1
  Al  Al17  1  0.165462  0.835358  0.922758  1
  Al  Al18  1  0.437212  0.874423  0.750000  1
  Al  Al19  1  0.873402  0.433907  0.250000  1
  Al  Al20  1  0.127743  0.564560  0.750000  1
  Al  Al21  1  0.560507  0.433907  0.250000  1
  Al  Al22  1  0.436817  0.564560  0.750000  1
  Al  Al23  1  0.999796  0.999592  0.250000  1
  Al  Al24  1  0.000384  0.000768  0.750000  1
  Si  Si25  1  0.332559  0.665119  0.039128  1
  Si  Si26  1  0.667250  0.334500  0.960444  1
  Si  Si27  1  0.667250  0.334500  0.539556  1
  Si  Si28  1  0.332559  0.665119  0.460872  1
  Si  Si29  1  0.563590  0.127180  0.250000  1
  Os  Os30  1  0.500499  0.000998  0.006814  1
  Os  Os31  1  0.999436  0.499167  0.000879  1
  Os  Os32  1  0.500499  0.000998  0.493186  1
  Os  Os33  1  0.499731  0.499167  0.000879  1
  Os  Os34  1  0.999436  0.499167  0.499121  1
  Os  Os35  1  0.499731  0.499167  0.499121  1
  Os  Os36  1  0.999542  0.999084  0.000091  1
  Os  Os37  1  0.999542  0.999084  0.499909  1
