# generated using pymatgen
data_KCa6As7O24
_symmetry_space_group_name_H-M   'P 1'
_cell_length_a   29.15144600
_cell_length_b   5.85201066
_cell_length_c   7.16130100
_cell_angle_alpha   72.73828639
_cell_angle_beta   90.00000000
_cell_angle_gamma   90.00000000
_symmetry_Int_Tables_number   1
_chemical_formula_structural   KCa6As7O24
_chemical_formula_sum   'K2 Ca12 As14 O48'
_cell_volume   1166.65380254
_cell_formula_units_Z   2
loop_
 _symmetry_equiv_pos_site_id
 _symmetry_equiv_pos_as_xyz
  1  'x, y, z'
loop_
 _atom_site_type_symbol
 _atom_site_label
 _atom_site_symmetry_multiplicity
 _atom_site_fract_x
 _atom_site_fract_y
 _atom_site_fract_z
 _atom_site_occupancy
  K  K0  1  0.750000  0.237474  0.382686  1
  K  K1  1  0.250000  0.762526  0.617314  1
  Ca  Ca2  1  0.041908  0.317373  0.686098  1
  Ca  Ca3  1  0.541908  0.682627  0.313902  1
  Ca  Ca4  1  0.958092  0.682627  0.313902  1
  Ca  Ca5  1  0.458092  0.317373  0.686098  1
  Ca  Ca6  1  0.099119  0.711514  0.915277  1
  Ca  Ca7  1  0.599119  0.288486  0.084723  1
  Ca  Ca8  1  0.900881  0.288486  0.084723  1
  Ca  Ca9  1  0.400881  0.711514  0.915277  1
  Ca  Ca10  1  0.184545  0.382989  0.277027  1
  Ca  Ca11  1  0.684545  0.617011  0.722973  1
  Ca  Ca12  1  0.815455  0.617011  0.722973  1
  Ca  Ca13  1  0.315455  0.382989  0.277027  1
  As  As14  1  0.166768  0.258710  0.803119  1
  As  As15  1  0.666768  0.741290  0.196881  1
  As  As16  1  0.833232  0.741290  0.196881  1
  As  As17  1  0.333232  0.258710  0.803119  1
  As  As18  1  0.750000  0.039535  0.911984  1
  As  As19  1  0.250000  0.960465  0.088016  1
  As  As20  1  0.023158  0.214880  0.201154  1
  As  As21  1  0.523158  0.785120  0.798846  1
  As  As22  1  0.976842  0.785120  0.798846  1
  As  As23  1  0.476842  0.214880  0.201154  1
  As  As24  1  0.109572  0.816120  0.385978  1
  As  As25  1  0.609572  0.183880  0.614022  1
  As  As26  1  0.890428  0.183880  0.614022  1
  As  As27  1  0.390428  0.816120  0.385978  1
  O  O28  1  0.116863  0.116298  0.788499  1
  O  O29  1  0.616863  0.883702  0.211501  1
  O  O30  1  0.883137  0.883702  0.211501  1
  O  O31  1  0.383137  0.116298  0.788499  1
  O  O32  1  0.165371  0.443075  0.947877  1
  O  O33  1  0.665371  0.556925  0.052123  1
  O  O34  1  0.834629  0.556925  0.052123  1
  O  O35  1  0.334629  0.443075  0.947877  1
  O  O36  1  0.196170  0.382465  0.595252  1
  O  O37  1  0.696170  0.617535  0.404748  1
  O  O38  1  0.803830  0.617535  0.404748  1
  O  O39  1  0.303830  0.382465  0.595252  1
  O  O40  1  0.201896  0.991984  0.931739  1
  O  O41  1  0.701896  0.008016  0.068261  1
  O  O42  1  0.798104  0.008016  0.068261  1
  O  O43  1  0.298104  0.991984  0.931739  1
  O  O44  1  0.750000  0.842921  0.779638  1
  O  O45  1  0.250000  0.157079  0.220362  1
  O  O46  1  0.048609  0.378644  0.990827  1
  O  O47  1  0.750000  0.331159  0.778729  1
  O  O48  1  0.972002  0.090568  0.170032  1
  O  O49  1  0.472002  0.909432  0.829968  1
  O  O50  1  0.027998  0.909432  0.829968  1
  O  O51  1  0.527998  0.090568  0.170032  1
  O  O52  1  0.020008  0.371698  0.366214  1
  O  O53  1  0.520008  0.628302  0.633786  1
  O  O54  1  0.979992  0.628302  0.633786  1
  O  O55  1  0.479992  0.371698  0.366214  1
  O  O56  1  0.350930  0.024640  0.386188  1
  O  O57  1  0.850930  0.975360  0.613812  1
  O  O58  1  0.649070  0.975360  0.613812  1
  O  O59  1  0.149070  0.024640  0.386188  1
  O  O60  1  0.376291  0.651579  0.233490  1
  O  O61  1  0.876291  0.348421  0.766510  1
  O  O62  1  0.623709  0.348421  0.766510  1
  O  O63  1  0.123709  0.651579  0.233490  1
  O  O64  1  0.403886  0.633303  0.612554  1
  O  O65  1  0.903886  0.366697  0.387446  1
  O  O66  1  0.596114  0.366697  0.387446  1
  O  O67  1  0.096114  0.633303  0.612554  1
  O  O68  1  0.445825  0.938480  0.294297  1
  O  O69  1  0.945825  0.061520  0.705703  1
  O  O70  1  0.554175  0.061520  0.705703  1
  O  O71  1  0.054175  0.938480  0.294297  1
  O  O72  1  0.451391  0.378644  0.990827  1
  O  O73  1  0.951391  0.621356  0.009173  1
  O  O74  1  0.548609  0.621356  0.009173  1
  O  O75  1  0.250000  0.668841  0.221271  1
