# generated using pymatgen
data_SmHf2(SnRh)3
_symmetry_space_group_name_H-M   'P 1'
_cell_length_a   7.49487126
_cell_length_b   7.46557913
_cell_length_c   7.45166600
_cell_angle_alpha   90.00000000
_cell_angle_beta   90.00000000
_cell_angle_gamma   119.87788816
_symmetry_Int_Tables_number   1
_chemical_formula_structural   SmHf2(SnRh)3
_chemical_formula_sum   'Sm2 Hf4 Sn6 Rh6'
_cell_volume   361.53035603
_cell_formula_units_Z   2
loop_
 _symmetry_equiv_pos_site_id
 _symmetry_equiv_pos_as_xyz
  1  'x, y, z'
loop_
 _atom_site_type_symbol
 _atom_site_label
 _atom_site_symmetry_multiplicity
 _atom_site_fract_x
 _atom_site_fract_y
 _atom_site_fract_z
 _atom_site_occupancy
  Sm  Sm0  1  0.002341  0.407859  0.250000  1
  Sm  Sm1  1  0.595585  0.590739  0.250000  1
  Hf  Hf2  1  0.993920  0.388486  0.750000  1
  Hf  Hf3  1  0.604910  0.612552  0.750000  1
  Hf  Hf4  1  0.396191  0.999498  0.750000  1
  Hf  Hf5  1  0.396522  0.992614  0.250000  1
  Sn  Sn6  1  0.268234  0.265778  0.511704  1
  Sn  Sn7  1  0.999544  0.733660  0.512466  1
  Sn  Sn8  1  0.999544  0.733660  0.987534  1
  Sn  Sn9  1  0.732178  0.000817  0.494360  1
  Sn  Sn10  1  0.732178  0.000817  0.005640  1
  Sn  Sn11  1  0.268234  0.265778  0.988296  1
  Rh  Rh12  1  0.335216  0.675614  0.535045  1
  Rh  Rh13  1  0.662209  0.327683  0.538414  1
  Rh  Rh14  1  0.335216  0.675614  0.964955  1
  Rh  Rh15  1  0.993508  0.001287  0.750000  1
  Rh  Rh16  1  0.022263  0.999858  0.250000  1
  Rh  Rh17  1  0.662209  0.327683  0.961586  1
