# generated using pymatgen
data_Lu3Sc2AlIrAu2
_symmetry_space_group_name_H-M   'P 1'
_cell_length_a   7.14510870
_cell_length_b   7.10178506
_cell_length_c   4.42787000
_cell_angle_alpha   90.00000000
_cell_angle_beta   90.00000000
_cell_angle_gamma   119.79962015
_symmetry_Int_Tables_number   1
_chemical_formula_structural   Lu3Sc2AlIrAu2
_chemical_formula_sum   'Lu3 Sc2 Al1 Ir1 Au2'
_cell_volume   194.97333977
_cell_formula_units_Z   1
loop_
 _symmetry_equiv_pos_site_id
 _symmetry_equiv_pos_as_xyz
  1  'x, y, z'
loop_
 _atom_site_type_symbol
 _atom_site_label
 _atom_site_symmetry_multiplicity
 _atom_site_fract_x
 _atom_site_fract_y
 _atom_site_fract_z
 _atom_site_occupancy
  Lu  Lu0  1  0.389301  0.405323  0.500000  1
  Lu  Lu1  1  0.610699  0.016022  0.500000  1
  Lu  Lu2  1  0.000000  0.580820  0.500000  1
  Sc  Sc3  1  0.755348  0.763226  0.000000  1
  Sc  Sc4  1  0.244652  0.007878  0.000000  1
  Al  Al5  1  0.000000  0.238156  0.000000  1
  Ir  Ir6  1  0.000000  0.995475  0.500000  1
  Au  Au7  1  0.677254  0.335176  0.000000  1
  Au  Au8  1  0.322746  0.657923  0.000000  1
