# generated using pymatgen
data_Tb5Er5In8Ir2PdAu
_symmetry_space_group_name_H-M   'P 1'
_cell_length_a   3.63702200
_cell_length_b   8.13960653
_cell_length_c   18.25049000
_cell_angle_alpha   90.02075841
_cell_angle_beta   90.00000000
_cell_angle_gamma   90.00000000
_symmetry_Int_Tables_number   1
_chemical_formula_structural   Tb5Er5In8Ir2PdAu
_chemical_formula_sum   'Tb5 Er5 In8 Ir2 Pd1 Au1'
_cell_volume   540.28615713
_cell_formula_units_Z   1
loop_
 _symmetry_equiv_pos_site_id
 _symmetry_equiv_pos_as_xyz
  1  'x, y, z'
loop_
 _atom_site_type_symbol
 _atom_site_label
 _atom_site_symmetry_multiplicity
 _atom_site_fract_x
 _atom_site_fract_y
 _atom_site_fract_z
 _atom_site_occupancy
  Tb  Tb0  1  0.000000  0.500331  0.499309  1
  Tb  Tb1  1  0.000000  0.998479  0.000580  1
  Tb  Tb2  1  0.000000  0.728571  0.278364  1
  Tb  Tb3  1  0.000000  0.280158  0.720950  1
  Tb  Tb4  1  0.000000  0.742894  0.783111  1
  Er  Er5  1  0.000000  0.253825  0.219806  1
  Er  Er6  1  0.000000  0.613913  0.088413  1
  Er  Er7  1  0.000000  0.384937  0.913970  1
  Er  Er8  1  0.000000  0.880192  0.580211  1
  Er  Er9  1  0.000000  0.116587  0.414140  1
  In  In10  1  0.500000  0.704524  0.934805  1
  In  In11  1  0.500000  0.292721  0.067971  1
  In  In12  1  0.500000  0.794010  0.431883  1
  In  In13  1  0.500000  0.205682  0.563949  1
  In  In14  1  0.500000  0.579818  0.648048  1
  In  In15  1  0.500000  0.420683  0.351247  1
  In  In16  1  0.500000  0.923770  0.150664  1
  In  In17  1  0.500000  0.082665  0.851139  1
  Ir  Ir18  1  0.500000  0.517214  0.195609  1
  Ir  Ir19  1  0.500000  0.478216  0.805955  1
  Pd  Pd20  1  0.500000  0.023132  0.303581  1
  Au  Au21  1  0.500000  0.977676  0.696293  1
