# generated using pymatgen
data_Nd8Zn4Si11Ge
_symmetry_space_group_name_H-M   'P 1'
_cell_length_a   8.22178956
_cell_length_b   8.22178962
_cell_length_c   8.53959100
_cell_angle_alpha   89.99728389
_cell_angle_beta   90.00271393
_cell_angle_gamma   119.95785554
_symmetry_Int_Tables_number   1
_chemical_formula_structural   Nd8Zn4Si11Ge
_chemical_formula_sum   'Nd8 Zn4 Si11 Ge1'
_cell_volume   500.13206107
_cell_formula_units_Z   1
loop_
 _symmetry_equiv_pos_site_id
 _symmetry_equiv_pos_as_xyz
  1  'x, y, z'
loop_
 _atom_site_type_symbol
 _atom_site_label
 _atom_site_symmetry_multiplicity
 _atom_site_fract_x
 _atom_site_fract_y
 _atom_site_fract_z
 _atom_site_occupancy
  Nd  Nd0  1  0.000614  0.999386  0.749047  1
  Nd  Nd1  1  0.000556  0.999444  0.250914  1
  Nd  Nd2  1  0.499078  0.500922  0.749579  1
  Nd  Nd3  1  0.497778  0.997597  0.748998  1
  Nd  Nd4  1  0.002403  0.502222  0.748998  1
  Nd  Nd5  1  0.500807  0.499193  0.250411  1
  Nd  Nd6  1  0.999063  0.500490  0.251018  1
  Nd  Nd7  1  0.499510  0.000937  0.251018  1
  Zn  Zn8  1  0.663595  0.336405  0.996106  1
  Zn  Zn9  1  0.666662  0.333338  0.503776  1
  Zn  Zn10  1  0.333473  0.666527  0.496227  1
  Zn  Zn11  1  0.332777  0.667223  0.003817  1
  Si  Si12  1  0.835152  0.668282  0.999490  1
  Si  Si13  1  0.331718  0.164848  0.999490  1
  Si  Si14  1  0.834086  0.165914  0.500511  1
  Si  Si15  1  0.834344  0.668228  0.500522  1
  Si  Si16  1  0.331772  0.165656  0.500522  1
  Si  Si17  1  0.165916  0.834084  0.499482  1
  Si  Si18  1  0.668171  0.834257  0.499508  1
  Si  Si19  1  0.165743  0.331829  0.499508  1
  Si  Si20  1  0.165868  0.834132  0.000547  1
  Si  Si21  1  0.665115  0.827954  0.000582  1
  Si  Si22  1  0.172046  0.334885  0.000582  1
  Ge  Ge23  1  0.833753  0.166247  0.999346  1
