# generated using pymatgen
data_Ti10CuSn5GeSb
_symmetry_space_group_name_H-M   'P 1'
_cell_length_a   8.25228110
_cell_length_b   8.24533216
_cell_length_c   5.53703474
_cell_angle_alpha   89.97039257
_cell_angle_beta   90.05916500
_cell_angle_gamma   120.02788261
_symmetry_Int_Tables_number   1
_chemical_formula_structural   Ti10CuSn5GeSb
_chemical_formula_sum   'Ti10 Cu1 Sn5 Ge1 Sb1'
_cell_volume   326.18781047
_cell_formula_units_Z   1
loop_
 _symmetry_equiv_pos_site_id
 _symmetry_equiv_pos_as_xyz
  1  'x, y, z'
loop_
 _atom_site_type_symbol
 _atom_site_label
 _atom_site_symmetry_multiplicity
 _atom_site_fract_x
 _atom_site_fract_y
 _atom_site_fract_z
 _atom_site_occupancy
  Ti  Ti0  1  0.267594  0.000000  0.747087  1
  Ti  Ti1  1  0.732556  0.000000  0.252540  1
  Ti  Ti2  1  0.997995  0.264424  0.747067  1
  Ti  Ti3  1  0.999638  0.732844  0.253108  1
  Ti  Ti4  1  0.733571  0.735576  0.747067  1
  Ti  Ti5  1  0.266794  0.267156  0.253108  1
  Ti  Ti6  1  0.334245  0.668047  0.499695  1
  Ti  Ti7  1  0.666200  0.331953  0.499695  1
  Ti  Ti8  1  0.666264  0.331683  0.000207  1
  Ti  Ti9  1  0.334579  0.668317  0.000207  1
  Cu  Cu10  1  0.002698  0.000000  0.001833  1
  Sn  Sn11  1  0.384830  0.000000  0.247831  1
  Sn  Sn12  1  0.999440  0.612489  0.752418  1
  Sn  Sn13  1  0.000892  0.387889  0.247415  1
  Sn  Sn14  1  0.386950  0.387511  0.752418  1
  Sn  Sn15  1  0.613003  0.612111  0.247415  1
  Ge  Ge16  1  0.001347  0.000000  0.498853  1
  Sb  Sb17  1  0.611404  0.000000  0.752037  1
