# generated using pymatgen
data_Sr7Yb3Si10O
_symmetry_space_group_name_H-M   'P 1'
_cell_length_a   11.19982911
_cell_length_b   11.20874121
_cell_length_c   11.20874064
_cell_angle_alpha   155.70029154
_cell_angle_beta   111.22198640
_cell_angle_gamma   74.13824773
_symmetry_Int_Tables_number   1
_chemical_formula_structural   Sr7Yb3Si10O
_chemical_formula_sum   'Sr7 Yb3 Si10 O1'
_cell_volume   533.86125313
_cell_formula_units_Z   1
loop_
 _symmetry_equiv_pos_site_id
 _symmetry_equiv_pos_as_xyz
  1  'x, y, z'
loop_
 _atom_site_type_symbol
 _atom_site_label
 _atom_site_symmetry_multiplicity
 _atom_site_fract_x
 _atom_site_fract_y
 _atom_site_fract_z
 _atom_site_occupancy
  Sr  Sr0  1  0.476142  0.809890  0.666251  1
  Sr  Sr1  1  0.852020  0.191082  0.660938  1
  Sr  Sr2  1  0.804339  0.999607  0.804732  1
  Sr  Sr3  1  0.156015  0.154855  0.001160  1
  Sr  Sr4  1  0.525897  0.189476  0.336422  1
  Sr  Sr5  1  0.497779  0.999187  0.498592  1
  Sr  Sr6  1  0.142838  0.811305  0.331533  1
  Yb  Yb7  1  0.864337  0.861736  0.002601  1
  Yb  Yb8  1  0.191168  0.999033  0.192136  1
  Yb  Yb9  1  0.003032  0.499192  0.503840  1
  Si  Si10  1  0.407529  0.566049  0.841480  1
  Si  Si11  1  0.272901  0.432709  0.840192  1
  Si  Si12  1  0.589680  0.431897  0.157783  1
  Si  Si13  1  0.723489  0.566984  0.156506  1
  Si  Si14  1  0.696605  0.370753  0.325853  1
  Si  Si15  1  0.639130  0.640450  0.998680  1
  Si  Si16  1  0.302193  0.626073  0.676121  1
  Si  Si17  1  0.356639  0.358016  0.998623  1
  Si  Si18  1  0.046413  0.372667  0.673746  1
  Si  Si19  1  0.951710  0.628940  0.322770  1
  O  O20  1  0.000144  0.990101  0.010043  1
