# generated using pymatgen
data_AgP6IrO18
_symmetry_space_group_name_H-M   'P 1'
_cell_length_a   5.13106850
_cell_length_b   7.13042129
_cell_length_c   10.77598300
_cell_angle_alpha   96.57716279
_cell_angle_beta   91.00892902
_cell_angle_gamma   89.50503103
_symmetry_Int_Tables_number   1
_chemical_formula_structural   AgP6IrO18
_chemical_formula_sum   'Ag1 P6 Ir1 O18'
_cell_volume   391.59321246
_cell_formula_units_Z   1
loop_
 _symmetry_equiv_pos_site_id
 _symmetry_equiv_pos_as_xyz
  1  'x, y, z'
loop_
 _atom_site_type_symbol
 _atom_site_label
 _atom_site_symmetry_multiplicity
 _atom_site_fract_x
 _atom_site_fract_y
 _atom_site_fract_z
 _atom_site_occupancy
  Ag  Ag0  1  0.000000  0.000000  0.000000  1
  P  P1  1  0.525195  0.957238  0.187595  1
  P  P2  1  0.239719  0.326783  0.234577  1
  P  P3  1  0.505552  0.330815  0.634617  1
  P  P4  1  0.474805  0.042762  0.812405  1
  P  P5  1  0.760281  0.673217  0.765423  1
  P  P6  1  0.494448  0.669185  0.365383  1
  Ir  Ir7  1  0.000000  0.500000  0.500000  1
  O  O8  1  0.469168  0.174469  0.239462  1
  O  O9  1  0.088354  0.315025  0.116956  1
  O  O10  1  0.348131  0.883803  0.081659  1
  O  O11  1  0.211274  0.343589  0.609695  1
  O  O12  1  0.675776  0.339787  0.521466  1
  O  O13  1  0.185941  0.068628  0.826921  1
  O  O14  1  0.588227  0.482079  0.747651  1
  O  O15  1  0.911646  0.684975  0.883044  1
  O  O16  1  0.555475  0.135315  0.685389  1
  O  O17  1  0.788726  0.656411  0.390305  1
  O  O18  1  0.915031  0.686034  0.644206  1
  O  O19  1  0.814059  0.931372  0.173079  1
  O  O20  1  0.530832  0.825531  0.760538  1
  O  O21  1  0.651869  0.116197  0.918341  1
  O  O22  1  0.444525  0.864685  0.314611  1
  O  O23  1  0.084969  0.313966  0.355794  1
  O  O24  1  0.411773  0.517921  0.252349  1
  O  O25  1  0.324224  0.660213  0.478534  1
