# generated using pymatgen
data_Yb3Ho(Si4Tc3)2
_symmetry_space_group_name_H-M   'P 1'
_cell_length_a   6.78397996
_cell_length_b   6.68693550
_cell_length_c   6.76244433
_cell_angle_alpha   70.39729372
_cell_angle_beta   90.06953036
_cell_angle_gamma   89.87125172
_symmetry_Int_Tables_number   1
_chemical_formula_structural   Yb3Ho(Si4Tc3)2
_chemical_formula_sum   'Yb3 Ho1 Si8 Tc6'
_cell_volume   288.99041183
_cell_formula_units_Z   1
loop_
 _symmetry_equiv_pos_site_id
 _symmetry_equiv_pos_as_xyz
  1  'x, y, z'
loop_
 _atom_site_type_symbol
 _atom_site_label
 _atom_site_symmetry_multiplicity
 _atom_site_fract_x
 _atom_site_fract_y
 _atom_site_fract_z
 _atom_site_occupancy
  Yb  Yb0  1  0.663170  0.445375  0.183094  1
  Yb  Yb1  1  0.165626  0.055955  0.813345  1
  Yb  Yb2  1  0.335979  0.554494  0.816353  1
  Ho  Ho3  1  0.833293  0.942056  0.191983  1
  Si  Si4  1  0.450960  0.120144  0.101223  1
  Si  Si5  1  0.953600  0.380236  0.896448  1
  Si  Si6  1  0.547010  0.880253  0.896891  1
  Si  Si7  1  0.047065  0.620673  0.100774  1
  Si  Si8  1  0.861428  0.135799  0.507222  1
  Si  Si9  1  0.360985  0.367624  0.492835  1
  Si  Si10  1  0.141833  0.866280  0.495238  1
  Si  Si11  1  0.637104  0.629868  0.509569  1
  Tc  Tc12  1  0.501984  0.000486  0.497388  1
  Tc  Tc13  1  0.999847  0.501297  0.498830  1
  Tc  Tc14  1  0.156382  0.243649  0.242951  1
  Tc  Tc15  1  0.659165  0.254095  0.758138  1
  Tc  Tc16  1  0.842762  0.757657  0.755605  1
  Tc  Tc17  1  0.341808  0.744059  0.242111  1
