# generated using pymatgen
data_Yb3Eu9(TmSn2)8
_symmetry_space_group_name_H-M   'P 1'
_cell_length_a   8.04963368
_cell_length_b   8.54711460
_cell_length_c   16.30323300
_cell_angle_alpha   90.02977705
_cell_angle_beta   90.02352437
_cell_angle_gamma   90.25767205
_symmetry_Int_Tables_number   1
_chemical_formula_structural   Yb3Eu9(TmSn2)8
_chemical_formula_sum   'Yb3 Eu9 Tm8 Sn16'
_cell_volume   1121.66945043
_cell_formula_units_Z   1
loop_
 _symmetry_equiv_pos_site_id
 _symmetry_equiv_pos_as_xyz
  1  'x, y, z'
loop_
 _atom_site_type_symbol
 _atom_site_label
 _atom_site_symmetry_multiplicity
 _atom_site_fract_x
 _atom_site_fract_y
 _atom_site_fract_z
 _atom_site_occupancy
  Yb  Yb0  1  0.334920  0.992103  0.750688  1
  Yb  Yb1  1  0.163517  0.491430  0.248906  1
  Yb  Yb2  1  0.665342  0.008281  0.250226  1
  Eu  Eu3  1  0.177811  0.330735  0.620447  1
  Eu  Eu4  1  0.503857  0.682171  0.595163  1
  Eu  Eu5  1  0.003804  0.819891  0.908240  1
  Eu  Eu6  1  0.492682  0.318528  0.093726  1
  Eu  Eu7  1  0.994645  0.183990  0.404592  1
  Eu  Eu8  1  0.493762  0.317768  0.405558  1
  Eu  Eu9  1  0.994115  0.182220  0.093665  1
  Eu  Eu10  1  0.504690  0.682788  0.907173  1
  Eu  Eu11  1  0.005582  0.818294  0.592886  1
  Tm  Tm12  1  0.674280  0.164710  0.623234  1
  Tm  Tm13  1  0.173543  0.332364  0.878898  1
  Tm  Tm14  1  0.326173  0.832193  0.122030  1
  Tm  Tm15  1  0.826660  0.666643  0.376113  1
  Tm  Tm16  1  0.327600  0.832996  0.375792  1
  Tm  Tm17  1  0.826832  0.667316  0.121603  1
  Tm  Tm18  1  0.672807  0.164345  0.879578  1
  Tm  Tm19  1  0.840011  0.506891  0.749807  1
  Sn  Sn20  1  0.671545  0.959049  0.458786  1
  Sn  Sn21  1  0.164959  0.539984  0.040040  1
  Sn  Sn22  1  0.332974  0.038617  0.959881  1
  Sn  Sn23  1  0.825075  0.465211  0.541452  1
  Sn  Sn24  1  0.344229  0.032185  0.538531  1
  Sn  Sn25  1  0.833102  0.463839  0.955783  1
  Sn  Sn26  1  0.665836  0.959944  0.041170  1
  Sn  Sn27  1  0.161095  0.543453  0.454619  1
  Sn  Sn28  1  0.480554  0.378779  0.755849  1
  Sn  Sn29  1  0.965709  0.129955  0.753176  1
  Sn  Sn30  1  0.528881  0.630958  0.249022  1
  Sn  Sn31  1  0.029050  0.869401  0.248272  1
  Sn  Sn32  1  0.718197  0.868764  0.751539  1
  Sn  Sn33  1  0.210495  0.623728  0.754975  1
  Sn  Sn34  1  0.284078  0.120218  0.249396  1
  Sn  Sn35  1  0.781593  0.380260  0.249187  1
