# generated using pymatgen
data_Li3SiNi
_symmetry_space_group_name_H-M   'P 1'
_cell_length_a   6.36476100
_cell_length_b   6.36476100
_cell_length_c   6.36476100
_cell_angle_alpha   90.00000000
_cell_angle_beta   90.00000000
_cell_angle_gamma   90.00000000
_symmetry_Int_Tables_number   1
_chemical_formula_structural   Li3SiNi
_chemical_formula_sum   'Li12 Si4 Ni4'
_cell_volume   257.83763023
_cell_formula_units_Z   4
loop_
 _symmetry_equiv_pos_site_id
 _symmetry_equiv_pos_as_xyz
  1  'x, y, z'
loop_
 _atom_site_type_symbol
 _atom_site_label
 _atom_site_symmetry_multiplicity
 _atom_site_fract_x
 _atom_site_fract_y
 _atom_site_fract_z
 _atom_site_occupancy
  Li  Li0  1  0.125301  0.200415  0.453071  1
  Li  Li1  1  0.374699  0.799585  0.953071  1
  Li  Li2  1  0.874699  0.700415  0.046929  1
  Li  Li3  1  0.453071  0.125301  0.200415  1
  Li  Li4  1  0.625301  0.299585  0.546929  1
  Li  Li5  1  0.953071  0.374699  0.799585  1
  Li  Li6  1  0.046929  0.874699  0.700415  1
  Li  Li7  1  0.546929  0.625301  0.299585  1
  Li  Li8  1  0.200415  0.453071  0.125301  1
  Li  Li9  1  0.700415  0.046929  0.874699  1
  Li  Li10  1  0.299585  0.546929  0.625301  1
  Li  Li11  1  0.799585  0.953071  0.374699  1
  Si  Si12  1  0.067356  0.067356  0.067356  1
  Si  Si13  1  0.432644  0.932644  0.567356  1
  Si  Si14  1  0.932644  0.567356  0.432644  1
  Si  Si15  1  0.567356  0.432644  0.932644  1
  Ni  Ni16  1  0.679452  0.679452  0.679452  1
  Ni  Ni17  1  0.820548  0.320548  0.179452  1
  Ni  Ni18  1  0.320548  0.179452  0.820548  1
  Ni  Ni19  1  0.179452  0.820548  0.320548  1
