# generated using pymatgen
data_Dy3MgCo7P6Rh
_symmetry_space_group_name_H-M   'P 1'
_cell_length_a   3.73051200
_cell_length_b   10.74665200
_cell_length_c   12.41151100
_cell_angle_alpha   90.00000000
_cell_angle_beta   90.00000000
_cell_angle_gamma   90.00000000
_symmetry_Int_Tables_number   1
_chemical_formula_structural   Dy3MgCo7P6Rh
_chemical_formula_sum   'Dy6 Mg2 Co14 P12 Rh2'
_cell_volume   497.58385856
_cell_formula_units_Z   2
loop_
 _symmetry_equiv_pos_site_id
 _symmetry_equiv_pos_as_xyz
  1  'x, y, z'
loop_
 _atom_site_type_symbol
 _atom_site_label
 _atom_site_symmetry_multiplicity
 _atom_site_fract_x
 _atom_site_fract_y
 _atom_site_fract_z
 _atom_site_occupancy
  Dy  Dy0  1  0.000000  0.500000  0.521430  1
  Dy  Dy1  1  0.500000  0.000000  0.478570  1
  Dy  Dy2  1  0.500000  0.818821  0.204480  1
  Dy  Dy3  1  0.500000  0.181179  0.204480  1
  Dy  Dy4  1  0.000000  0.681179  0.795520  1
  Dy  Dy5  1  0.000000  0.318821  0.795520  1
  Mg  Mg6  1  0.500000  0.500000  0.155368  1
  Mg  Mg7  1  0.000000  0.000000  0.844632  1
  Co  Co8  1  0.000000  0.500000  0.989767  1
  Co  Co9  1  0.500000  0.000000  0.010233  1
  Co  Co10  1  0.500000  0.331853  0.996946  1
  Co  Co11  1  0.500000  0.668147  0.996946  1
  Co  Co12  1  0.000000  0.168147  0.003054  1
  Co  Co13  1  0.000000  0.831853  0.003054  1
  Co  Co14  1  0.500000  0.297798  0.431978  1
  Co  Co15  1  0.500000  0.702202  0.431978  1
  Co  Co16  1  0.000000  0.202202  0.568022  1
  Co  Co17  1  0.000000  0.797798  0.568022  1
  Co  Co18  1  0.500000  0.879227  0.706466  1
  Co  Co19  1  0.500000  0.120773  0.706466  1
  Co  Co20  1  0.000000  0.620773  0.293534  1
  Co  Co21  1  0.000000  0.379227  0.293534  1
  P  P22  1  0.500000  0.500000  0.891175  1
  P  P23  1  0.000000  0.000000  0.108825  1
  P  P24  1  0.500000  0.500000  0.353362  1
  P  P25  1  0.000000  0.000000  0.646638  1
  P  P26  1  0.500000  0.301902  0.613368  1
  P  P27  1  0.500000  0.698098  0.613368  1
  P  P28  1  0.000000  0.198098  0.386632  1
  P  P29  1  0.000000  0.801902  0.386632  1
  P  P30  1  0.500000  0.839280  0.893805  1
  P  P31  1  0.500000  0.160720  0.893805  1
  P  P32  1  0.000000  0.660720  0.106195  1
  P  P33  1  0.000000  0.339280  0.106195  1
  Rh  Rh34  1  0.500000  0.500000  0.703180  1
  Rh  Rh35  1  0.000000  0.000000  0.296820  1
