# generated using pymatgen
data_UPa4Mn6Ga
_symmetry_space_group_name_H-M   'P 1'
_cell_length_a   5.41180000
_cell_length_b   5.41179976
_cell_length_c   7.81589600
_cell_angle_alpha   90.00000000
_cell_angle_beta   90.00000000
_cell_angle_gamma   120.00000148
_symmetry_Int_Tables_number   1
_chemical_formula_structural   UPa4Mn6Ga
_chemical_formula_sum   'U1 Pa4 Mn6 Ga1'
_cell_volume   198.24071449
_cell_formula_units_Z   1
loop_
 _symmetry_equiv_pos_site_id
 _symmetry_equiv_pos_as_xyz
  1  'x, y, z'
loop_
 _atom_site_type_symbol
 _atom_site_label
 _atom_site_symmetry_multiplicity
 _atom_site_fract_x
 _atom_site_fract_y
 _atom_site_fract_z
 _atom_site_occupancy
  U  U0  1  0.000000  0.000000  0.500000  1
  Pa  Pa1  1  0.333333  0.666667  0.416090  1
  Pa  Pa2  1  0.666667  0.333333  0.583910  1
  Pa  Pa3  1  0.666667  0.333333  0.952843  1
  Pa  Pa4  1  0.333333  0.666667  0.047157  1
  Mn  Mn5  1  0.830655  0.169345  0.257146  1
  Mn  Mn6  1  0.830655  0.661309  0.257146  1
  Mn  Mn7  1  0.338691  0.169345  0.257146  1
  Mn  Mn8  1  0.169345  0.830655  0.742854  1
  Mn  Mn9  1  0.169345  0.338691  0.742854  1
  Mn  Mn10  1  0.661309  0.830655  0.742854  1
  Ga  Ga11  1  0.000000  0.000000  0.000000  1
