# generated using pymatgen
data_Er3Lu5(TcB6)4
_symmetry_space_group_name_H-M   'P 1'
_cell_length_a   3.62947600
_cell_length_b   9.07085900
_cell_length_c   11.43466002
_cell_angle_alpha   89.99791508
_cell_angle_beta   90.00000000
_cell_angle_gamma   90.00000000
_symmetry_Int_Tables_number   1
_chemical_formula_structural   Er3Lu5(TcB6)4
_chemical_formula_sum   'Er3 Lu5 Tc4 B24'
_cell_volume   376.45719451
_cell_formula_units_Z   1
loop_
 _symmetry_equiv_pos_site_id
 _symmetry_equiv_pos_as_xyz
  1  'x, y, z'
loop_
 _atom_site_type_symbol
 _atom_site_label
 _atom_site_symmetry_multiplicity
 _atom_site_fract_x
 _atom_site_fract_y
 _atom_site_fract_z
 _atom_site_occupancy
  Er  Er0  1  0.000000  0.323355  0.414001  1
  Er  Er1  1  0.000000  0.676534  0.586177  1
  Er  Er2  1  0.000000  0.823495  0.085887  1
  Lu  Lu3  1  0.000000  0.176292  0.914076  1
  Lu  Lu4  1  0.000000  0.943127  0.369583  1
  Lu  Lu5  1  0.000000  0.057047  0.630505  1
  Lu  Lu6  1  0.000000  0.442892  0.130002  1
  Lu  Lu7  1  0.000000  0.556885  0.869826  1
  Tc  Tc8  1  0.000000  0.639252  0.319980  1
  Tc  Tc9  1  0.000000  0.360390  0.680480  1
  Tc  Tc10  1  0.000000  0.139295  0.179448  1
  Tc  Tc11  1  0.000000  0.861237  0.820224  1
  B  B12  1  0.500000  0.553245  0.433106  1
  B  B13  1  0.500000  0.446515  0.567145  1
  B  B14  1  0.500000  0.053576  0.066322  1
  B  B15  1  0.500000  0.947217  0.933151  1
  B  B16  1  0.500000  0.750575  0.419053  1
  B  B17  1  0.500000  0.249403  0.581237  1
  B  B18  1  0.500000  0.250423  0.080091  1
  B  B19  1  0.500000  0.749661  0.919057  1
  B  B20  1  0.500000  0.793061  0.264856  1
  B  B21  1  0.500000  0.206725  0.735666  1
  B  B22  1  0.500000  0.292987  0.234621  1
  B  B23  1  0.500000  0.707086  0.765104  1
  B  B24  1  0.500000  0.630260  0.184415  1
  B  B25  1  0.500000  0.369210  0.815982  1
  B  B26  1  0.500000  0.130396  0.315237  1
  B  B27  1  0.500000  0.869912  0.684726  1
  B  B28  1  0.500000  0.981398  0.211999  1
  B  B29  1  0.500000  0.019325  0.788142  1
  B  B30  1  0.500000  0.481163  0.287556  1
  B  B31  1  0.500000  0.518573  0.712544  1
  B  B32  1  0.500000  0.598767  0.027405  1
  B  B33  1  0.500000  0.400534  0.972305  1
  B  B34  1  0.500000  0.098776  0.472584  1
  B  B35  1  0.500000  0.901408  0.527504  1
