# generated using pymatgen
data_PuZr2Sn(SeO3)8
_symmetry_space_group_name_H-M   'P 1'
_cell_length_a   8.64424287
_cell_length_b   8.64069079
_cell_length_c   8.64171500
_cell_angle_alpha   89.75349457
_cell_angle_beta   90.16506232
_cell_angle_gamma   89.74833735
_symmetry_Int_Tables_number   1
_chemical_formula_structural   PuZr2Sn(SeO3)8
_chemical_formula_sum   'Pu1 Zr2 Sn1 Se8 O24'
_cell_volume   645.45404858
_cell_formula_units_Z   1
loop_
 _symmetry_equiv_pos_site_id
 _symmetry_equiv_pos_as_xyz
  1  'x, y, z'
loop_
 _atom_site_type_symbol
 _atom_site_label
 _atom_site_symmetry_multiplicity
 _atom_site_fract_x
 _atom_site_fract_y
 _atom_site_fract_z
 _atom_site_occupancy
  Pu  Pu0  1  0.000000  0.000000  0.000000  1
  Zr  Zr1  1  0.500000  0.500000  0.000000  1
  Zr  Zr2  1  0.500000  0.000000  0.500000  1
  Sn  Sn3  1  0.000000  0.500000  0.500000  1
  Se  Se4  1  0.826366  0.199751  0.665429  1
  Se  Se5  1  0.173634  0.800249  0.334571  1
  Se  Se6  1  0.700600  0.677187  0.674773  1
  Se  Se7  1  0.176339  0.661882  0.799924  1
  Se  Se8  1  0.327527  0.184344  0.817342  1
  Se  Se9  1  0.823661  0.338118  0.200076  1
  Se  Se10  1  0.672473  0.815656  0.182658  1
  Se  Se11  1  0.299400  0.322813  0.325227  1
  O  O12  1  0.234800  0.458320  0.459845  1
  O  O13  1  0.944334  0.237577  0.078897  1
  O  O14  1  0.039459  0.734650  0.470303  1
  O  O15  1  0.471474  0.270936  0.923612  1
  O  O16  1  0.276014  0.919757  0.454149  1
  O  O17  1  0.577786  0.560887  0.777683  1
  O  O18  1  0.941975  0.065874  0.758531  1
  O  O19  1  0.528526  0.729064  0.076388  1
  O  O20  1  0.565510  0.958388  0.270440  1
  O  O21  1  0.434490  0.041612  0.729560  1
  O  O22  1  0.759682  0.923555  0.038525  1
  O  O23  1  0.271911  0.547923  0.932890  1
  O  O24  1  0.044104  0.524526  0.734944  1
  O  O25  1  0.058025  0.934126  0.241469  1
  O  O26  1  0.240318  0.076445  0.961475  1
  O  O27  1  0.422214  0.439113  0.222317  1
  O  O28  1  0.765200  0.541680  0.540155  1
  O  O29  1  0.955896  0.475474  0.265056  1
  O  O30  1  0.055666  0.762423  0.921103  1
  O  O31  1  0.430619  0.226143  0.440085  1
  O  O32  1  0.569381  0.773857  0.559915  1
  O  O33  1  0.960541  0.265350  0.529697  1
  O  O34  1  0.723986  0.080243  0.545851  1
  O  O35  1  0.728089  0.452077  0.067110  1
