# generated using pymatgen
data_La4Mg2BiAu10
_symmetry_space_group_name_H-M   'P 1'
_cell_length_a   8.85930662
_cell_length_b   8.85930686
_cell_length_c   10.51254698
_cell_angle_alpha   90.88193869
_cell_angle_beta   89.11806002
_cell_angle_gamma   107.53779678
_symmetry_Int_Tables_number   1
_chemical_formula_structural   La4Mg2BiAu10
_chemical_formula_sum   'La8 Mg4 Bi2 Au20'
_cell_volume   786.60628567
_cell_formula_units_Z   2
loop_
 _symmetry_equiv_pos_site_id
 _symmetry_equiv_pos_as_xyz
  1  'x, y, z'
loop_
 _atom_site_type_symbol
 _atom_site_label
 _atom_site_symmetry_multiplicity
 _atom_site_fract_x
 _atom_site_fract_y
 _atom_site_fract_z
 _atom_site_occupancy
  La  La0  1  0.705047  0.299838  0.998027  1
  La  La1  1  0.294953  0.700162  0.001973  1
  La  La2  1  0.799838  0.205047  0.501973  1
  La  La3  1  0.200162  0.794953  0.498027  1
  La  La4  1  0.294240  0.302072  0.204438  1
  La  La5  1  0.705760  0.697928  0.795562  1
  La  La6  1  0.197928  0.205760  0.704438  1
  La  La7  1  0.802072  0.794240  0.295562  1
  Mg  Mg8  1  0.488470  0.988470  0.750000  1
  Mg  Mg9  1  0.511530  0.011530  0.250000  1
  Mg  Mg10  1  0.000000  0.000000  0.000000  1
  Mg  Mg11  1  0.500000  0.500000  0.500000  1
  Bi  Bi12  1  0.014408  0.514408  0.250000  1
  Bi  Bi13  1  0.985592  0.485592  0.750000  1
  Au  Au14  1  0.094910  0.095908  0.406748  1
  Au  Au15  1  0.905090  0.904092  0.593252  1
  Au  Au16  1  0.404092  0.405090  0.906748  1
  Au  Au17  1  0.595908  0.594910  0.093252  1
  Au  Au18  1  0.874876  0.148533  0.206401  1
  Au  Au19  1  0.125124  0.851467  0.793599  1
  Au  Au20  1  0.590328  0.323555  0.703138  1
  Au  Au21  1  0.648533  0.374876  0.293599  1
  Au  Au22  1  0.409672  0.676445  0.296862  1
  Au  Au23  1  0.351467  0.625124  0.706401  1
  Au  Au24  1  0.823555  0.090328  0.796862  1
  Au  Au25  1  0.176445  0.909672  0.203138  1
  Au  Au26  1  0.927621  0.677461  0.022322  1
  Au  Au27  1  0.072379  0.322539  0.977678  1
  Au  Au28  1  0.569399  0.846970  0.523973  1
  Au  Au29  1  0.177461  0.427621  0.477678  1
  Au  Au30  1  0.430601  0.153030  0.476027  1
  Au  Au31  1  0.822539  0.572379  0.522322  1
  Au  Au32  1  0.346970  0.069399  0.976027  1
  Au  Au33  1  0.653030  0.930601  0.023973  1
