# generated using pymatgen
data_Ho10Ga3Bi2Ru
_symmetry_space_group_name_H-M   'P 1'
_cell_length_a   8.67554552
_cell_length_b   8.67554655
_cell_length_c   8.78911584
_cell_angle_alpha   125.51921994
_cell_angle_beta   125.51922140
_cell_angle_gamma   79.79544719
_symmetry_Int_Tables_number   1
_chemical_formula_structural   Ho10Ga3Bi2Ru
_chemical_formula_sum   'Ho10 Ga3 Bi2 Ru1'
_cell_volume   425.19623364
_cell_formula_units_Z   1
loop_
 _symmetry_equiv_pos_site_id
 _symmetry_equiv_pos_as_xyz
  1  'x, y, z'
loop_
 _atom_site_type_symbol
 _atom_site_label
 _atom_site_symmetry_multiplicity
 _atom_site_fract_x
 _atom_site_fract_y
 _atom_site_fract_z
 _atom_site_occupancy
  Ho  Ho0  1  0.705317  0.517013  0.500000  1
  Ho  Ho1  1  0.482113  0.999002  0.199886  1
  Ho  Ho2  1  0.782227  0.299116  0.800114  1
  Ho  Ho3  1  0.500998  0.017887  0.800114  1
  Ho  Ho4  1  0.001071  0.001198  0.002270  1
  Ho  Ho5  1  0.043310  0.191948  0.500000  1
  Ho  Ho6  1  0.308052  0.456690  0.500000  1
  Ho  Ho7  1  0.200884  0.717773  0.199886  1
  Ho  Ho8  1  0.982987  0.794683  0.500000  1
  Ho  Ho9  1  0.498802  0.498929  0.997730  1
  Ga  Ga10  1  0.139982  0.642887  0.782867  1
  Ga  Ga11  1  0.857113  0.360018  0.217133  1
  Ga  Ga12  1  0.633917  0.866083  0.500000  1
  Bi  Bi13  1  0.243468  0.256532  0.000000  1
  Bi  Bi14  1  0.743468  0.756532  0.000000  1
  Ru  Ru15  1  0.376291  0.123709  0.500000  1
