# generated using pymatgen
data_Ce2Ho13Lu(CdIr)4
_symmetry_space_group_name_H-M   'P 1'
_cell_length_a   9.61196431
_cell_length_b   9.62044486
_cell_length_c   9.64146800
_cell_angle_alpha   59.92769280
_cell_angle_beta   59.89841741
_cell_angle_gamma   59.89113994
_symmetry_Int_Tables_number   1
_chemical_formula_structural   Ce2Ho13Lu(CdIr)4
_chemical_formula_sum   'Ce2 Ho13 Lu1 Cd4 Ir4'
_cell_volume   629.07987563
_cell_formula_units_Z   1
loop_
 _symmetry_equiv_pos_site_id
 _symmetry_equiv_pos_as_xyz
  1  'x, y, z'
loop_
 _atom_site_type_symbol
 _atom_site_label
 _atom_site_symmetry_multiplicity
 _atom_site_fract_x
 _atom_site_fract_y
 _atom_site_fract_z
 _atom_site_occupancy
  Ce  Ce0  1  0.596007  0.595665  0.599583  1
  Ce  Ce1  1  0.596007  0.595665  0.208747  1
  Ho  Ho2  1  0.196750  0.603063  0.600094  1
  Ho  Ho3  1  0.061906  0.438748  0.439324  1
  Ho  Ho4  1  0.439513  0.061204  0.059244  1
  Ho  Ho5  1  0.439513  0.061204  0.440039  1
  Ho  Ho6  1  0.061906  0.438748  0.060022  1
  Ho  Ho7  1  0.437012  0.436815  0.063086  1
  Ho  Ho8  1  0.061733  0.061851  0.438208  1
  Ho  Ho9  1  0.188220  0.813711  0.813260  1
  Ho  Ho10  1  0.812716  0.189259  0.185470  1
  Ho  Ho11  1  0.812716  0.189259  0.812555  1
  Ho  Ho12  1  0.188220  0.813711  0.184810  1
  Ho  Ho13  1  0.813206  0.813486  0.186654  1
  Ho  Ho14  1  0.191455  0.191114  0.808715  1
  Lu  Lu15  1  0.602938  0.199053  0.599005  1
  Cd  Cd16  1  0.829713  0.831763  0.830585  1
  Cd  Cd17  1  0.829713  0.831763  0.507938  1
  Cd  Cd18  1  0.829769  0.504639  0.832795  1
  Cd  Cd19  1  0.504619  0.830912  0.832234  1
  Ir  Ir20  1  0.393884  0.390680  0.394136  1
  Ir  Ir21  1  0.393884  0.390680  0.821301  1
  Ir  Ir22  1  0.396110  0.822765  0.390563  1
  Ir  Ir23  1  0.822494  0.394246  0.391631  1
