# generated using pymatgen
data_YCoSbH2
_symmetry_space_group_name_H-M   'P 1'
_cell_length_a   4.27919100
_cell_length_b   4.27919029
_cell_length_c   8.37523900
_cell_angle_alpha   90.00000000
_cell_angle_beta   90.00000000
_cell_angle_gamma   120.00001325
_symmetry_Int_Tables_number   1
_chemical_formula_structural   YCoSbH2
_chemical_formula_sum   'Y2 Co2 Sb2 H4'
_cell_volume   132.81620085
_cell_formula_units_Z   2
loop_
 _symmetry_equiv_pos_site_id
 _symmetry_equiv_pos_as_xyz
  1  'x, y, z'
loop_
 _atom_site_type_symbol
 _atom_site_label
 _atom_site_symmetry_multiplicity
 _atom_site_fract_x
 _atom_site_fract_y
 _atom_site_fract_z
 _atom_site_occupancy
  Y  Y0  1  0.000000  0.000000  0.000000  1
  Y  Y1  1  0.000000  0.000000  0.500000  1
  Co  Co2  1  0.666667  0.333333  0.250000  1
  Co  Co3  1  0.333333  0.666667  0.750000  1
  Sb  Sb4  1  0.333333  0.666667  0.250000  1
  Sb  Sb5  1  0.666667  0.333333  0.750000  1
  H  H6  1  0.333333  0.666667  0.940413  1
  H  H7  1  0.666667  0.333333  0.059587  1
  H  H8  1  0.333333  0.666667  0.559587  1
  H  H9  1  0.666667  0.333333  0.440413  1
