# generated using pymatgen
data_TbEr4InBi2
_symmetry_space_group_name_H-M   'P 1'
_cell_length_a   9.00655174
_cell_length_b   9.02798181
_cell_length_c   6.51451800
_cell_angle_alpha   90.00000000
_cell_angle_beta   90.00000000
_cell_angle_gamma   119.45487647
_symmetry_Int_Tables_number   1
_chemical_formula_structural   TbEr4InBi2
_chemical_formula_sum   'Tb2 Er8 In2 Bi4'
_cell_volume   461.23432648
_cell_formula_units_Z   2
loop_
 _symmetry_equiv_pos_site_id
 _symmetry_equiv_pos_as_xyz
  1  'x, y, z'
loop_
 _atom_site_type_symbol
 _atom_site_label
 _atom_site_symmetry_multiplicity
 _atom_site_fract_x
 _atom_site_fract_y
 _atom_site_fract_z
 _atom_site_occupancy
  Tb  Tb0  1  0.760359  0.760560  0.750000  1
  Tb  Tb1  1  0.234919  0.997683  0.750000  1
  Er  Er2  1  0.669267  0.328152  0.001990  1
  Er  Er3  1  0.328501  0.669423  0.001919  1
  Er  Er4  1  0.328501  0.669423  0.498081  1
  Er  Er5  1  0.669267  0.328152  0.498010  1
  Er  Er6  1  0.997399  0.235221  0.750000  1
  Er  Er7  1  0.234517  0.234803  0.250000  1
  Er  Er8  1  0.766910  0.009428  0.250000  1
  Er  Er9  1  0.009279  0.766310  0.250000  1
  In  In10  1  0.396394  0.001551  0.250000  1
  In  In11  1  0.001522  0.396407  0.250000  1
  Bi  Bi12  1  0.391281  0.392231  0.750000  1
  Bi  Bi13  1  0.603168  0.997535  0.750000  1
  Bi  Bi14  1  0.996946  0.601469  0.750000  1
  Bi  Bi15  1  0.611771  0.611654  0.250000  1
