# generated using pymatgen
data_Er3TlIn3PdRh
_symmetry_space_group_name_H-M   'P 1'
_cell_length_a   7.97026600
_cell_length_b   7.97026738
_cell_length_c   3.71742600
_cell_angle_alpha   90.00000000
_cell_angle_beta   90.00000000
_cell_angle_gamma   119.99998598
_symmetry_Int_Tables_number   1
_chemical_formula_structural   Er3TlIn3PdRh
_chemical_formula_sum   'Er3 Tl1 In3 Pd1 Rh1'
_cell_volume   204.51196987
_cell_formula_units_Z   1
loop_
 _symmetry_equiv_pos_site_id
 _symmetry_equiv_pos_as_xyz
  1  'x, y, z'
loop_
 _atom_site_type_symbol
 _atom_site_label
 _atom_site_symmetry_multiplicity
 _atom_site_fract_x
 _atom_site_fract_y
 _atom_site_fract_z
 _atom_site_occupancy
  Er  Er0  1  0.035167  0.614049  0.500000  1
  Er  Er1  1  0.385951  0.421119  0.500000  1
  Er  Er2  1  0.578881  0.964833  0.500000  1
  Tl  Tl3  1  0.666667  0.333333  0.000000  1
  In  In4  1  0.254833  0.993862  0.000000  1
  In  In5  1  0.739030  0.745167  0.000000  1
  In  In6  1  0.006138  0.260970  0.000000  1
  Pd  Pd7  1  0.000000  0.000000  0.500000  1
  Rh  Rh8  1  0.333333  0.666667  0.000000  1
