# generated using pymatgen
data_TbCu4(AuO4)3
_symmetry_space_group_name_H-M   'P 1'
_cell_length_a   6.54764087
_cell_length_b   6.54763999
_cell_length_c   6.54764000
_cell_angle_alpha   109.47122377
_cell_angle_beta   109.47122103
_cell_angle_gamma   109.47122735
_symmetry_Int_Tables_number   1
_chemical_formula_structural   TbCu4(AuO4)3
_chemical_formula_sum   'Tb1 Cu4 Au3 O12'
_cell_volume   216.08891599
_cell_formula_units_Z   1
loop_
 _symmetry_equiv_pos_site_id
 _symmetry_equiv_pos_as_xyz
  1  'x, y, z'
loop_
 _atom_site_type_symbol
 _atom_site_label
 _atom_site_symmetry_multiplicity
 _atom_site_fract_x
 _atom_site_fract_y
 _atom_site_fract_z
 _atom_site_occupancy
  Tb  Tb0  1  0.000000  0.000000  0.000000  1
  Cu  Cu1  1  0.000000  0.000000  0.500000  1
  Cu  Cu2  1  0.000000  0.500000  0.000000  1
  Cu  Cu3  1  0.500000  0.000000  0.000000  1
  Cu  Cu4  1  0.500000  0.500000  0.500000  1
  Au  Au5  1  0.000000  0.500000  0.500000  1
  Au  Au6  1  0.500000  0.000000  0.500000  1
  Au  Au7  1  0.500000  0.500000  0.000000  1
  O  O8  1  0.292894  0.119848  0.826953  1
  O  O9  1  0.707106  0.880152  0.173047  1
  O  O10  1  0.707106  0.534059  0.826953  1
  O  O11  1  0.465941  0.173047  0.292894  1
  O  O12  1  0.173047  0.292894  0.465941  1
  O  O13  1  0.826953  0.292894  0.119848  1
  O  O14  1  0.880152  0.173047  0.707106  1
  O  O15  1  0.826953  0.707106  0.534059  1
  O  O16  1  0.292894  0.465941  0.173047  1
  O  O17  1  0.534059  0.826953  0.707106  1
  O  O18  1  0.173047  0.707106  0.880152  1
  O  O19  1  0.119848  0.826953  0.292894  1
