# generated using pymatgen
data_BaNaNbS4
_symmetry_space_group_name_H-M   'P 1'
_cell_length_a   9.63720400
_cell_length_b   6.78816284
_cell_length_c   12.57062995
_cell_angle_alpha   69.67624764
_cell_angle_beta   90.00000000
_cell_angle_gamma   90.00000000
_symmetry_Int_Tables_number   1
_chemical_formula_structural   BaNaNbS4
_chemical_formula_sum   'Ba4 Na4 Nb4 S16'
_cell_volume   771.16110568
_cell_formula_units_Z   4
loop_
 _symmetry_equiv_pos_site_id
 _symmetry_equiv_pos_as_xyz
  1  'x, y, z'
loop_
 _atom_site_type_symbol
 _atom_site_label
 _atom_site_symmetry_multiplicity
 _atom_site_fract_x
 _atom_site_fract_y
 _atom_site_fract_z
 _atom_site_occupancy
  Ba  Ba0  1  0.883051  0.384690  0.343541  1
  Ba  Ba1  1  0.616949  0.384690  0.843541  1
  Ba  Ba2  1  0.116949  0.615310  0.656459  1
  Ba  Ba3  1  0.383051  0.615310  0.156459  1
  Na  Na4  1  0.115539  0.229328  0.025929  1
  Na  Na5  1  0.384461  0.229328  0.525929  1
  Na  Na6  1  0.884461  0.770672  0.974071  1
  Na  Na7  1  0.615539  0.770672  0.474071  1
  Nb  Nb8  1  0.620617  0.117190  0.184840  1
  Nb  Nb9  1  0.879383  0.117190  0.684840  1
  Nb  Nb10  1  0.379383  0.882810  0.815160  1
  Nb  Nb11  1  0.120617  0.882810  0.315160  1
  S  S12  1  0.801154  0.325599  0.089296  1
  S  S13  1  0.698846  0.325599  0.589296  1
  S  S14  1  0.198846  0.674401  0.910704  1
  S  S15  1  0.301154  0.674401  0.410704  1
  S  S16  1  0.929981  0.813537  0.428979  1
  S  S17  1  0.570019  0.813537  0.928979  1
  S  S18  1  0.070019  0.186463  0.571021  1
  S  S19  1  0.429981  0.186463  0.071021  1
  S  S20  1  0.569926  0.209853  0.340506  1
  S  S21  1  0.930074  0.209853  0.840506  1
  S  S22  1  0.430074  0.790147  0.659494  1
  S  S23  1  0.069926  0.790147  0.159494  1
  S  S24  1  0.164985  0.234457  0.261209  1
  S  S25  1  0.335015  0.234457  0.761209  1
  S  S26  1  0.835015  0.765543  0.738791  1
  S  S27  1  0.664985  0.765543  0.238791  1
