# generated using pymatgen
data_Tb3YV3B16Os
_symmetry_space_group_name_H-M   'P 1'
_cell_length_a   3.51014800
_cell_length_b   5.99616134
_cell_length_c   11.59647601
_cell_angle_alpha   89.96382380
_cell_angle_beta   90.00000000
_cell_angle_gamma   90.00000000
_symmetry_Int_Tables_number   1
_chemical_formula_structural   Tb3YV3B16Os
_chemical_formula_sum   'Tb3 Y1 V3 B16 Os1'
_cell_volume   244.07577994
_cell_formula_units_Z   1
loop_
 _symmetry_equiv_pos_site_id
 _symmetry_equiv_pos_as_xyz
  1  'x, y, z'
loop_
 _atom_site_type_symbol
 _atom_site_label
 _atom_site_symmetry_multiplicity
 _atom_site_fract_x
 _atom_site_fract_y
 _atom_site_fract_z
 _atom_site_occupancy
  Tb  Tb0  1  0.000000  0.623509  0.352114  1
  Tb  Tb1  1  0.000000  0.375921  0.649243  1
  Tb  Tb2  1  0.000000  0.126450  0.152920  1
  Y  Y3  1  0.000000  0.873696  0.846219  1
  V  V4  1  0.000000  0.369086  0.917536  1
  V  V5  1  0.000000  0.126016  0.415781  1
  V  V6  1  0.000000  0.873963  0.582024  1
  B  B7  1  0.500000  0.783721  0.185617  1
  B  B8  1  0.500000  0.215305  0.814459  1
  B  B9  1  0.500000  0.285631  0.314444  1
  B  B10  1  0.500000  0.715009  0.685117  1
  B  B11  1  0.500000  0.864223  0.031740  1
  B  B12  1  0.500000  0.135070  0.968703  1
  B  B13  1  0.500000  0.363935  0.467173  1
  B  B14  1  0.500000  0.636409  0.532918  1
  B  B15  1  0.500000  0.886857  0.453050  1
  B  B16  1  0.500000  0.113977  0.546435  1
  B  B17  1  0.500000  0.387308  0.048334  1
  B  B18  1  0.500000  0.615024  0.953019  1
  B  B19  1  0.500000  0.975297  0.307473  1
  B  B20  1  0.500000  0.023891  0.691828  1
  B  B21  1  0.500000  0.476254  0.192541  1
  B  B22  1  0.500000  0.523846  0.807695  1
  Os  Os23  1  0.000000  0.629599  0.083617  1
