# generated using pymatgen
data_Ca2Tb2Si3Rh4
_symmetry_space_group_name_H-M   'P 1'
_cell_length_a   10.69723976
_cell_length_b   10.69724061
_cell_length_c   7.86378400
_cell_angle_alpha   71.06538605
_cell_angle_beta   71.06539015
_cell_angle_gamma   29.98221166
_symmetry_Int_Tables_number   1
_chemical_formula_structural   Ca2Tb2Si3Rh4
_chemical_formula_sum   'Ca4 Tb4 Si6 Rh8'
_cell_volume   423.55675138
_cell_formula_units_Z   2
loop_
 _symmetry_equiv_pos_site_id
 _symmetry_equiv_pos_as_xyz
  1  'x, y, z'
loop_
 _atom_site_type_symbol
 _atom_site_label
 _atom_site_symmetry_multiplicity
 _atom_site_fract_x
 _atom_site_fract_y
 _atom_site_fract_z
 _atom_site_occupancy
  Ca  Ca0  1  0.802310  0.064423  0.169789  1
  Ca  Ca1  1  0.935577  0.197690  0.330211  1
  Ca  Ca2  1  0.197690  0.935577  0.830211  1
  Ca  Ca3  1  0.064423  0.802310  0.669789  1
  Tb  Tb4  1  0.784095  0.554671  0.599523  1
  Tb  Tb5  1  0.445329  0.215905  0.900477  1
  Tb  Tb6  1  0.215905  0.445329  0.400477  1
  Tb  Tb7  1  0.554671  0.784095  0.099523  1
  Si  Si8  1  0.952180  0.701662  0.060366  1
  Si  Si9  1  0.298338  0.047820  0.439634  1
  Si  Si10  1  0.047820  0.298338  0.939634  1
  Si  Si11  1  0.701662  0.952180  0.560366  1
  Si  Si12  1  0.601508  0.398492  0.750000  1
  Si  Si13  1  0.398492  0.601508  0.250000  1
  Rh  Rh14  1  0.570600  0.303461  0.528032  1
  Rh  Rh15  1  0.696539  0.429400  0.971968  1
  Rh  Rh16  1  0.429400  0.696539  0.471968  1
  Rh  Rh17  1  0.303461  0.570600  0.028032  1
  Rh  Rh18  1  0.634913  0.921890  0.315021  1
  Rh  Rh19  1  0.078110  0.365087  0.184979  1
  Rh  Rh20  1  0.365087  0.078110  0.684979  1
  Rh  Rh21  1  0.921890  0.634913  0.815021  1
