# generated using pymatgen
data_CeSiIrPt
_symmetry_space_group_name_H-M   'P 1'
_cell_length_a   9.45814819
_cell_length_b   9.45814860
_cell_length_c   4.08394300
_cell_angle_alpha   90.00000000
_cell_angle_beta   90.00000000
_cell_angle_gamma   155.35569487
_symmetry_Int_Tables_number   1
_chemical_formula_structural   CeSiIrPt
_chemical_formula_sum   'Ce2 Si2 Ir2 Pt2'
_cell_volume   152.33898341
_cell_formula_units_Z   2
loop_
 _symmetry_equiv_pos_site_id
 _symmetry_equiv_pos_as_xyz
  1  'x, y, z'
loop_
 _atom_site_type_symbol
 _atom_site_label
 _atom_site_symmetry_multiplicity
 _atom_site_fract_x
 _atom_site_fract_y
 _atom_site_fract_z
 _atom_site_occupancy
  Ce  Ce0  1  0.105209  0.894791  0.750000  1
  Ce  Ce1  1  0.894791  0.105209  0.250000  1
  Si  Si2  1  0.319557  0.680443  0.750000  1
  Si  Si3  1  0.680443  0.319557  0.250000  1
  Ir  Ir4  1  0.250029  0.749971  0.250000  1
  Ir  Ir5  1  0.749971  0.250029  0.750000  1
  Pt  Pt6  1  0.550955  0.449045  0.250000  1
  Pt  Pt7  1  0.449045  0.550955  0.750000  1
