# generated using pymatgen
data_TmLu3Tc7W
_symmetry_space_group_name_H-M   'P 1'
_cell_length_a   5.38994600
_cell_length_b   5.38994723
_cell_length_c   8.69366200
_cell_angle_alpha   90.00000000
_cell_angle_beta   90.00000000
_cell_angle_gamma   120.00000475
_symmetry_Int_Tables_number   1
_chemical_formula_structural   TmLu3Tc7W
_chemical_formula_sum   'Tm1 Lu3 Tc7 W1'
_cell_volume   218.72694613
_cell_formula_units_Z   1
loop_
 _symmetry_equiv_pos_site_id
 _symmetry_equiv_pos_as_xyz
  1  'x, y, z'
loop_
 _atom_site_type_symbol
 _atom_site_label
 _atom_site_symmetry_multiplicity
 _atom_site_fract_x
 _atom_site_fract_y
 _atom_site_fract_z
 _atom_site_occupancy
  Tm  Tm0  1  0.333333  0.666667  0.061742  1
  Lu  Lu1  1  0.333333  0.666667  0.436467  1
  Lu  Lu2  1  0.666667  0.333333  0.563741  1
  Lu  Lu3  1  0.666667  0.333333  0.937838  1
  Tc  Tc4  1  0.000000  0.000000  0.000177  1
  Tc  Tc5  1  0.828206  0.171794  0.251159  1
  Tc  Tc6  1  0.828206  0.656411  0.251159  1
  Tc  Tc7  1  0.343589  0.171794  0.251159  1
  Tc  Tc8  1  0.171748  0.828252  0.748752  1
  Tc  Tc9  1  0.171748  0.343496  0.748752  1
  Tc  Tc10  1  0.656504  0.828252  0.748752  1
  W  W11  1  0.000000  0.000000  0.500301  1
