# generated using pymatgen
data_PrMn8BeSi4
_symmetry_space_group_name_H-M   'P 1'
_cell_length_a   7.99765107
_cell_length_b   7.99765091
_cell_length_c   7.99765063
_cell_angle_alpha   121.10915108
_cell_angle_beta   121.10915111
_cell_angle_gamma   88.08939373
_symmetry_Int_Tables_number   1
_chemical_formula_structural   PrMn8BeSi4
_chemical_formula_sum   'Pr2 Mn16 Be2 Si8'
_cell_volume   355.44111368
_cell_formula_units_Z   2
loop_
 _symmetry_equiv_pos_site_id
 _symmetry_equiv_pos_as_xyz
  1  'x, y, z'
loop_
 _atom_site_type_symbol
 _atom_site_label
 _atom_site_symmetry_multiplicity
 _atom_site_fract_x
 _atom_site_fract_y
 _atom_site_fract_z
 _atom_site_occupancy
  Pr  Pr0  1  0.250000  0.250000  0.000000  1
  Pr  Pr1  1  0.750000  0.750000  0.000000  1
  Mn  Mn2  1  0.691497  0.558167  0.249664  1
  Mn  Mn3  1  0.444472  0.944472  0.730702  1
  Mn  Mn4  1  0.713771  0.444472  0.500000  1
  Mn  Mn5  1  0.055528  0.786229  0.500000  1
  Mn  Mn6  1  0.191497  0.941833  0.133332  1
  Mn  Mn7  1  0.555528  0.055528  0.269298  1
  Mn  Mn8  1  0.308503  0.441833  0.750336  1
  Mn  Mn9  1  0.786229  0.286229  0.730702  1
  Mn  Mn10  1  0.941833  0.808503  0.750336  1
  Mn  Mn11  1  0.944472  0.213771  0.500000  1
  Mn  Mn12  1  0.058167  0.191497  0.249664  1
  Mn  Mn13  1  0.808503  0.058167  0.866668  1
  Mn  Mn14  1  0.558167  0.308503  0.866668  1
  Mn  Mn15  1  0.213771  0.713771  0.269298  1
  Mn  Mn16  1  0.286229  0.555528  0.500000  1
  Mn  Mn17  1  0.441833  0.691497  0.133332  1
  Be  Be18  1  0.500000  0.000000  0.500000  1
  Be  Be19  1  0.000000  0.500000  0.500000  1
  Si  Si20  1  0.446505  0.299965  0.500000  1
  Si  Si21  1  0.200035  0.053495  0.500000  1
  Si  Si22  1  0.053495  0.553495  0.853460  1
  Si  Si23  1  0.700035  0.200035  0.146540  1
  Si  Si24  1  0.799965  0.946505  0.500000  1
  Si  Si25  1  0.299965  0.799965  0.853460  1
  Si  Si26  1  0.553495  0.700035  0.500000  1
  Si  Si27  1  0.946505  0.446505  0.146540  1
