# generated using pymatgen
data_NdDy15Cd4NiOs3
_symmetry_space_group_name_H-M   'P 1'
_cell_length_a   9.58151311
_cell_length_b   9.70134098
_cell_length_c   9.72234700
_cell_angle_alpha   59.92834416
_cell_angle_beta   59.51257109
_cell_angle_gamma   59.30908362
_symmetry_Int_Tables_number   1
_chemical_formula_structural   NdDy15Cd4NiOs3
_chemical_formula_sum   'Nd1 Dy15 Cd4 Ni1 Os3'
_cell_volume   632.93963099
_cell_formula_units_Z   1
loop_
 _symmetry_equiv_pos_site_id
 _symmetry_equiv_pos_as_xyz
  1  'x, y, z'
loop_
 _atom_site_type_symbol
 _atom_site_label
 _atom_site_symmetry_multiplicity
 _atom_site_fract_x
 _atom_site_fract_y
 _atom_site_fract_z
 _atom_site_occupancy
  Nd  Nd0  1  0.189930  0.190880  0.809595  1
  Dy  Dy1  1  0.602221  0.596242  0.594323  1
  Dy  Dy2  1  0.602221  0.596242  0.207215  1
  Dy  Dy3  1  0.602462  0.210229  0.593655  1
  Dy  Dy4  1  0.212286  0.597029  0.595343  1
  Dy  Dy5  1  0.059850  0.439440  0.437938  1
  Dy  Dy6  1  0.436685  0.060862  0.062146  1
  Dy  Dy7  1  0.436685  0.060862  0.440307  1
  Dy  Dy8  1  0.059850  0.439440  0.062772  1
  Dy  Dy9  1  0.437656  0.440229  0.061058  1
  Dy  Dy10  1  0.059634  0.060868  0.439749  1
  Dy  Dy11  1  0.190687  0.806121  0.809107  1
  Dy  Dy12  1  0.802883  0.188161  0.190426  1
  Dy  Dy13  1  0.802883  0.188161  0.818530  1
  Dy  Dy14  1  0.190687  0.806121  0.194084  1
  Dy  Dy15  1  0.805651  0.818874  0.187738  1
  Cd  Cd16  1  0.829953  0.830787  0.831883  1
  Cd  Cd17  1  0.829953  0.830787  0.507378  1
  Cd  Cd18  1  0.826336  0.509516  0.832074  1
  Cd  Cd19  1  0.508267  0.827771  0.831981  1
  Ni  Ni20  1  0.829081  0.391667  0.389627  1
  Os  Os21  1  0.395007  0.390595  0.385630  1
  Os  Os22  1  0.395007  0.390595  0.828767  1
  Os  Os23  1  0.394127  0.828522  0.388675  1
