# generated using pymatgen
data_Ho16In4NiRu3
_symmetry_space_group_name_H-M   'P 1'
_cell_length_a   9.58995221
_cell_length_b   9.58995180
_cell_length_c   9.57650302
_cell_angle_alpha   59.95353226
_cell_angle_beta   59.95353293
_cell_angle_gamma   60.00000032
_symmetry_Int_Tables_number   1
_chemical_formula_structural   Ho16In4NiRu3
_chemical_formula_sum   'Ho16 In4 Ni1 Ru3'
_cell_volume   622.32813364
_cell_formula_units_Z   1
loop_
 _symmetry_equiv_pos_site_id
 _symmetry_equiv_pos_as_xyz
  1  'x, y, z'
loop_
 _atom_site_type_symbol
 _atom_site_label
 _atom_site_symmetry_multiplicity
 _atom_site_fract_x
 _atom_site_fract_y
 _atom_site_fract_z
 _atom_site_occupancy
  Ho  Ho0  1  0.188436  0.188436  0.808669  1
  Ho  Ho1  1  0.599917  0.599917  0.200249  1
  Ho  Ho2  1  0.440270  0.060096  0.439536  1
  Ho  Ho3  1  0.439300  0.439300  0.061958  1
  Ho  Ho4  1  0.814459  0.188436  0.808669  1
  Ho  Ho5  1  0.190813  0.809539  0.190110  1
  Ho  Ho6  1  0.439300  0.059443  0.061958  1
  Ho  Ho7  1  0.188436  0.814459  0.808669  1
  Ho  Ho8  1  0.059443  0.439300  0.061958  1
  Ho  Ho9  1  0.809539  0.809539  0.190110  1
  Ho  Ho10  1  0.202876  0.598053  0.601018  1
  Ho  Ho11  1  0.060096  0.440270  0.439536  1
  Ho  Ho12  1  0.060096  0.060096  0.439536  1
  Ho  Ho13  1  0.809539  0.190813  0.190110  1
  Ho  Ho14  1  0.598053  0.202876  0.601018  1
  Ho  Ho15  1  0.598053  0.598053  0.601018  1
  In  In16  1  0.832980  0.832980  0.831663  1
  In  In17  1  0.832984  0.832984  0.501051  1
  In  In18  1  0.502377  0.832980  0.831663  1
  In  In19  1  0.832980  0.502377  0.831663  1
  Ni  Ni20  1  0.391514  0.391514  0.825460  1
  Ru  Ru21  1  0.391687  0.825166  0.391460  1
  Ru  Ru22  1  0.391687  0.391687  0.391460  1
  Ru  Ru23  1  0.825166  0.391687  0.391460  1
