# generated using pymatgen
data_Ca3Tm3(Si3Ru)8
_symmetry_space_group_name_H-M   'P 1'
_cell_length_a   10.14922225
_cell_length_b   10.14921274
_cell_length_c   8.14260021
_cell_angle_alpha   90.04509176
_cell_angle_beta   89.95499216
_cell_angle_gamma   132.68026351
_symmetry_Int_Tables_number   1
_chemical_formula_structural   Ca3Tm3(Si3Ru)8
_chemical_formula_sum   'Ca3 Tm3 Si24 Ru8'
_cell_volume   616.59917914
_cell_formula_units_Z   1
loop_
 _symmetry_equiv_pos_site_id
 _symmetry_equiv_pos_as_xyz
  1  'x, y, z'
loop_
 _atom_site_type_symbol
 _atom_site_label
 _atom_site_symmetry_multiplicity
 _atom_site_fract_x
 _atom_site_fract_y
 _atom_site_fract_z
 _atom_site_occupancy
  Ca  Ca0  1  0.498349  0.998358  0.749975  1
  Ca  Ca1  1  0.999193  0.499187  0.749998  1
  Ca  Ca2  1  0.500582  0.000568  0.250014  1
  Tm  Tm3  1  0.999852  0.999761  0.999788  1
  Tm  Tm4  1  0.499744  0.499823  0.500217  1
  Tm  Tm5  1  0.000598  0.500605  0.249996  1
  Si  Si6  1  0.293352  0.706376  0.000137  1
  Si  Si7  1  0.793498  0.206140  0.500341  1
  Si  Si8  1  0.706131  0.293488  0.999654  1
  Si  Si9  1  0.206364  0.793339  0.499857  1
  Si  Si10  1  0.833436  0.832823  0.332996  1
  Si  Si11  1  0.167037  0.165303  0.667330  1
  Si  Si12  1  0.665309  0.667039  0.832676  1
  Si  Si13  1  0.332835  0.333444  0.167017  1
  Si  Si14  1  0.623444  0.390866  0.227325  1
  Si  Si15  1  0.611045  0.377298  0.771491  1
  Si  Si16  1  0.111587  0.878079  0.728134  1
  Si  Si17  1  0.120846  0.888191  0.272863  1
  Si  Si18  1  0.378088  0.611598  0.771866  1
  Si  Si19  1  0.388194  0.620844  0.227139  1
  Si  Si20  1  0.890872  0.123455  0.272679  1
  Si  Si21  1  0.877281  0.111033  0.728511  1
  Si  Si22  1  0.843785  0.610520  0.006734  1
  Si  Si23  1  0.388789  0.154862  0.994983  1
  Si  Si24  1  0.889982  0.657036  0.503647  1
  Si  Si25  1  0.345154  0.110851  0.495621  1
  Si  Si26  1  0.157039  0.389985  0.996352  1
  Si  Si27  1  0.610860  0.845149  0.004374  1
  Si  Si28  1  0.110519  0.343796  0.493263  1
  Si  Si29  1  0.654853  0.888785  0.505025  1
  Ru  Ru30  1  0.165772  0.829795  0.002401  1
  Ru  Ru31  1  0.671272  0.334599  0.497307  1
  Ru  Ru32  1  0.834593  0.171267  0.002693  1
  Ru  Ru33  1  0.329796  0.665776  0.497597  1
  Ru  Ru34  1  0.627253  0.627399  0.125961  1
  Ru  Ru35  1  0.373044  0.372258  0.873478  1
  Ru  Ru36  1  0.872249  0.873042  0.626525  1
  Ru  Ru37  1  0.127401  0.127264  0.374037  1
