# generated using pymatgen
data_Sm4Si9Ir13
_symmetry_space_group_name_H-M   'P 1'
_cell_length_a   3.94504000
_cell_length_b   11.06135700
_cell_length_c   19.12501900
_cell_angle_alpha   90.00000000
_cell_angle_beta   90.00000000
_cell_angle_gamma   90.00000000
_symmetry_Int_Tables_number   1
_chemical_formula_structural   Sm4Si9Ir13
_chemical_formula_sum   'Sm8 Si18 Ir26'
_cell_volume   834.56793666
_cell_formula_units_Z   2
loop_
 _symmetry_equiv_pos_site_id
 _symmetry_equiv_pos_as_xyz
  1  'x, y, z'
loop_
 _atom_site_type_symbol
 _atom_site_label
 _atom_site_symmetry_multiplicity
 _atom_site_fract_x
 _atom_site_fract_y
 _atom_site_fract_z
 _atom_site_occupancy
  Sm  Sm0  1  0.500000  0.809892  0.291915  1
  Sm  Sm1  1  0.500000  0.190108  0.291915  1
  Sm  Sm2  1  0.000000  0.690108  0.708085  1
  Sm  Sm3  1  0.000000  0.309892  0.708085  1
  Sm  Sm4  1  0.500000  0.000000  0.478149  1
  Sm  Sm5  1  0.000000  0.500000  0.521851  1
  Sm  Sm6  1  0.500000  0.500000  0.979772  1
  Sm  Sm7  1  0.000000  0.000000  0.020228  1
  Si  Si8  1  0.500000  0.309915  0.580329  1
  Si  Si9  1  0.500000  0.690085  0.580329  1
  Si  Si10  1  0.000000  0.190085  0.419671  1
  Si  Si11  1  0.000000  0.809915  0.419671  1
  Si  Si12  1  0.500000  0.816341  0.085302  1
  Si  Si13  1  0.500000  0.183659  0.085302  1
  Si  Si14  1  0.000000  0.683659  0.914698  1
  Si  Si15  1  0.000000  0.316341  0.914698  1
  Si  Si16  1  0.500000  0.874066  0.770851  1
  Si  Si17  1  0.500000  0.125934  0.770851  1
  Si  Si18  1  0.000000  0.625934  0.229149  1
  Si  Si19  1  0.000000  0.374066  0.229149  1
  Si  Si20  1  0.500000  0.000000  0.896892  1
  Si  Si21  1  0.000000  0.500000  0.103108  1
  Si  Si22  1  0.500000  0.500000  0.769030  1
  Si  Si23  1  0.000000  0.000000  0.230970  1
  Si  Si24  1  0.500000  0.500000  0.396969  1
  Si  Si25  1  0.000000  0.000000  0.603031  1
  Ir  Ir26  1  0.500000  0.299339  0.453061  1
  Ir  Ir27  1  0.500000  0.700661  0.453061  1
  Ir  Ir28  1  0.000000  0.200661  0.546939  1
  Ir  Ir29  1  0.000000  0.799339  0.546939  1
  Ir  Ir30  1  0.500000  0.315309  0.835876  1
  Ir  Ir31  1  0.500000  0.684691  0.835876  1
  Ir  Ir32  1  0.000000  0.184691  0.164124  1
  Ir  Ir33  1  0.000000  0.815309  0.164124  1
  Ir  Ir34  1  0.500000  0.373053  0.145234  1
  Ir  Ir35  1  0.500000  0.626947  0.145234  1
  Ir  Ir36  1  0.000000  0.126947  0.854766  1
  Ir  Ir37  1  0.000000  0.873053  0.854766  1
  Ir  Ir38  1  0.500000  0.809844  0.960347  1
  Ir  Ir39  1  0.500000  0.190156  0.960347  1
  Ir  Ir40  1  0.000000  0.690156  0.039653  1
  Ir  Ir41  1  0.000000  0.309844  0.039653  1
  Ir  Ir42  1  0.500000  0.876803  0.643016  1
  Ir  Ir43  1  0.500000  0.123197  0.643016  1
  Ir  Ir44  1  0.000000  0.623197  0.356984  1
  Ir  Ir45  1  0.000000  0.376803  0.356984  1
  Ir  Ir46  1  0.500000  0.000000  0.156595  1
  Ir  Ir47  1  0.000000  0.500000  0.843405  1
  Ir  Ir48  1  0.500000  0.500000  0.641771  1
  Ir  Ir49  1  0.000000  0.000000  0.358229  1
  Ir  Ir50  1  0.500000  0.500000  0.272532  1
  Ir  Ir51  1  0.000000  0.000000  0.727468  1
