# generated using pymatgen
data_CsZnGaF6
_symmetry_space_group_name_H-M   'P 1'
_cell_length_a   7.42947945
_cell_length_b   7.42947951
_cell_length_c   7.42947927
_cell_angle_alpha   119.54535393
_cell_angle_beta   120.46312562
_cell_angle_gamma   89.99449439
_symmetry_Int_Tables_number   1
_chemical_formula_structural   CsZnGaF6
_chemical_formula_sum   'Cs2 Zn2 Ga2 F12'
_cell_volume   289.93289370
_cell_formula_units_Z   2
loop_
 _symmetry_equiv_pos_site_id
 _symmetry_equiv_pos_as_xyz
  1  'x, y, z'
loop_
 _atom_site_type_symbol
 _atom_site_label
 _atom_site_symmetry_multiplicity
 _atom_site_fract_x
 _atom_site_fract_y
 _atom_site_fract_z
 _atom_site_occupancy
  Cs  Cs0  1  0.622191  0.872191  0.750000  1
  Cs  Cs1  1  0.377809  0.127809  0.250000  1
  Zn  Zn2  1  0.500000  0.500000  0.000000  1
  Zn  Zn3  1  0.000000  0.500000  0.500000  1
  Ga  Ga4  1  0.000000  0.500000  0.000000  1
  Ga  Ga5  1  0.000000  0.000000  0.500000  1
  F  F6  1  0.059015  0.809015  0.250000  1
  F  F7  1  0.674684  0.424684  0.250000  1
  F  F8  1  0.062023  0.832569  0.639040  1
  F  F9  1  0.693529  0.422982  0.860960  1
  F  F10  1  0.693529  0.832569  0.270546  1
  F  F11  1  0.062023  0.422982  0.229454  1
  F  F12  1  0.940985  0.190985  0.750000  1
  F  F13  1  0.325316  0.575316  0.750000  1
  F  F14  1  0.937977  0.167431  0.360960  1
  F  F15  1  0.306471  0.577018  0.139040  1
  F  F16  1  0.306471  0.167431  0.729454  1
  F  F17  1  0.937977  0.577018  0.770546  1
