# generated using pymatgen
data_Nd3Sc2(Ni2Sn5)2
_symmetry_space_group_name_H-M   'P 1'
_cell_length_a   13.78770900
_cell_length_b   13.78770900
_cell_length_c   4.47310000
_cell_angle_alpha   90.00000000
_cell_angle_beta   90.00000000
_cell_angle_gamma   90.00000000
_symmetry_Int_Tables_number   1
_chemical_formula_structural   Nd3Sc2(Ni2Sn5)2
_chemical_formula_sum   'Nd6 Sc4 Ni8 Sn20'
_cell_volume   850.34042288
_cell_formula_units_Z   2
loop_
 _symmetry_equiv_pos_site_id
 _symmetry_equiv_pos_as_xyz
  1  'x, y, z'
loop_
 _atom_site_type_symbol
 _atom_site_label
 _atom_site_symmetry_multiplicity
 _atom_site_fract_x
 _atom_site_fract_y
 _atom_site_fract_z
 _atom_site_occupancy
  Nd  Nd0  1  0.000000  0.000000  0.000000  1
  Nd  Nd1  1  0.500000  0.500000  0.000000  1
  Nd  Nd2  1  0.891569  0.608431  0.500000  1
  Nd  Nd3  1  0.108431  0.391569  0.500000  1
  Nd  Nd4  1  0.391569  0.891569  0.500000  1
  Nd  Nd5  1  0.608431  0.108431  0.500000  1
  Sc  Sc6  1  0.179220  0.679220  0.500000  1
  Sc  Sc7  1  0.820780  0.320780  0.500000  1
  Sc  Sc8  1  0.679220  0.820780  0.500000  1
  Sc  Sc9  1  0.320780  0.179220  0.500000  1
  Ni  Ni10  1  0.254542  0.534691  0.000000  1
  Ni  Ni11  1  0.745458  0.465309  0.000000  1
  Ni  Ni12  1  0.754542  0.965309  0.000000  1
  Ni  Ni13  1  0.245458  0.034691  0.000000  1
  Ni  Ni14  1  0.465309  0.254542  0.000000  1
  Ni  Ni15  1  0.534691  0.745458  0.000000  1
  Ni  Ni16  1  0.034691  0.754542  0.000000  1
  Ni  Ni17  1  0.965309  0.245458  0.000000  1
  Sn  Sn18  1  0.347968  0.699765  0.000000  1
  Sn  Sn19  1  0.652032  0.300235  0.000000  1
  Sn  Sn20  1  0.847968  0.800235  0.000000  1
  Sn  Sn21  1  0.152032  0.199765  0.000000  1
  Sn  Sn22  1  0.300235  0.347968  0.000000  1
  Sn  Sn23  1  0.699765  0.652032  0.000000  1
  Sn  Sn24  1  0.199765  0.847968  0.000000  1
  Sn  Sn25  1  0.800235  0.152032  0.000000  1
  Sn  Sn26  1  0.331985  0.512315  0.500000  1
  Sn  Sn27  1  0.668015  0.487685  0.500000  1
  Sn  Sn28  1  0.831985  0.987685  0.500000  1
  Sn  Sn29  1  0.168015  0.012315  0.500000  1
  Sn  Sn30  1  0.487685  0.331985  0.500000  1
  Sn  Sn31  1  0.512315  0.668015  0.500000  1
  Sn  Sn32  1  0.012315  0.831985  0.500000  1
  Sn  Sn33  1  0.987685  0.168015  0.500000  1
  Sn  Sn34  1  0.073932  0.573932  0.000000  1
  Sn  Sn35  1  0.926068  0.426068  0.000000  1
  Sn  Sn36  1  0.573932  0.926068  0.000000  1
  Sn  Sn37  1  0.426068  0.073932  0.000000  1
