# generated using pymatgen
data_Tb4Er(GeB4)2
_symmetry_space_group_name_H-M   'P 1'
_cell_length_a   7.26601800
_cell_length_b   7.26601800
_cell_length_c   8.17420700
_cell_angle_alpha   90.00000000
_cell_angle_beta   90.00000000
_cell_angle_gamma   90.00000000
_symmetry_Int_Tables_number   1
_chemical_formula_structural   Tb4Er(GeB4)2
_chemical_formula_sum   'Tb8 Er2 Ge4 B16'
_cell_volume   431.55740224
_cell_formula_units_Z   2
loop_
 _symmetry_equiv_pos_site_id
 _symmetry_equiv_pos_as_xyz
  1  'x, y, z'
loop_
 _atom_site_type_symbol
 _atom_site_label
 _atom_site_symmetry_multiplicity
 _atom_site_fract_x
 _atom_site_fract_y
 _atom_site_fract_z
 _atom_site_occupancy
  Tb  Tb0  1  0.680263  0.180263  0.221726  1
  Tb  Tb1  1  0.319737  0.819737  0.778274  1
  Tb  Tb2  1  0.319737  0.819737  0.221726  1
  Tb  Tb3  1  0.819737  0.680263  0.221726  1
  Tb  Tb4  1  0.819737  0.680263  0.778274  1
  Tb  Tb5  1  0.680263  0.180263  0.778274  1
  Tb  Tb6  1  0.180263  0.319737  0.778274  1
  Tb  Tb7  1  0.180263  0.319737  0.221726  1
  Er  Er8  1  0.000000  0.000000  0.500000  1
  Er  Er9  1  0.500000  0.500000  0.500000  1
  Ge  Ge10  1  0.120343  0.620343  0.500000  1
  Ge  Ge11  1  0.879657  0.379657  0.500000  1
  Ge  Ge12  1  0.379657  0.120343  0.500000  1
  Ge  Ge13  1  0.620343  0.879657  0.500000  1
  B  B14  1  0.172277  0.039379  0.000000  1
  B  B15  1  0.827723  0.960621  0.000000  1
  B  B16  1  0.960621  0.172277  0.000000  1
  B  B17  1  0.327723  0.539379  0.000000  1
  B  B18  1  0.039379  0.827723  0.000000  1
  B  B19  1  0.672277  0.460621  0.000000  1
  B  B20  1  0.539379  0.672277  0.000000  1
  B  B21  1  0.460621  0.327723  0.000000  1
  B  B22  1  0.090434  0.590434  0.000000  1
  B  B23  1  0.909566  0.409566  0.000000  1
  B  B24  1  0.409566  0.090434  0.000000  1
  B  B25  1  0.590434  0.909566  0.000000  1
  B  B26  1  0.000000  0.000000  0.161407  1
  B  B27  1  0.000000  0.000000  0.838593  1
  B  B28  1  0.500000  0.500000  0.838593  1
  B  B29  1  0.500000  0.500000  0.161407  1
