# generated using pymatgen
data_Pr8Ho8Sc4Si15Br
_symmetry_space_group_name_H-M   'P 1'
_cell_length_a   7.49956139
_cell_length_b   7.69978993
_cell_length_c   14.68495252
_cell_angle_alpha   89.74778310
_cell_angle_beta   87.25209936
_cell_angle_gamma   90.02457625
_symmetry_Int_Tables_number   1
_chemical_formula_structural   Pr8Ho8Sc4Si15Br
_chemical_formula_sum   'Pr8 Ho8 Sc4 Si15 Br1'
_cell_volume   846.99983827
_cell_formula_units_Z   1
loop_
 _symmetry_equiv_pos_site_id
 _symmetry_equiv_pos_as_xyz
  1  'x, y, z'
loop_
 _atom_site_type_symbol
 _atom_site_label
 _atom_site_symmetry_multiplicity
 _atom_site_fract_x
 _atom_site_fract_y
 _atom_site_fract_z
 _atom_site_occupancy
  Pr  Pr0  1  0.995219  0.172341  0.397546  1
  Pr  Pr1  1  0.504660  0.312674  0.397589  1
  Pr  Pr2  1  0.482967  0.681014  0.900772  1
  Pr  Pr3  1  0.510106  0.687324  0.601312  1
  Pr  Pr4  1  0.999038  0.826217  0.599260  1
  Pr  Pr5  1  0.981223  0.823832  0.899918  1
  Pr  Pr6  1  0.517501  0.322033  0.100174  1
  Pr  Pr7  1  0.018070  0.179682  0.099987  1
  Ho  Ho8  1  0.355675  0.157182  0.625686  1
  Ho  Ho9  1  0.649020  0.830635  0.377023  1
  Ho  Ho10  1  0.148882  0.671147  0.374916  1
  Ho  Ho11  1  0.824976  0.325366  0.874597  1
  Ho  Ho12  1  0.838243  0.332977  0.620884  1
  Ho  Ho13  1  0.325626  0.176350  0.874551  1
  Ho  Ho14  1  0.173156  0.675280  0.124343  1
  Ho  Ho15  1  0.673432  0.824091  0.123986  1
  Sc  Sc16  1  0.670590  0.993957  0.746941  1
  Sc  Sc17  1  0.833543  0.495912  0.254834  1
  Sc  Sc18  1  0.332522  0.002156  0.252214  1
  Sc  Sc19  1  0.165194  0.507739  0.759065  1
  Si  Si20  1  0.290089  0.869436  0.750900  1
  Si  Si21  1  0.460839  0.612443  0.249532  1
  Si  Si22  1  0.037116  0.118693  0.747984  1
  Si  Si23  1  0.534826  0.389697  0.748525  1
  Si  Si24  1  0.961479  0.885394  0.248431  1
  Si  Si25  1  0.710513  0.125744  0.248134  1
  Si  Si26  1  0.853636  0.531799  0.040635  1
  Si  Si27  1  0.353899  0.970257  0.041809  1
  Si  Si28  1  0.144327  0.470450  0.957954  1
  Si  Si29  1  0.689796  0.036702  0.545152  1
  Si  Si30  1  0.307561  0.961538  0.456957  1
  Si  Si31  1  0.804888  0.534283  0.452131  1
  Si  Si32  1  0.793539  0.629185  0.750149  1
  Si  Si33  1  0.210363  0.372994  0.249411  1
  Si  Si34  1  0.643682  0.032947  0.958259  1
  Br  Br35  1  0.203809  0.460532  0.548440  1
