# generated using pymatgen
data_Tm7LuSc10(Si8W)2
_symmetry_space_group_name_H-M   'P 1'
_cell_length_a   6.94590090
_cell_length_b   7.24536469
_cell_length_c   13.76269404
_cell_angle_alpha   89.99455478
_cell_angle_beta   89.99017647
_cell_angle_gamma   90.43963910
_symmetry_Int_Tables_number   1
_chemical_formula_structural   Tm7LuSc10(Si8W)2
_chemical_formula_sum   'Tm7 Lu1 Sc10 Si16 W2'
_cell_volume   692.59522763
_cell_formula_units_Z   1
loop_
 _symmetry_equiv_pos_site_id
 _symmetry_equiv_pos_as_xyz
  1  'x, y, z'
loop_
 _atom_site_type_symbol
 _atom_site_label
 _atom_site_symmetry_multiplicity
 _atom_site_fract_x
 _atom_site_fract_y
 _atom_site_fract_z
 _atom_site_occupancy
  Tm  Tm0  1  0.990881  0.819714  0.903828  1
  Tm  Tm1  1  0.484283  0.675414  0.902522  1
  Tm  Tm2  1  0.990817  0.819652  0.596465  1
  Tm  Tm3  1  0.515560  0.324507  0.097568  1
  Tm  Tm4  1  0.009232  0.180220  0.403660  1
  Tm  Tm5  1  0.515692  0.324453  0.402129  1
  Tm  Tm6  1  0.484406  0.675423  0.597685  1
  Lu  Lu7  1  0.009090  0.180804  0.096885  1
  Sc  Sc8  1  0.345079  0.006127  0.249781  1
  Sc  Sc9  1  0.654986  0.993987  0.750032  1
  Sc  Sc10  1  0.324665  0.177840  0.626212  1
  Sc  Sc11  1  0.675354  0.822123  0.373545  1
  Sc  Sc12  1  0.174899  0.667601  0.373673  1
  Sc  Sc13  1  0.675411  0.822372  0.126049  1
  Sc  Sc14  1  0.824905  0.332456  0.626033  1
  Sc  Sc15  1  0.324585  0.177829  0.873852  1
  Sc  Sc16  1  0.825070  0.332236  0.874138  1
  Sc  Sc17  1  0.174992  0.667851  0.126079  1
  Si  Si18  1  0.026739  0.123334  0.750046  1
  Si  Si19  1  0.973416  0.877403  0.249814  1
  Si  Si20  1  0.482632  0.601971  0.249781  1
  Si  Si21  1  0.517477  0.398048  0.750088  1
  Si  Si22  1  0.278610  0.858211  0.750093  1
  Si  Si23  1  0.721702  0.141808  0.249680  1
  Si  Si24  1  0.208113  0.367483  0.249753  1
  Si  Si25  1  0.791639  0.632002  0.750149  1
  Si  Si26  1  0.153625  0.466429  0.545785  1
  Si  Si27  1  0.846329  0.533588  0.454065  1
  Si  Si28  1  0.343711  0.965089  0.461197  1
  Si  Si29  1  0.846731  0.532895  0.046186  1
  Si  Si30  1  0.656467  0.034720  0.538610  1
  Si  Si31  1  0.153667  0.466038  0.954480  1
  Si  Si32  1  0.656342  0.034792  0.961415  1
  Si  Si33  1  0.342732  0.965739  0.038876  1
  W  W34  1  0.148868  0.499505  0.750045  1
  W  W35  1  0.851296  0.500338  0.249803  1
