# generated using pymatgen
data_Dy3Zn3PdRu2
_symmetry_space_group_name_H-M   'P 1'
_cell_length_a   7.05822600
_cell_length_b   7.05822685
_cell_length_c   4.01470600
_cell_angle_alpha   90.00000000
_cell_angle_beta   90.00000000
_cell_angle_gamma   119.99999603
_symmetry_Int_Tables_number   1
_chemical_formula_structural   Dy3Zn3PdRu2
_chemical_formula_sum   'Dy3 Zn3 Pd1 Ru2'
_cell_volume   173.21103965
_cell_formula_units_Z   1
loop_
 _symmetry_equiv_pos_site_id
 _symmetry_equiv_pos_as_xyz
  1  'x, y, z'
loop_
 _atom_site_type_symbol
 _atom_site_label
 _atom_site_symmetry_multiplicity
 _atom_site_fract_x
 _atom_site_fract_y
 _atom_site_fract_z
 _atom_site_occupancy
  Dy  Dy0  1  0.415966  0.415966  0.500000  1
  Dy  Dy1  1  0.584034  0.000000  0.500000  1
  Dy  Dy2  1  0.000000  0.584034  0.500000  1
  Zn  Zn3  1  0.749863  0.749863  0.000000  1
  Zn  Zn4  1  0.250137  0.000000  0.000000  1
  Zn  Zn5  1  0.000000  0.250137  0.000000  1
  Pd  Pd6  1  0.000000  0.000000  0.500000  1
  Ru  Ru7  1  0.666667  0.333333  0.000000  1
  Ru  Ru8  1  0.333333  0.666667  0.000000  1
