# generated using pymatgen
data_Er5Tm5(IrRu)2
_symmetry_space_group_name_H-M   'P 1'
_cell_length_a   6.34294466
_cell_length_b   7.22163252
_cell_length_c   8.35795276
_cell_angle_alpha   96.82907594
_cell_angle_beta   112.25058957
_cell_angle_gamma   89.97581960
_symmetry_Int_Tables_number   1
_chemical_formula_structural   Er5Tm5(IrRu)2
_chemical_formula_sum   'Er5 Tm5 Ir2 Ru2'
_cell_volume   351.41111516
_cell_formula_units_Z   1
loop_
 _symmetry_equiv_pos_site_id
 _symmetry_equiv_pos_as_xyz
  1  'x, y, z'
loop_
 _atom_site_type_symbol
 _atom_site_label
 _atom_site_symmetry_multiplicity
 _atom_site_fract_x
 _atom_site_fract_y
 _atom_site_fract_z
 _atom_site_occupancy
  Er  Er0  1  0.792237  0.082013  0.814867  1
  Er  Er1  1  0.977214  0.417903  0.185253  1
  Er  Er2  1  0.209667  0.915224  0.183635  1
  Er  Er3  1  0.025753  0.584715  0.816238  1
  Er  Er4  1  0.207973  0.182471  0.563294  1
  Tm  Tm5  1  0.644692  0.318097  0.436493  1
  Tm  Tm6  1  0.790226  0.815022  0.437770  1
  Tm  Tm7  1  0.352561  0.684621  0.562122  1
  Tm  Tm8  1  0.423810  0.250033  0.000170  1
  Tm  Tm9  1  0.576411  0.750069  0.000032  1
  Ir  Ir10  1  0.604421  0.423836  0.779121  1
  Ir  Ir11  1  0.824484  0.076189  0.221013  1
  Ru  Ru12  1  0.395056  0.574890  0.219437  1
  Ru  Ru13  1  0.175494  0.924917  0.780556  1
