# generated using pymatgen
data_Pr10AlSi4Au
_symmetry_space_group_name_H-M   'P 1'
_cell_length_a   7.81614746
_cell_length_b   7.81614714
_cell_length_c   9.24804609
_cell_angle_alpha   114.99782134
_cell_angle_beta   114.99781694
_cell_angle_gamma   89.99999683
_symmetry_Int_Tables_number   1
_chemical_formula_structural   Pr10AlSi4Au
_chemical_formula_sum   'Pr10 Al1 Si4 Au1'
_cell_volume   452.99030798
_cell_formula_units_Z   1
loop_
 _symmetry_equiv_pos_site_id
 _symmetry_equiv_pos_as_xyz
  1  'x, y, z'
loop_
 _atom_site_type_symbol
 _atom_site_label
 _atom_site_symmetry_multiplicity
 _atom_site_fract_x
 _atom_site_fract_y
 _atom_site_fract_z
 _atom_site_occupancy
  Pr  Pr0  1  0.476025  0.476025  0.952051  1
  Pr  Pr1  1  0.023975  0.023975  0.047949  1
  Pr  Pr2  1  0.953457  0.808140  0.280779  1
  Pr  Pr3  1  0.327323  0.472639  0.280779  1
  Pr  Pr4  1  0.808140  0.327323  0.280779  1
  Pr  Pr5  1  0.472639  0.953457  0.280779  1
  Pr  Pr6  1  0.027361  0.172677  0.719221  1
  Pr  Pr7  1  0.691860  0.546543  0.719221  1
  Pr  Pr8  1  0.172677  0.691860  0.719221  1
  Pr  Pr9  1  0.546543  0.027361  0.719221  1
  Al  Al10  1  0.250000  0.250000  0.500000  1
  Si  Si11  1  0.613989  0.886011  0.000000  1
  Si  Si12  1  0.386011  0.113989  0.000000  1
  Si  Si13  1  0.886011  0.386011  0.000000  1
  Si  Si14  1  0.113989  0.613989  0.000000  1
  Au  Au15  1  0.750000  0.750000  0.500000  1
