# generated using pymatgen
data_Er6Lu4InPb5
_symmetry_space_group_name_H-M   'P 1'
_cell_length_a   6.54760610
_cell_length_b   8.91326949
_cell_length_c   8.93311299
_cell_angle_alpha   119.99475385
_cell_angle_beta   90.01089820
_cell_angle_gamma   89.99135887
_symmetry_Int_Tables_number   1
_chemical_formula_structural   Er6Lu4InPb5
_chemical_formula_sum   'Er6 Lu4 In1 Pb5'
_cell_volume   451.51895647
_cell_formula_units_Z   1
loop_
 _symmetry_equiv_pos_site_id
 _symmetry_equiv_pos_as_xyz
  1  'x, y, z'
loop_
 _atom_site_type_symbol
 _atom_site_label
 _atom_site_symmetry_multiplicity
 _atom_site_fract_x
 _atom_site_fract_y
 _atom_site_fract_z
 _atom_site_occupancy
  Er  Er0  1  0.750103  0.235965  0.000664  1
  Er  Er1  1  0.749982  0.761306  0.767412  1
  Er  Er2  1  0.749963  0.994667  0.233033  1
  Er  Er3  1  0.250052  0.765379  0.998867  1
  Er  Er4  1  0.250051  0.237170  0.235834  1
  Er  Er5  1  0.250017  0.000409  0.764018  1
  Lu  Lu6  1  0.502055  0.336829  0.670468  1
  Lu  Lu7  1  0.502014  0.666687  0.329717  1
  Lu  Lu8  1  0.997944  0.666353  0.329306  1
  Lu  Lu9  1  0.997917  0.336781  0.670994  1
  In  In10  1  0.749771  0.599784  0.999375  1
  Pb  Pb11  1  0.750146  0.394266  0.395354  1
  Pb  Pb12  1  0.750003  0.998737  0.604805  1
  Pb  Pb13  1  0.250490  0.398432  0.000066  1
  Pb  Pb14  1  0.249739  0.604819  0.602338  1
  Pb  Pb15  1  0.249753  0.002419  0.397747  1
