# generated using pymatgen
data_MgIn2(SeO3)4
_symmetry_space_group_name_H-M   'P 1'
_cell_length_a   4.91495100
_cell_length_b   8.75180495
_cell_length_c   15.55918844
_cell_angle_alpha   69.14944826
_cell_angle_beta   90.00000000
_cell_angle_gamma   90.00000000
_symmetry_Int_Tables_number   1
_chemical_formula_structural   MgIn2(SeO3)4
_chemical_formula_sum   'Mg2 In4 Se8 O24'
_cell_volume   625.44431224
_cell_formula_units_Z   2
loop_
 _symmetry_equiv_pos_site_id
 _symmetry_equiv_pos_as_xyz
  1  'x, y, z'
loop_
 _atom_site_type_symbol
 _atom_site_label
 _atom_site_symmetry_multiplicity
 _atom_site_fract_x
 _atom_site_fract_y
 _atom_site_fract_z
 _atom_site_occupancy
  Mg  Mg0  1  0.000000  0.000000  0.000000  1
  Mg  Mg1  1  0.500000  0.000000  0.500000  1
  In  In2  1  0.535061  0.153762  0.787433  1
  In  In3  1  0.964939  0.153762  0.287433  1
  In  In4  1  0.464939  0.846238  0.212567  1
  In  In5  1  0.035061  0.846238  0.712567  1
  Se  Se6  1  0.576491  0.780156  0.890646  1
  Se  Se7  1  0.923509  0.780156  0.390646  1
  Se  Se8  1  0.423509  0.219844  0.109354  1
  Se  Se9  1  0.076491  0.219844  0.609354  1
  Se  Se10  1  0.002669  0.340536  0.872961  1
  Se  Se11  1  0.497331  0.340536  0.372961  1
  Se  Se12  1  0.997331  0.659464  0.127039  1
  Se  Se13  1  0.502669  0.659464  0.627039  1
  O  O14  1  0.769679  0.357581  0.786551  1
  O  O15  1  0.730321  0.357581  0.286551  1
  O  O16  1  0.230321  0.642419  0.213449  1
  O  O17  1  0.269679  0.642419  0.713449  1
  O  O18  1  0.827870  0.710252  0.837695  1
  O  O19  1  0.672130  0.710252  0.337695  1
  O  O20  1  0.172130  0.289748  0.162305  1
  O  O21  1  0.327870  0.289748  0.662305  1
  O  O22  1  0.204797  0.168890  0.877651  1
  O  O23  1  0.295203  0.168890  0.377651  1
  O  O24  1  0.795203  0.831110  0.122349  1
  O  O25  1  0.704797  0.831110  0.622349  1
  O  O26  1  0.715381  0.952516  0.906034  1
  O  O27  1  0.784619  0.952516  0.406034  1
  O  O28  1  0.284619  0.047484  0.093966  1
  O  O29  1  0.215381  0.047484  0.593966  1
  O  O30  1  0.372642  0.904424  0.799137  1
  O  O31  1  0.127358  0.904424  0.299137  1
  O  O32  1  0.627358  0.095576  0.200863  1
  O  O33  1  0.872642  0.095576  0.700863  1
  O  O34  1  0.833707  0.232238  0.971631  1
  O  O35  1  0.666293  0.232238  0.471631  1
  O  O36  1  0.166293  0.767762  0.028369  1
  O  O37  1  0.333707  0.767762  0.528369  1
