# generated using pymatgen
data_K4Zn(SiAu3)2
_symmetry_space_group_name_H-M   'P 1'
_cell_length_a   9.68158766
_cell_length_b   9.68158700
_cell_length_c   9.68158833
_cell_angle_alpha   40.11799785
_cell_angle_beta   40.11800306
_cell_angle_gamma   40.11799885
_symmetry_Int_Tables_number   1
_chemical_formula_structural   K4Zn(SiAu3)2
_chemical_formula_sum   'K4 Zn1 Si2 Au6'
_cell_volume   339.57726966
_cell_formula_units_Z   1
loop_
 _symmetry_equiv_pos_site_id
 _symmetry_equiv_pos_as_xyz
  1  'x, y, z'
loop_
 _atom_site_type_symbol
 _atom_site_label
 _atom_site_symmetry_multiplicity
 _atom_site_fract_x
 _atom_site_fract_y
 _atom_site_fract_z
 _atom_site_occupancy
  K  K0  1  0.682315  0.682315  0.682315  1
  K  K1  1  0.317685  0.317685  0.317685  1
  K  K2  1  0.807985  0.807985  0.807985  1
  K  K3  1  0.192015  0.192015  0.192015  1
  Zn  Zn4  1  0.000000  0.000000  0.000000  1
  Si  Si5  1  0.546882  0.546882  0.546882  1
  Si  Si6  1  0.453118  0.453118  0.453118  1
  Au  Au7  1  0.224815  0.224815  0.798768  1
  Au  Au8  1  0.798768  0.224815  0.224815  1
  Au  Au9  1  0.224815  0.798768  0.224815  1
  Au  Au10  1  0.775185  0.201232  0.775185  1
  Au  Au11  1  0.775185  0.775185  0.201232  1
  Au  Au12  1  0.201232  0.775185  0.775185  1
