# generated using pymatgen
data_Tb3LuFePt3O14
_symmetry_space_group_name_H-M   'P 1'
_cell_length_a   7.22545706
_cell_length_b   7.22545751
_cell_length_c   7.27991718
_cell_angle_alpha   60.24715290
_cell_angle_beta   60.24716119
_cell_angle_gamma   59.99999975
_symmetry_Int_Tables_number   1
_chemical_formula_structural   Tb3LuFePt3O14
_chemical_formula_sum   'Tb3 Lu1 Fe1 Pt3 O14'
_cell_volume   269.74566970
_cell_formula_units_Z   1
loop_
 _symmetry_equiv_pos_site_id
 _symmetry_equiv_pos_as_xyz
  1  'x, y, z'
loop_
 _atom_site_type_symbol
 _atom_site_label
 _atom_site_symmetry_multiplicity
 _atom_site_fract_x
 _atom_site_fract_y
 _atom_site_fract_z
 _atom_site_occupancy
  Tb  Tb0  1  0.625000  0.625000  0.625000  1
  Tb  Tb1  1  0.625000  0.125000  0.625000  1
  Tb  Tb2  1  0.125000  0.625000  0.625000  1
  Lu  Lu3  1  0.625000  0.625000  0.125000  1
  Fe  Fe4  1  0.125000  0.125000  0.625000  1
  Pt  Pt5  1  0.125000  0.125000  0.125000  1
  Pt  Pt6  1  0.625000  0.125000  0.125000  1
  Pt  Pt7  1  0.125000  0.625000  0.125000  1
  O  O8  1  0.035755  0.466914  0.461576  1
  O  O9  1  0.785445  0.785445  0.207570  1
  O  O10  1  0.785445  0.221540  0.207570  1
  O  O11  1  0.466914  0.035755  0.461576  1
  O  O12  1  0.028460  0.464555  0.042430  1
  O  O13  1  0.745622  0.745622  0.763133  1
  O  O14  1  0.035755  0.035755  0.461576  1
  O  O15  1  0.221540  0.785445  0.207570  1
  O  O16  1  0.214245  0.214245  0.788424  1
  O  O17  1  0.504378  0.504378  0.486867  1
  O  O18  1  0.783086  0.214245  0.788424  1
  O  O19  1  0.464555  0.028460  0.042430  1
  O  O20  1  0.464555  0.464555  0.042430  1
  O  O21  1  0.214245  0.783086  0.788424  1
