# generated using pymatgen
data_Cs4Ba(AsSe4)2
_symmetry_space_group_name_H-M   'P 1'
_cell_length_a   12.60408731
_cell_length_b   12.60408786
_cell_length_c   12.60408678
_cell_angle_alpha   132.47442373
_cell_angle_beta   127.93824710
_cell_angle_gamma   73.13768267
_symmetry_Int_Tables_number   1
_chemical_formula_structural   Cs4Ba(AsSe4)2
_chemical_formula_sum   'Cs8 Ba2 As4 Se16'
_cell_volume   1137.52254904
_cell_formula_units_Z   2
loop_
 _symmetry_equiv_pos_site_id
 _symmetry_equiv_pos_as_xyz
  1  'x, y, z'
loop_
 _atom_site_type_symbol
 _atom_site_label
 _atom_site_symmetry_multiplicity
 _atom_site_fract_x
 _atom_site_fract_y
 _atom_site_fract_z
 _atom_site_occupancy
  Cs  Cs0  1  0.492549  0.242549  0.250000  1
  Cs  Cs1  1  0.007451  0.757451  0.250000  1
  Cs  Cs2  1  0.586089  0.705375  0.119286  1
  Cs  Cs3  1  0.413911  0.294625  0.880714  1
  Cs  Cs4  1  0.507451  0.757451  0.750000  1
  Cs  Cs5  1  0.086089  0.466804  0.380714  1
  Cs  Cs6  1  0.913911  0.533196  0.619286  1
  Cs  Cs7  1  0.992549  0.242549  0.750000  1
  Ba  Ba8  1  0.250000  0.000000  0.250000  1
  Ba  Ba9  1  0.750000  0.000000  0.750000  1
  As  As10  1  0.126376  0.921149  0.794773  1
  As  As11  1  0.873624  0.078851  0.205227  1
  As  As12  1  0.373624  0.668397  0.294773  1
  As  As13  1  0.626376  0.331603  0.705227  1
  Se  Se14  1  0.599651  0.636780  0.382425  1
  Se  Se15  1  0.761410  0.022535  0.261124  1
  Se  Se16  1  0.891621  0.866312  0.974691  1
  Se  Se17  1  0.745644  0.363220  0.962870  1
  Se  Se18  1  0.754356  0.217226  0.117575  1
  Se  Se19  1  0.738590  0.499713  0.761124  1
  Se  Se20  1  0.238590  0.977465  0.738876  1
  Se  Se21  1  0.254356  0.636780  0.037130  1
  Se  Se22  1  0.261410  0.500287  0.238876  1
  Se  Se23  1  0.245644  0.782774  0.882425  1
  Se  Se24  1  0.108379  0.133688  0.025309  1
  Se  Se25  1  0.900349  0.782774  0.537130  1
  Se  Se26  1  0.099651  0.217226  0.462870  1
  Se  Se27  1  0.608379  0.083069  0.474691  1
  Se  Se28  1  0.400349  0.363220  0.617575  1
  Se  Se29  1  0.391621  0.916931  0.525309  1
