# generated using pymatgen
data_Rb14Ta2In6AsP9
_symmetry_space_group_name_H-M   'P 1'
_cell_length_a   8.56812104
_cell_length_b   9.44064670
_cell_length_c   14.31076065
_cell_angle_alpha   85.54128562
_cell_angle_beta   83.92891207
_cell_angle_gamma   86.42894241
_symmetry_Int_Tables_number   1
_chemical_formula_structural   Rb14Ta2In6AsP9
_chemical_formula_sum   'Rb14 Ta2 In6 As1 P9'
_cell_volume   1145.89372225
_cell_formula_units_Z   1
loop_
 _symmetry_equiv_pos_site_id
 _symmetry_equiv_pos_as_xyz
  1  'x, y, z'
loop_
 _atom_site_type_symbol
 _atom_site_label
 _atom_site_symmetry_multiplicity
 _atom_site_fract_x
 _atom_site_fract_y
 _atom_site_fract_z
 _atom_site_occupancy
  Rb  Rb0  1  0.832917  0.365247  0.647994  1
  Rb  Rb1  1  0.814463  0.807468  0.131102  1
  Rb  Rb2  1  0.242747  0.008234  0.468285  1
  Rb  Rb3  1  0.271598  0.257546  0.251280  1
  Rb  Rb4  1  0.740012  0.499621  0.972469  1
  Rb  Rb5  1  0.259772  0.501137  0.027017  1
  Rb  Rb6  1  0.684210  0.084456  0.884571  1
  Rb  Rb7  1  0.759364  0.992733  0.534470  1
  Rb  Rb8  1  0.727616  0.744120  0.748617  1
  Rb  Rb9  1  0.328718  0.340414  0.601906  1
  Rb  Rb10  1  0.168381  0.634803  0.353031  1
  Rb  Rb11  1  0.184165  0.191745  0.866943  1
  Rb  Rb12  1  0.316403  0.915307  0.114720  1
  Rb  Rb13  1  0.671861  0.661528  0.398065  1
  Ta  Ta14  1  0.352554  0.604116  0.773712  1
  Ta  Ta15  1  0.647256  0.396034  0.226335  1
  In  In16  1  0.055480  0.814886  0.870358  1
  In  In17  1  0.943310  0.187736  0.127001  1
  In  In18  1  0.364597  0.951877  0.701401  1
  In  In19  1  0.092243  0.719922  0.622535  1
  In  In20  1  0.905771  0.283310  0.378559  1
  In  In21  1  0.631177  0.048343  0.298441  1
  As  As22  1  0.972703  0.999281  0.299268  1
  P  P23  1  0.921537  0.450349  0.210302  1
  P  P24  1  0.622904  0.201697  0.126101  1
  P  P25  1  0.078341  0.549111  0.789855  1
  P  P26  1  0.583780  0.299943  0.387879  1
  P  P27  1  0.415444  0.700258  0.612141  1
  P  P28  1  0.033870  0.990112  0.702110  1
  P  P29  1  0.513332  0.402282  0.810302  1
  P  P30  1  0.486981  0.597719  0.189413  1
  P  P31  1  0.376495  0.798662  0.873818  1
