# generated using pymatgen
data_Tb4MgZn2Bi
_symmetry_space_group_name_H-M   'P 1'
_cell_length_a   8.64999365
_cell_length_b   8.64999432
_cell_length_c   8.64999446
_cell_angle_alpha   125.81639901
_cell_angle_beta   125.81640209
_cell_angle_gamma   80.19011187
_symmetry_Int_Tables_number   1
_chemical_formula_structural   Tb4MgZn2Bi
_chemical_formula_sum   'Tb8 Mg2 Zn4 Bi2'
_cell_volume   410.74777134
_cell_formula_units_Z   2
loop_
 _symmetry_equiv_pos_site_id
 _symmetry_equiv_pos_as_xyz
  1  'x, y, z'
loop_
 _atom_site_type_symbol
 _atom_site_label
 _atom_site_symmetry_multiplicity
 _atom_site_fract_x
 _atom_site_fract_y
 _atom_site_fract_z
 _atom_site_occupancy
  Tb  Tb0  1  0.800690  0.300690  0.817993  1
  Tb  Tb1  1  0.199310  0.699310  0.182007  1
  Tb  Tb2  1  0.482697  0.982697  0.182007  1
  Tb  Tb3  1  0.300690  0.482697  0.500000  1
  Tb  Tb4  1  0.017303  0.199310  0.500000  1
  Tb  Tb5  1  0.517303  0.017303  0.817993  1
  Tb  Tb6  1  0.699310  0.517303  0.500000  1
  Tb  Tb7  1  0.982697  0.800690  0.500000  1
  Mg  Mg8  1  0.000000  0.000000  0.000000  1
  Mg  Mg9  1  0.500000  0.500000  0.000000  1
  Zn  Zn10  1  0.134778  0.634778  0.769556  1
  Zn  Zn11  1  0.865222  0.365222  0.230444  1
  Zn  Zn12  1  0.634778  0.865222  0.500000  1
  Zn  Zn13  1  0.365222  0.134778  0.500000  1
  Bi  Bi14  1  0.250000  0.250000  0.000000  1
  Bi  Bi15  1  0.750000  0.750000  0.000000  1
