# generated using pymatgen
data_Na2PdAu3
_symmetry_space_group_name_H-M   'P 1'
_cell_length_a   5.57006333
_cell_length_b   5.58260476
_cell_length_c   5.58260500
_cell_angle_alpha   60.00000452
_cell_angle_beta   59.92549491
_cell_angle_gamma   59.92549510
_symmetry_Int_Tables_number   1
_chemical_formula_structural   Na2PdAu3
_chemical_formula_sum   'Na2 Pd1 Au3'
_cell_volume   122.61085902
_cell_formula_units_Z   1
loop_
 _symmetry_equiv_pos_site_id
 _symmetry_equiv_pos_as_xyz
  1  'x, y, z'
loop_
 _atom_site_type_symbol
 _atom_site_label
 _atom_site_symmetry_multiplicity
 _atom_site_fract_x
 _atom_site_fract_y
 _atom_site_fract_z
 _atom_site_occupancy
  Na  Na0  1  0.749686  0.750105  0.750105  1
  Na  Na1  1  0.500314  0.499895  0.499895  1
  Pd  Pd2  1  0.625000  0.125000  0.125000  1
  Au  Au3  1  0.125000  0.625000  0.125000  1
  Au  Au4  1  0.125000  0.125000  0.625000  1
  Au  Au5  1  0.125000  0.125000  0.125000  1
