# generated using pymatgen
data_TaTi9(GaSn3)2
_symmetry_space_group_name_H-M   'P 1'
_cell_length_a   8.27354900
_cell_length_b   8.27354822
_cell_length_c   5.56188800
_cell_angle_alpha   90.00000000
_cell_angle_beta   90.00000000
_cell_angle_gamma   119.99999913
_symmetry_Int_Tables_number   1
_chemical_formula_structural   TaTi9(GaSn3)2
_chemical_formula_sum   'Ta1 Ti9 Ga2 Sn6'
_cell_volume   329.71334124
_cell_formula_units_Z   1
loop_
 _symmetry_equiv_pos_site_id
 _symmetry_equiv_pos_as_xyz
  1  'x, y, z'
loop_
 _atom_site_type_symbol
 _atom_site_label
 _atom_site_symmetry_multiplicity
 _atom_site_fract_x
 _atom_site_fract_y
 _atom_site_fract_z
 _atom_site_occupancy
  Ta  Ta0  1  0.333333  0.666667  0.000000  1
  Ti  Ti1  1  0.666667  0.333333  0.500000  1
  Ti  Ti2  1  0.666667  0.333333  0.000000  1
  Ti  Ti3  1  0.333333  0.666667  0.500000  1
  Ti  Ti4  1  0.268834  0.999168  0.248864  1
  Ti  Ti5  1  0.268834  0.269666  0.751136  1
  Ti  Ti6  1  0.000832  0.731166  0.751136  1
  Ti  Ti7  1  0.000832  0.269666  0.248864  1
  Ti  Ti8  1  0.730334  0.731166  0.248864  1
  Ti  Ti9  1  0.730334  0.999168  0.751136  1
  Ga  Ga10  1  0.000000  0.000000  0.000000  1
  Ga  Ga11  1  0.000000  0.000000  0.500000  1
  Sn  Sn12  1  0.613966  0.001541  0.251233  1
  Sn  Sn13  1  0.613966  0.612425  0.748767  1
  Sn  Sn14  1  0.998459  0.386034  0.748767  1
  Sn  Sn15  1  0.998459  0.612425  0.251233  1
  Sn  Sn16  1  0.387575  0.386034  0.251233  1
  Sn  Sn17  1  0.387575  0.001541  0.748767  1
