# generated using pymatgen
data_Tb4PaRu2
_symmetry_space_group_name_H-M   'P 1'
_cell_length_a   8.79342698
_cell_length_b   8.79342714
_cell_length_c   7.08761272
_cell_angle_alpha   81.46911925
_cell_angle_beta   81.46911829
_cell_angle_gamma   42.40141133
_symmetry_Int_Tables_number   1
_chemical_formula_structural   Tb4PaRu2
_chemical_formula_sum   'Tb8 Pa2 Ru4'
_cell_volume   364.85017397
_cell_formula_units_Z   2
loop_
 _symmetry_equiv_pos_site_id
 _symmetry_equiv_pos_as_xyz
  1  'x, y, z'
loop_
 _atom_site_type_symbol
 _atom_site_label
 _atom_site_symmetry_multiplicity
 _atom_site_fract_x
 _atom_site_fract_y
 _atom_site_fract_z
 _atom_site_occupancy
  Tb  Tb0  1  0.210211  0.975758  0.578038  1
  Tb  Tb1  1  0.024242  0.789789  0.921962  1
  Tb  Tb2  1  0.211410  0.351750  0.312545  1
  Tb  Tb3  1  0.648250  0.788590  0.187455  1
  Tb  Tb4  1  0.788590  0.648250  0.687455  1
  Tb  Tb5  1  0.351750  0.211410  0.812545  1
  Tb  Tb6  1  0.975758  0.210211  0.078038  1
  Tb  Tb7  1  0.789789  0.024242  0.421962  1
  Pa  Pa8  1  0.584224  0.415776  0.750000  1
  Pa  Pa9  1  0.415776  0.584224  0.250000  1
  Ru  Ru10  1  0.226043  0.582669  0.552538  1
  Ru  Ru11  1  0.417331  0.773957  0.947462  1
  Ru  Ru12  1  0.773957  0.417331  0.447462  1
  Ru  Ru13  1  0.582669  0.226043  0.052538  1
