# generated using pymatgen
data_Ho4Al12Pd
_symmetry_space_group_name_H-M   'P 1'
_cell_length_a   7.48043546
_cell_length_b   7.48043608
_cell_length_c   7.48043600
_cell_angle_alpha   109.47122313
_cell_angle_beta   109.47122482
_cell_angle_gamma   109.47122243
_symmetry_Int_Tables_number   1
_chemical_formula_structural   Ho4Al12Pd
_chemical_formula_sum   'Ho4 Al12 Pd1'
_cell_volume   322.22465810
_cell_formula_units_Z   1
loop_
 _symmetry_equiv_pos_site_id
 _symmetry_equiv_pos_as_xyz
  1  'x, y, z'
loop_
 _atom_site_type_symbol
 _atom_site_label
 _atom_site_symmetry_multiplicity
 _atom_site_fract_x
 _atom_site_fract_y
 _atom_site_fract_z
 _atom_site_occupancy
  Ho  Ho0  1  0.000000  0.000000  0.500000  1
  Ho  Ho1  1  0.000000  0.500000  0.000000  1
  Ho  Ho2  1  0.500000  0.000000  0.000000  1
  Ho  Ho3  1  0.500000  0.500000  0.500000  1
  Al  Al4  1  0.750000  0.250000  0.500000  1
  Al  Al5  1  0.750000  0.500000  0.250000  1
  Al  Al6  1  0.500000  0.250000  0.750000  1
  Al  Al7  1  0.250000  0.500000  0.750000  1
  Al  Al8  1  0.250000  0.750000  0.500000  1
  Al  Al9  1  0.500000  0.750000  0.250000  1
  Al  Al10  1  0.706125  0.706125  0.000000  1
  Al  Al11  1  0.293875  0.000000  0.293875  1
  Al  Al12  1  0.000000  0.293875  0.293875  1
  Al  Al13  1  0.293875  0.293875  0.000000  1
  Al  Al14  1  0.706125  0.000000  0.706125  1
  Al  Al15  1  0.000000  0.706125  0.706125  1
  Pd  Pd16  1  0.000000  0.000000  0.000000  1
