# generated using pymatgen
data_Er2Be2Fe(SiO5)2
_symmetry_space_group_name_H-M   'P 1'
_cell_length_a   9.98287329
_cell_length_b   7.51208900
_cell_length_c   4.76584354
_cell_angle_alpha   90.00000000
_cell_angle_beta   89.23809675
_cell_angle_gamma   90.00000000
_symmetry_Int_Tables_number   1
_chemical_formula_structural   Er2Be2Fe(SiO5)2
_chemical_formula_sum   'Er4 Be4 Fe2 Si4 O20'
_cell_volume   357.36964815
_cell_formula_units_Z   2
loop_
 _symmetry_equiv_pos_site_id
 _symmetry_equiv_pos_as_xyz
  1  'x, y, z'
loop_
 _atom_site_type_symbol
 _atom_site_label
 _atom_site_symmetry_multiplicity
 _atom_site_fract_x
 _atom_site_fract_y
 _atom_site_fract_z
 _atom_site_occupancy
  Er  Er0  1  0.329235  0.105038  0.002364  1
  Er  Er1  1  0.829235  0.394963  0.002364  1
  Er  Er2  1  0.170765  0.605037  0.997636  1
  Er  Er3  1  0.670765  0.894962  0.997636  1
  Be  Be4  1  0.166461  0.913241  0.464502  1
  Be  Be5  1  0.666461  0.586760  0.464502  1
  Be  Be6  1  0.833539  0.086759  0.535498  1
  Be  Be7  1  0.333538  0.413240  0.535500  1
  Fe  Fe8  1  0.000000  0.000000  0.000000  1
  Fe  Fe9  1  0.500000  0.499999  0.000000  1
  Si  Si10  1  0.077257  0.281054  0.481689  1
  Si  Si11  1  0.577256  0.218945  0.481689  1
  Si  Si12  1  0.422743  0.781055  0.518310  1
  Si  Si13  1  0.922743  0.718946  0.518311  1
  O  O14  1  0.829868  0.087797  0.201884  1
  O  O15  1  0.329868  0.412202  0.201886  1
  O  O16  1  0.027958  0.416088  0.237055  1
  O  O17  1  0.527958  0.083913  0.237056  1
  O  O18  1  0.305418  0.849114  0.304937  1
  O  O19  1  0.805418  0.650887  0.304937  1
  O  O20  1  0.142696  0.108004  0.312667  1
  O  O21  1  0.642696  0.391997  0.312667  1
  O  O22  1  0.050672  0.785889  0.322125  1
  O  O23  1  0.550672  0.714112  0.322126  1
  O  O24  1  0.449328  0.285888  0.677874  1
  O  O25  1  0.949328  0.214111  0.677874  1
  O  O26  1  0.357304  0.608003  0.687332  1
  O  O27  1  0.857304  0.891996  0.687332  1
  O  O28  1  0.194582  0.349113  0.695062  1
  O  O29  1  0.694582  0.150887  0.695062  1
  O  O30  1  0.472043  0.916087  0.762944  1
  O  O31  1  0.972043  0.583912  0.762944  1
  O  O32  1  0.170131  0.912203  0.798115  1
  O  O33  1  0.670131  0.587798  0.798116  1
