# generated using pymatgen
data_Ho4Cd2CuNi3
_symmetry_space_group_name_H-M   'P 1'
_cell_length_a   7.39389847
_cell_length_b   7.39389870
_cell_length_c   3.63598300
_cell_angle_alpha   90.00000000
_cell_angle_beta   90.00000000
_cell_angle_gamma   90.32409885
_symmetry_Int_Tables_number   1
_chemical_formula_structural   Ho4Cd2CuNi3
_chemical_formula_sum   'Ho4 Cd2 Cu1 Ni3'
_cell_volume   198.77505169
_cell_formula_units_Z   1
loop_
 _symmetry_equiv_pos_site_id
 _symmetry_equiv_pos_as_xyz
  1  'x, y, z'
loop_
 _atom_site_type_symbol
 _atom_site_label
 _atom_site_symmetry_multiplicity
 _atom_site_fract_x
 _atom_site_fract_y
 _atom_site_fract_z
 _atom_site_occupancy
  Ho  Ho0  1  0.685481  0.170581  0.500000  1
  Ho  Ho1  1  0.329419  0.814519  0.500000  1
  Ho  Ho2  1  0.162717  0.337283  0.500000  1
  Ho  Ho3  1  0.824815  0.675185  0.500000  1
  Cd  Cd4  1  0.004888  0.998821  0.000000  1
  Cd  Cd5  1  0.501179  0.495112  0.000000  1
  Cu  Cu6  1  0.379919  0.120081  0.000000  1
  Ni  Ni7  1  0.117141  0.624370  0.000000  1
  Ni  Ni8  1  0.875630  0.382859  0.000000  1
  Ni  Ni9  1  0.618812  0.881188  0.000000  1
