# generated using pymatgen
data_Er10Lu6MgAg3Rh4
_symmetry_space_group_name_H-M   'P 1'
_cell_length_a   9.43191019
_cell_length_b   9.45151957
_cell_length_c   9.45152047
_cell_angle_alpha   59.97223091
_cell_angle_beta   60.02356599
_cell_angle_gamma   60.02357362
_symmetry_Int_Tables_number   1
_chemical_formula_structural   Er10Lu6MgAg3Rh4
_chemical_formula_sum   'Er10 Lu6 Mg1 Ag3 Rh4'
_cell_volume   595.86971631
_cell_formula_units_Z   1
loop_
 _symmetry_equiv_pos_site_id
 _symmetry_equiv_pos_as_xyz
  1  'x, y, z'
loop_
 _atom_site_type_symbol
 _atom_site_label
 _atom_site_symmetry_multiplicity
 _atom_site_fract_x
 _atom_site_fract_y
 _atom_site_fract_z
 _atom_site_occupancy
  Er  Er0  1  0.185590  0.812936  0.187144  1
  Er  Er1  1  0.810772  0.188159  0.811447  1
  Er  Er2  1  0.185590  0.187144  0.812936  1
  Er  Er3  1  0.810772  0.811447  0.188159  1
  Er  Er4  1  0.931979  0.564924  0.564924  1
  Er  Er5  1  0.563997  0.935862  0.935862  1
  Er  Er6  1  0.563000  0.936539  0.564814  1
  Er  Er7  1  0.933438  0.564473  0.937657  1
  Er  Er8  1  0.563000  0.564814  0.936539  1
  Er  Er9  1  0.933438  0.937657  0.564473  1
  Lu  Lu10  1  0.351393  0.349381  0.349381  1
  Lu  Lu11  1  0.350597  0.349545  0.951471  1
  Lu  Lu12  1  0.350597  0.951471  0.349545  1
  Lu  Lu13  1  0.942508  0.352624  0.352624  1
  Lu  Lu14  1  0.810534  0.188359  0.188359  1
  Lu  Lu15  1  0.185714  0.812871  0.812871  1
  Mg  Mg16  1  0.281194  0.573177  0.573177  1
  Ag  Ag17  1  0.582460  0.582942  0.582942  1
  Ag  Ag18  1  0.582743  0.582847  0.251678  1
  Ag  Ag19  1  0.582743  0.251678  0.582847  1
  Rh  Rh20  1  0.141418  0.144395  0.144395  1
  Rh  Rh21  1  0.143400  0.143651  0.569029  1
  Rh  Rh22  1  0.143400  0.569029  0.143651  1
  Rh  Rh23  1  0.569722  0.144069  0.144069  1
