# generated using pymatgen
data_DyPa3(AlTc)4
_symmetry_space_group_name_H-M   'P 1'
_cell_length_a   3.93285000
_cell_length_b   6.96517168
_cell_length_c   8.42387402
_cell_angle_alpha   89.24707732
_cell_angle_beta   90.00000000
_cell_angle_gamma   90.00000000
_symmetry_Int_Tables_number   1
_chemical_formula_structural   DyPa3(AlTc)4
_chemical_formula_sum   'Dy1 Pa3 Al4 Tc4'
_cell_volume   230.73505030
_cell_formula_units_Z   1
loop_
 _symmetry_equiv_pos_site_id
 _symmetry_equiv_pos_as_xyz
  1  'x, y, z'
loop_
 _atom_site_type_symbol
 _atom_site_label
 _atom_site_symmetry_multiplicity
 _atom_site_fract_x
 _atom_site_fract_y
 _atom_site_fract_z
 _atom_site_occupancy
  Dy  Dy0  1  0.250000  0.963958  0.316570  1
  Pa  Pa1  1  0.250000  0.467240  0.190102  1
  Pa  Pa2  1  0.750000  0.526572  0.814230  1
  Pa  Pa3  1  0.750000  0.030733  0.684084  1
  Al  Al4  1  0.250000  0.863434  0.949050  1
  Al  Al5  1  0.750000  0.126697  0.058859  1
  Al  Al6  1  0.750000  0.645942  0.446273  1
  Al  Al7  1  0.250000  0.371379  0.552006  1
  Tc  Tc8  1  0.250000  0.754147  0.645948  1
  Tc  Tc9  1  0.750000  0.273365  0.361115  1
  Tc  Tc10  1  0.750000  0.728732  0.123594  1
  Tc  Tc11  1  0.250000  0.247799  0.858168  1
