# generated using pymatgen
data_La4TbPr(RuI3)2
_symmetry_space_group_name_H-M   'P 1'
_cell_length_a   4.36952000
_cell_length_b   9.52378087
_cell_length_c   12.53144824
_cell_angle_alpha   86.86283809
_cell_angle_beta   90.00000000
_cell_angle_gamma   90.00000000
_symmetry_Int_Tables_number   1
_chemical_formula_structural   La4TbPr(RuI3)2
_chemical_formula_sum   'La4 Tb1 Pr1 Ru2 I6'
_cell_volume   520.70657523
_cell_formula_units_Z   1
loop_
 _symmetry_equiv_pos_site_id
 _symmetry_equiv_pos_as_xyz
  1  'x, y, z'
loop_
 _atom_site_type_symbol
 _atom_site_label
 _atom_site_symmetry_multiplicity
 _atom_site_fract_x
 _atom_site_fract_y
 _atom_site_fract_z
 _atom_site_occupancy
  La  La0  1  0.750000  0.686637  0.116178  1
  La  La1  1  0.250000  0.313220  0.881916  1
  La  La2  1  0.250000  0.884554  0.329162  1
  La  La3  1  0.750000  0.112322  0.670968  1
  Tb  Tb4  1  0.250000  0.911130  0.898066  1
  Pr  Pr5  1  0.750000  0.095993  0.103461  1
  Ru  Ru6  1  0.250000  0.885665  0.126536  1
  Ru  Ru7  1  0.750000  0.110741  0.871279  1
  I  I8  1  0.250000  0.863138  0.622615  1
  I  I9  1  0.750000  0.135141  0.379980  1
  I  I10  1  0.750000  0.633045  0.377959  1
  I  I11  1  0.250000  0.366061  0.622166  1
  I  I12  1  0.250000  0.393013  0.137717  1
  I  I13  1  0.750000  0.609338  0.861998  1
