# generated using pymatgen
data_Cs2Pr2MnS5
_symmetry_space_group_name_H-M   'P 1'
_cell_length_a   4.19042800
_cell_length_b   16.04103300
_cell_length_c   18.47209300
_cell_angle_alpha   90.00000000
_cell_angle_beta   90.00000000
_cell_angle_gamma   90.00000000
_symmetry_Int_Tables_number   1
_chemical_formula_structural   Cs2Pr2MnS5
_chemical_formula_sum   'Cs8 Pr8 Mn4 S20'
_cell_volume   1241.67181101
_cell_formula_units_Z   4
loop_
 _symmetry_equiv_pos_site_id
 _symmetry_equiv_pos_as_xyz
  1  'x, y, z'
loop_
 _atom_site_type_symbol
 _atom_site_label
 _atom_site_symmetry_multiplicity
 _atom_site_fract_x
 _atom_site_fract_y
 _atom_site_fract_z
 _atom_site_occupancy
  Cs  Cs0  1  0.250000  0.509432  0.122007  1
  Cs  Cs1  1  0.750000  0.532610  0.380726  1
  Cs  Cs2  1  0.250000  0.967390  0.880726  1
  Cs  Cs3  1  0.750000  0.990568  0.622007  1
  Cs  Cs4  1  0.750000  0.490568  0.877993  1
  Cs  Cs5  1  0.750000  0.032610  0.119274  1
  Cs  Cs6  1  0.250000  0.467390  0.619274  1
  Cs  Cs7  1  0.250000  0.009432  0.377993  1
  Pr  Pr8  1  0.250000  0.250779  0.989606  1
  Pr  Pr9  1  0.750000  0.249221  0.489606  1
  Pr  Pr10  1  0.750000  0.713204  0.700252  1
  Pr  Pr11  1  0.750000  0.749221  0.010394  1
  Pr  Pr12  1  0.250000  0.786796  0.200252  1
  Pr  Pr13  1  0.750000  0.213204  0.799748  1
  Pr  Pr14  1  0.250000  0.750779  0.510394  1
  Pr  Pr15  1  0.250000  0.286796  0.299748  1
  Mn  Mn16  1  0.750000  0.794115  0.356493  1
  Mn  Mn17  1  0.750000  0.294115  0.143507  1
  Mn  Mn18  1  0.250000  0.205885  0.643507  1
  Mn  Mn19  1  0.250000  0.705885  0.856493  1
  S  S20  1  0.250000  0.110375  0.741309  1
  S  S21  1  0.250000  0.361190  0.442316  1
  S  S22  1  0.250000  0.861190  0.057684  1
  S  S23  1  0.750000  0.889625  0.258691  1
  S  S24  1  0.750000  0.389625  0.241309  1
  S  S25  1  0.750000  0.787962  0.850898  1
  S  S26  1  0.250000  0.317072  0.848884  1
  S  S27  1  0.250000  0.712038  0.350898  1
  S  S28  1  0.750000  0.682928  0.151116  1
  S  S29  1  0.250000  0.817072  0.651116  1
  S  S30  1  0.250000  0.138059  0.531279  1
  S  S31  1  0.250000  0.212038  0.149102  1
  S  S32  1  0.750000  0.287962  0.649102  1
  S  S33  1  0.750000  0.861941  0.468721  1
  S  S34  1  0.750000  0.638810  0.557684  1
  S  S35  1  0.250000  0.638059  0.968721  1
  S  S36  1  0.250000  0.610375  0.758691  1
  S  S37  1  0.750000  0.138810  0.942316  1
  S  S38  1  0.750000  0.182928  0.348884  1
  S  S39  1  0.750000  0.361941  0.031279  1
