# generated using pymatgen
data_Hf6Ti3Al13OsPt6
_symmetry_space_group_name_H-M   'P 1'
_cell_length_a   8.81147222
_cell_length_b   8.81147261
_cell_length_c   8.80005282
_cell_angle_alpha   59.91807386
_cell_angle_beta   59.91807283
_cell_angle_gamma   59.76901632
_symmetry_Int_Tables_number   1
_chemical_formula_structural   Hf6Ti3Al13OsPt6
_chemical_formula_sum   'Hf6 Ti3 Al13 Os1 Pt6'
_cell_volume   481.68858171
_cell_formula_units_Z   1
loop_
 _symmetry_equiv_pos_site_id
 _symmetry_equiv_pos_as_xyz
  1  'x, y, z'
loop_
 _atom_site_type_symbol
 _atom_site_label
 _atom_site_symmetry_multiplicity
 _atom_site_fract_x
 _atom_site_fract_y
 _atom_site_fract_z
 _atom_site_occupancy
  Hf  Hf0  1  0.684861  0.684861  0.313545  1
  Hf  Hf1  1  0.318856  0.678930  0.315533  1
  Hf  Hf2  1  0.678930  0.318856  0.315533  1
  Hf  Hf3  1  0.315130  0.315130  0.684264  1
  Hf  Hf4  1  0.678412  0.319024  0.684178  1
  Hf  Hf5  1  0.319024  0.678412  0.684178  1
  Ti  Ti6  1  0.879063  0.879063  0.360507  1
  Ti  Ti7  1  0.871228  0.362463  0.882419  1
  Ti  Ti8  1  0.362463  0.871228  0.882419  1
  Al  Al9  1  0.881719  0.881719  0.883332  1
  Al  Al10  1  0.121014  0.121014  0.641056  1
  Al  Al11  1  0.127211  0.639041  0.117792  1
  Al  Al12  1  0.639041  0.127211  0.117792  1
  Al  Al13  1  0.122147  0.122147  0.119407  1
  Al  Al14  1  0.663546  0.663546  0.009152  1
  Al  Al15  1  0.663166  0.009535  0.663858  1
  Al  Al16  1  0.009535  0.663166  0.663858  1
  Al  Al17  1  0.662047  0.662047  0.661428  1
  Al  Al18  1  0.337434  0.337434  0.992258  1
  Al  Al19  1  0.336299  0.989387  0.337462  1
  Al  Al20  1  0.989387  0.336299  0.337462  1
  Al  Al21  1  0.336883  0.336883  0.333110  1
  Os  Os22  1  0.503103  0.503103  0.996119  1
  Pt  Pt23  1  0.002552  0.002552  0.003551  1
  Pt  Pt24  1  0.998436  0.998436  0.500985  1
  Pt  Pt25  1  0.500827  0.998742  0.500187  1
  Pt  Pt26  1  0.998742  0.500827  0.500187  1
  Pt  Pt27  1  0.998706  0.500239  0.999215  1
  Pt  Pt28  1  0.500239  0.998706  0.999215  1
