# generated using pymatgen
data_La3Mn(P3Rh4)2
_symmetry_space_group_name_H-M   'P 1'
_cell_length_a   3.97773600
_cell_length_b   11.42680700
_cell_length_c   12.88187900
_cell_angle_alpha   90.00000000
_cell_angle_beta   90.00000000
_cell_angle_gamma   90.00000000
_symmetry_Int_Tables_number   1
_chemical_formula_structural   La3Mn(P3Rh4)2
_chemical_formula_sum   'La6 Mn2 P12 Rh16'
_cell_volume   585.51774766
_cell_formula_units_Z   2
loop_
 _symmetry_equiv_pos_site_id
 _symmetry_equiv_pos_as_xyz
  1  'x, y, z'
loop_
 _atom_site_type_symbol
 _atom_site_label
 _atom_site_symmetry_multiplicity
 _atom_site_fract_x
 _atom_site_fract_y
 _atom_site_fract_z
 _atom_site_occupancy
  La  La0  1  0.000000  0.500000  0.521221  1
  La  La1  1  0.500000  0.000000  0.478779  1
  La  La2  1  0.500000  0.822049  0.201544  1
  La  La3  1  0.500000  0.177951  0.201544  1
  La  La4  1  0.000000  0.677951  0.798456  1
  La  La5  1  0.000000  0.322049  0.798456  1
  Mn  Mn6  1  0.000000  0.500000  0.994363  1
  Mn  Mn7  1  0.500000  0.000000  0.005637  1
  P  P8  1  0.500000  0.500000  0.891984  1
  P  P9  1  0.000000  0.000000  0.108016  1
  P  P10  1  0.500000  0.500000  0.342912  1
  P  P11  1  0.000000  0.000000  0.657088  1
  P  P12  1  0.500000  0.308916  0.617873  1
  P  P13  1  0.500000  0.691084  0.617873  1
  P  P14  1  0.000000  0.191084  0.382127  1
  P  P15  1  0.000000  0.808916  0.382127  1
  P  P16  1  0.500000  0.850239  0.898595  1
  P  P17  1  0.500000  0.149761  0.898595  1
  P  P18  1  0.000000  0.649761  0.101405  1
  P  P19  1  0.000000  0.350239  0.101405  1
  Rh  Rh20  1  0.500000  0.500000  0.161108  1
  Rh  Rh21  1  0.000000  0.000000  0.838892  1
  Rh  Rh22  1  0.500000  0.500000  0.702486  1
  Rh  Rh23  1  0.000000  0.000000  0.297514  1
  Rh  Rh24  1  0.500000  0.334196  0.997492  1
  Rh  Rh25  1  0.500000  0.665804  0.997492  1
  Rh  Rh26  1  0.000000  0.165804  0.002508  1
  Rh  Rh27  1  0.000000  0.834196  0.002508  1
  Rh  Rh28  1  0.500000  0.294321  0.429150  1
  Rh  Rh29  1  0.500000  0.705679  0.429150  1
  Rh  Rh30  1  0.000000  0.205679  0.570850  1
  Rh  Rh31  1  0.000000  0.794321  0.570850  1
  Rh  Rh32  1  0.500000  0.875709  0.713974  1
  Rh  Rh33  1  0.500000  0.124291  0.713974  1
  Rh  Rh34  1  0.000000  0.624291  0.286026  1
  Rh  Rh35  1  0.000000  0.375709  0.286026  1
