# generated using pymatgen
data_Tb2Er(CdGa)3
_symmetry_space_group_name_H-M   'P 1'
_cell_length_a   7.27200904
_cell_length_b   7.29292684
_cell_length_c   4.41637000
_cell_angle_alpha   90.00000000
_cell_angle_beta   90.00000000
_cell_angle_gamma   120.09521570
_symmetry_Int_Tables_number   1
_chemical_formula_structural   Tb2Er(CdGa)3
_chemical_formula_sum   'Tb2 Er1 Cd3 Ga3'
_cell_volume   202.64451958
_cell_formula_units_Z   1
loop_
 _symmetry_equiv_pos_site_id
 _symmetry_equiv_pos_as_xyz
  1  'x, y, z'
loop_
 _atom_site_type_symbol
 _atom_site_label
 _atom_site_symmetry_multiplicity
 _atom_site_fract_x
 _atom_site_fract_y
 _atom_site_fract_z
 _atom_site_occupancy
  Tb  Tb0  1  0.423980  0.424389  0.500000  1
  Tb  Tb1  1  0.576020  0.000409  0.500000  1
  Er  Er2  1  0.000000  0.576211  0.500000  1
  Cd  Cd3  1  0.751369  0.751020  0.000000  1
  Cd  Cd4  1  0.248631  0.999651  0.000000  1
  Cd  Cd5  1  0.000000  0.249555  0.000000  1
  Ga  Ga6  1  0.668226  0.334120  0.000000  1
  Ga  Ga7  1  0.331774  0.665895  0.000000  1
  Ga  Ga8  1  0.000000  0.998750  0.500000  1
