# generated using pymatgen
data_Al2AgI9
_symmetry_space_group_name_H-M   'P 1'
_cell_length_a   8.35121858
_cell_length_b   8.49159650
_cell_length_c   17.78993500
_cell_angle_alpha   86.04904189
_cell_angle_beta   86.06710510
_cell_angle_gamma   77.89463558
_symmetry_Int_Tables_number   1
_chemical_formula_structural   Al2AgI9
_chemical_formula_sum   'Al4 Ag2 I18'
_cell_volume   1228.69506468
_cell_formula_units_Z   2
loop_
 _symmetry_equiv_pos_site_id
 _symmetry_equiv_pos_as_xyz
  1  'x, y, z'
loop_
 _atom_site_type_symbol
 _atom_site_label
 _atom_site_symmetry_multiplicity
 _atom_site_fract_x
 _atom_site_fract_y
 _atom_site_fract_z
 _atom_site_occupancy
  Al  Al0  1  0.139729  0.708618  0.580223  1
  Al  Al1  1  0.860271  0.291382  0.419777  1
  Al  Al2  1  0.715090  0.303332  0.876905  1
  Al  Al3  1  0.284910  0.696668  0.123095  1
  Ag  Ag4  1  0.078528  0.218825  0.589115  1
  Ag  Ag5  1  0.921472  0.781175  0.410885  1
  I  I6  1  0.542281  0.862928  0.845568  1
  I  I7  1  0.457719  0.137072  0.154432  1
  I  I8  1  0.211312  0.445258  0.663614  1
  I  I9  1  0.788688  0.554742  0.336386  1
  I  I10  1  0.640452  0.549771  0.776867  1
  I  I11  1  0.359548  0.450229  0.223133  1
  I  I12  1  0.268775  0.914411  0.642474  1
  I  I13  1  0.731225  0.085589  0.357526  1
  I  I14  1  0.926458  0.110751  0.803313  1
  I  I15  1  0.073542  0.889249  0.196687  1
  I  I16  1  0.206104  0.608691  0.002158  1
  I  I17  1  0.793896  0.391309  0.997842  1
  I  I18  1  0.738346  0.323887  0.556328  1
  I  I19  1  0.261654  0.676113  0.443672  1
  I  I20  1  0.828876  0.801285  0.576558  1
  I  I21  1  0.171124  0.198715  0.423442  1
  I  I22  1  0.441720  0.188539  0.901478  1
  I  I23  1  0.558280  0.811461  0.098522  1
