# generated using pymatgen
data_KAs3Pd5
_symmetry_space_group_name_H-M   'P 1'
_cell_length_a   6.98062872
_cell_length_b   6.98062873
_cell_length_c   13.20822200
_cell_angle_alpha   90.00000000
_cell_angle_beta   90.00000000
_cell_angle_gamma   146.95878045
_symmetry_Int_Tables_number   1
_chemical_formula_structural   KAs3Pd5
_chemical_formula_sum   'K2 As6 Pd10'
_cell_volume   350.93197383
_cell_formula_units_Z   2
loop_
 _symmetry_equiv_pos_site_id
 _symmetry_equiv_pos_as_xyz
  1  'x, y, z'
loop_
 _atom_site_type_symbol
 _atom_site_label
 _atom_site_symmetry_multiplicity
 _atom_site_fract_x
 _atom_site_fract_y
 _atom_site_fract_z
 _atom_site_occupancy
  K  K0  1  0.153117  0.846883  0.250000  1
  K  K1  1  0.846883  0.153117  0.750000  1
  As  As2  1  0.877001  0.122999  0.250000  1
  As  As3  1  0.122999  0.877001  0.750000  1
  As  As4  1  0.382380  0.617620  0.960369  1
  As  As5  1  0.617620  0.382380  0.039631  1
  As  As6  1  0.617620  0.382380  0.460369  1
  As  As7  1  0.382380  0.617620  0.539631  1
  Pd  Pd8  1  0.437825  0.562175  0.356036  1
  Pd  Pd9  1  0.437825  0.562175  0.143964  1
  Pd  Pd10  1  0.799120  0.200880  0.064351  1
  Pd  Pd11  1  0.200880  0.799120  0.935649  1
  Pd  Pd12  1  0.200880  0.799120  0.564351  1
  Pd  Pd13  1  0.799120  0.200880  0.435649  1
  Pd  Pd14  1  0.000000  0.000000  0.500000  1
  Pd  Pd15  1  0.000000  0.000000  0.000000  1
  Pd  Pd16  1  0.562175  0.437825  0.856036  1
  Pd  Pd17  1  0.562175  0.437825  0.643964  1
