# generated using pymatgen
data_K2GdTa5O15
_symmetry_space_group_name_H-M   'P 1'
_cell_length_a   9.30177176
_cell_length_b   9.30177253
_cell_length_c   3.96051800
_cell_angle_alpha   90.00000000
_cell_angle_beta   90.00000000
_cell_angle_gamma   111.68292841
_symmetry_Int_Tables_number   1
_chemical_formula_structural   K2GdTa5O15
_chemical_formula_sum   'K2 Gd1 Ta5 O15'
_cell_volume   318.42894821
_cell_formula_units_Z   1
loop_
 _symmetry_equiv_pos_site_id
 _symmetry_equiv_pos_as_xyz
  1  'x, y, z'
loop_
 _atom_site_type_symbol
 _atom_site_label
 _atom_site_symmetry_multiplicity
 _atom_site_fract_x
 _atom_site_fract_y
 _atom_site_fract_z
 _atom_site_occupancy
  K  K0  1  0.299740  0.700260  0.000000  1
  K  K1  1  0.700260  0.299740  0.000000  1
  Gd  Gd2  1  0.000000  0.000000  0.000000  1
  Ta  Ta3  1  0.319628  0.060505  0.500000  1
  Ta  Ta4  1  0.060505  0.319628  0.500000  1
  Ta  Ta5  1  0.680372  0.939495  0.500000  1
  Ta  Ta6  1  0.939495  0.680372  0.500000  1
  Ta  Ta7  1  0.500000  0.500000  0.500000  1
  O  O8  1  0.131182  0.131182  0.500000  1
  O  O9  1  0.158406  0.841594  0.500000  1
  O  O10  1  0.273387  0.458255  0.500000  1
  O  O11  1  0.841594  0.158406  0.500000  1
  O  O12  1  0.868818  0.868818  0.500000  1
  O  O13  1  0.285681  0.048833  0.000000  1
  O  O14  1  0.714319  0.951167  0.000000  1
  O  O15  1  0.541745  0.726613  0.500000  1
  O  O16  1  0.048833  0.285681  0.000000  1
  O  O17  1  0.500000  0.000000  0.500000  1
  O  O18  1  0.458255  0.273387  0.500000  1
  O  O19  1  0.951167  0.714319  0.000000  1
  O  O20  1  0.500000  0.500000  0.000000  1
  O  O21  1  0.726613  0.541745  0.500000  1
  O  O22  1  0.000000  0.500000  0.500000  1
