# generated using pymatgen
data_BaNb6InSe12
_symmetry_space_group_name_H-M   'P 1'
_cell_length_a   6.10119800
_cell_length_b   6.10119760
_cell_length_c   16.49775300
_cell_angle_alpha   90.00000000
_cell_angle_beta   90.00000000
_cell_angle_gamma   120.00000217
_symmetry_Int_Tables_number   1
_chemical_formula_structural   BaNb6InSe12
_chemical_formula_sum   'Ba1 Nb6 In1 Se12'
_cell_volume   531.84567194
_cell_formula_units_Z   1
loop_
 _symmetry_equiv_pos_site_id
 _symmetry_equiv_pos_as_xyz
  1  'x, y, z'
loop_
 _atom_site_type_symbol
 _atom_site_label
 _atom_site_symmetry_multiplicity
 _atom_site_fract_x
 _atom_site_fract_y
 _atom_site_fract_z
 _atom_site_occupancy
  Ba  Ba0  1  0.666667  0.333333  0.750000  1
  Nb  Nb1  1  0.333333  0.666667  0.497738  1
  Nb  Nb2  1  0.666667  0.333333  0.000562  1
  Nb  Nb3  1  0.666667  0.333333  0.499438  1
  Nb  Nb4  1  0.333333  0.666667  0.002262  1
  Nb  Nb5  1  0.000000  0.000000  0.497191  1
  Nb  Nb6  1  0.000000  0.000000  0.002809  1
  In  In7  1  0.333333  0.666667  0.250000  1
  Se  Se8  1  0.335413  0.333760  0.101819  1
  Se  Se9  1  0.666240  0.001653  0.101819  1
  Se  Se10  1  0.998347  0.664587  0.101819  1
  Se  Se11  1  0.006232  0.333182  0.599362  1
  Se  Se12  1  0.666818  0.993768  0.900638  1
  Se  Se13  1  0.666818  0.673050  0.599362  1
  Se  Se14  1  0.326950  0.993768  0.599362  1
  Se  Se15  1  0.666240  0.664587  0.398181  1
  Se  Se16  1  0.335413  0.001653  0.398181  1
  Se  Se17  1  0.326950  0.333182  0.900638  1
  Se  Se18  1  0.006232  0.673050  0.900638  1
  Se  Se19  1  0.998347  0.333760  0.398181  1
