# generated using pymatgen
data_Y3AlGaRh2
_symmetry_space_group_name_H-M   'P 1'
_cell_length_a   5.59265200
_cell_length_b   7.87453000
_cell_length_c   13.67670800
_cell_angle_alpha   90.00000000
_cell_angle_beta   90.00000000
_cell_angle_gamma   90.00000000
_symmetry_Int_Tables_number   1
_chemical_formula_structural   Y3AlGaRh2
_chemical_formula_sum   'Y12 Al4 Ga4 Rh8'
_cell_volume   602.31546339
_cell_formula_units_Z   4
loop_
 _symmetry_equiv_pos_site_id
 _symmetry_equiv_pos_as_xyz
  1  'x, y, z'
loop_
 _atom_site_type_symbol
 _atom_site_label
 _atom_site_symmetry_multiplicity
 _atom_site_fract_x
 _atom_site_fract_y
 _atom_site_fract_z
 _atom_site_occupancy
  Y  Y0  1  0.144931  0.600821  0.099897  1
  Y  Y1  1  0.144931  0.899179  0.900103  1
  Y  Y2  1  0.855069  0.100821  0.400103  1
  Y  Y3  1  0.855069  0.399179  0.599897  1
  Y  Y4  1  0.855069  0.399179  0.900103  1
  Y  Y5  1  0.855069  0.100821  0.099897  1
  Y  Y6  1  0.144931  0.899179  0.599897  1
  Y  Y7  1  0.144931  0.600821  0.400103  1
  Y  Y8  1  0.370213  0.239836  0.250000  1
  Y  Y9  1  0.370213  0.260164  0.750000  1
  Y  Y10  1  0.629787  0.739836  0.250000  1
  Y  Y11  1  0.629787  0.760164  0.750000  1
  Al  Al12  1  0.374567  0.250000  0.000000  1
  Al  Al13  1  0.625433  0.750000  0.500000  1
  Al  Al14  1  0.625433  0.750000  0.000000  1
  Al  Al15  1  0.374567  0.250000  0.500000  1
  Ga  Ga16  1  0.871100  0.390577  0.250000  1
  Ga  Ga17  1  0.871100  0.109423  0.750000  1
  Ga  Ga18  1  0.128900  0.890577  0.250000  1
  Ga  Ga19  1  0.128900  0.609423  0.750000  1
  Rh  Rh20  1  0.642777  0.467374  0.091562  1
  Rh  Rh21  1  0.642777  0.032626  0.908438  1
  Rh  Rh22  1  0.357223  0.967374  0.408438  1
  Rh  Rh23  1  0.357223  0.532626  0.591562  1
  Rh  Rh24  1  0.357223  0.532626  0.908438  1
  Rh  Rh25  1  0.357223  0.967374  0.091562  1
  Rh  Rh26  1  0.642777  0.032626  0.591562  1
  Rh  Rh27  1  0.642777  0.467374  0.408438  1
