# generated using pymatgen
data_Zr4CrFe(B2Ru5)2
_symmetry_space_group_name_H-M   'P 1'
_cell_length_a   9.36925300
_cell_length_b   9.36925300
_cell_length_c   3.06836500
_cell_angle_alpha   90.00000000
_cell_angle_beta   90.00000000
_cell_angle_gamma   90.00000000
_symmetry_Int_Tables_number   1
_chemical_formula_structural   Zr4CrFe(B2Ru5)2
_chemical_formula_sum   'Zr4 Cr1 Fe1 B4 Ru10'
_cell_volume   269.34998341
_cell_formula_units_Z   1
loop_
 _symmetry_equiv_pos_site_id
 _symmetry_equiv_pos_as_xyz
  1  'x, y, z'
loop_
 _atom_site_type_symbol
 _atom_site_label
 _atom_site_symmetry_multiplicity
 _atom_site_fract_x
 _atom_site_fract_y
 _atom_site_fract_z
 _atom_site_occupancy
  Zr  Zr0  1  0.677576  0.176012  0.000000  1
  Zr  Zr1  1  0.322424  0.823988  0.000000  1
  Zr  Zr2  1  0.176012  0.322424  0.000000  1
  Zr  Zr3  1  0.823988  0.677576  0.000000  1
  Cr  Cr4  1  0.500000  0.500000  0.000000  1
  Fe  Fe5  1  0.000000  0.000000  0.000000  1
  B  B6  1  0.122186  0.624640  0.000000  1
  B  B7  1  0.877814  0.375360  0.000000  1
  B  B8  1  0.624640  0.877814  0.000000  1
  B  B9  1  0.375360  0.122186  0.000000  1
  Ru  Ru10  1  0.214501  0.071049  0.500000  1
  Ru  Ru11  1  0.785499  0.928951  0.500000  1
  Ru  Ru12  1  0.071049  0.785499  0.500000  1
  Ru  Ru13  1  0.712366  0.430808  0.500000  1
  Ru  Ru14  1  0.928951  0.214501  0.500000  1
  Ru  Ru15  1  0.287634  0.569192  0.500000  1
  Ru  Ru16  1  0.569192  0.712366  0.500000  1
  Ru  Ru17  1  0.430808  0.287634  0.500000  1
  Ru  Ru18  1  0.500000  0.000000  0.500000  1
  Ru  Ru19  1  0.000000  0.500000  0.500000  1
