# generated using pymatgen
data_Rb8Y6CoBr20
_symmetry_space_group_name_H-M   'P 1'
_cell_length_a   12.38906387
_cell_length_b   12.38906457
_cell_length_c   12.38906400
_cell_angle_alpha   60.00000153
_cell_angle_beta   59.99999965
_cell_angle_gamma   60.00000011
_symmetry_Int_Tables_number   1
_chemical_formula_structural   Rb8Y6CoBr20
_chemical_formula_sum   'Rb8 Y6 Co1 Br20'
_cell_volume   1344.62292430
_cell_formula_units_Z   1
loop_
 _symmetry_equiv_pos_site_id
 _symmetry_equiv_pos_as_xyz
  1  'x, y, z'
loop_
 _atom_site_type_symbol
 _atom_site_label
 _atom_site_symmetry_multiplicity
 _atom_site_fract_x
 _atom_site_fract_y
 _atom_site_fract_z
 _atom_site_occupancy
  Rb  Rb0  1  0.359082  0.359082  0.359082  1
  Rb  Rb1  1  0.640918  0.640918  0.640918  1
  Rb  Rb2  1  0.359082  0.359082  0.922753  1
  Rb  Rb3  1  0.359082  0.922753  0.359082  1
  Rb  Rb4  1  0.640918  0.640918  0.077247  1
  Rb  Rb5  1  0.640918  0.077247  0.640918  1
  Rb  Rb6  1  0.922753  0.359082  0.359082  1
  Rb  Rb7  1  0.077247  0.640918  0.640918  1
  Y  Y8  1  0.846797  0.153203  0.153203  1
  Y  Y9  1  0.153203  0.846797  0.846797  1
  Y  Y10  1  0.153203  0.846797  0.153203  1
  Y  Y11  1  0.846797  0.153203  0.846797  1
  Y  Y12  1  0.153203  0.153203  0.846797  1
  Y  Y13  1  0.846797  0.846797  0.153203  1
  Co  Co14  1  0.000000  0.000000  0.000000  1
  Br  Br15  1  0.330027  0.000000  0.000000  1
  Br  Br16  1  0.669973  0.000000  0.000000  1
  Br  Br17  1  0.000000  0.330027  0.669973  1
  Br  Br18  1  0.000000  0.669973  0.330027  1
  Br  Br19  1  0.000000  0.330027  0.000000  1
  Br  Br20  1  0.669973  0.000000  0.330027  1
  Br  Br21  1  0.000000  0.669973  0.000000  1
  Br  Br22  1  0.330027  0.000000  0.669973  1
  Br  Br23  1  0.000000  0.000000  0.330027  1
  Br  Br24  1  0.000000  0.000000  0.669973  1
  Br  Br25  1  0.669973  0.330027  0.000000  1
  Br  Br26  1  0.330027  0.669973  0.000000  1
  Br  Br27  1  0.681821  0.318179  0.318179  1
  Br  Br28  1  0.318179  0.681821  0.681821  1
  Br  Br29  1  0.318179  0.681821  0.318179  1
  Br  Br30  1  0.681821  0.318179  0.681821  1
  Br  Br31  1  0.318179  0.318179  0.681821  1
  Br  Br32  1  0.681821  0.681821  0.318179  1
  Br  Br33  1  0.250000  0.250000  0.250000  1
  Br  Br34  1  0.750000  0.750000  0.750000  1
