# generated using pymatgen
data_CaPr2Si2(PPd5)4
_symmetry_space_group_name_H-M   'P 1'
_cell_length_a   8.73799631
_cell_length_b   8.74610427
_cell_length_c   8.74492330
_cell_angle_alpha   59.94314553
_cell_angle_beta   60.03513937
_cell_angle_gamma   60.02172242
_symmetry_Int_Tables_number   1
_chemical_formula_structural   CaPr2Si2(PPd5)4
_chemical_formula_sum   'Ca1 Pr2 Si2 P4 Pd20'
_cell_volume   472.57080264
_cell_formula_units_Z   1
loop_
 _symmetry_equiv_pos_site_id
 _symmetry_equiv_pos_as_xyz
  1  'x, y, z'
loop_
 _atom_site_type_symbol
 _atom_site_label
 _atom_site_symmetry_multiplicity
 _atom_site_fract_x
 _atom_site_fract_y
 _atom_site_fract_z
 _atom_site_occupancy
  Ca  Ca0  1  0.000000  0.000000  0.000000  1
  Pr  Pr1  1  0.250000  0.250000  0.250000  1
  Pr  Pr2  1  0.750000  0.750000  0.750000  1
  Si  Si3  1  0.737454  0.262546  0.262546  1
  Si  Si4  1  0.262546  0.737454  0.737454  1
  P  P5  1  0.262335  0.737665  0.262335  1
  P  P6  1  0.737665  0.262335  0.737665  1
  P  P7  1  0.262366  0.262366  0.737634  1
  P  P8  1  0.737634  0.737634  0.262366  1
  Pd  Pd9  1  0.385363  0.386891  0.386991  1
  Pd  Pd10  1  0.614637  0.613109  0.613009  1
  Pd  Pd11  1  0.386891  0.385363  0.840757  1
  Pd  Pd12  1  0.386990  0.840757  0.385364  1
  Pd  Pd13  1  0.613109  0.614637  0.159243  1
  Pd  Pd14  1  0.613010  0.159243  0.614636  1
  Pd  Pd15  1  0.840757  0.386990  0.386891  1
  Pd  Pd16  1  0.159243  0.613010  0.613109  1
  Pd  Pd17  1  0.345049  0.999989  0.000011  1
  Pd  Pd18  1  0.654951  0.000011  0.999989  1
  Pd  Pd19  1  0.999989  0.345049  0.654951  1
  Pd  Pd20  1  0.000011  0.654951  0.345049  1
  Pd  Pd21  1  0.001745  0.347412  0.998255  1
  Pd  Pd22  1  0.652588  0.998255  0.347412  1
  Pd  Pd23  1  0.998255  0.652588  0.001745  1
  Pd  Pd24  1  0.347412  0.001745  0.652588  1
  Pd  Pd25  1  0.001739  0.998261  0.347264  1
  Pd  Pd26  1  0.998261  0.001739  0.652736  1
  Pd  Pd27  1  0.652737  0.347263  0.998261  1
  Pd  Pd28  1  0.347263  0.652737  0.001739  1
