# generated using pymatgen
data_Li6YbU2N6
_symmetry_space_group_name_H-M   'P 1'
_cell_length_a   6.04373200
_cell_length_b   6.04373198
_cell_length_c   5.43718200
_cell_angle_alpha   90.00000000
_cell_angle_beta   90.00000000
_cell_angle_gamma   119.99999864
_symmetry_Int_Tables_number   1
_chemical_formula_structural   Li6YbU2N6
_chemical_formula_sum   'Li6 Yb1 U2 N6'
_cell_volume   171.99463595
_cell_formula_units_Z   1
loop_
 _symmetry_equiv_pos_site_id
 _symmetry_equiv_pos_as_xyz
  1  'x, y, z'
loop_
 _atom_site_type_symbol
 _atom_site_label
 _atom_site_symmetry_multiplicity
 _atom_site_fract_x
 _atom_site_fract_y
 _atom_site_fract_z
 _atom_site_occupancy
  Li  Li0  1  0.986945  0.660885  0.607841  1
  Li  Li1  1  0.339115  0.326061  0.607841  1
  Li  Li2  1  0.673939  0.013055  0.607841  1
  Li  Li3  1  0.013055  0.339115  0.392159  1
  Li  Li4  1  0.660885  0.673939  0.392159  1
  Li  Li5  1  0.326061  0.986945  0.392159  1
  Yb  Yb6  1  0.000000  0.000000  0.000000  1
  U  U7  1  0.333333  0.666667  0.994138  1
  U  U8  1  0.666667  0.333333  0.005862  1
  N  N9  1  0.000975  0.643408  0.222890  1
  N  N10  1  0.356592  0.357567  0.222890  1
  N  N11  1  0.642433  0.999025  0.222890  1
  N  N12  1  0.999025  0.356592  0.777110  1
  N  N13  1  0.643408  0.642433  0.777110  1
  N  N14  1  0.357567  0.000975  0.777110  1
