# generated using pymatgen
data_Dy2Ho2AlRu
_symmetry_space_group_name_H-M   'P 1'
_cell_length_a   9.49592288
_cell_length_b   9.49592228
_cell_length_c   9.49705000
_cell_angle_alpha   59.99607144
_cell_angle_beta   59.99607353
_cell_angle_gamma   60.00785838
_symmetry_Int_Tables_number   1
_chemical_formula_structural   Dy2Ho2AlRu
_chemical_formula_sum   'Dy8 Ho8 Al4 Ru4'
_cell_volume   605.54727763
_cell_formula_units_Z   4
loop_
 _symmetry_equiv_pos_site_id
 _symmetry_equiv_pos_as_xyz
  1  'x, y, z'
loop_
 _atom_site_type_symbol
 _atom_site_label
 _atom_site_symmetry_multiplicity
 _atom_site_fract_x
 _atom_site_fract_y
 _atom_site_fract_z
 _atom_site_occupancy
  Dy  Dy0  1  0.443866  0.443866  0.056134  1
  Dy  Dy1  1  0.056134  0.056134  0.443866  1
  Dy  Dy2  1  0.189742  0.810258  0.810258  1
  Dy  Dy3  1  0.810258  0.189742  0.189742  1
  Dy  Dy4  1  0.810258  0.189742  0.810258  1
  Dy  Dy5  1  0.189742  0.810258  0.189742  1
  Dy  Dy6  1  0.810367  0.810367  0.189633  1
  Dy  Dy7  1  0.189633  0.189633  0.810367  1
  Ho  Ho8  1  0.601212  0.601212  0.600845  1
  Ho  Ho9  1  0.601212  0.601212  0.196730  1
  Ho  Ho10  1  0.600845  0.196730  0.601212  1
  Ho  Ho11  1  0.196730  0.600845  0.601212  1
  Ho  Ho12  1  0.055902  0.444098  0.444098  1
  Ho  Ho13  1  0.444098  0.055902  0.055902  1
  Ho  Ho14  1  0.444098  0.055902  0.444098  1
  Ho  Ho15  1  0.055902  0.444098  0.055902  1
  Al  Al16  1  0.826618  0.826618  0.826821  1
  Al  Al17  1  0.826618  0.826618  0.519943  1
  Al  Al18  1  0.826821  0.519943  0.826618  1
  Al  Al19  1  0.519943  0.826821  0.826618  1
  Ru  Ru20  1  0.390080  0.390080  0.390056  1
  Ru  Ru21  1  0.390080  0.390080  0.829784  1
  Ru  Ru22  1  0.390056  0.829784  0.390080  1
  Ru  Ru23  1  0.829784  0.390056  0.390080  1
