# generated using pymatgen
data_Tm6Ga2Tc14O
_symmetry_space_group_name_H-M   'P 1'
_cell_length_a   8.06648217
_cell_length_b   8.06648118
_cell_length_c   8.02414700
_cell_angle_alpha   110.14611869
_cell_angle_beta   110.14612366
_cell_angle_gamma   108.34778142
_symmetry_Int_Tables_number   1
_chemical_formula_structural   Tm6Ga2Tc14O
_chemical_formula_sum   'Tm6 Ga2 Tc14 O1'
_cell_volume   400.70035992
_cell_formula_units_Z   1
loop_
 _symmetry_equiv_pos_site_id
 _symmetry_equiv_pos_as_xyz
  1  'x, y, z'
loop_
 _atom_site_type_symbol
 _atom_site_label
 _atom_site_symmetry_multiplicity
 _atom_site_fract_x
 _atom_site_fract_y
 _atom_site_fract_z
 _atom_site_occupancy
  Tm  Tm0  1  0.740980  0.740980  0.000000  1
  Tm  Tm1  1  0.265851  0.002121  0.267973  1
  Tm  Tm2  1  0.734148  0.997879  0.732027  1
  Tm  Tm3  1  0.997879  0.734148  0.732028  1
  Tm  Tm4  1  0.002121  0.265851  0.267973  1
  Tm  Tm5  1  0.259019  0.259019  0.000000  1
  Ga  Ga6  1  0.347425  0.347425  0.694849  1
  Ga  Ga7  1  0.652575  0.652575  0.305151  1
  Tc  Tc8  1  0.000000  0.500000  0.000000  1
  Tc  Tc9  1  0.500000  0.000000  0.000000  1
  Tc  Tc10  1  0.000000  0.000000  0.500000  1
  Tc  Tc11  1  0.500000  0.500000  0.500000  1
  Tc  Tc12  1  0.000532  0.341849  0.659089  1
  Tc  Tc13  1  0.317239  0.658557  0.659089  1
  Tc  Tc14  1  0.658557  0.317239  0.659089  1
  Tc  Tc15  1  0.341849  0.000532  0.659089  1
  Tc  Tc16  1  0.663067  0.336933  0.000000  1
  Tc  Tc17  1  0.336933  0.663067  0.000000  1
  Tc  Tc18  1  0.341443  0.682761  0.340911  1
  Tc  Tc19  1  0.999468  0.658151  0.340911  1
  Tc  Tc20  1  0.658151  0.999468  0.340911  1
  Tc  Tc21  1  0.682761  0.341443  0.340911  1
  O  O22  1  0.000000  0.000000  0.000000  1
