# generated using pymatgen
data_Pr3Nd(PPt3)8
_symmetry_space_group_name_H-M   'P 1'
_cell_length_a   8.56755200
_cell_length_b   8.56755200
_cell_length_c   8.56755200
_cell_angle_alpha   90.00177887
_cell_angle_beta   90.00177887
_cell_angle_gamma   90.00177887
_symmetry_Int_Tables_number   1
_chemical_formula_structural   Pr3Nd(PPt3)8
_chemical_formula_sum   'Pr3 Nd1 P8 Pt24'
_cell_volume   628.88356726
_cell_formula_units_Z   1
loop_
 _symmetry_equiv_pos_site_id
 _symmetry_equiv_pos_as_xyz
  1  'x, y, z'
loop_
 _atom_site_type_symbol
 _atom_site_label
 _atom_site_symmetry_multiplicity
 _atom_site_fract_x
 _atom_site_fract_y
 _atom_site_fract_z
 _atom_site_occupancy
  Pr  Pr0  1  0.500000  0.500000  0.000000  1
  Pr  Pr1  1  0.500000  0.000000  0.500000  1
  Pr  Pr2  1  0.000000  0.500000  0.500000  1
  Nd  Nd3  1  0.000000  0.000000  0.000000  1
  P  P4  1  0.805621  0.305613  0.194386  1
  P  P5  1  0.194386  0.805621  0.305613  1
  P  P6  1  0.694390  0.694390  0.694390  1
  P  P7  1  0.305613  0.194386  0.805621  1
  P  P8  1  0.194379  0.694387  0.805614  1
  P  P9  1  0.805614  0.194379  0.694387  1
  P  P10  1  0.305610  0.305610  0.305610  1
  P  P11  1  0.694387  0.805614  0.194379  1
  Pt  Pt12  1  0.422341  0.843228  0.158398  1
  Pt  Pt13  1  0.577665  0.343221  0.341600  1
  Pt  Pt14  1  0.077652  0.156726  0.658464  1
  Pt  Pt15  1  0.922344  0.656826  0.841628  1
  Pt  Pt16  1  0.158398  0.422341  0.843228  1
  Pt  Pt17  1  0.341600  0.577665  0.343221  1
  Pt  Pt18  1  0.658464  0.077652  0.156726  1
  Pt  Pt19  1  0.841628  0.922344  0.656826  1
  Pt  Pt20  1  0.843228  0.158398  0.422341  1
  Pt  Pt21  1  0.343221  0.341600  0.577665  1
  Pt  Pt22  1  0.156726  0.658464  0.077652  1
  Pt  Pt23  1  0.656826  0.841628  0.922344  1
  Pt  Pt24  1  0.577659  0.156772  0.841602  1
  Pt  Pt25  1  0.422335  0.656779  0.658400  1
  Pt  Pt26  1  0.922348  0.843274  0.341536  1
  Pt  Pt27  1  0.077656  0.343174  0.158372  1
  Pt  Pt28  1  0.841602  0.577659  0.156772  1
  Pt  Pt29  1  0.658400  0.422335  0.656779  1
  Pt  Pt30  1  0.341536  0.922348  0.843274  1
  Pt  Pt31  1  0.158372  0.077656  0.343174  1
  Pt  Pt32  1  0.156772  0.841602  0.577659  1
  Pt  Pt33  1  0.656779  0.658400  0.422335  1
  Pt  Pt34  1  0.843274  0.341536  0.922348  1
  Pt  Pt35  1  0.343174  0.158372  0.077656  1
