# generated using pymatgen
data_Tb6Tm4Si5Ge
_symmetry_space_group_name_H-M   'P 1'
_cell_length_a   8.44817600
_cell_length_b   8.44817527
_cell_length_c   6.32478300
_cell_angle_alpha   90.00000000
_cell_angle_beta   90.00000000
_cell_angle_gamma   120.01451641
_symmetry_Int_Tables_number   1
_chemical_formula_structural   Tb6Tm4Si5Ge
_chemical_formula_sum   'Tb6 Tm4 Si5 Ge1'
_cell_volume   390.87562068
_cell_formula_units_Z   1
loop_
 _symmetry_equiv_pos_site_id
 _symmetry_equiv_pos_as_xyz
  1  'x, y, z'
loop_
 _atom_site_type_symbol
 _atom_site_label
 _atom_site_symmetry_multiplicity
 _atom_site_fract_x
 _atom_site_fract_y
 _atom_site_fract_z
 _atom_site_occupancy
  Tb  Tb0  1  0.757072  0.757072  0.250000  1
  Tb  Tb1  1  0.243799  0.998529  0.250000  1
  Tb  Tb2  1  0.998529  0.243799  0.250000  1
  Tb  Tb3  1  0.243590  0.243590  0.750000  1
  Tb  Tb4  1  0.755848  0.999854  0.750000  1
  Tb  Tb5  1  0.999854  0.755848  0.750000  1
  Tm  Tm6  1  0.667745  0.333125  0.500756  1
  Tm  Tm7  1  0.333125  0.667745  0.500756  1
  Tm  Tm8  1  0.333125  0.667745  0.999244  1
  Tm  Tm9  1  0.667745  0.333125  0.999244  1
  Si  Si10  1  0.604846  0.999899  0.250000  1
  Si  Si11  1  0.999899  0.604846  0.250000  1
  Si  Si12  1  0.605171  0.605171  0.750000  1
  Si  Si13  1  0.395017  0.000116  0.750000  1
  Si  Si14  1  0.000116  0.395017  0.750000  1
  Ge  Ge15  1  0.394520  0.394520  0.250000  1
