# generated using pymatgen
data_Tb7DySc11Si16Hg
_symmetry_space_group_name_H-M   'P 1'
_cell_length_a   7.07006403
_cell_length_b   7.41800897
_cell_length_c   14.06035208
_cell_angle_alpha   89.99321676
_cell_angle_beta   90.01010177
_cell_angle_gamma   89.88479912
_symmetry_Int_Tables_number   1
_chemical_formula_structural   Tb7DySc11Si16Hg
_chemical_formula_sum   'Tb7 Dy1 Sc11 Si16 Hg1'
_cell_volume   737.40488276
_cell_formula_units_Z   1
loop_
 _symmetry_equiv_pos_site_id
 _symmetry_equiv_pos_as_xyz
  1  'x, y, z'
loop_
 _atom_site_type_symbol
 _atom_site_label
 _atom_site_symmetry_multiplicity
 _atom_site_fract_x
 _atom_site_fract_y
 _atom_site_fract_z
 _atom_site_occupancy
  Tb  Tb0  1  0.010111  0.173834  0.096864  1
  Tb  Tb1  1  0.990961  0.817267  0.901620  1
  Tb  Tb2  1  0.484379  0.673171  0.901747  1
  Tb  Tb3  1  0.990960  0.817238  0.598373  1
  Tb  Tb4  1  0.511249  0.324039  0.097161  1
  Tb  Tb5  1  0.010121  0.173826  0.403149  1
  Tb  Tb6  1  0.511235  0.324052  0.402867  1
  Dy  Dy7  1  0.484411  0.673259  0.598313  1
  Sc  Sc8  1  0.838449  0.497976  0.250002  1
  Sc  Sc9  1  0.339408  0.002771  0.249997  1
  Sc  Sc10  1  0.657710  0.998354  0.749972  1
  Sc  Sc11  1  0.325631  0.183111  0.625723  1
  Sc  Sc12  1  0.671101  0.823964  0.375123  1
  Sc  Sc13  1  0.169741  0.679882  0.373286  1
  Sc  Sc14  1  0.671125  0.823977  0.124883  1
  Sc  Sc15  1  0.837847  0.325362  0.625838  1
  Sc  Sc16  1  0.325605  0.183066  0.874280  1
  Sc  Sc17  1  0.837908  0.325308  0.874137  1
  Sc  Sc18  1  0.169727  0.679869  0.126739  1
  Si  Si19  1  0.027957  0.096316  0.749997  1
  Si  Si20  1  0.967624  0.886442  0.250001  1
  Si  Si21  1  0.467065  0.617598  0.250006  1
  Si  Si22  1  0.544435  0.379182  0.749962  1
  Si  Si23  1  0.291596  0.889271  0.749943  1
  Si  Si24  1  0.713125  0.127561  0.250000  1
  Si  Si25  1  0.212582  0.373313  0.249999  1
  Si  Si26  1  0.769715  0.630561  0.749919  1
  Si  Si27  1  0.161595  0.459427  0.528728  1
  Si  Si28  1  0.842452  0.536319  0.461990  1
  Si  Si29  1  0.344399  0.965745  0.462110  1
  Si  Si30  1  0.842498  0.536297  0.038023  1
  Si  Si31  1  0.657387  0.033149  0.540495  1
  Si  Si32  1  0.161417  0.459345  0.971321  1
  Si  Si33  1  0.657447  0.033272  0.959520  1
  Si  Si34  1  0.344356  0.965858  0.037929  1
  Hg  Hg35  1  0.156669  0.510023  0.749985  1
