# generated using pymatgen
data_Pr2(SbPd3)3
_symmetry_space_group_name_H-M   'P 1'
_cell_length_a   8.08034110
_cell_length_b   8.08034103
_cell_length_c   9.40668900
_cell_angle_alpha   90.00000000
_cell_angle_beta   90.00000000
_cell_angle_gamma   119.21638740
_symmetry_Int_Tables_number   1
_chemical_formula_structural   Pr2(SbPd3)3
_chemical_formula_sum   'Pr4 Sb6 Pd18'
_cell_volume   536.04617785
_cell_formula_units_Z   2
loop_
 _symmetry_equiv_pos_site_id
 _symmetry_equiv_pos_as_xyz
  1  'x, y, z'
loop_
 _atom_site_type_symbol
 _atom_site_label
 _atom_site_symmetry_multiplicity
 _atom_site_fract_x
 _atom_site_fract_y
 _atom_site_fract_z
 _atom_site_occupancy
  Pr  Pr0  1  0.325414  0.016589  0.750000  1
  Pr  Pr1  1  0.674586  0.983411  0.250000  1
  Pr  Pr2  1  0.016589  0.325414  0.750000  1
  Pr  Pr3  1  0.983411  0.674586  0.250000  1
  Sb  Sb4  1  0.000000  0.000000  0.500000  1
  Sb  Sb5  1  0.677647  0.322353  0.000000  1
  Sb  Sb6  1  0.322353  0.677647  0.500000  1
  Sb  Sb7  1  0.322353  0.677647  0.000000  1
  Sb  Sb8  1  0.000000  0.000000  0.000000  1
  Sb  Sb9  1  0.677647  0.322353  0.500000  1
  Pd  Pd10  1  0.331732  0.331732  0.964513  1
  Pd  Pd11  1  0.442268  0.638319  0.750000  1
  Pd  Pd12  1  0.557732  0.361681  0.250000  1
  Pd  Pd13  1  0.638319  0.442268  0.750000  1
  Pd  Pd14  1  0.001455  0.344588  0.088896  1
  Pd  Pd15  1  0.998545  0.655412  0.588896  1
  Pd  Pd16  1  0.344588  0.001455  0.411104  1
  Pd  Pd17  1  0.655412  0.998545  0.911104  1
  Pd  Pd18  1  0.998545  0.655412  0.911104  1
  Pd  Pd19  1  0.001455  0.344588  0.411104  1
  Pd  Pd20  1  0.655412  0.998545  0.588896  1
  Pd  Pd21  1  0.852736  0.852736  0.750000  1
  Pd  Pd22  1  0.331732  0.331732  0.535487  1
  Pd  Pd23  1  0.668268  0.668268  0.035487  1
  Pd  Pd24  1  0.344588  0.001455  0.088896  1
  Pd  Pd25  1  0.668268  0.668268  0.464513  1
  Pd  Pd26  1  0.147264  0.147264  0.250000  1
  Pd  Pd27  1  0.361681  0.557732  0.250000  1
