# generated using pymatgen
data_Tb5Ho3Tc3B24Os
_symmetry_space_group_name_H-M   'P 1'
_cell_length_a   3.68602800
_cell_length_b   9.16871793
_cell_length_c   11.56279605
_cell_angle_alpha   89.95930066
_cell_angle_beta   90.00000000
_cell_angle_gamma   90.00000000
_symmetry_Int_Tables_number   1
_chemical_formula_structural   Tb5Ho3Tc3B24Os
_chemical_formula_sum   'Tb5 Ho3 Tc3 B24 Os1'
_cell_volume   390.77790280
_cell_formula_units_Z   1
loop_
 _symmetry_equiv_pos_site_id
 _symmetry_equiv_pos_as_xyz
  1  'x, y, z'
loop_
 _atom_site_type_symbol
 _atom_site_label
 _atom_site_symmetry_multiplicity
 _atom_site_fract_x
 _atom_site_fract_y
 _atom_site_fract_z
 _atom_site_occupancy
  Tb  Tb0  1  0.000000  0.323778  0.413874  1
  Tb  Tb1  1  0.000000  0.675393  0.584678  1
  Tb  Tb2  1  0.000000  0.822931  0.086991  1
  Tb  Tb3  1  0.000000  0.178002  0.914401  1
  Tb  Tb4  1  0.000000  0.942595  0.370162  1
  Ho  Ho5  1  0.000000  0.058439  0.630649  1
  Ho  Ho6  1  0.000000  0.442806  0.130163  1
  Ho  Ho7  1  0.000000  0.557061  0.869313  1
  Tc  Tc8  1  0.000000  0.637929  0.320024  1
  Tc  Tc9  1  0.000000  0.361503  0.680569  1
  Tc  Tc10  1  0.000000  0.138619  0.178106  1
  B  B11  1  0.500000  0.552974  0.432548  1
  B  B12  1  0.500000  0.446525  0.567358  1
  B  B13  1  0.500000  0.053410  0.067103  1
  B  B14  1  0.500000  0.946045  0.932425  1
  B  B15  1  0.500000  0.747660  0.418293  1
  B  B16  1  0.500000  0.251075  0.581849  1
  B  B17  1  0.500000  0.249409  0.081648  1
  B  B18  1  0.500000  0.751169  0.917928  1
  B  B19  1  0.500000  0.790819  0.265578  1
  B  B20  1  0.500000  0.208720  0.734721  1
  B  B21  1  0.500000  0.291850  0.234300  1
  B  B22  1  0.500000  0.709178  0.765600  1
  B  B23  1  0.500000  0.630384  0.185565  1
  B  B24  1  0.500000  0.369287  0.814801  1
  B  B25  1  0.500000  0.130960  0.313521  1
  B  B26  1  0.500000  0.869253  0.686006  1
  B  B27  1  0.500000  0.982704  0.211534  1
  B  B28  1  0.500000  0.016521  0.788021  1
  B  B29  1  0.500000  0.482334  0.287681  1
  B  B30  1  0.500000  0.517266  0.712042  1
  B  B31  1  0.500000  0.600946  0.027842  1
  B  B32  1  0.500000  0.400086  0.971883  1
  B  B33  1  0.500000  0.102046  0.472568  1
  B  B34  1  0.500000  0.898825  0.529369  1
  Os  Os35  1  0.000000  0.861501  0.820885  1
