# generated using pymatgen
data_Nd5(SnBi)2
_symmetry_space_group_name_H-M   'P 1'
_cell_length_a   8.45905200
_cell_length_b   8.46924600
_cell_length_c   16.11213000
_cell_angle_alpha   90.00000000
_cell_angle_beta   90.00000000
_cell_angle_gamma   90.00000000
_symmetry_Int_Tables_number   1
_chemical_formula_structural   Nd5(SnBi)2
_chemical_formula_sum   'Nd20 Sn8 Bi8'
_cell_volume   1154.30187121
_cell_formula_units_Z   4
loop_
 _symmetry_equiv_pos_site_id
 _symmetry_equiv_pos_as_xyz
  1  'x, y, z'
loop_
 _atom_site_type_symbol
 _atom_site_label
 _atom_site_symmetry_multiplicity
 _atom_site_fract_x
 _atom_site_fract_y
 _atom_site_fract_z
 _atom_site_occupancy
  Nd  Nd0  1  0.041434  0.176204  0.392042  1
  Nd  Nd1  1  0.383655  0.836295  0.122064  1
  Nd  Nd2  1  0.116345  0.336295  0.622064  1
  Nd  Nd3  1  0.458566  0.676204  0.892042  1
  Nd  Nd4  1  0.883655  0.663705  0.122064  1
  Nd  Nd5  1  0.116345  0.336295  0.877936  1
  Nd  Nd6  1  0.210003  0.495745  0.250000  1
  Nd  Nd7  1  0.710003  0.004255  0.250000  1
  Nd  Nd8  1  0.458566  0.676204  0.607958  1
  Nd  Nd9  1  0.289997  0.995745  0.750000  1
  Nd  Nd10  1  0.616345  0.163705  0.622064  1
  Nd  Nd11  1  0.789997  0.504255  0.750000  1
  Nd  Nd12  1  0.883655  0.663705  0.377936  1
  Nd  Nd13  1  0.041434  0.176204  0.107958  1
  Nd  Nd14  1  0.958566  0.823796  0.892042  1
  Nd  Nd15  1  0.616345  0.163705  0.877936  1
  Nd  Nd16  1  0.541434  0.323796  0.107958  1
  Nd  Nd17  1  0.383655  0.836295  0.377936  1
  Nd  Nd18  1  0.958566  0.823796  0.607958  1
  Nd  Nd19  1  0.541434  0.323796  0.392042  1
  Sn  Sn20  1  0.658314  0.860773  0.750000  1
  Sn  Sn21  1  0.841686  0.360773  0.250000  1
  Sn  Sn22  1  0.580888  0.620995  0.250000  1
  Sn  Sn23  1  0.419112  0.379005  0.750000  1
  Sn  Sn24  1  0.158314  0.639227  0.750000  1
  Sn  Sn25  1  0.919112  0.120995  0.750000  1
  Sn  Sn26  1  0.341686  0.139227  0.250000  1
  Sn  Sn27  1  0.080888  0.879005  0.250000  1
  Bi  Bi28  1  0.773804  0.475763  0.544117  1
  Bi  Bi29  1  0.726196  0.975763  0.455883  1
  Bi  Bi30  1  0.226196  0.524237  0.455883  1
  Bi  Bi31  1  0.273804  0.024237  0.955883  1
  Bi  Bi32  1  0.773804  0.475763  0.955883  1
  Bi  Bi33  1  0.226196  0.524237  0.044117  1
  Bi  Bi34  1  0.273804  0.024237  0.544117  1
  Bi  Bi35  1  0.726196  0.975763  0.044117  1
