# generated using pymatgen
data_Li4CeSm3Si8
_symmetry_space_group_name_H-M   'P 1'
_cell_length_a   3.83667800
_cell_length_b   7.63253562
_cell_length_c   10.41095836
_cell_angle_alpha   90.09354296
_cell_angle_beta   90.00000000
_cell_angle_gamma   90.00000000
_symmetry_Int_Tables_number   1
_chemical_formula_structural   Li4CeSm3Si8
_chemical_formula_sum   'Li4 Ce1 Sm3 Si8'
_cell_volume   304.86974145
_cell_formula_units_Z   1
loop_
 _symmetry_equiv_pos_site_id
 _symmetry_equiv_pos_as_xyz
  1  'x, y, z'
loop_
 _atom_site_type_symbol
 _atom_site_label
 _atom_site_symmetry_multiplicity
 _atom_site_fract_x
 _atom_site_fract_y
 _atom_site_fract_z
 _atom_site_occupancy
  Li  Li0  1  0.250000  0.993248  0.390293  1
  Li  Li1  1  0.250000  0.494077  0.108500  1
  Li  Li2  1  0.750000  0.005998  0.610123  1
  Li  Li3  1  0.750000  0.505512  0.890477  1
  Ce  Ce4  1  0.750000  0.358982  0.364107  1
  Sm  Sm5  1  0.250000  0.139049  0.864809  1
  Sm  Sm6  1  0.250000  0.638012  0.635015  1
  Sm  Sm7  1  0.750000  0.862977  0.134900  1
  Si  Si8  1  0.250000  0.231902  0.568032  1
  Si  Si9  1  0.250000  0.728742  0.930789  1
  Si  Si10  1  0.750000  0.771858  0.429800  1
  Si  Si11  1  0.750000  0.271058  0.070382  1
  Si  Si12  1  0.250000  0.659437  0.321798  1
  Si  Si13  1  0.250000  0.163589  0.180502  1
  Si  Si14  1  0.750000  0.337016  0.679377  1
  Si  Si15  1  0.750000  0.838543  0.821096  1
