# generated using pymatgen
data_Tm4Zn2(ReRu)3
_symmetry_space_group_name_H-M   'P 1'
_cell_length_a   5.33079755
_cell_length_b   5.25966592
_cell_length_c   8.91624100
_cell_angle_alpha   90.00000000
_cell_angle_beta   90.00000000
_cell_angle_gamma   119.84469622
_symmetry_Int_Tables_number   1
_chemical_formula_structural   Tm4Zn2(ReRu)3
_chemical_formula_sum   'Tm4 Zn2 Re3 Ru3'
_cell_volume   216.84045062
_cell_formula_units_Z   1
loop_
 _symmetry_equiv_pos_site_id
 _symmetry_equiv_pos_as_xyz
  1  'x, y, z'
loop_
 _atom_site_type_symbol
 _atom_site_label
 _atom_site_symmetry_multiplicity
 _atom_site_fract_x
 _atom_site_fract_y
 _atom_site_fract_z
 _atom_site_occupancy
  Tm  Tm0  1  0.671021  0.335089  0.563108  1
  Tm  Tm1  1  0.339897  0.670258  0.441374  1
  Tm  Tm2  1  0.339897  0.670258  0.058626  1
  Tm  Tm3  1  0.671021  0.335089  0.936892  1
  Zn  Zn4  1  0.819514  0.656932  0.250000  1
  Zn  Zn5  1  0.817209  0.162922  0.250000  1
  Re  Re6  1  0.169962  0.338416  0.750000  1
  Re  Re7  1  0.168585  0.829559  0.750000  1
  Re  Re8  1  0.654735  0.826844  0.750000  1
  Ru  Ru9  1  0.014307  0.007430  0.495665  1
  Ru  Ru10  1  0.014307  0.007430  0.004335  1
  Ru  Ru11  1  0.319543  0.159771  0.250000  1
