# generated using pymatgen
data_Tb2Si2Tc2C
_symmetry_space_group_name_H-M   'P 1'
_cell_length_a   5.98223188
_cell_length_b   5.98223223
_cell_length_c   6.99872371
_cell_angle_alpha   127.02993541
_cell_angle_beta   127.02993563
_cell_angle_gamma   39.22003898
_symmetry_Int_Tables_number   1
_chemical_formula_structural   Tb2Si2Tc2C
_chemical_formula_sum   'Tb2 Si2 Tc2 C1'
_cell_volume   121.77688526
_cell_formula_units_Z   1
loop_
 _symmetry_equiv_pos_site_id
 _symmetry_equiv_pos_as_xyz
  1  'x, y, z'
loop_
 _atom_site_type_symbol
 _atom_site_label
 _atom_site_symmetry_multiplicity
 _atom_site_fract_x
 _atom_site_fract_y
 _atom_site_fract_z
 _atom_site_occupancy
  Tb  Tb0  1  0.430599  0.430599  0.159617  1
  Tb  Tb1  1  0.569401  0.569401  0.840383  1
  Si  Si2  1  0.854515  0.854515  0.400049  1
  Si  Si3  1  0.145485  0.145485  0.599950  1
  Tc  Tc4  1  0.205724  0.205724  0.317527  1
  Tc  Tc5  1  0.794276  0.794276  0.682473  1
  C  C6  1  0.000000  0.000000  0.000000  1
