# generated using pymatgen
data_HoHgBPt6
_symmetry_space_group_name_H-M   'P 1'
_cell_length_a   5.90903265
_cell_length_b   5.90903361
_cell_length_c   5.90903300
_cell_angle_alpha   59.99999782
_cell_angle_beta   59.99999246
_cell_angle_gamma   60.00000680
_symmetry_Int_Tables_number   1
_chemical_formula_structural   HoHgBPt6
_chemical_formula_sum   'Ho1 Hg1 B1 Pt6'
_cell_volume   145.89293392
_cell_formula_units_Z   1
loop_
 _symmetry_equiv_pos_site_id
 _symmetry_equiv_pos_as_xyz
  1  'x, y, z'
loop_
 _atom_site_type_symbol
 _atom_site_label
 _atom_site_symmetry_multiplicity
 _atom_site_fract_x
 _atom_site_fract_y
 _atom_site_fract_z
 _atom_site_occupancy
  Ho  Ho0  1  0.750000  0.750000  0.750000  1
  Hg  Hg1  1  0.250000  0.250000  0.250000  1
  B  B2  1  0.000000  0.000000  0.000000  1
  Pt  Pt3  1  0.743537  0.256464  0.256464  1
  Pt  Pt4  1  0.256464  0.743537  0.256464  1
  Pt  Pt5  1  0.743536  0.743536  0.256465  1
  Pt  Pt6  1  0.743536  0.256465  0.743536  1
  Pt  Pt7  1  0.256464  0.256464  0.743537  1
  Pt  Pt8  1  0.256465  0.743536  0.743536  1
