# generated using pymatgen
data_BaSr5Ca12Nd2V14O56
_symmetry_space_group_name_H-M   'P 1'
_cell_length_a   11.16959590
_cell_length_b   11.16959623
_cell_length_c   14.45451300
_cell_angle_alpha   67.36278224
_cell_angle_beta   67.36278707
_cell_angle_gamma   59.99368194
_symmetry_Int_Tables_number   1
_chemical_formula_structural   BaSr5Ca12Nd2V14O56
_chemical_formula_sum   'Ba1 Sr5 Ca12 Nd2 V14 O56'
_cell_volume   1398.94428190
_cell_formula_units_Z   1
loop_
 _symmetry_equiv_pos_site_id
 _symmetry_equiv_pos_as_xyz
  1  'x, y, z'
loop_
 _atom_site_type_symbol
 _atom_site_label
 _atom_site_symmetry_multiplicity
 _atom_site_fract_x
 _atom_site_fract_y
 _atom_site_fract_z
 _atom_site_occupancy
  Ba  Ba0  1  0.545786  0.473736  0.018686  1
  Sr  Sr1  1  0.953712  0.054240  0.018859  1
  Sr  Sr2  1  0.969030  0.453138  0.017540  1
  Sr  Sr3  1  0.054329  0.953952  0.519691  1
  Sr  Sr4  1  0.452714  0.970481  0.517761  1
  Sr  Sr5  1  0.468184  0.554487  0.521912  1
  Ca  Ca6  1  0.504398  0.005856  0.999625  1
  Ca  Ca7  1  0.567394  0.074552  0.202223  1
  Ca  Ca8  1  0.569351  0.660848  0.201382  1
  Ca  Ca9  1  0.154449  0.067059  0.201982  1
  Ca  Ca10  1  0.661388  0.571099  0.698131  1
  Ca  Ca11  1  0.067076  0.156821  0.700389  1
  Ca  Ca12  1  0.076488  0.566730  0.701684  1
  Ca  Ca13  1  0.005231  0.503617  0.499724  1
  Ca  Ca14  1  0.944195  0.850717  0.296287  1
  Ca  Ca15  1  0.348771  0.413252  0.298189  1
  Ca  Ca16  1  0.853136  0.943182  0.794810  1
  Ca  Ca17  1  0.415220  0.349947  0.795378  1
  Nd  Nd18  1  0.910476  0.441772  0.297827  1
  Nd  Nd19  1  0.442564  0.910242  0.798058  1
  V  V20  1  0.769173  0.266644  0.195956  1
  V  V21  1  0.695205  0.217243  0.892286  1
  V  V22  1  0.722706  0.695363  0.894601  1
  V  V23  1  0.193088  0.188257  0.897214  1
  V  V24  1  0.779860  0.307402  0.595513  1
  V  V25  1  0.808678  0.815985  0.597066  1
  V  V26  1  0.692816  0.720428  0.396396  1
  V  V27  1  0.315976  0.278659  0.597347  1
  V  V28  1  0.188526  0.192055  0.397799  1
  V  V29  1  0.222355  0.691807  0.396520  1
  V  V30  1  0.815745  0.808344  0.097687  1
  V  V31  1  0.275865  0.314382  0.099189  1
  V  V32  1  0.304087  0.784908  0.098519  1
  V  V33  1  0.268284  0.768060  0.694438  1
  O  O34  1  0.600664  0.267298  0.228835  1
  O  O35  1  0.767578  0.403647  0.230116  1
  O  O36  1  0.901201  0.099939  0.233788  1
  O  O37  1  0.665073  0.179887  0.025692  1
  O  O38  1  0.685894  0.623162  0.026625  1
  O  O39  1  0.818333  0.308279  0.061390  1
  O  O40  1  0.620768  0.138278  0.860554  1
  O  O41  1  0.637132  0.880978  0.865855  1
  O  O42  1  0.645840  0.649860  0.835959  1
  O  O43  1  0.609555  0.399928  0.847178  1
  O  O44  1  0.121301  0.165366  0.028826  1
  O  O45  1  0.877862  0.147106  0.841512  1
  O  O46  1  0.905241  0.640722  0.853297  1
  O  O47  1  0.603746  0.398374  0.658475  1
  O  O48  1  0.132002  0.369184  0.842516  1
  O  O49  1  0.622270  0.888270  0.638594  1
  O  O50  1  0.151549  0.089647  0.855018  1
  O  O51  1  0.379539  0.113935  0.866997  1
  O  O52  1  0.854205  0.124107  0.638812  1
  O  O53  1  0.898538  0.840092  0.659960  1
  O  O54  1  0.618930  0.684255  0.528100  1
  O  O55  1  0.876219  0.371526  0.620841  1
  O  O56  1  0.869008  0.630145  0.626825  1
  O  O57  1  0.130122  0.372907  0.627998  1
  O  O58  1  0.786011  0.360204  0.464897  1
  O  O59  1  0.865262  0.877524  0.467173  1
  O  O60  1  0.647164  0.642740  0.339038  1
  O  O61  1  0.340511  0.099272  0.660077  1
  O  O62  1  0.638139  0.902980  0.354429  1
  O  O63  1  0.385775  0.350820  0.639299  1
  O  O64  1  0.166630  0.118692  0.529533  1
  O  O65  1  0.182596  0.665759  0.529514  1
  O  O66  1  0.879052  0.636529  0.367311  1
  O  O67  1  0.113485  0.378466  0.368099  1
  O  O68  1  0.142294  0.617867  0.364801  1
  O  O69  1  0.376790  0.290375  0.467257  1
  O  O70  1  0.153643  0.873880  0.343337  1
  O  O71  1  0.089887  0.150876  0.355524  1
  O  O72  1  0.629954  0.868202  0.127877  1
  O  O73  1  0.839507  0.898909  0.160410  1
  O  O74  1  0.369153  0.130929  0.342905  1
  O  O75  1  0.888670  0.621994  0.139544  1
  O  O76  1  0.406148  0.604204  0.357166  1
  O  O77  1  0.096457  0.336876  0.159427  1
  O  O78  1  0.120683  0.860481  0.139806  1
  O  O79  1  0.877058  0.864445  0.967715  1
  O  O80  1  0.338480  0.385926  0.147502  1
  O  O81  1  0.389555  0.611233  0.167061  1
  O  O82  1  0.373199  0.129464  0.128852  1
  O  O83  1  0.369889  0.880733  0.121966  1
  O  O84  1  0.295078  0.376908  0.968151  1
  O  O85  1  0.360998  0.785450  0.968265  1
  O  O86  1  0.100927  0.901459  0.729184  1
  O  O87  1  0.268762  0.599634  0.729434  1
  O  O88  1  0.402465  0.769031  0.730399  1
  O  O89  1  0.313546  0.812578  0.559814  1
