# generated using pymatgen
data_Y12InCo4Rh
_symmetry_space_group_name_H-M   'P 1'
_cell_length_a   8.35905483
_cell_length_b   8.35905442
_cell_length_c   8.35905471
_cell_angle_alpha   110.87007643
_cell_angle_beta   110.58293149
_cell_angle_gamma   106.98894273
_symmetry_Int_Tables_number   1
_chemical_formula_structural   Y12InCo4Rh
_chemical_formula_sum   'Y12 In1 Co4 Rh1'
_cell_volume   448.99167376
_cell_formula_units_Z   1
loop_
 _symmetry_equiv_pos_site_id
 _symmetry_equiv_pos_as_xyz
  1  'x, y, z'
loop_
 _atom_site_type_symbol
 _atom_site_label
 _atom_site_symmetry_multiplicity
 _atom_site_fract_x
 _atom_site_fract_y
 _atom_site_fract_z
 _atom_site_occupancy
  Y  Y0  1  0.406124  0.211356  0.194768  1
  Y  Y1  1  0.593876  0.788644  0.805232  1
  Y  Y2  1  0.016589  0.211356  0.805232  1
  Y  Y3  1  0.983411  0.788644  0.194768  1
  Y  Y4  1  0.186830  0.292802  0.479632  1
  Y  Y5  1  0.813170  0.707198  0.520368  1
  Y  Y6  1  0.186830  0.707198  0.894029  1
  Y  Y7  1  0.813170  0.292802  0.105971  1
  Y  Y8  1  0.314000  0.618530  0.304531  1
  Y  Y9  1  0.686000  0.381470  0.695469  1
  Y  Y10  1  0.314000  0.009469  0.695469  1
  Y  Y11  1  0.686000  0.990531  0.304531  1
  In  In12  1  0.500000  0.500000  0.000000  1
  Co  Co13  1  0.381872  0.000000  0.381872  1
  Co  Co14  1  0.618128  0.000000  0.618128  1
  Co  Co15  1  0.110746  0.610746  0.500000  1
  Co  Co16  1  0.889254  0.389254  0.500000  1
  Rh  Rh17  1  0.000000  0.000000  0.000000  1
