# generated using pymatgen
data_ScTa3Ga2(Co5B2)2
_symmetry_space_group_name_H-M   'P 1'
_cell_length_a   8.57808489
_cell_length_b   8.57808497
_cell_length_c   3.02817100
_cell_angle_alpha   90.00000000
_cell_angle_beta   90.00000000
_cell_angle_gamma   89.54919005
_symmetry_Int_Tables_number   1
_chemical_formula_structural   ScTa3Ga2(Co5B2)2
_chemical_formula_sum   'Sc1 Ta3 Ga2 Co10 B4'
_cell_volume   222.81664803
_cell_formula_units_Z   1
loop_
 _symmetry_equiv_pos_site_id
 _symmetry_equiv_pos_as_xyz
  1  'x, y, z'
loop_
 _atom_site_type_symbol
 _atom_site_label
 _atom_site_symmetry_multiplicity
 _atom_site_fract_x
 _atom_site_fract_y
 _atom_site_fract_z
 _atom_site_occupancy
  Sc  Sc0  1  0.176971  0.676971  0.000000  1
  Ta  Ta1  1  0.823838  0.323838  0.000000  1
  Ta  Ta2  1  0.324064  0.176558  0.000000  1
  Ta  Ta3  1  0.676558  0.824064  0.000000  1
  Ga  Ga4  1  0.001602  0.996149  0.000000  1
  Ga  Ga5  1  0.496149  0.501602  0.000000  1
  Co  Co6  1  0.502599  0.002599  0.500000  1
  Co  Co7  1  0.998328  0.498328  0.500000  1
  Co  Co8  1  0.066783  0.219607  0.500000  1
  Co  Co9  1  0.226246  0.938496  0.500000  1
  Co  Co10  1  0.779612  0.068895  0.500000  1
  Co  Co11  1  0.922453  0.778274  0.500000  1
  Co  Co12  1  0.438496  0.726246  0.500000  1
  Co  Co13  1  0.568895  0.279612  0.500000  1
  Co  Co14  1  0.719607  0.566783  0.500000  1
  Co  Co15  1  0.278274  0.422453  0.500000  1
  B  B16  1  0.621025  0.121025  0.000000  1
  B  B17  1  0.118134  0.376794  0.000000  1
  B  B18  1  0.876794  0.618134  0.000000  1
  B  B19  1  0.383570  0.883570  0.000000  1
