# generated using pymatgen
data_Pr4Nd8Os3Pt
_symmetry_space_group_name_H-M   'P 1'
_cell_length_a   6.57962011
_cell_length_b   7.49464748
_cell_length_c   9.75390400
_cell_angle_alpha   90.00000000
_cell_angle_beta   90.00000000
_cell_angle_gamma   90.21000706
_symmetry_Int_Tables_number   1
_chemical_formula_structural   Pr4Nd8Os3Pt
_chemical_formula_sum   'Pr4 Nd8 Os3 Pt1'
_cell_volume   480.98063210
_cell_formula_units_Z   1
loop_
 _symmetry_equiv_pos_site_id
 _symmetry_equiv_pos_as_xyz
  1  'x, y, z'
loop_
 _atom_site_type_symbol
 _atom_site_label
 _atom_site_symmetry_multiplicity
 _atom_site_fract_x
 _atom_site_fract_y
 _atom_site_fract_z
 _atom_site_occupancy
  Pr  Pr0  1  0.857619  0.532678  0.250000  1
  Pr  Pr1  1  0.633741  0.042374  0.250000  1
  Pr  Pr2  1  0.138168  0.463780  0.750000  1
  Pr  Pr3  1  0.357309  0.961198  0.750000  1
  Nd  Nd4  1  0.335841  0.671647  0.063668  1
  Nd  Nd5  1  0.169767  0.181558  0.437325  1
  Nd  Nd6  1  0.672240  0.322828  0.567314  1
  Nd  Nd7  1  0.825864  0.825042  0.930208  1
  Nd  Nd8  1  0.672240  0.322828  0.932686  1
  Nd  Nd9  1  0.825864  0.825042  0.569792  1
  Nd  Nd10  1  0.335841  0.671647  0.436332  1
  Nd  Nd11  1  0.169767  0.181558  0.062675  1
  Os  Os12  1  0.442165  0.384357  0.250000  1
  Os  Os13  1  0.947863  0.114074  0.750000  1
  Os  Os14  1  0.554296  0.614420  0.750000  1
  Pt  Pt15  1  0.061416  0.884967  0.250000  1
