# generated using pymatgen
data_Ho2U(AlFe)3
_symmetry_space_group_name_H-M   'P 1'
_cell_length_a   6.65235970
_cell_length_b   6.65236030
_cell_length_c   3.92095400
_cell_angle_alpha   90.00000000
_cell_angle_beta   90.00000000
_cell_angle_gamma   117.25773528
_symmetry_Int_Tables_number   1
_chemical_formula_structural   Ho2U(AlFe)3
_chemical_formula_sum   'Ho2 U1 Al3 Fe3'
_cell_volume   154.24928743
_cell_formula_units_Z   1
loop_
 _symmetry_equiv_pos_site_id
 _symmetry_equiv_pos_as_xyz
  1  'x, y, z'
loop_
 _atom_site_type_symbol
 _atom_site_label
 _atom_site_symmetry_multiplicity
 _atom_site_fract_x
 _atom_site_fract_y
 _atom_site_fract_z
 _atom_site_occupancy
  Ho  Ho0  1  0.419053  0.011708  0.500000  1
  Ho  Ho1  1  0.011708  0.419053  0.500000  1
  U  U2  1  0.616164  0.616164  0.500000  1
  Al  Al3  1  0.753159  0.022557  0.000000  1
  Al  Al4  1  0.022557  0.753159  0.000000  1
  Al  Al5  1  0.208265  0.208265  0.000000  1
  Fe  Fe6  1  0.393476  0.630017  0.000000  1
  Fe  Fe7  1  0.630017  0.393476  0.000000  1
  Fe  Fe8  1  0.945602  0.945602  0.500000  1
