# generated using pymatgen
data_SrNb8GeS16
_symmetry_space_group_name_H-M   'P 1'
_cell_length_a   6.67093100
_cell_length_b   6.67093150
_cell_length_c   14.49216200
_cell_angle_alpha   90.00000000
_cell_angle_beta   90.00000000
_cell_angle_gamma   120.00000249
_symmetry_Int_Tables_number   1
_chemical_formula_structural   SrNb8GeS16
_chemical_formula_sum   'Sr1 Nb8 Ge1 S16'
_cell_volume   558.51742955
_cell_formula_units_Z   1
loop_
 _symmetry_equiv_pos_site_id
 _symmetry_equiv_pos_as_xyz
  1  'x, y, z'
loop_
 _atom_site_type_symbol
 _atom_site_label
 _atom_site_symmetry_multiplicity
 _atom_site_fract_x
 _atom_site_fract_y
 _atom_site_fract_z
 _atom_site_occupancy
  Sr  Sr0  1  0.000000  0.000000  0.000000  1
  Nb  Nb1  1  0.993084  0.496547  0.267949  1
  Nb  Nb2  1  0.006916  0.503453  0.732051  1
  Nb  Nb3  1  0.496541  0.503456  0.732052  1
  Nb  Nb4  1  0.503454  0.006915  0.267949  1
  Nb  Nb5  1  0.000001  0.000000  0.734296  1
  Nb  Nb6  1  0.999999  0.000000  0.265704  1
  Nb  Nb7  1  0.503459  0.496544  0.267948  1
  Nb  Nb8  1  0.496546  0.993085  0.732051  1
  Ge  Ge9  1  0.000000  0.000000  0.500000  1
  S  S10  1  0.333334  0.666666  0.624167  1
  S  S11  1  0.666667  0.333335  0.157632  1
  S  S12  1  0.666666  0.333334  0.375833  1
  S  S13  1  0.333333  0.666665  0.842368  1
  S  S14  1  0.166445  0.332888  0.374579  1
  S  S15  1  0.832088  0.167915  0.841537  1
  S  S16  1  0.335829  0.167917  0.841534  1
  S  S17  1  0.667112  0.833555  0.374581  1
  S  S18  1  0.166443  0.833557  0.374583  1
  S  S19  1  0.832085  0.664171  0.841533  1
  S  S20  1  0.167915  0.335829  0.158467  1
  S  S21  1  0.833557  0.166443  0.625417  1
  S  S22  1  0.332888  0.166445  0.625419  1
  S  S23  1  0.664171  0.832083  0.158466  1
  S  S24  1  0.167912  0.832085  0.158463  1
  S  S25  1  0.833555  0.667112  0.625421  1
