# generated using pymatgen
data_Y4Al2Ga2Pd3Ru
_symmetry_space_group_name_H-M   'P 1'
_cell_length_a   4.37913000
_cell_length_b   6.93295933
_cell_length_c   7.84311499
_cell_angle_alpha   90.28588417
_cell_angle_beta   90.00000000
_cell_angle_gamma   90.00000000
_symmetry_Int_Tables_number   1
_chemical_formula_structural   Y4Al2Ga2Pd3Ru
_chemical_formula_sum   'Y4 Al2 Ga2 Pd3 Ru1'
_cell_volume   238.11659667
_cell_formula_units_Z   1
loop_
 _symmetry_equiv_pos_site_id
 _symmetry_equiv_pos_as_xyz
  1  'x, y, z'
loop_
 _atom_site_type_symbol
 _atom_site_label
 _atom_site_symmetry_multiplicity
 _atom_site_fract_x
 _atom_site_fract_y
 _atom_site_fract_z
 _atom_site_occupancy
  Y  Y0  1  0.250000  0.033065  0.315743  1
  Y  Y1  1  0.250000  0.529624  0.180458  1
  Y  Y2  1  0.750000  0.979549  0.686996  1
  Y  Y3  1  0.750000  0.468686  0.814291  1
  Al  Al4  1  0.250000  0.636786  0.563604  1
  Al  Al5  1  0.750000  0.351374  0.439971  1
  Ga  Ga6  1  0.250000  0.160185  0.932834  1
  Ga  Ga7  1  0.750000  0.844348  0.064962  1
  Pd  Pd8  1  0.250000  0.777449  0.880773  1
  Pd  Pd9  1  0.750000  0.726311  0.387621  1
  Pd  Pd10  1  0.750000  0.227235  0.119966  1
  Ru  Ru11  1  0.250000  0.265389  0.612778  1
