# generated using pymatgen
data_DyMn12NbP7
_symmetry_space_group_name_H-M   'P 1'
_cell_length_a   9.17321500
_cell_length_b   9.17321592
_cell_length_c   3.57099000
_cell_angle_alpha   90.00000000
_cell_angle_beta   90.00000000
_cell_angle_gamma   120.00000028
_symmetry_Int_Tables_number   1
_chemical_formula_structural   DyMn12NbP7
_chemical_formula_sum   'Dy1 Mn12 Nb1 P7'
_cell_volume   260.23305083
_cell_formula_units_Z   1
loop_
 _symmetry_equiv_pos_site_id
 _symmetry_equiv_pos_as_xyz
  1  'x, y, z'
loop_
 _atom_site_type_symbol
 _atom_site_label
 _atom_site_symmetry_multiplicity
 _atom_site_fract_x
 _atom_site_fract_y
 _atom_site_fract_z
 _atom_site_occupancy
  Dy  Dy0  1  0.666667  0.333333  0.500000  1
  Mn  Mn1  1  0.712498  0.621303  0.000000  1
  Mn  Mn2  1  0.378697  0.091196  0.000000  1
  Mn  Mn3  1  0.908804  0.287502  0.000000  1
  Mn  Mn4  1  0.211353  0.385254  0.000000  1
  Mn  Mn5  1  0.614746  0.826099  0.000000  1
  Mn  Mn6  1  0.173901  0.788647  0.000000  1
  Mn  Mn7  1  0.283580  0.225490  0.500000  1
  Mn  Mn8  1  0.774510  0.058089  0.500000  1
  Mn  Mn9  1  0.941911  0.716420  0.500000  1
  Mn  Mn10  1  0.458292  0.562213  0.500000  1
  Mn  Mn11  1  0.437787  0.896080  0.500000  1
  Mn  Mn12  1  0.103920  0.541708  0.500000  1
  Nb  Nb13  1  0.000000  0.000000  0.000000  1
  P  P14  1  0.454370  0.376106  0.000000  1
  P  P15  1  0.623894  0.078263  0.000000  1
  P  P16  1  0.921737  0.545630  0.000000  1
  P  P17  1  0.050935  0.252074  0.500000  1
  P  P18  1  0.747926  0.798862  0.500000  1
  P  P19  1  0.201138  0.949065  0.500000  1
  P  P20  1  0.333333  0.666667  0.000000  1
