# generated using pymatgen
data_SrCa3Sb2
_symmetry_space_group_name_H-M   'P 1'
_cell_length_a   9.37017329
_cell_length_b   9.37017339
_cell_length_c   9.37017300
_cell_angle_alpha   149.35596744
_cell_angle_beta   149.35596855
_cell_angle_gamma   43.88759969
_symmetry_Int_Tables_number   1
_chemical_formula_structural   SrCa3Sb2
_chemical_formula_sum   'Sr1 Ca3 Sb2'
_cell_volume   213.13253094
_cell_formula_units_Z   1
loop_
 _symmetry_equiv_pos_site_id
 _symmetry_equiv_pos_as_xyz
  1  'x, y, z'
loop_
 _atom_site_type_symbol
 _atom_site_label
 _atom_site_symmetry_multiplicity
 _atom_site_fract_x
 _atom_site_fract_y
 _atom_site_fract_z
 _atom_site_occupancy
  Sr  Sr0  1  0.675353  0.675353  0.000000  1
  Ca  Ca1  1  0.997950  0.497950  0.500000  1
  Ca  Ca2  1  0.327354  0.327354  0.000000  1
  Ca  Ca3  1  0.497950  0.997950  0.500000  1
  Sb  Sb4  1  0.133171  0.133171  0.000000  1
  Sb  Sb5  1  0.868223  0.868223  0.000000  1
