# generated using pymatgen
data_Tm4SiRh12
_symmetry_space_group_name_H-M   'P 1'
_cell_length_a   7.13099752
_cell_length_b   7.13099716
_cell_length_c   7.13099700
_cell_angle_alpha   109.47122017
_cell_angle_beta   109.47121915
_cell_angle_gamma   109.47121911
_symmetry_Int_Tables_number   1
_chemical_formula_structural   Tm4SiRh12
_chemical_formula_sum   'Tm4 Si1 Rh12'
_cell_volume   279.14440714
_cell_formula_units_Z   1
loop_
 _symmetry_equiv_pos_site_id
 _symmetry_equiv_pos_as_xyz
  1  'x, y, z'
loop_
 _atom_site_type_symbol
 _atom_site_label
 _atom_site_symmetry_multiplicity
 _atom_site_fract_x
 _atom_site_fract_y
 _atom_site_fract_z
 _atom_site_occupancy
  Tm  Tm0  1  0.000000  0.000000  0.500000  1
  Tm  Tm1  1  0.000000  0.500000  0.000000  1
  Tm  Tm2  1  0.500000  0.000000  0.000000  1
  Tm  Tm3  1  0.500000  0.500000  0.500000  1
  Si  Si4  1  0.000000  0.000000  0.000000  1
  Rh  Rh5  1  0.750000  0.250000  0.500000  1
  Rh  Rh6  1  0.750000  0.500000  0.250000  1
  Rh  Rh7  1  0.500000  0.250000  0.750000  1
  Rh  Rh8  1  0.250000  0.500000  0.750000  1
  Rh  Rh9  1  0.250000  0.750000  0.500000  1
  Rh  Rh10  1  0.500000  0.750000  0.250000  1
  Rh  Rh11  1  0.720387  0.720387  0.000000  1
  Rh  Rh12  1  0.279613  0.000000  0.279613  1
  Rh  Rh13  1  0.000000  0.279613  0.279613  1
  Rh  Rh14  1  0.279613  0.279613  0.000000  1
  Rh  Rh15  1  0.720387  0.000000  0.720387  1
  Rh  Rh16  1  0.000000  0.720387  0.720387  1
