# generated using pymatgen
data_TmTl(PSe3)2
_symmetry_space_group_name_H-M   'P 1'
_cell_length_a   7.62031300
_cell_length_b   6.85063936
_cell_length_c   10.58033400
_cell_angle_alpha   87.47518396
_cell_angle_beta   90.00000000
_cell_angle_gamma   90.00000000
_symmetry_Int_Tables_number   1
_chemical_formula_structural   TmTl(PSe3)2
_chemical_formula_sum   'Tm2 Tl2 P4 Se12'
_cell_volume   551.79973894
_cell_formula_units_Z   2
loop_
 _symmetry_equiv_pos_site_id
 _symmetry_equiv_pos_as_xyz
  1  'x, y, z'
loop_
 _atom_site_type_symbol
 _atom_site_label
 _atom_site_symmetry_multiplicity
 _atom_site_fract_x
 _atom_site_fract_y
 _atom_site_fract_z
 _atom_site_occupancy
  Tm  Tm0  1  0.266057  0.218872  0.997640  1
  Tm  Tm1  1  0.766057  0.781128  0.002360  1
  Tl  Tl2  1  0.045600  0.311328  0.494824  1
  Tl  Tl3  1  0.545600  0.688672  0.505176  1
  P  P4  1  0.751307  0.319134  0.830489  1
  P  P5  1  0.251307  0.680866  0.169511  1
  P  P6  1  0.032071  0.802506  0.287182  1
  P  P7  1  0.532071  0.197494  0.712818  1
  Se  Se8  1  0.623404  0.375277  0.017468  1
  Se  Se9  1  0.121752  0.832803  0.478775  1
  Se  Se10  1  0.951866  0.079907  0.838713  1
  Se  Se11  1  0.817440  0.594661  0.261800  1
  Se  Se12  1  0.347410  0.399671  0.248923  1
  Se  Se13  1  0.317440  0.405339  0.738200  1
  Se  Se14  1  0.456592  0.938541  0.839415  1
  Se  Se15  1  0.956592  0.061459  0.160585  1
  Se  Se16  1  0.621752  0.167197  0.521225  1
  Se  Se17  1  0.123404  0.624723  0.982532  1
  Se  Se18  1  0.451866  0.920093  0.161287  1
  Se  Se19  1  0.847410  0.600329  0.751077  1
