# generated using pymatgen
data_Cd2InNi2BiO8
_symmetry_space_group_name_H-M   'P 1'
_cell_length_a   6.41444212
_cell_length_b   6.36396946
_cell_length_c   6.46557111
_cell_angle_alpha   60.51847803
_cell_angle_beta   118.20406054
_cell_angle_gamma   119.74004942
_symmetry_Int_Tables_number   1
_chemical_formula_structural   Cd2InNi2BiO8
_chemical_formula_sum   'Cd2 In1 Ni2 Bi1 O8'
_cell_volume   190.16266032
_cell_formula_units_Z   1
loop_
 _symmetry_equiv_pos_site_id
 _symmetry_equiv_pos_as_xyz
  1  'x, y, z'
loop_
 _atom_site_type_symbol
 _atom_site_label
 _atom_site_symmetry_multiplicity
 _atom_site_fract_x
 _atom_site_fract_y
 _atom_site_fract_z
 _atom_site_occupancy
  Cd  Cd0  1  0.871599  0.140482  0.590637  1
  Cd  Cd1  1  0.128401  0.859518  0.409363  1
  In  In2  1  0.000000  0.500000  0.000000  1
  Ni  Ni3  1  0.500000  0.500000  0.000000  1
  Ni  Ni4  1  0.500000  0.000000  0.000000  1
  Bi  Bi5  1  0.500000  0.500000  0.500000  1
  O  O6  1  0.729303  0.714708  0.755222  1
  O  O7  1  0.729303  0.259373  0.755222  1
  O  O8  1  0.280128  0.733852  0.812425  1
  O  O9  1  0.289809  0.263508  0.762793  1
  O  O10  1  0.710191  0.736492  0.237207  1
  O  O11  1  0.719872  0.266148  0.187575  1
  O  O12  1  0.270697  0.740627  0.244778  1
  O  O13  1  0.270697  0.285292  0.244778  1
