# generated using pymatgen
data_Tb7Lu3(GePb3)2
_symmetry_space_group_name_H-M   'P 1'
_cell_length_a   9.30458300
_cell_length_b   9.30461176
_cell_length_c   6.56793400
_cell_angle_alpha   90.00000000
_cell_angle_beta   90.00000000
_cell_angle_gamma   120.00010041
_symmetry_Int_Tables_number   1
_chemical_formula_structural   Tb7Lu3(GePb3)2
_chemical_formula_sum   'Tb7 Lu3 Ge2 Pb6'
_cell_volume   492.44093024
_cell_formula_units_Z   1
loop_
 _symmetry_equiv_pos_site_id
 _symmetry_equiv_pos_as_xyz
  1  'x, y, z'
loop_
 _atom_site_type_symbol
 _atom_site_label
 _atom_site_symmetry_multiplicity
 _atom_site_fract_x
 _atom_site_fract_y
 _atom_site_fract_z
 _atom_site_occupancy
  Tb  Tb0  1  0.252108  0.000256  0.250004  1
  Tb  Tb1  1  0.748148  0.000256  0.749996  1
  Tb  Tb2  1  0.999744  0.251851  0.250004  1
  Tb  Tb3  1  0.999744  0.747893  0.749996  1
  Tb  Tb4  1  0.748149  0.747893  0.250004  1
  Tb  Tb5  1  0.252107  0.251851  0.749996  1
  Tb  Tb6  1  0.333333  0.666667  0.500000  1
  Lu  Lu7  1  0.333333  0.666667  0.000000  1
  Lu  Lu8  1  0.666667  0.333333  0.000000  1
  Lu  Lu9  1  0.666667  0.333333  0.500000  1
  Ge  Ge10  1  0.000000  0.000000  0.000000  1
  Ge  Ge11  1  0.000000  0.000000  0.500000  1
  Pb  Pb12  1  0.605769  0.000842  0.249543  1
  Pb  Pb13  1  0.395074  0.000842  0.750457  1
  Pb  Pb14  1  0.999158  0.604927  0.249543  1
  Pb  Pb15  1  0.999158  0.394230  0.750457  1
  Pb  Pb16  1  0.395074  0.394231  0.249543  1
  Pb  Pb17  1  0.605769  0.604926  0.750457  1
