# generated using pymatgen
data_YTm3(Si2Rh)2
_symmetry_space_group_name_H-M   'P 1'
_cell_length_a   5.64821324
_cell_length_b   5.64821282
_cell_length_c   9.98904375
_cell_angle_alpha   63.75965863
_cell_angle_beta   63.75965905
_cell_angle_gamma   43.45269601
_symmetry_Int_Tables_number   1
_chemical_formula_structural   YTm3(Si2Rh)2
_chemical_formula_sum   'Y1 Tm3 Si4 Rh2'
_cell_volume   192.75378512
_cell_formula_units_Z   1
loop_
 _symmetry_equiv_pos_site_id
 _symmetry_equiv_pos_as_xyz
  1  'x, y, z'
loop_
 _atom_site_type_symbol
 _atom_site_label
 _atom_site_symmetry_multiplicity
 _atom_site_fract_x
 _atom_site_fract_y
 _atom_site_fract_z
 _atom_site_occupancy
  Y  Y0  1  0.814418  0.814418  0.108019  1
  Tm  Tm1  1  0.001021  0.001021  0.325973  1
  Tm  Tm2  1  0.185309  0.185309  0.889923  1
  Tm  Tm3  1  0.998262  0.998262  0.674740  1
  Si  Si4  1  0.361629  0.361629  0.565712  1
  Si  Si5  1  0.488817  0.488817  0.878097  1
  Si  Si6  1  0.637696  0.637696  0.435716  1
  Si  Si7  1  0.512966  0.512966  0.120296  1
  Rh  Rh8  1  0.726161  0.726161  0.628629  1
  Rh  Rh9  1  0.273719  0.273719  0.372895  1
