# generated using pymatgen
data_La3Y13MgCd3Ni4
_symmetry_space_group_name_H-M   'P 1'
_cell_length_a   9.69865080
_cell_length_b   9.71218834
_cell_length_c   9.71401294
_cell_angle_alpha   59.75498741
_cell_angle_beta   59.86718808
_cell_angle_gamma   59.85666239
_symmetry_Int_Tables_number   1
_chemical_formula_structural   La3Y13MgCd3Ni4
_chemical_formula_sum   'La3 Y13 Mg1 Cd3 Ni4'
_cell_volume   644.45898746
_cell_formula_units_Z   1
loop_
 _symmetry_equiv_pos_site_id
 _symmetry_equiv_pos_as_xyz
  1  'x, y, z'
loop_
 _atom_site_type_symbol
 _atom_site_label
 _atom_site_symmetry_multiplicity
 _atom_site_fract_x
 _atom_site_fract_y
 _atom_site_fract_z
 _atom_site_occupancy
  La  La0  1  0.595115  0.599489  0.599255  1
  La  La1  1  0.595867  0.599527  0.203195  1
  La  La2  1  0.595561  0.203045  0.599668  1
  Y  Y3  1  0.196785  0.602243  0.601969  1
  Y  Y4  1  0.063184  0.438559  0.438663  1
  Y  Y5  1  0.437132  0.065487  0.064974  1
  Y  Y6  1  0.438861  0.063468  0.437073  1
  Y  Y7  1  0.065046  0.436516  0.063479  1
  Y  Y8  1  0.438887  0.437048  0.063363  1
  Y  Y9  1  0.065164  0.063193  0.436659  1
  Y  Y10  1  0.187053  0.816912  0.817007  1
  Y  Y11  1  0.815407  0.185006  0.185136  1
  Y  Y12  1  0.816218  0.185951  0.815731  1
  Y  Y13  1  0.185935  0.814911  0.185662  1
  Y  Y14  1  0.816156  0.815729  0.186073  1
  Y  Y15  1  0.185947  0.185681  0.814909  1
  Mg  Mg16  1  0.829317  0.824496  0.825186  1
  Cd  Cd17  1  0.835634  0.829344  0.502030  1
  Cd  Cd18  1  0.835532  0.501696  0.829906  1
  Cd  Cd19  1  0.502999  0.830973  0.831914  1
  Ni  Ni20  1  0.393105  0.393092  0.391468  1
  Ni  Ni21  1  0.389303  0.392653  0.824581  1
  Ni  Ni22  1  0.389561  0.825331  0.390743  1
  Ni  Ni23  1  0.826233  0.389649  0.391359  1
