# generated using pymatgen
data_Hf3UCN3
_symmetry_space_group_name_H-M   'P 1'
_cell_length_a   11.10379303
_cell_length_b   11.10379315
_cell_length_c   11.10379326
_cell_angle_alpha   16.83967559
_cell_angle_beta   16.83967199
_cell_angle_gamma   16.83966798
_symmetry_Int_Tables_number   1
_chemical_formula_structural   Hf3UCN3
_chemical_formula_sum   'Hf3 U1 C1 N3'
_cell_volume   100.21669874
_cell_formula_units_Z   1
loop_
 _symmetry_equiv_pos_site_id
 _symmetry_equiv_pos_as_xyz
  1  'x, y, z'
loop_
 _atom_site_type_symbol
 _atom_site_label
 _atom_site_symmetry_multiplicity
 _atom_site_fract_x
 _atom_site_fract_y
 _atom_site_fract_z
 _atom_site_occupancy
  Hf  Hf0  1  0.123357  0.123357  0.123357  1
  Hf  Hf1  1  0.374197  0.374197  0.374197  1
  Hf  Hf2  1  0.627816  0.627816  0.627816  1
  U  U3  1  0.874939  0.874939  0.874939  1
  C  C4  1  0.002281  0.002281  0.002281  1
  N  N5  1  0.255283  0.255283  0.255283  1
  N  N6  1  0.492777  0.492777  0.492777  1
  N  N7  1  0.749350  0.749350  0.749350  1
