# generated using pymatgen
data_Y4Al18(OsAu)3
_symmetry_space_group_name_H-M   'P 1'
_cell_length_a   7.67659399
_cell_length_b   7.67659485
_cell_length_c   9.53391703
_cell_angle_alpha   90.08022705
_cell_angle_beta   90.08022416
_cell_angle_gamma   119.70071515
_symmetry_Int_Tables_number   1
_chemical_formula_structural   Y4Al18(OsAu)3
_chemical_formula_sum   'Y4 Al18 Os3 Au3'
_cell_volume   488.02195713
_cell_formula_units_Z   1
loop_
 _symmetry_equiv_pos_site_id
 _symmetry_equiv_pos_as_xyz
  1  'x, y, z'
loop_
 _atom_site_type_symbol
 _atom_site_label
 _atom_site_symmetry_multiplicity
 _atom_site_fract_x
 _atom_site_fract_y
 _atom_site_fract_z
 _atom_site_occupancy
  Y  Y0  1  0.996314  0.669092  0.247617  1
  Y  Y1  1  0.006836  0.333080  0.751421  1
  Y  Y2  1  0.666920  0.993164  0.248579  1
  Y  Y3  1  0.330908  0.003686  0.752383  1
  Al  Al4  1  0.120280  0.122542  0.248511  1
  Al  Al5  1  0.877458  0.879720  0.751489  1
  Al  Al6  1  0.988306  0.322146  0.074018  1
  Al  Al7  1  0.989806  0.664442  0.925012  1
  Al  Al8  1  0.996843  0.676994  0.580738  1
  Al  Al9  1  0.323006  0.003157  0.419262  1
  Al  Al10  1  0.001047  0.324249  0.421199  1
  Al  Al11  1  0.675751  0.998953  0.578801  1
  Al  Al12  1  0.677854  0.011694  0.925982  1
  Al  Al13  1  0.335558  0.010194  0.074988  1
  Al  Al14  1  0.324609  0.325109  0.561628  1
  Al  Al15  1  0.674891  0.675391  0.438372  1
  Al  Al16  1  0.678532  0.667977  0.048548  1
  Al  Al17  1  0.332023  0.321468  0.951452  1
  Al  Al18  1  0.341433  0.539445  0.248634  1
  Al  Al19  1  0.656424  0.452414  0.758436  1
  Al  Al20  1  0.547586  0.343576  0.241564  1
  Al  Al21  1  0.460555  0.658567  0.751366  1
  Os  Os22  1  0.671883  0.328117  0.000000  1
  Os  Os23  1  0.001109  0.998891  0.000000  1
  Os  Os24  1  0.999277  0.000723  0.500000  1
  Au  Au25  1  0.326576  0.673424  0.000000  1
  Au  Au26  1  0.325466  0.674534  0.500000  1
  Au  Au27  1  0.672748  0.327252  0.500000  1
