# generated using pymatgen
data_Mn7Be6CdSi6(SO12)2
_symmetry_space_group_name_H-M   'P 1'
_cell_length_a   8.38665800
_cell_length_b   8.38665800
_cell_length_c   8.38665800
_cell_angle_alpha   90.00000000
_cell_angle_beta   90.00000000
_cell_angle_gamma   90.00000000
_symmetry_Int_Tables_number   1
_chemical_formula_structural   Mn7Be6CdSi6(SO12)2
_chemical_formula_sum   'Mn7 Be6 Cd1 Si6 S2 O24'
_cell_volume   589.88424889
_cell_formula_units_Z   1
loop_
 _symmetry_equiv_pos_site_id
 _symmetry_equiv_pos_as_xyz
  1  'x, y, z'
loop_
 _atom_site_type_symbol
 _atom_site_label
 _atom_site_symmetry_multiplicity
 _atom_site_fract_x
 _atom_site_fract_y
 _atom_site_fract_z
 _atom_site_occupancy
  Mn  Mn0  1  0.828186  0.170954  0.828620  1
  Mn  Mn1  1  0.170954  0.828620  0.828186  1
  Mn  Mn2  1  0.828620  0.828186  0.170954  1
  Mn  Mn3  1  0.675293  0.326543  0.326586  1
  Mn  Mn4  1  0.326543  0.326586  0.675293  1
  Mn  Mn5  1  0.326586  0.675293  0.326543  1
  Mn  Mn6  1  0.171335  0.171335  0.171335  1
  Be  Be7  1  0.500153  0.750885  0.000858  1
  Be  Be8  1  0.500770  0.250443  0.001205  1
  Be  Be9  1  0.001205  0.500770  0.250443  1
  Be  Be10  1  0.000858  0.500153  0.750885  1
  Be  Be11  1  0.250443  0.001205  0.500770  1
  Be  Be12  1  0.750885  0.000858  0.500153  1
  Cd  Cd13  1  0.658428  0.658428  0.658428  1
  Si  Si14  1  0.500733  0.001092  0.250416  1
  Si  Si15  1  0.499915  0.000855  0.750929  1
  Si  Si16  1  0.001092  0.250416  0.500733  1
  Si  Si17  1  0.250416  0.500733  0.001092  1
  Si  Si18  1  0.000855  0.750929  0.499915  1
  Si  Si19  1  0.750929  0.499915  0.000855  1
  S  S20  1  0.000141  0.000141  0.000141  1
  S  S21  1  0.488879  0.488879  0.488879  1
  O  O22  1  0.357401  0.643540  0.082103  1
  O  O23  1  0.142800  0.859341  0.581151  1
  O  O24  1  0.142359  0.142266  0.418273  1
  O  O25  1  0.359754  0.919834  0.359953  1
  O  O26  1  0.356937  0.082050  0.643592  1
  O  O27  1  0.082103  0.357401  0.643540  1
  O  O28  1  0.919834  0.359953  0.359754  1
  O  O29  1  0.643592  0.356937  0.082050  1
  O  O30  1  0.418370  0.858595  0.858699  1
  O  O31  1  0.418273  0.142359  0.142266  1
  O  O32  1  0.142266  0.418273  0.142359  1
  O  O33  1  0.859341  0.581151  0.142800  1
  O  O34  1  0.641911  0.923664  0.641190  1
  O  O35  1  0.858699  0.418370  0.858595  1
  O  O36  1  0.581543  0.858899  0.142554  1
  O  O37  1  0.581151  0.142800  0.859341  1
  O  O38  1  0.923664  0.641190  0.641911  1
  O  O39  1  0.142554  0.581543  0.858899  1
  O  O40  1  0.858899  0.142554  0.581543  1
  O  O41  1  0.858595  0.858699  0.418370  1
  O  O42  1  0.359953  0.359754  0.919834  1
  O  O43  1  0.641190  0.641911  0.923664  1
  O  O44  1  0.082050  0.643592  0.356937  1
  O  O45  1  0.643540  0.082103  0.357401  1
