# generated using pymatgen
data_CeU2Pa5H24
_symmetry_space_group_name_H-M   'P 1'
_cell_length_a   6.65571100
_cell_length_b   6.62171200
_cell_length_c   6.62171200
_cell_angle_alpha   90.00000000
_cell_angle_beta   90.00000000
_cell_angle_gamma   90.00000000
_symmetry_Int_Tables_number   1
_chemical_formula_structural   CeU2Pa5H24
_chemical_formula_sum   'Ce1 U2 Pa5 H24'
_cell_volume   291.83342486
_cell_formula_units_Z   1
loop_
 _symmetry_equiv_pos_site_id
 _symmetry_equiv_pos_as_xyz
  1  'x, y, z'
loop_
 _atom_site_type_symbol
 _atom_site_label
 _atom_site_symmetry_multiplicity
 _atom_site_fract_x
 _atom_site_fract_y
 _atom_site_fract_z
 _atom_site_occupancy
  Ce  Ce0  1  0.250000  0.000000  0.500000  1
  U  U1  1  0.997380  0.000000  0.000000  1
  U  U2  1  0.502620  0.500000  0.500000  1
  Pa  Pa3  1  0.750000  0.000000  0.500000  1
  Pa  Pa4  1  0.999517  0.500000  0.250053  1
  Pa  Pa5  1  0.999517  0.500000  0.749947  1
  Pa  Pa6  1  0.500483  0.750053  0.000000  1
  Pa  Pa7  1  0.500483  0.249947  0.000000  1
  H  H8  1  0.992408  0.157175  0.301508  1
  H  H9  1  0.507592  0.198492  0.657175  1
  H  H10  1  0.507592  0.801508  0.342825  1
  H  H11  1  0.805665  0.655416  0.500000  1
  H  H12  1  0.194181  0.648728  0.500000  1
  H  H13  1  0.344284  0.500000  0.803650  1
  H  H14  1  0.655663  0.500000  0.805233  1
  H  H15  1  0.305819  0.000000  0.148728  1
  H  H16  1  0.155716  0.303650  0.000000  1
  H  H17  1  0.844337  0.694767  0.000000  1
  H  H18  1  0.305819  0.000000  0.851272  1
  H  H19  1  0.844337  0.305233  0.000000  1
  H  H20  1  0.694335  0.000000  0.155416  1
  H  H21  1  0.694335  0.000000  0.844584  1
  H  H22  1  0.155716  0.696350  0.000000  1
  H  H23  1  0.992408  0.842825  0.698492  1
  H  H24  1  0.992408  0.157175  0.698492  1
  H  H25  1  0.992408  0.842825  0.301508  1
  H  H26  1  0.655663  0.500000  0.194767  1
  H  H27  1  0.344284  0.500000  0.196350  1
  H  H28  1  0.805665  0.344584  0.500000  1
  H  H29  1  0.194181  0.351272  0.500000  1
  H  H30  1  0.507592  0.801508  0.657175  1
  H  H31  1  0.507592  0.198492  0.342825  1
