# generated using pymatgen
data_Gd4Tm5LuPt8
_symmetry_space_group_name_H-M   'P 1'
_cell_length_a   7.40084400
_cell_length_b   7.47395700
_cell_length_c   14.74079400
_cell_angle_alpha   90.00000000
_cell_angle_beta   90.00000000
_cell_angle_gamma   90.00000000
_symmetry_Int_Tables_number   1
_chemical_formula_structural   Gd4Tm5LuPt8
_chemical_formula_sum   'Gd8 Tm10 Lu2 Pt16'
_cell_volume   815.36623293
_cell_formula_units_Z   2
loop_
 _symmetry_equiv_pos_site_id
 _symmetry_equiv_pos_as_xyz
  1  'x, y, z'
loop_
 _atom_site_type_symbol
 _atom_site_label
 _atom_site_symmetry_multiplicity
 _atom_site_fract_x
 _atom_site_fract_y
 _atom_site_fract_z
 _atom_site_occupancy
  Gd  Gd0  1  0.479244  0.674379  0.596344  1
  Gd  Gd1  1  0.979244  0.825621  0.903656  1
  Gd  Gd2  1  0.520792  0.325437  0.095339  1
  Gd  Gd3  1  0.020792  0.174563  0.404661  1
  Gd  Gd4  1  0.520792  0.325437  0.404661  1
  Gd  Gd5  1  0.020792  0.174563  0.095339  1
  Gd  Gd6  1  0.479244  0.674379  0.903656  1
  Gd  Gd7  1  0.979244  0.825621  0.596344  1
  Tm  Tm8  1  0.635460  0.167902  0.622161  1
  Tm  Tm9  1  0.135460  0.332098  0.877839  1
  Tm  Tm10  1  0.364577  0.831920  0.121379  1
  Tm  Tm11  1  0.864577  0.668080  0.378621  1
  Tm  Tm12  1  0.364577  0.831920  0.378621  1
  Tm  Tm13  1  0.864577  0.668080  0.121379  1
  Tm  Tm14  1  0.635460  0.167902  0.877839  1
  Tm  Tm15  1  0.135460  0.332098  0.622161  1
  Tm  Tm16  1  0.202894  0.491031  0.250000  1
  Tm  Tm17  1  0.702894  0.008969  0.250000  1
  Lu  Lu18  1  0.797096  0.508283  0.750000  1
  Lu  Lu19  1  0.297096  0.991717  0.750000  1
  Pt  Pt20  1  0.694150  0.969133  0.457940  1
  Pt  Pt21  1  0.194150  0.530867  0.042060  1
  Pt  Pt22  1  0.305891  0.030747  0.956905  1
  Pt  Pt23  1  0.805891  0.469253  0.543095  1
  Pt  Pt24  1  0.305891  0.030747  0.543095  1
  Pt  Pt25  1  0.805891  0.469253  0.956905  1
  Pt  Pt26  1  0.694150  0.969133  0.042060  1
  Pt  Pt27  1  0.194150  0.530867  0.457940  1
  Pt  Pt28  1  0.430857  0.377406  0.750000  1
  Pt  Pt29  1  0.930857  0.122594  0.750000  1
  Pt  Pt30  1  0.569647  0.623322  0.250000  1
  Pt  Pt31  1  0.069647  0.876678  0.250000  1
  Pt  Pt32  1  0.659269  0.860229  0.750000  1
  Pt  Pt33  1  0.159269  0.639771  0.750000  1
  Pt  Pt34  1  0.340009  0.138776  0.250000  1
  Pt  Pt35  1  0.840009  0.361224  0.250000  1
