# generated using pymatgen
data_Rb3Mn3(AsO4)4
_symmetry_space_group_name_H-M   'P 1'
_cell_length_a   5.22221315
_cell_length_b   7.22314594
_cell_length_c   11.67189304
_cell_angle_alpha   78.27581835
_cell_angle_beta   89.76812620
_cell_angle_gamma   81.44849545
_symmetry_Int_Tables_number   1
_chemical_formula_structural   Rb3Mn3(AsO4)4
_chemical_formula_sum   'Rb3 Mn3 As4 O16'
_cell_volume   426.13957316
_cell_formula_units_Z   1
loop_
 _symmetry_equiv_pos_site_id
 _symmetry_equiv_pos_as_xyz
  1  'x, y, z'
loop_
 _atom_site_type_symbol
 _atom_site_label
 _atom_site_symmetry_multiplicity
 _atom_site_fract_x
 _atom_site_fract_y
 _atom_site_fract_z
 _atom_site_occupancy
  Rb  Rb0  1  0.000000  0.000000  0.000000  1
  Rb  Rb1  1  0.115496  0.259813  0.478615  1
  Rb  Rb2  1  0.884504  0.740187  0.521385  1
  Mn  Mn3  1  0.500000  0.500000  0.000000  1
  Mn  Mn4  1  0.009391  0.443290  0.133637  1
  Mn  Mn5  1  0.990609  0.556710  0.866363  1
  As  As6  1  0.538405  0.130614  0.236725  1
  As  As7  1  0.506271  0.678415  0.245488  1
  As  As8  1  0.493729  0.321584  0.754511  1
  As  As9  1  0.461595  0.869386  0.763275  1
  O  O10  1  0.801156  0.617837  0.004893  1
  O  O11  1  0.692539  0.265933  0.124584  1
  O  O12  1  0.327943  0.621275  0.134866  1
  O  O13  1  0.542391  0.921353  0.172424  1
  O  O14  1  0.215486  0.227349  0.240135  1
  O  O15  1  0.816749  0.551249  0.257526  1
  O  O16  1  0.365792  0.670377  0.374126  1
  O  O17  1  0.679752  0.080724  0.368948  1
  O  O18  1  0.320247  0.919276  0.631052  1
  O  O19  1  0.634208  0.329624  0.625875  1
  O  O20  1  0.183251  0.448750  0.742474  1
  O  O21  1  0.784514  0.772650  0.759865  1
  O  O22  1  0.457608  0.078648  0.827576  1
  O  O23  1  0.672057  0.378724  0.865134  1
  O  O24  1  0.307461  0.734066  0.875416  1
  O  O25  1  0.198844  0.382164  0.995107  1
