# generated using pymatgen
data_Tb2PrMg(Co4P3)2
_symmetry_space_group_name_H-M   'P 1'
_cell_length_a   3.75654700
_cell_length_b   10.69181200
_cell_length_c   12.35601900
_cell_angle_alpha   90.00000000
_cell_angle_beta   90.00000000
_cell_angle_gamma   90.00000000
_symmetry_Int_Tables_number   1
_chemical_formula_structural   Tb2PrMg(Co4P3)2
_chemical_formula_sum   'Tb4 Pr2 Mg2 Co16 P12'
_cell_volume   496.27078341
_cell_formula_units_Z   2
loop_
 _symmetry_equiv_pos_site_id
 _symmetry_equiv_pos_as_xyz
  1  'x, y, z'
loop_
 _atom_site_type_symbol
 _atom_site_label
 _atom_site_symmetry_multiplicity
 _atom_site_fract_x
 _atom_site_fract_y
 _atom_site_fract_z
 _atom_site_occupancy
  Tb  Tb0  1  0.500000  0.821665  0.204911  1
  Tb  Tb1  1  0.500000  0.178335  0.204911  1
  Tb  Tb2  1  0.000000  0.678335  0.795089  1
  Tb  Tb3  1  0.000000  0.321665  0.795089  1
  Pr  Pr4  1  0.000000  0.500000  0.527075  1
  Pr  Pr5  1  0.500000  0.000000  0.472925  1
  Mg  Mg6  1  0.500000  0.500000  0.153240  1
  Mg  Mg7  1  0.000000  0.000000  0.846760  1
  Co  Co8  1  0.500000  0.500000  0.709432  1
  Co  Co9  1  0.000000  0.000000  0.290568  1
  Co  Co10  1  0.000000  0.500000  0.989002  1
  Co  Co11  1  0.500000  0.000000  0.010998  1
  Co  Co12  1  0.500000  0.332381  0.996820  1
  Co  Co13  1  0.500000  0.667619  0.996820  1
  Co  Co14  1  0.000000  0.167619  0.003180  1
  Co  Co15  1  0.000000  0.832381  0.003180  1
  Co  Co16  1  0.500000  0.296181  0.430556  1
  Co  Co17  1  0.500000  0.703819  0.430556  1
  Co  Co18  1  0.000000  0.203819  0.569444  1
  Co  Co19  1  0.000000  0.796181  0.569444  1
  Co  Co20  1  0.500000  0.878735  0.708540  1
  Co  Co21  1  0.500000  0.121265  0.708540  1
  Co  Co22  1  0.000000  0.621265  0.291460  1
  Co  Co23  1  0.000000  0.378735  0.291460  1
  P  P24  1  0.500000  0.500000  0.886976  1
  P  P25  1  0.000000  0.000000  0.113024  1
  P  P26  1  0.500000  0.500000  0.350493  1
  P  P27  1  0.000000  0.000000  0.649507  1
  P  P28  1  0.500000  0.305047  0.616784  1
  P  P29  1  0.500000  0.694953  0.616784  1
  P  P30  1  0.000000  0.194953  0.383216  1
  P  P31  1  0.000000  0.805047  0.383216  1
  P  P32  1  0.500000  0.839036  0.894289  1
  P  P33  1  0.500000  0.160964  0.894289  1
  P  P34  1  0.000000  0.660964  0.105711  1
  P  P35  1  0.000000  0.339036  0.105711  1
