# generated using pymatgen
data_SmTm5U2(ReB6)4
_symmetry_space_group_name_H-M   'P 1'
_cell_length_a   3.66934700
_cell_length_b   9.11844311
_cell_length_c   11.48690300
_cell_angle_alpha   90.36117504
_cell_angle_beta   90.00000000
_cell_angle_gamma   90.00000000
_symmetry_Int_Tables_number   1
_chemical_formula_structural   SmTm5U2(ReB6)4
_chemical_formula_sum   'Sm1 Tm5 U2 Re4 B24'
_cell_volume   384.32957159
_cell_formula_units_Z   1
loop_
 _symmetry_equiv_pos_site_id
 _symmetry_equiv_pos_as_xyz
  1  'x, y, z'
loop_
 _atom_site_type_symbol
 _atom_site_label
 _atom_site_symmetry_multiplicity
 _atom_site_fract_x
 _atom_site_fract_y
 _atom_site_fract_z
 _atom_site_occupancy
  Sm  Sm0  1  0.000000  0.822822  0.086053  1
  Tm  Tm1  1  0.000000  0.177118  0.913931  1
  Tm  Tm2  1  0.000000  0.945269  0.373424  1
  Tm  Tm3  1  0.000000  0.055279  0.626665  1
  Tm  Tm4  1  0.000000  0.443440  0.126906  1
  Tm  Tm5  1  0.000000  0.555731  0.872593  1
  U  U6  1  0.000000  0.322666  0.413926  1
  U  U7  1  0.000000  0.677348  0.586437  1
  Re  Re8  1  0.000000  0.634778  0.326061  1
  Re  Re9  1  0.000000  0.364267  0.674798  1
  Re  Re10  1  0.000000  0.142409  0.183122  1
  Re  Re11  1  0.000000  0.859121  0.816297  1
  B  B12  1  0.500000  0.552425  0.434653  1
  B  B13  1  0.500000  0.447065  0.566070  1
  B  B14  1  0.500000  0.055178  0.067247  1
  B  B15  1  0.500000  0.947636  0.931114  1
  B  B16  1  0.500000  0.748571  0.421286  1
  B  B17  1  0.500000  0.251327  0.579568  1
  B  B18  1  0.500000  0.249485  0.080131  1
  B  B19  1  0.500000  0.750883  0.917278  1
  B  B20  1  0.500000  0.791408  0.267581  1
  B  B21  1  0.500000  0.207726  0.734050  1
  B  B22  1  0.500000  0.293846  0.235222  1
  B  B23  1  0.500000  0.706357  0.763970  1
  B  B24  1  0.500000  0.629437  0.186519  1
  B  B25  1  0.500000  0.368594  0.814749  1
  B  B26  1  0.500000  0.133867  0.316120  1
  B  B27  1  0.500000  0.867185  0.683960  1
  B  B28  1  0.500000  0.983657  0.213970  1
  B  B29  1  0.500000  0.018924  0.786471  1
  B  B30  1  0.500000  0.481055  0.287870  1
  B  B31  1  0.500000  0.518019  0.712702  1
  B  B32  1  0.500000  0.600217  0.028144  1
  B  B33  1  0.500000  0.396501  0.970850  1
  B  B34  1  0.500000  0.110779  0.469886  1
  B  B35  1  0.500000  0.889610  0.530374  1
