# generated using pymatgen
data_Dy4Er4Sc12Si15Hg
_symmetry_space_group_name_H-M   'P 1'
_cell_length_a   7.11753297
_cell_length_b   7.37668118
_cell_length_c   14.05859973
_cell_angle_alpha   89.91944996
_cell_angle_beta   89.57220913
_cell_angle_gamma   90.16935135
_symmetry_Int_Tables_number   1
_chemical_formula_structural   Dy4Er4Sc12Si15Hg
_chemical_formula_sum   'Dy4 Er4 Sc12 Si15 Hg1'
_cell_volume   738.10495757
_cell_formula_units_Z   1
loop_
 _symmetry_equiv_pos_site_id
 _symmetry_equiv_pos_as_xyz
  1  'x, y, z'
loop_
 _atom_site_type_symbol
 _atom_site_label
 _atom_site_symmetry_multiplicity
 _atom_site_fract_x
 _atom_site_fract_y
 _atom_site_fract_z
 _atom_site_occupancy
  Dy  Dy0  1  0.011028  0.175456  0.097371  1
  Dy  Dy1  1  0.988218  0.825687  0.904456  1
  Dy  Dy2  1  0.488350  0.676371  0.904533  1
  Dy  Dy3  1  0.990035  0.831892  0.597568  1
  Er  Er4  1  0.510979  0.323508  0.096997  1
  Er  Er5  1  0.006755  0.171279  0.397669  1
  Er  Er6  1  0.510740  0.321469  0.399023  1
  Er  Er7  1  0.497233  0.682241  0.600082  1
  Sc  Sc8  1  0.164277  0.502089  0.754170  1
  Sc  Sc9  1  0.835464  0.497821  0.250155  1
  Sc  Sc10  1  0.335959  0.001047  0.248933  1
  Sc  Sc11  1  0.666625  0.996986  0.751695  1
  Sc  Sc12  1  0.344159  0.168266  0.628586  1
  Sc  Sc13  1  0.662816  0.823927  0.373202  1
  Sc  Sc14  1  0.165555  0.677357  0.370693  1
  Sc  Sc15  1  0.668078  0.823465  0.124522  1
  Sc  Sc16  1  0.826126  0.325335  0.625728  1
  Sc  Sc17  1  0.330251  0.175555  0.876484  1
  Sc  Sc18  1  0.830887  0.323248  0.876376  1
  Sc  Sc19  1  0.168178  0.676365  0.125106  1
  Si  Si20  1  0.037176  0.121346  0.751194  1
  Si  Si21  1  0.962828  0.883813  0.248170  1
  Si  Si22  1  0.465176  0.613840  0.248125  1
  Si  Si23  1  0.535013  0.386520  0.751899  1
  Si  Si24  1  0.286669  0.872265  0.751493  1
  Si  Si25  1  0.711020  0.128103  0.248146  1
  Si  Si26  1  0.212702  0.370385  0.248366  1
  Si  Si27  1  0.789561  0.628501  0.752209  1
  Si  Si28  1  0.831492  0.537063  0.458693  1
  Si  Si29  1  0.337358  0.962640  0.459754  1
  Si  Si30  1  0.841858  0.535031  0.039127  1
  Si  Si31  1  0.660899  0.037704  0.536954  1
  Si  Si32  1  0.156569  0.463967  0.962466  1
  Si  Si33  1  0.656651  0.036089  0.961294  1
  Si  Si34  1  0.342570  0.965475  0.040159  1
  Hg  Hg35  1  0.170741  0.457896  0.538604  1
