# generated using pymatgen
data_Pr3Sn3Pd2Rh
_symmetry_space_group_name_H-M   'P 1'
_cell_length_a   7.66608800
_cell_length_b   7.66608804
_cell_length_c   4.14735400
_cell_angle_alpha   90.00000000
_cell_angle_beta   90.00000000
_cell_angle_gamma   119.99999983
_symmetry_Int_Tables_number   1
_chemical_formula_structural   Pr3Sn3Pd2Rh
_chemical_formula_sum   'Pr3 Sn3 Pd2 Rh1'
_cell_volume   211.08109651
_cell_formula_units_Z   1
loop_
 _symmetry_equiv_pos_site_id
 _symmetry_equiv_pos_as_xyz
  1  'x, y, z'
loop_
 _atom_site_type_symbol
 _atom_site_label
 _atom_site_symmetry_multiplicity
 _atom_site_fract_x
 _atom_site_fract_y
 _atom_site_fract_z
 _atom_site_occupancy
  Pr  Pr0  1  0.000000  0.589433  0.000000  1
  Pr  Pr1  1  0.410567  0.410567  0.000000  1
  Pr  Pr2  1  0.589433  0.000000  0.000000  1
  Sn  Sn3  1  0.751422  0.751422  0.500000  1
  Sn  Sn4  1  0.000000  0.248578  0.500000  1
  Sn  Sn5  1  0.248578  0.000000  0.500000  1
  Pd  Pd6  1  0.666667  0.333333  0.500000  1
  Pd  Pd7  1  0.333333  0.666667  0.500000  1
  Rh  Rh8  1  0.000000  0.000000  0.000000  1
