# generated using pymatgen
data_HoEr5Al7Pt16
_symmetry_space_group_name_H-M   'P 1'
_cell_length_a   8.95670674
_cell_length_b   8.95670691
_cell_length_c   8.95104500
_cell_angle_alpha   60.02090518
_cell_angle_beta   60.02090457
_cell_angle_gamma   59.95818950
_symmetry_Int_Tables_number   1
_chemical_formula_structural   HoEr5Al7Pt16
_chemical_formula_sum   'Ho1 Er5 Al7 Pt16'
_cell_volume   507.75605511
_cell_formula_units_Z   1
loop_
 _symmetry_equiv_pos_site_id
 _symmetry_equiv_pos_as_xyz
  1  'x, y, z'
loop_
 _atom_site_type_symbol
 _atom_site_label
 _atom_site_symmetry_multiplicity
 _atom_site_fract_x
 _atom_site_fract_y
 _atom_site_fract_z
 _atom_site_occupancy
  Ho  Ho0  1  0.713079  0.713079  0.286921  1
  Er  Er1  1  0.286254  0.713544  0.286456  1
  Er  Er2  1  0.713544  0.286254  0.286456  1
  Er  Er3  1  0.286650  0.286650  0.713350  1
  Er  Er4  1  0.713544  0.286254  0.713746  1
  Er  Er5  1  0.286254  0.713544  0.713746  1
  Al  Al6  1  0.999888  0.999888  0.000112  1
  Al  Al7  1  0.999953  0.999953  0.500047  1
  Al  Al8  1  0.499692  0.000086  0.500308  1
  Al  Al9  1  0.000086  0.499692  0.500308  1
  Al  Al10  1  0.499953  0.499953  0.000047  1
  Al  Al11  1  0.000086  0.499692  0.999914  1
  Al  Al12  1  0.499692  0.000086  0.999914  1
  Pt  Pt13  1  0.881150  0.881150  0.357100  1
  Pt  Pt14  1  0.881253  0.356910  0.880918  1
  Pt  Pt15  1  0.356910  0.881253  0.880918  1
  Pt  Pt16  1  0.881150  0.881150  0.880601  1
  Pt  Pt17  1  0.119082  0.119082  0.643090  1
  Pt  Pt18  1  0.119399  0.642900  0.118850  1
  Pt  Pt19  1  0.642900  0.119399  0.118850  1
  Pt  Pt20  1  0.119082  0.119082  0.118747  1
  Pt  Pt21  1  0.661590  0.661590  0.014777  1
  Pt  Pt22  1  0.661719  0.015301  0.661490  1
  Pt  Pt23  1  0.015301  0.661719  0.661490  1
  Pt  Pt24  1  0.661590  0.661590  0.662043  1
  Pt  Pt25  1  0.338510  0.338510  0.984699  1
  Pt  Pt26  1  0.337957  0.985223  0.338410  1
  Pt  Pt27  1  0.985223  0.337957  0.338410  1
  Pt  Pt28  1  0.338510  0.338510  0.338281  1
