# generated using pymatgen
data_Dy19Y(Bi2Sb)4
_symmetry_space_group_name_H-M   'P 1'
_cell_length_a   8.19091503
_cell_length_b   9.47364500
_cell_length_c   12.02211405
_cell_angle_alpha   90.00000000
_cell_angle_beta   89.98948521
_cell_angle_gamma   90.00000000
_symmetry_Int_Tables_number   1
_chemical_formula_structural   Dy19Y(Bi2Sb)4
_chemical_formula_sum   'Dy19 Y1 Bi8 Sb4'
_cell_volume   932.88984158
_cell_formula_units_Z   1
loop_
 _symmetry_equiv_pos_site_id
 _symmetry_equiv_pos_as_xyz
  1  'x, y, z'
loop_
 _atom_site_type_symbol
 _atom_site_label
 _atom_site_symmetry_multiplicity
 _atom_site_fract_x
 _atom_site_fract_y
 _atom_site_fract_z
 _atom_site_occupancy
  Dy  Dy0  1  0.029300  0.750000  0.988284  1
  Dy  Dy1  1  0.529267  0.750000  0.511732  1
  Dy  Dy2  1  0.970742  0.250000  0.011737  1
  Dy  Dy3  1  0.470773  0.250000  0.488266  1
  Dy  Dy4  1  0.183492  0.750000  0.718289  1
  Dy  Dy5  1  0.683496  0.750000  0.781722  1
  Dy  Dy6  1  0.816481  0.250000  0.281732  1
  Dy  Dy7  1  0.316522  0.250000  0.218260  1
  Dy  Dy8  1  0.309801  0.438586  0.941345  1
  Dy  Dy9  1  0.809663  0.061431  0.558732  1
  Dy  Dy10  1  0.690240  0.938601  0.058729  1
  Dy  Dy11  1  0.190230  0.561435  0.441257  1
  Dy  Dy12  1  0.690240  0.561399  0.058729  1
  Dy  Dy13  1  0.190230  0.938565  0.441257  1
  Dy  Dy14  1  0.309801  0.061414  0.941345  1
  Dy  Dy15  1  0.809663  0.438569  0.558732  1
  Dy  Dy16  1  0.354118  0.750000  0.212998  1
  Dy  Dy17  1  0.854126  0.750000  0.286992  1
  Dy  Dy18  1  0.645860  0.250000  0.787006  1
  Y  Y19  1  0.145971  0.250000  0.712825  1
  Bi  Bi20  1  0.433600  0.003752  0.673941  1
  Bi  Bi21  1  0.933405  0.496248  0.826114  1
  Bi  Bi22  1  0.566511  0.503818  0.326064  1
  Bi  Bi23  1  0.066518  0.996192  0.173925  1
  Bi  Bi24  1  0.566511  0.996182  0.326064  1
  Bi  Bi25  1  0.066518  0.503808  0.173925  1
  Bi  Bi26  1  0.433600  0.496248  0.673941  1
  Bi  Bi27  1  0.933405  0.003752  0.826114  1
  Sb  Sb28  1  0.410157  0.750000  0.959032  1
  Sb  Sb29  1  0.910119  0.750000  0.540950  1
  Sb  Sb30  1  0.589859  0.250000  0.040936  1
  Sb  Sb31  1  0.089782  0.250000  0.459026  1
