# generated using pymatgen
data_RbHg3SbO6
_symmetry_space_group_name_H-M   'P 1'
_cell_length_a   7.59562705
_cell_length_b   7.59562677
_cell_length_c   7.59562748
_cell_angle_alpha   83.13515228
_cell_angle_beta   83.13515007
_cell_angle_gamma   83.13514899
_symmetry_Int_Tables_number   1
_chemical_formula_structural   RbHg3SbO6
_chemical_formula_sum   'Rb2 Hg6 Sb2 O12'
_cell_volume   429.48891173
_cell_formula_units_Z   2
loop_
 _symmetry_equiv_pos_site_id
 _symmetry_equiv_pos_as_xyz
  1  'x, y, z'
loop_
 _atom_site_type_symbol
 _atom_site_label
 _atom_site_symmetry_multiplicity
 _atom_site_fract_x
 _atom_site_fract_y
 _atom_site_fract_z
 _atom_site_occupancy
  Rb  Rb0  1  0.250000  0.250000  0.250000  1
  Rb  Rb1  1  0.750000  0.750000  0.750000  1
  Hg  Hg2  1  0.379327  0.750000  0.120673  1
  Hg  Hg3  1  0.120673  0.379327  0.750000  1
  Hg  Hg4  1  0.620673  0.250000  0.879327  1
  Hg  Hg5  1  0.879327  0.620673  0.250000  1
  Hg  Hg6  1  0.750000  0.120673  0.379327  1
  Hg  Hg7  1  0.250000  0.879327  0.620673  1
  Sb  Sb8  1  0.000000  0.000000  0.000000  1
  Sb  Sb9  1  0.500000  0.500000  0.500000  1
  O  O10  1  0.479952  0.770126  0.492199  1
  O  O11  1  0.492199  0.479952  0.770126  1
  O  O12  1  0.770126  0.492199  0.479952  1
  O  O13  1  0.020048  0.007801  0.729874  1
  O  O14  1  0.729874  0.020048  0.007801  1
  O  O15  1  0.007801  0.729874  0.020048  1
  O  O16  1  0.520048  0.229874  0.507801  1
  O  O17  1  0.507801  0.520048  0.229874  1
  O  O18  1  0.229874  0.507801  0.520048  1
  O  O19  1  0.979952  0.992199  0.270126  1
  O  O20  1  0.992199  0.270126  0.979952  1
  O  O21  1  0.270126  0.979952  0.992199  1
