# generated using pymatgen
data_NaU7VS17
_symmetry_space_group_name_H-M   'P 1'
_cell_length_a   7.74618504
_cell_length_b   7.77752569
_cell_length_c   10.32532200
_cell_angle_alpha   80.90544205
_cell_angle_beta   80.54200432
_cell_angle_gamma   64.92384146
_symmetry_Int_Tables_number   1
_chemical_formula_structural   NaU7VS17
_chemical_formula_sum   'Na1 U7 V1 S17'
_cell_volume   553.04126357
_cell_formula_units_Z   1
loop_
 _symmetry_equiv_pos_site_id
 _symmetry_equiv_pos_as_xyz
  1  'x, y, z'
loop_
 _atom_site_type_symbol
 _atom_site_label
 _atom_site_symmetry_multiplicity
 _atom_site_fract_x
 _atom_site_fract_y
 _atom_site_fract_z
 _atom_site_occupancy
  Na  Na0  1  0.804385  0.316180  0.294268  1
  U  U1  1  0.297516  0.824005  0.294282  1
  U  U2  1  0.181971  0.697133  0.700371  1
  U  U3  1  0.702662  0.180400  0.703552  1
  U  U4  1  0.205899  0.201301  0.540693  1
  U  U5  1  0.799887  0.791315  0.456055  1
  U  U6  1  0.682838  0.672054  0.986723  1
  U  U7  1  0.311520  0.322242  0.019254  1
  V  V8  1  0.000469  0.999898  0.000950  1
  S  S9  1  0.829036  0.430818  0.551058  1
  S  S10  1  0.435546  0.813885  0.535433  1
  S  S11  1  0.185284  0.562257  0.462232  1
  S  S12  1  0.573005  0.164511  0.478637  1
  S  S13  1  0.943437  0.322760  0.019281  1
  S  S14  1  0.323273  0.949092  0.024479  1
  S  S15  1  0.052098  0.679643  0.969929  1
  S  S16  1  0.675314  0.063919  0.971465  1
  S  S17  1  0.237680  0.198799  0.278474  1
  S  S18  1  0.786806  0.788167  0.724633  1
  S  S19  1  0.066440  0.052582  0.772292  1
  S  S20  1  0.950285  0.927276  0.228099  1
  S  S21  1  0.301838  0.301852  0.755157  1
  S  S22  1  0.679776  0.724882  0.241385  1
  S  S23  1  0.517730  0.522518  0.828733  1
  S  S24  1  0.447681  0.506200  0.153967  1
  S  S25  1  0.007628  0.986311  0.508597  1
