# generated using pymatgen
data_Ca3HoLu4(B6Os)4
_symmetry_space_group_name_H-M   'P 1'
_cell_length_a   3.61254000
_cell_length_b   9.10525127
_cell_length_c   11.50696702
_cell_angle_alpha   89.94101794
_cell_angle_beta   90.00000000
_cell_angle_gamma   90.00000000
_symmetry_Int_Tables_number   1
_chemical_formula_structural   Ca3HoLu4(B6Os)4
_chemical_formula_sum   'Ca3 Ho1 Lu4 B24 Os4'
_cell_volume   378.49943694
_cell_formula_units_Z   1
loop_
 _symmetry_equiv_pos_site_id
 _symmetry_equiv_pos_as_xyz
  1  'x, y, z'
loop_
 _atom_site_type_symbol
 _atom_site_label
 _atom_site_symmetry_multiplicity
 _atom_site_fract_x
 _atom_site_fract_y
 _atom_site_fract_z
 _atom_site_occupancy
  Ca  Ca0  1  0.000000  0.323466  0.414979  1
  Ca  Ca1  1  0.000000  0.676567  0.584856  1
  Ca  Ca2  1  0.000000  0.822031  0.085657  1
  Ho  Ho3  1  0.000000  0.176413  0.914860  1
  Lu  Lu4  1  0.000000  0.941925  0.367837  1
  Lu  Lu5  1  0.000000  0.057500  0.630547  1
  Lu  Lu6  1  0.000000  0.443429  0.131664  1
  Lu  Lu7  1  0.000000  0.557929  0.869131  1
  B  B8  1  0.500000  0.553597  0.432639  1
  B  B9  1  0.500000  0.445675  0.568464  1
  B  B10  1  0.500000  0.054682  0.066675  1
  B  B11  1  0.500000  0.946167  0.932701  1
  B  B12  1  0.500000  0.750096  0.416832  1
  B  B13  1  0.500000  0.249883  0.583455  1
  B  B14  1  0.500000  0.250376  0.081864  1
  B  B15  1  0.500000  0.750373  0.917316  1
  B  B16  1  0.500000  0.791869  0.264004  1
  B  B17  1  0.500000  0.207684  0.736526  1
  B  B18  1  0.500000  0.292037  0.234548  1
  B  B19  1  0.500000  0.709036  0.765108  1
  B  B20  1  0.500000  0.630108  0.185304  1
  B  B21  1  0.500000  0.369260  0.816172  1
  B  B22  1  0.500000  0.130278  0.313883  1
  B  B23  1  0.500000  0.870222  0.684786  1
  B  B24  1  0.500000  0.982632  0.211190  1
  B  B25  1  0.500000  0.017681  0.787949  1
  B  B26  1  0.500000  0.483118  0.288009  1
  B  B27  1  0.500000  0.516459  0.712949  1
  B  B28  1  0.500000  0.597306  0.026794  1
  B  B29  1  0.500000  0.401531  0.973246  1
  B  B30  1  0.500000  0.095770  0.473302  1
  B  B31  1  0.500000  0.904284  0.525805  1
  Os  Os32  1  0.000000  0.639735  0.319629  1
  Os  Os33  1  0.000000  0.358957  0.682446  1
  Os  Os34  1  0.000000  0.139315  0.179474  1
  Os  Os35  1  0.000000  0.862608  0.819403  1
