# generated using pymatgen
data_Zr6Ti4Al12RuPt6
_symmetry_space_group_name_H-M   'P 1'
_cell_length_a   8.82922066
_cell_length_b   8.82922129
_cell_length_c   8.82922000
_cell_angle_alpha   59.99999732
_cell_angle_beta   59.99999498
_cell_angle_gamma   60.00000116
_symmetry_Int_Tables_number   1
_chemical_formula_structural   Zr6Ti4Al12RuPt6
_chemical_formula_sum   'Zr6 Ti4 Al12 Ru1 Pt6'
_cell_volume   486.68962863
_cell_formula_units_Z   1
loop_
 _symmetry_equiv_pos_site_id
 _symmetry_equiv_pos_as_xyz
  1  'x, y, z'
loop_
 _atom_site_type_symbol
 _atom_site_label
 _atom_site_symmetry_multiplicity
 _atom_site_fract_x
 _atom_site_fract_y
 _atom_site_fract_z
 _atom_site_occupancy
  Zr  Zr0  1  0.690110  0.690110  0.309890  1
  Zr  Zr1  1  0.309890  0.690110  0.309890  1
  Zr  Zr2  1  0.690110  0.309890  0.309890  1
  Zr  Zr3  1  0.309890  0.309890  0.690110  1
  Zr  Zr4  1  0.690110  0.309890  0.690110  1
  Zr  Zr5  1  0.309890  0.690110  0.690110  1
  Ti  Ti6  1  0.882115  0.882115  0.353655  1
  Ti  Ti7  1  0.882115  0.353655  0.882115  1
  Ti  Ti8  1  0.353655  0.882115  0.882115  1
  Ti  Ti9  1  0.882115  0.882115  0.882115  1
  Al  Al10  1  0.118894  0.118894  0.643321  1
  Al  Al11  1  0.118894  0.643321  0.118894  1
  Al  Al12  1  0.643321  0.118894  0.118894  1
  Al  Al13  1  0.118894  0.118894  0.118894  1
  Al  Al14  1  0.664994  0.664994  0.005017  1
  Al  Al15  1  0.664994  0.005017  0.664994  1
  Al  Al16  1  0.005017  0.664994  0.664994  1
  Al  Al17  1  0.664994  0.664994  0.664994  1
  Al  Al18  1  0.334606  0.334606  0.996183  1
  Al  Al19  1  0.334606  0.996183  0.334606  1
  Al  Al20  1  0.996183  0.334606  0.334606  1
  Al  Al21  1  0.334606  0.334606  0.334606  1
  Ru  Ru22  1  0.000000  0.000000  0.000000  1
  Pt  Pt23  1  0.999100  0.999100  0.500900  1
  Pt  Pt24  1  0.500900  0.999100  0.500900  1
  Pt  Pt25  1  0.999100  0.500900  0.500900  1
  Pt  Pt26  1  0.500900  0.500900  0.999100  1
  Pt  Pt27  1  0.999100  0.500900  0.999100  1
  Pt  Pt28  1  0.500900  0.999100  0.999100  1
