# generated using pymatgen
data_Y6Co12Si5Mo
_symmetry_space_group_name_H-M   'P 1'
_cell_length_a   5.22126500
_cell_length_b   5.22126514
_cell_length_c   14.95735700
_cell_angle_alpha   90.00000000
_cell_angle_beta   90.00000000
_cell_angle_gamma   120.00000546
_symmetry_Int_Tables_number   1
_chemical_formula_structural   Y6Co12Si5Mo
_chemical_formula_sum   'Y6 Co12 Si5 Mo1'
_cell_volume   353.13189955
_cell_formula_units_Z   1
loop_
 _symmetry_equiv_pos_site_id
 _symmetry_equiv_pos_as_xyz
  1  'x, y, z'
loop_
 _atom_site_type_symbol
 _atom_site_label
 _atom_site_symmetry_multiplicity
 _atom_site_fract_x
 _atom_site_fract_y
 _atom_site_fract_z
 _atom_site_occupancy
  Y  Y0  1  0.333333  0.666667  0.039530  1
  Y  Y1  1  0.333333  0.666667  0.251663  1
  Y  Y2  1  0.333333  0.666667  0.462158  1
  Y  Y3  1  0.666667  0.333334  0.537842  1
  Y  Y4  1  0.666667  0.333334  0.748337  1
  Y  Y5  1  0.666667  0.333334  0.960470  1
  Co  Co6  1  0.335268  0.167634  0.133338  1
  Co  Co7  1  0.832366  0.167634  0.133338  1
  Co  Co8  1  0.832366  0.664731  0.133338  1
  Co  Co9  1  0.333632  0.166816  0.370166  1
  Co  Co10  1  0.833184  0.166816  0.370166  1
  Co  Co11  1  0.833184  0.666367  0.370166  1
  Co  Co12  1  0.166816  0.333632  0.629833  1
  Co  Co13  1  0.166816  0.833183  0.629833  1
  Co  Co14  1  0.666367  0.833183  0.629833  1
  Co  Co15  1  0.167634  0.335268  0.866662  1
  Co  Co16  1  0.167634  0.832365  0.866662  1
  Co  Co17  1  0.664731  0.832365  0.866662  1
  Si  Si18  1  0.000000  0.000000  0.251113  1
  Si  Si19  1  0.666667  0.333334  0.253079  1
  Si  Si20  1  0.000000  0.000000  0.500000  1
  Si  Si21  1  0.000000  0.000000  0.748887  1
  Si  Si22  1  0.333333  0.666667  0.746921  1
  Mo  Mo23  1  0.000000  0.000000  0.000000  1
