# generated using pymatgen
data_CsZr2CuSe5
_symmetry_space_group_name_H-M   'P 1'
_cell_length_a   8.42747819
_cell_length_b   8.42747926
_cell_length_c   16.37240100
_cell_angle_alpha   90.00000000
_cell_angle_beta   90.00000000
_cell_angle_gamma   153.09243388
_symmetry_Int_Tables_number   1
_chemical_formula_structural   CsZr2CuSe5
_chemical_formula_sum   'Cs2 Zr4 Cu2 Se10'
_cell_volume   526.23125984
_cell_formula_units_Z   2
loop_
 _symmetry_equiv_pos_site_id
 _symmetry_equiv_pos_as_xyz
  1  'x, y, z'
loop_
 _atom_site_type_symbol
 _atom_site_label
 _atom_site_symmetry_multiplicity
 _atom_site_fract_x
 _atom_site_fract_y
 _atom_site_fract_z
 _atom_site_occupancy
  Cs  Cs0  1  0.039816  0.960184  0.250000  1
  Cs  Cs1  1  0.960184  0.039816  0.750000  1
  Zr  Zr2  1  0.212073  0.787927  0.902042  1
  Zr  Zr3  1  0.787927  0.212073  0.402042  1
  Zr  Zr4  1  0.212073  0.787927  0.597958  1
  Zr  Zr5  1  0.787927  0.212073  0.097958  1
  Cu  Cu6  1  0.318903  0.681097  0.250000  1
  Cu  Cu7  1  0.681097  0.318903  0.750000  1
  Se  Se8  1  0.174718  0.825282  0.437311  1
  Se  Se9  1  0.825282  0.174718  0.937311  1
  Se  Se10  1  0.274773  0.725227  0.750000  1
  Se  Se11  1  0.398535  0.601465  0.375636  1
  Se  Se12  1  0.174718  0.825282  0.062689  1
  Se  Se13  1  0.601465  0.398535  0.875636  1
  Se  Se14  1  0.601465  0.398535  0.624364  1
  Se  Se15  1  0.398535  0.601465  0.124364  1
  Se  Se16  1  0.825282  0.174718  0.562689  1
  Se  Se17  1  0.725227  0.274773  0.250000  1
