# generated using pymatgen
data_DyTmNi12P7
_symmetry_space_group_name_H-M   'P 1'
_cell_length_a   9.03401900
_cell_length_b   9.03401929
_cell_length_c   3.67231400
_cell_angle_alpha   90.00000000
_cell_angle_beta   90.00000000
_cell_angle_gamma   120.00000259
_symmetry_Int_Tables_number   1
_chemical_formula_structural   DyTmNi12P7
_chemical_formula_sum   'Dy1 Tm1 Ni12 P7'
_cell_volume   259.55681833
_cell_formula_units_Z   1
loop_
 _symmetry_equiv_pos_site_id
 _symmetry_equiv_pos_as_xyz
  1  'x, y, z'
loop_
 _atom_site_type_symbol
 _atom_site_label
 _atom_site_symmetry_multiplicity
 _atom_site_fract_x
 _atom_site_fract_y
 _atom_site_fract_z
 _atom_site_occupancy
  Dy  Dy0  1  0.333333  0.666667  0.000000  1
  Tm  Tm1  1  0.666667  0.333333  0.500000  1
  Ni  Ni2  1  0.434685  0.062438  0.000000  1
  Ni  Ni3  1  0.627753  0.565315  0.000000  1
  Ni  Ni4  1  0.937562  0.372247  0.000000  1
  Ni  Ni5  1  0.151750  0.274572  0.000000  1
  Ni  Ni6  1  0.122822  0.848250  0.000000  1
  Ni  Ni7  1  0.725428  0.877178  0.000000  1
  Ni  Ni8  1  0.382031  0.429939  0.500000  1
  Ni  Ni9  1  0.047908  0.617969  0.500000  1
  Ni  Ni10  1  0.570061  0.952092  0.500000  1
  Ni  Ni11  1  0.215122  0.094000  0.500000  1
  Ni  Ni12  1  0.878878  0.784878  0.500000  1
  Ni  Ni13  1  0.906000  0.121122  0.500000  1
  P  P14  1  0.000000  0.000000  0.000000  1
  P  P15  1  0.407964  0.294607  0.000000  1
  P  P16  1  0.886644  0.592036  0.000000  1
  P  P17  1  0.705393  0.113356  0.000000  1
  P  P18  1  0.110262  0.404899  0.500000  1
  P  P19  1  0.294636  0.889738  0.500000  1
  P  P20  1  0.595101  0.705364  0.500000  1
