# generated using pymatgen
data_Pr12Si11Pd
_symmetry_space_group_name_H-M   'P 1'
_cell_length_a   3.98444600
_cell_length_b   5.89377412
_cell_length_c   24.56662900
_cell_angle_alpha   82.67862483
_cell_angle_beta   90.00000000
_cell_angle_gamma   90.00000000
_symmetry_Int_Tables_number   1
_chemical_formula_structural   Pr12Si11Pd
_chemical_formula_sum   'Pr12 Si11 Pd1'
_cell_volume   572.20502943
_cell_formula_units_Z   1
loop_
 _symmetry_equiv_pos_site_id
 _symmetry_equiv_pos_as_xyz
  1  'x, y, z'
loop_
 _atom_site_type_symbol
 _atom_site_label
 _atom_site_symmetry_multiplicity
 _atom_site_fract_x
 _atom_site_fract_y
 _atom_site_fract_z
 _atom_site_occupancy
  Pr  Pr0  1  0.750000  0.360181  0.061741  1
  Pr  Pr1  1  0.250000  0.656829  0.940640  1
  Pr  Pr2  1  0.750000  0.529955  0.224027  1
  Pr  Pr3  1  0.250000  0.468505  0.773595  1
  Pr  Pr4  1  0.750000  0.165747  0.392901  1
  Pr  Pr5  1  0.250000  0.827969  0.607113  1
  Pr  Pr6  1  0.750000  0.352470  0.559368  1
  Pr  Pr7  1  0.250000  0.641886  0.439893  1
  Pr  Pr8  1  0.750000  0.994109  0.726513  1
  Pr  Pr9  1  0.250000  0.998650  0.274089  1
  Pr  Pr10  1  0.750000  0.172016  0.892662  1
  Pr  Pr11  1  0.250000  0.836624  0.106652  1
  Si  Si12  1  0.750000  0.887085  0.011434  1
  Si  Si13  1  0.250000  0.138578  0.988568  1
  Si  Si14  1  0.750000  0.043767  0.179427  1
  Si  Si15  1  0.250000  0.946136  0.822039  1
  Si  Si16  1  0.750000  0.694386  0.344649  1
  Si  Si17  1  0.250000  0.298323  0.655008  1
  Si  Si18  1  0.750000  0.872114  0.511204  1
  Si  Si19  1  0.250000  0.123412  0.488213  1
  Si  Si20  1  0.750000  0.524966  0.678109  1
  Si  Si21  1  0.250000  0.470124  0.321081  1
  Si  Si22  1  0.750000  0.694424  0.844968  1
  Pd  Pd23  1  0.250000  0.301747  0.156104  1
