# generated using pymatgen
data_Dy2Fe2ReP6Rh7
_symmetry_space_group_name_H-M   'P 1'
_cell_length_a   3.86085900
_cell_length_b   10.70090500
_cell_length_c   12.43031800
_cell_angle_alpha   90.00000000
_cell_angle_beta   90.00000000
_cell_angle_gamma   90.00000000
_symmetry_Int_Tables_number   1
_chemical_formula_structural   Dy2Fe2ReP6Rh7
_chemical_formula_sum   'Dy4 Fe4 Re2 P12 Rh14'
_cell_volume   513.55467731
_cell_formula_units_Z   2
loop_
 _symmetry_equiv_pos_site_id
 _symmetry_equiv_pos_as_xyz
  1  'x, y, z'
loop_
 _atom_site_type_symbol
 _atom_site_label
 _atom_site_symmetry_multiplicity
 _atom_site_fract_x
 _atom_site_fract_y
 _atom_site_fract_z
 _atom_site_occupancy
  Dy  Dy0  1  0.250000  0.584510  0.709066  1
  Dy  Dy1  1  0.250000  0.915490  0.209066  1
  Dy  Dy2  1  0.750000  0.419084  0.290544  1
  Dy  Dy3  1  0.750000  0.080916  0.790544  1
  Fe  Fe4  1  0.250000  0.464843  0.935114  1
  Fe  Fe5  1  0.250000  0.035157  0.435114  1
  Fe  Fe6  1  0.750000  0.538705  0.065019  1
  Fe  Fe7  1  0.750000  0.961295  0.565019  1
  Re  Re8  1  0.250000  0.707722  0.987214  1
  Re  Re9  1  0.250000  0.792278  0.487214  1
  P  P10  1  0.250000  0.428463  0.107047  1
  P  P11  1  0.250000  0.071537  0.607047  1
  P  P12  1  0.750000  0.572121  0.894725  1
  P  P13  1  0.750000  0.927879  0.394725  1
  P  P14  1  0.250000  0.269413  0.868953  1
  P  P15  1  0.250000  0.230587  0.368953  1
  P  P16  1  0.750000  0.728838  0.128656  1
  P  P17  1  0.750000  0.771162  0.628656  1
  P  P18  1  0.250000  0.602044  0.390237  1
  P  P19  1  0.250000  0.897956  0.890237  1
  P  P20  1  0.750000  0.401331  0.610776  1
  P  P21  1  0.750000  0.098669  0.110776  1
  Rh  Rh22  1  0.750000  0.286078  0.012716  1
  Rh  Rh23  1  0.750000  0.213922  0.512716  1
  Rh  Rh24  1  0.250000  0.408189  0.482364  1
  Rh  Rh25  1  0.250000  0.091811  0.982364  1
  Rh  Rh26  1  0.750000  0.595104  0.517016  1
  Rh  Rh27  1  0.750000  0.904896  0.017016  1
  Rh  Rh28  1  0.250000  0.230876  0.176329  1
  Rh  Rh29  1  0.250000  0.269124  0.676329  1
  Rh  Rh30  1  0.750000  0.768185  0.823428  1
  Rh  Rh31  1  0.750000  0.731815  0.323428  1
  Rh  Rh32  1  0.250000  0.883677  0.700918  1
  Rh  Rh33  1  0.250000  0.616323  0.200918  1
  Rh  Rh34  1  0.750000  0.115097  0.299880  1
  Rh  Rh35  1  0.750000  0.384903  0.799880  1
