# generated using pymatgen
data_SiSnPbSe4
_symmetry_space_group_name_H-M   'P 1'
_cell_length_a   7.45922600
_cell_length_b   8.76863789
_cell_length_c   14.01661279
_cell_angle_alpha   71.72424869
_cell_angle_beta   90.00000000
_cell_angle_gamma   90.00000000
_symmetry_Int_Tables_number   1
_chemical_formula_structural   SiSnPbSe4
_chemical_formula_sum   'Si4 Sn4 Pb4 Se16'
_cell_volume   870.54375201
_cell_formula_units_Z   4
loop_
 _symmetry_equiv_pos_site_id
 _symmetry_equiv_pos_as_xyz
  1  'x, y, z'
loop_
 _atom_site_type_symbol
 _atom_site_label
 _atom_site_symmetry_multiplicity
 _atom_site_fract_x
 _atom_site_fract_y
 _atom_site_fract_z
 _atom_site_occupancy
  Si  Si0  1  0.750485  0.205695  0.353524  1
  Si  Si1  1  0.250485  0.794305  0.146476  1
  Si  Si2  1  0.249515  0.794305  0.646476  1
  Si  Si3  1  0.749515  0.205695  0.853524  1
  Sn  Sn4  1  0.619361  0.555695  0.139222  1
  Sn  Sn5  1  0.119361  0.444305  0.360778  1
  Sn  Sn6  1  0.380639  0.444305  0.860778  1
  Sn  Sn7  1  0.880639  0.555695  0.639222  1
  Pb  Pb8  1  0.640598  0.053762  0.125259  1
  Pb  Pb9  1  0.140598  0.946238  0.374741  1
  Pb  Pb10  1  0.359402  0.946238  0.874741  1
  Pb  Pb11  1  0.859402  0.053762  0.625259  1
  Se  Se12  1  0.766606  0.937632  0.443365  1
  Se  Se13  1  0.266606  0.062368  0.056635  1
  Se  Se14  1  0.233394  0.062368  0.556635  1
  Se  Se15  1  0.733394  0.937632  0.943365  1
  Se  Se16  1  0.517326  0.271649  0.739421  1
  Se  Se17  1  0.017326  0.728351  0.760579  1
  Se  Se18  1  0.482674  0.728351  0.260579  1
  Se  Se19  1  0.982674  0.271649  0.239421  1
  Se  Se20  1  0.513432  0.744003  0.735898  1
  Se  Se21  1  0.013432  0.255997  0.764102  1
  Se  Se22  1  0.486568  0.255997  0.264102  1
  Se  Se23  1  0.986568  0.744003  0.235898  1
  Se  Se24  1  0.719322  0.369471  0.953959  1
  Se  Se25  1  0.219322  0.630529  0.546041  1
  Se  Se26  1  0.280678  0.630529  0.046041  1
  Se  Se27  1  0.780678  0.369471  0.453959  1
