# generated using pymatgen
data_RbPu2CuS4
_symmetry_space_group_name_H-M   'P 1'
_cell_length_a   4.02505000
_cell_length_b   7.20952676
_cell_length_c   13.74535900
_cell_angle_alpha   90.00000000
_cell_angle_beta   90.00000000
_cell_angle_gamma   73.79063024
_symmetry_Int_Tables_number   1
_chemical_formula_structural   RbPu2CuS4
_chemical_formula_sum   'Rb2 Pu4 Cu2 S8'
_cell_volume   383.01656589
_cell_formula_units_Z   2
loop_
 _symmetry_equiv_pos_site_id
 _symmetry_equiv_pos_as_xyz
  1  'x, y, z'
loop_
 _atom_site_type_symbol
 _atom_site_label
 _atom_site_symmetry_multiplicity
 _atom_site_fract_x
 _atom_site_fract_y
 _atom_site_fract_z
 _atom_site_occupancy
  Rb  Rb0  1  0.894393  0.211214  0.250000  1
  Rb  Rb1  1  0.105544  0.788910  0.750000  1
  Pu  Pu2  1  0.633322  0.733358  0.058837  1
  Pu  Pu3  1  0.633322  0.733358  0.441163  1
  Pu  Pu4  1  0.366685  0.266629  0.558886  1
  Pu  Pu5  1  0.366685  0.266629  0.941114  1
  Cu  Cu6  1  0.165944  0.668110  0.250000  1
  Cu  Cu7  1  0.834080  0.331842  0.750000  1
  S  S8  1  0.999924  0.000153  0.999942  1
  S  S9  1  0.258275  0.483449  0.108804  1
  S  S10  1  0.577487  0.845026  0.250000  1
  S  S11  1  0.258275  0.483449  0.391196  1
  S  S12  1  0.999924  0.000153  0.500058  1
  S  S13  1  0.741843  0.516314  0.608887  1
  S  S14  1  0.422449  0.155100  0.750000  1
  S  S15  1  0.741843  0.516314  0.891113  1
