# generated using pymatgen
data_Ho8Er2Os3Ru
_symmetry_space_group_name_H-M   'P 1'
_cell_length_a   6.32017425
_cell_length_b   7.32043625
_cell_length_c   8.39225689
_cell_angle_alpha   96.83348725
_cell_angle_beta   112.24615817
_cell_angle_gamma   90.03068508
_symmetry_Int_Tables_number   1
_chemical_formula_structural   Ho8Er2Os3Ru
_chemical_formula_sum   'Ho8 Er2 Os3 Ru1'
_cell_volume   356.38636859
_cell_formula_units_Z   1
loop_
 _symmetry_equiv_pos_site_id
 _symmetry_equiv_pos_as_xyz
  1  'x, y, z'
loop_
 _atom_site_type_symbol
 _atom_site_label
 _atom_site_symmetry_multiplicity
 _atom_site_fract_x
 _atom_site_fract_y
 _atom_site_fract_z
 _atom_site_occupancy
  Ho  Ho0  1  0.794457  0.583725  0.816731  1
  Ho  Ho1  1  0.975383  0.916338  0.182708  1
  Ho  Ho2  1  0.207735  0.416903  0.186278  1
  Ho  Ho3  1  0.024594  0.084938  0.817870  1
  Ho  Ho4  1  0.204149  0.683435  0.565219  1
  Ho  Ho5  1  0.640469  0.817089  0.435787  1
  Ho  Ho6  1  0.794228  0.315881  0.434044  1
  Ho  Ho7  1  0.360523  0.182064  0.563781  1
  Er  Er8  1  0.421307  0.749789  0.999942  1
  Er  Er9  1  0.579565  0.250182  0.000537  1
  Os  Os10  1  0.603681  0.922448  0.781100  1
  Os  Os11  1  0.821498  0.577590  0.219224  1
  Os  Os12  1  0.396081  0.077580  0.217979  1
  Ru  Ru13  1  0.176330  0.422036  0.778800  1
