# generated using pymatgen
data_DyTm6(LuPb2)3
_symmetry_space_group_name_H-M   'P 1'
_cell_length_a   8.93253201
_cell_length_b   8.93888147
_cell_length_c   6.50011400
_cell_angle_alpha   90.00056543
_cell_angle_beta   90.00008899
_cell_angle_gamma   119.97197707
_symmetry_Int_Tables_number   1
_chemical_formula_structural   DyTm6(LuPb2)3
_chemical_formula_sum   'Dy1 Tm6 Lu3 Pb6'
_cell_volume   449.60582655
_cell_formula_units_Z   1
loop_
 _symmetry_equiv_pos_site_id
 _symmetry_equiv_pos_as_xyz
  1  'x, y, z'
loop_
 _atom_site_type_symbol
 _atom_site_label
 _atom_site_symmetry_multiplicity
 _atom_site_fract_x
 _atom_site_fract_y
 _atom_site_fract_z
 _atom_site_occupancy
  Dy  Dy0  1  0.763784  0.000034  0.749907  1
  Tm  Tm1  1  0.236071  0.236390  0.749889  1
  Tm  Tm2  1  0.234510  0.000023  0.250102  1
  Tm  Tm3  1  0.334110  0.667572  0.000104  1
  Tm  Tm4  1  0.999642  0.763596  0.749879  1
  Tm  Tm5  1  0.763677  0.762832  0.250105  1
  Tm  Tm6  1  0.000789  0.237131  0.250121  1
  Lu  Lu7  1  0.666525  0.332389  0.000095  1
  Lu  Lu8  1  0.334115  0.667603  0.499903  1
  Lu  Lu9  1  0.666518  0.332404  0.499900  1
  Pb  Pb10  1  0.000753  0.397119  0.749521  1
  Pb  Pb11  1  0.395869  0.395194  0.250457  1
  Pb  Pb12  1  0.605490  0.000477  0.250491  1
  Pb  Pb13  1  0.604132  0.602453  0.749547  1
  Pb  Pb14  1  0.394242  0.000454  0.749527  1
  Pb  Pb15  1  0.999773  0.604329  0.250455  1
