# generated using pymatgen
data_MnAl3Zn3(NiO6)2
_symmetry_space_group_name_H-M   'P 1'
_cell_length_a   5.84869131
_cell_length_b   5.88090886
_cell_length_c   13.07345652
_cell_angle_alpha   77.15139882
_cell_angle_beta   76.90873525
_cell_angle_gamma   90.79028183
_symmetry_Int_Tables_number   1
_chemical_formula_structural   MnAl3Zn3(NiO6)2
_chemical_formula_sum   'Mn2 Al6 Zn6 Ni4 O24'
_cell_volume   426.04055479
_cell_formula_units_Z   2
loop_
 _symmetry_equiv_pos_site_id
 _symmetry_equiv_pos_as_xyz
  1  'x, y, z'
loop_
 _atom_site_type_symbol
 _atom_site_label
 _atom_site_symmetry_multiplicity
 _atom_site_fract_x
 _atom_site_fract_y
 _atom_site_fract_z
 _atom_site_occupancy
  Mn  Mn0  1  0.163363  0.165690  0.666987  1
  Mn  Mn1  1  0.836637  0.834310  0.333013  1
  Al  Al2  1  0.500000  0.000000  0.000000  1
  Al  Al3  1  0.000000  0.500000  0.500000  1
  Al  Al4  1  0.500000  0.500000  0.500000  1
  Al  Al5  1  0.169073  0.168528  0.164407  1
  Al  Al6  1  0.830927  0.831472  0.835593  1
  Al  Al7  1  0.500000  0.500000  0.000000  1
  Zn  Zn8  1  0.291376  0.027487  0.418365  1
  Zn  Zn9  1  0.958091  0.699916  0.081858  1
  Zn  Zn10  1  0.621609  0.369522  0.753481  1
  Zn  Zn11  1  0.041909  0.300084  0.918142  1
  Zn  Zn12  1  0.708624  0.972513  0.581635  1
  Zn  Zn13  1  0.378391  0.630478  0.246519  1
  Ni  Ni14  1  0.163198  0.664112  0.667779  1
  Ni  Ni15  1  0.836802  0.335888  0.332221  1
  Ni  Ni16  1  0.665324  0.165364  0.164479  1
  Ni  Ni17  1  0.334676  0.834636  0.835521  1
  O  O18  1  0.072547  0.073871  0.822502  1
  O  O19  1  0.755518  0.729538  0.493045  1
  O  O20  1  0.406826  0.402826  0.154785  1
  O  O21  1  0.925615  0.921187  0.679615  1
  O  O22  1  0.597473  0.590650  0.345041  1
  O  O23  1  0.274340  0.241686  0.007961  1
  O  O24  1  0.385919  0.928645  0.673666  1
  O  O25  1  0.059814  0.592512  0.346101  1
  O  O26  1  0.712476  0.249120  0.004442  1
  O  O27  1  0.078787  0.623883  0.831010  1
  O  O28  1  0.750765  0.293871  0.494917  1
  O  O29  1  0.416048  0.951156  0.153675  1
  O  O30  1  0.244482  0.270462  0.506955  1
  O  O31  1  0.927453  0.926129  0.177498  1
  O  O32  1  0.593174  0.597174  0.845215  1
  O  O33  1  0.402527  0.409350  0.654959  1
  O  O34  1  0.074385  0.078814  0.320385  1
  O  O35  1  0.725660  0.758314  0.992039  1
  O  O36  1  0.940186  0.407488  0.653899  1
  O  O37  1  0.614081  0.071355  0.326334  1
  O  O38  1  0.287524  0.750880  0.995558  1
  O  O39  1  0.249235  0.706129  0.505083  1
  O  O40  1  0.921213  0.376117  0.168990  1
  O  O41  1  0.583952  0.048844  0.846325  1
