# generated using pymatgen
data_ScTi2(AsRu)3
_symmetry_space_group_name_H-M   'P 1'
_cell_length_a   7.53671252
_cell_length_b   7.53671253
_cell_length_c   7.53671275
_cell_angle_alpha   127.78101959
_cell_angle_beta   120.79090327
_cell_angle_gamma   82.84512928
_symmetry_Int_Tables_number   1
_chemical_formula_structural   ScTi2(AsRu)3
_chemical_formula_sum   'Sc2 Ti4 As6 Ru6'
_cell_volume   279.16215281
_cell_formula_units_Z   2
loop_
 _symmetry_equiv_pos_site_id
 _symmetry_equiv_pos_as_xyz
  1  'x, y, z'
loop_
 _atom_site_type_symbol
 _atom_site_label
 _atom_site_symmetry_multiplicity
 _atom_site_fract_x
 _atom_site_fract_y
 _atom_site_fract_z
 _atom_site_occupancy
  Sc  Sc0  1  0.471534  0.238987  0.267452  1
  Sc  Sc1  1  0.528466  0.795918  0.767452  1
  Ti  Ti2  1  0.747453  0.667716  0.420262  1
  Ti  Ti3  1  0.252547  0.672809  0.920262  1
  Ti  Ti4  1  0.056761  0.848882  0.292121  1
  Ti  Ti5  1  0.943239  0.235359  0.792121  1
  As  As6  1  0.845897  0.579803  0.753391  1
  As  As7  1  0.154103  0.907493  0.733906  1
  As  As8  1  0.673587  0.907493  0.253391  1
  As  As9  1  0.326413  0.579803  0.233906  1
  As  As10  1  0.282955  0.293967  0.511011  1
  As  As11  1  0.717045  0.228056  0.011011  1
  Ru  Ru12  1  0.665995  0.494746  0.910486  1
  Ru  Ru13  1  0.334005  0.244490  0.828751  1
  Ru  Ru14  1  0.915740  0.244490  0.410486  1
  Ru  Ru15  1  0.084260  0.494746  0.328751  1
  Ru  Ru16  1  0.000000  0.002820  0.002820  1
  Ru  Ru17  1  0.500000  0.002820  0.502820  1
