# generated using pymatgen
data_TbLu7Ga3Ir
_symmetry_space_group_name_H-M   'P 1'
_cell_length_a   9.84549400
_cell_length_b   9.84549271
_cell_length_c   6.92133200
_cell_angle_alpha   90.00000000
_cell_angle_beta   90.00000000
_cell_angle_gamma   119.99999763
_symmetry_Int_Tables_number   1
_chemical_formula_structural   TbLu7Ga3Ir
_chemical_formula_sum   'Tb2 Lu14 Ga6 Ir2'
_cell_volume   581.02563035
_cell_formula_units_Z   2
loop_
 _symmetry_equiv_pos_site_id
 _symmetry_equiv_pos_as_xyz
  1  'x, y, z'
loop_
 _atom_site_type_symbol
 _atom_site_label
 _atom_site_symmetry_multiplicity
 _atom_site_fract_x
 _atom_site_fract_y
 _atom_site_fract_z
 _atom_site_occupancy
  Tb  Tb0  1  0.000000  0.000000  0.767102  1
  Tb  Tb1  1  0.000000  0.000000  0.267102  1
  Lu  Lu2  1  0.827643  0.655288  0.489440  1
  Lu  Lu3  1  0.344712  0.172357  0.489440  1
  Lu  Lu4  1  0.827643  0.172357  0.489440  1
  Lu  Lu5  1  0.172357  0.344712  0.989440  1
  Lu  Lu6  1  0.655288  0.827643  0.989440  1
  Lu  Lu7  1  0.172357  0.827643  0.989440  1
  Lu  Lu8  1  0.666667  0.333333  0.162495  1
  Lu  Lu9  1  0.333333  0.666667  0.662495  1
  Lu  Lu10  1  0.534162  0.068323  0.793801  1
  Lu  Lu11  1  0.931677  0.465838  0.793801  1
  Lu  Lu12  1  0.534162  0.465838  0.793801  1
  Lu  Lu13  1  0.465838  0.931677  0.293801  1
  Lu  Lu14  1  0.068323  0.534162  0.293801  1
  Lu  Lu15  1  0.465838  0.534162  0.293801  1
  Ga  Ga16  1  0.835734  0.671469  0.042652  1
  Ga  Ga17  1  0.328531  0.164266  0.042652  1
  Ga  Ga18  1  0.835734  0.164266  0.042652  1
  Ga  Ga19  1  0.164266  0.328531  0.542652  1
  Ga  Ga20  1  0.671469  0.835734  0.542652  1
  Ga  Ga21  1  0.164266  0.835734  0.542652  1
  Ir  Ir22  1  0.666667  0.333333  0.555758  1
  Ir  Ir23  1  0.333333  0.666667  0.055758  1
