# generated using pymatgen
data_Yb4CuNi(OsO6)2
_symmetry_space_group_name_H-M   'P 1'
_cell_length_a   5.30353496
_cell_length_b   5.64386880
_cell_length_c   7.53090758
_cell_angle_alpha   89.91856371
_cell_angle_beta   90.85894192
_cell_angle_gamma   90.28566048
_symmetry_Int_Tables_number   1
_chemical_formula_structural   Yb4CuNi(OsO6)2
_chemical_formula_sum   'Yb4 Cu1 Ni1 Os2 O12'
_cell_volume   225.39022037
_cell_formula_units_Z   1
loop_
 _symmetry_equiv_pos_site_id
 _symmetry_equiv_pos_as_xyz
  1  'x, y, z'
loop_
 _atom_site_type_symbol
 _atom_site_label
 _atom_site_symmetry_multiplicity
 _atom_site_fract_x
 _atom_site_fract_y
 _atom_site_fract_z
 _atom_site_occupancy
  Yb  Yb0  1  0.978560  0.073135  0.253580  1
  Yb  Yb1  1  0.521735  0.571993  0.248738  1
  Yb  Yb2  1  0.021439  0.926864  0.746421  1
  Yb  Yb3  1  0.478264  0.428008  0.751261  1
  Cu  Cu4  1  0.500000  0.000000  0.000000  1
  Ni  Ni5  1  0.000000  0.500000  0.500000  1
  Os  Os6  1  0.499999  0.999999  0.500000  1
  Os  Os7  1  0.999999  0.500001  0.999999  1
  O  O8  1  0.682564  0.291399  0.444497  1
  O  O9  1  0.826924  0.788219  0.057972  1
  O  O10  1  0.317436  0.708600  0.555503  1
  O  O11  1  0.173075  0.211782  0.942027  1
  O  O12  1  0.202447  0.188618  0.550762  1
  O  O13  1  0.298962  0.683561  0.948107  1
  O  O14  1  0.797552  0.811381  0.449238  1
  O  O15  1  0.701037  0.316440  0.051892  1
  O  O16  1  0.108415  0.465470  0.244708  1
  O  O17  1  0.393204  0.966048  0.255952  1
  O  O18  1  0.606796  0.033952  0.744048  1
  O  O19  1  0.891585  0.534530  0.755292  1
