# generated using pymatgen
data_K6InSbAu10
_symmetry_space_group_name_H-M   'P 1'
_cell_length_a   11.18345344
_cell_length_b   11.18345348
_cell_length_c   11.18345396
_cell_angle_alpha   150.81622752
_cell_angle_beta   133.95515310
_cell_angle_gamma   55.44790590
_symmetry_Int_Tables_number   1
_chemical_formula_structural   K6InSbAu10
_chemical_formula_sum   'K6 In1 Sb1 Au10'
_cell_volume   487.96753342
_cell_formula_units_Z   1
loop_
 _symmetry_equiv_pos_site_id
 _symmetry_equiv_pos_as_xyz
  1  'x, y, z'
loop_
 _atom_site_type_symbol
 _atom_site_label
 _atom_site_symmetry_multiplicity
 _atom_site_fract_x
 _atom_site_fract_y
 _atom_site_fract_z
 _atom_site_occupancy
  K  K0  1  0.295629  0.915702  0.379927  1
  K  K1  1  0.038902  0.415467  0.623436  1
  K  K2  1  0.625461  0.250000  0.375461  1
  K  K3  1  0.364516  0.750000  0.614516  1
  K  K4  1  0.964226  0.584298  0.379927  1
  K  K5  1  0.707969  0.084533  0.623436  1
  In  In6  1  0.080743  0.250000  0.830743  1
  Sb  Sb7  1  0.914854  0.750000  0.164854  1
  Au  Au8  1  0.004463  0.998066  0.006397  1
  Au  Au9  1  0.508331  0.501934  0.006397  1
  Au  Au10  1  0.682051  0.679423  0.501554  1
  Au  Au11  1  0.682051  0.180497  0.002628  1
  Au  Au12  1  0.818063  0.852355  0.965708  1
  Au  Au13  1  0.383104  0.355541  0.027563  1
  Au  Au14  1  0.613353  0.647645  0.965708  1
  Au  Au15  1  0.172022  0.144459  0.027563  1
  Au  Au16  1  0.322131  0.820577  0.002628  1
  Au  Au17  1  0.322131  0.319503  0.501554  1
