# generated using pymatgen
data_Nd16CoHg6Ir
_symmetry_space_group_name_H-M   'P 1'
_cell_length_a   10.58700500
_cell_length_b   10.58700587
_cell_length_c   7.32749200
_cell_angle_alpha   90.00000000
_cell_angle_beta   90.00000000
_cell_angle_gamma   120.00000040
_symmetry_Int_Tables_number   1
_chemical_formula_structural   Nd16CoHg6Ir
_chemical_formula_sum   'Nd16 Co1 Hg6 Ir1'
_cell_volume   711.26633758
_cell_formula_units_Z   1
loop_
 _symmetry_equiv_pos_site_id
 _symmetry_equiv_pos_as_xyz
  1  'x, y, z'
loop_
 _atom_site_type_symbol
 _atom_site_label
 _atom_site_symmetry_multiplicity
 _atom_site_fract_x
 _atom_site_fract_y
 _atom_site_fract_z
 _atom_site_occupancy
  Nd  Nd0  1  0.829567  0.659133  0.481694  1
  Nd  Nd1  1  0.340867  0.170433  0.481694  1
  Nd  Nd2  1  0.829567  0.170433  0.481694  1
  Nd  Nd3  1  0.171219  0.342439  0.982665  1
  Nd  Nd4  1  0.657561  0.828781  0.982665  1
  Nd  Nd5  1  0.171219  0.828781  0.982665  1
  Nd  Nd6  1  0.666667  0.333333  0.172967  1
  Nd  Nd7  1  0.333333  0.666667  0.688216  1
  Nd  Nd8  1  0.537573  0.075147  0.792326  1
  Nd  Nd9  1  0.924853  0.462427  0.792326  1
  Nd  Nd10  1  0.537573  0.462427  0.792326  1
  Nd  Nd11  1  0.458985  0.917970  0.290419  1
  Nd  Nd12  1  0.082030  0.541015  0.290419  1
  Nd  Nd13  1  0.458985  0.541015  0.290419  1
  Nd  Nd14  1  0.000000  0.000000  0.786087  1
  Nd  Nd15  1  0.000000  0.000000  0.282431  1
  Co  Co16  1  0.333333  0.666667  0.050579  1
  Hg  Hg17  1  0.832944  0.665888  0.041513  1
  Hg  Hg18  1  0.334112  0.167056  0.041513  1
  Hg  Hg19  1  0.832944  0.167056  0.041513  1
  Hg  Hg20  1  0.167850  0.335701  0.542513  1
  Hg  Hg21  1  0.664299  0.832150  0.542513  1
  Hg  Hg22  1  0.167850  0.832150  0.542513  1
  Ir  Ir23  1  0.666667  0.333333  0.552577  1
