# generated using pymatgen
data_TbY3(CO)2
_symmetry_space_group_name_H-M   'P 1'
_cell_length_a   6.12947762
_cell_length_b   6.12947724
_cell_length_c   6.12947701
_cell_angle_alpha   132.16664326
_cell_angle_beta   132.17667139
_cell_angle_gamma   69.95804813
_symmetry_Int_Tables_number   1
_chemical_formula_structural   TbY3(CO)2
_chemical_formula_sum   'Tb1 Y3 C2 O2'
_cell_volume   124.02361904
_cell_formula_units_Z   1
loop_
 _symmetry_equiv_pos_site_id
 _symmetry_equiv_pos_as_xyz
  1  'x, y, z'
loop_
 _atom_site_type_symbol
 _atom_site_label
 _atom_site_symmetry_multiplicity
 _atom_site_fract_x
 _atom_site_fract_y
 _atom_site_fract_z
 _atom_site_occupancy
  Tb  Tb0  1  0.753185  0.753185  0.000000  1
  Y  Y1  1  0.246973  0.246973  0.000000  1
  Y  Y2  1  0.997014  0.497014  0.500000  1
  Y  Y3  1  0.503184  0.003184  0.500000  1
  C  C4  1  0.999989  0.999989  0.000000  1
  C  C5  1  0.749892  0.249892  0.500000  1
  O  O6  1  0.499772  0.499772  0.000000  1
  O  O7  1  0.249991  0.749991  0.500000  1
