# generated using pymatgen
data_HfZr(PIr)2
_symmetry_space_group_name_H-M   'P 1'
_cell_length_a   3.83672700
_cell_length_b   6.51789600
_cell_length_c   7.42345700
_cell_angle_alpha   90.00000000
_cell_angle_beta   90.00000000
_cell_angle_gamma   90.00000000
_symmetry_Int_Tables_number   1
_chemical_formula_structural   HfZr(PIr)2
_chemical_formula_sum   'Hf2 Zr2 P4 Ir4'
_cell_volume   185.64126628
_cell_formula_units_Z   2
loop_
 _symmetry_equiv_pos_site_id
 _symmetry_equiv_pos_as_xyz
  1  'x, y, z'
loop_
 _atom_site_type_symbol
 _atom_site_label
 _atom_site_symmetry_multiplicity
 _atom_site_fract_x
 _atom_site_fract_y
 _atom_site_fract_z
 _atom_site_occupancy
  Hf  Hf0  1  0.250000  0.026990  0.324603  1
  Hf  Hf1  1  0.250000  0.526990  0.175397  1
  Zr  Zr2  1  0.750000  0.974349  0.678431  1
  Zr  Zr3  1  0.750000  0.474349  0.821569  1
  P  P4  1  0.250000  0.261304  0.624715  1
  P  P5  1  0.250000  0.761304  0.875285  1
  P  P6  1  0.750000  0.740209  0.378210  1
  P  P7  1  0.750000  0.240209  0.121790  1
  Ir  Ir8  1  0.250000  0.143210  0.942605  1
  Ir  Ir9  1  0.250000  0.643210  0.557395  1
  Ir  Ir10  1  0.750000  0.853937  0.070230  1
  Ir  Ir11  1  0.750000  0.353937  0.429770  1
