# generated using pymatgen
data_Sr4LaCeP17Pd6
_symmetry_space_group_name_H-M   'P 1'
_cell_length_a   9.13325187
_cell_length_b   9.05520326
_cell_length_c   9.17293338
_cell_angle_alpha   109.90183685
_cell_angle_beta   109.18731152
_cell_angle_gamma   109.29783216
_symmetry_Int_Tables_number   1
_chemical_formula_structural   Sr4LaCeP17Pd6
_chemical_formula_sum   'Sr4 La1 Ce1 P17 Pd6'
_cell_volume   584.16859566
_cell_formula_units_Z   1
loop_
 _symmetry_equiv_pos_site_id
 _symmetry_equiv_pos_as_xyz
  1  'x, y, z'
loop_
 _atom_site_type_symbol
 _atom_site_label
 _atom_site_symmetry_multiplicity
 _atom_site_fract_x
 _atom_site_fract_y
 _atom_site_fract_z
 _atom_site_occupancy
  Sr  Sr0  1  0.276089  0.998120  0.277209  1
  Sr  Sr1  1  0.000172  0.710170  0.712989  1
  Sr  Sr2  1  0.000449  0.286997  0.288596  1
  Sr  Sr3  1  0.720236  0.717944  0.000776  1
  La  La4  1  0.280278  0.281952  0.000849  1
  Ce  Ce5  1  0.726975  0.001583  0.727516  1
  P  P6  1  0.780106  0.785886  0.429201  1
  P  P7  1  0.642063  0.216221  0.995712  1
  P  P8  1  0.220132  0.637860  0.000697  1
  P  P9  1  0.361148  0.578048  0.359387  1
  P  P10  1  0.638312  0.999522  0.215024  1
  P  P11  1  0.000659  0.639660  0.220275  1
  P  P12  1  0.574415  0.357803  0.355767  1
  P  P13  1  0.428512  0.784973  0.779815  1
  P  P14  1  0.780489  0.415160  0.780483  1
  P  P15  1  0.217649  0.002770  0.644752  1
  P  P16  1  0.997198  0.217294  0.646380  1
  P  P17  1  0.361691  0.360619  0.577917  1
  P  P18  1  0.000089  0.000048  0.443419  1
  P  P19  1  0.439456  0.001946  0.998882  1
  P  P20  1  0.999039  0.434262  0.997753  1
  P  P21  1  0.562065  0.565313  0.561567  1
  P  P22  1  0.991709  0.006954  0.982958  1
  Pd  Pd23  1  0.253561  0.500114  0.752318  1
  Pd  Pd24  1  0.500618  0.752128  0.251972  1
  Pd  Pd25  1  0.499639  0.248334  0.748619  1
  Pd  Pd26  1  0.745500  0.245248  0.498337  1
  Pd  Pd27  1  0.253069  0.752935  0.501136  1
  Pd  Pd28  1  0.748683  0.500139  0.249697  1
