# generated using pymatgen
data_Hf4Zr(ReTc7)3
_symmetry_space_group_name_H-M   'P 1'
_cell_length_a   8.41329847
_cell_length_b   8.41329718
_cell_length_c   8.41329706
_cell_angle_alpha   109.37579469
_cell_angle_beta   109.37578345
_cell_angle_gamma   109.37580412
_symmetry_Int_Tables_number   1
_chemical_formula_structural   Hf4Zr(ReTc7)3
_chemical_formula_sum   'Hf4 Zr1 Re3 Tc21'
_cell_volume   460.04659391
_cell_formula_units_Z   1
loop_
 _symmetry_equiv_pos_site_id
 _symmetry_equiv_pos_as_xyz
  1  'x, y, z'
loop_
 _atom_site_type_symbol
 _atom_site_label
 _atom_site_symmetry_multiplicity
 _atom_site_fract_x
 _atom_site_fract_y
 _atom_site_fract_z
 _atom_site_occupancy
  Hf  Hf0  1  0.624183  0.000676  0.000676  1
  Hf  Hf1  1  0.000676  0.624183  0.000676  1
  Hf  Hf2  1  0.000676  0.000676  0.624183  1
  Hf  Hf3  1  0.374407  0.374407  0.374407  1
  Zr  Zr4  1  0.999057  0.999057  0.999057  1
  Re  Re5  1  0.625159  0.625159  0.820148  1
  Re  Re6  1  0.820148  0.625159  0.625159  1
  Re  Re7  1  0.625159  0.820148  0.625159  1
  Tc  Tc8  1  0.394500  0.673487  0.998967  1
  Tc  Tc9  1  0.717580  0.323777  0.323777  1
  Tc  Tc10  1  0.394500  0.998967  0.673487  1
  Tc  Tc11  1  0.673487  0.394500  0.998967  1
  Tc  Tc12  1  0.998967  0.394500  0.673487  1
  Tc  Tc13  1  0.323777  0.717580  0.323777  1
  Tc  Tc14  1  0.323777  0.323777  0.717580  1
  Tc  Tc15  1  0.998967  0.673487  0.394500  1
  Tc  Tc16  1  0.673487  0.998967  0.394500  1
  Tc  Tc17  1  0.606683  0.606683  0.282215  1
  Tc  Tc18  1  0.282215  0.606683  0.606683  1
  Tc  Tc19  1  0.606683  0.282215  0.606683  1
  Tc  Tc20  1  0.374061  0.194875  0.999540  1
  Tc  Tc21  1  0.182905  0.808029  0.808029  1
  Tc  Tc22  1  0.374061  0.999540  0.194875  1
  Tc  Tc23  1  0.194875  0.374061  0.999540  1
  Tc  Tc24  1  0.999540  0.374061  0.194875  1
  Tc  Tc25  1  0.808029  0.182905  0.808029  1
  Tc  Tc26  1  0.808029  0.808029  0.182905  1
  Tc  Tc27  1  0.999540  0.194875  0.374061  1
  Tc  Tc28  1  0.194875  0.999540  0.374061  1
