# generated using pymatgen
data_Ho3Sc3FeSb2
_symmetry_space_group_name_H-M   'P 1'
_cell_length_a   7.83288400
_cell_length_b   7.83288491
_cell_length_c   4.13016000
_cell_angle_alpha   90.00000000
_cell_angle_beta   90.00000000
_cell_angle_gamma   120.00000461
_symmetry_Int_Tables_number   1
_chemical_formula_structural   Ho3Sc3FeSb2
_chemical_formula_sum   'Ho3 Sc3 Fe1 Sb2'
_cell_volume   219.45269980
_cell_formula_units_Z   1
loop_
 _symmetry_equiv_pos_site_id
 _symmetry_equiv_pos_as_xyz
  1  'x, y, z'
loop_
 _atom_site_type_symbol
 _atom_site_label
 _atom_site_symmetry_multiplicity
 _atom_site_fract_x
 _atom_site_fract_y
 _atom_site_fract_z
 _atom_site_occupancy
  Ho  Ho0  1  0.608341  0.000000  0.500000  1
  Ho  Ho1  1  0.391659  0.391659  0.500000  1
  Ho  Ho2  1  0.000000  0.608341  0.500000  1
  Sc  Sc3  1  0.226754  0.000000  0.000000  1
  Sc  Sc4  1  0.773246  0.773246  0.000000  1
  Sc  Sc5  1  0.000000  0.226754  0.000000  1
  Fe  Fe6  1  0.000000  0.000000  0.500000  1
  Sb  Sb7  1  0.333333  0.666667  0.000000  1
  Sb  Sb8  1  0.666667  0.333333  0.000000  1
