# generated using pymatgen
data_Tb17Dy3Ir7Pt5
_symmetry_space_group_name_H-M   'P 1'
_cell_length_a   11.05238812
_cell_length_b   11.05202115
_cell_length_c   6.34205500
_cell_angle_alpha   90.00603548
_cell_angle_beta   90.00735103
_cell_angle_gamma   89.79230482
_symmetry_Int_Tables_number   1
_chemical_formula_structural   Tb17Dy3Ir7Pt5
_chemical_formula_sum   'Tb17 Dy3 Ir7 Pt5'
_cell_volume   774.68470140
_cell_formula_units_Z   1
loop_
 _symmetry_equiv_pos_site_id
 _symmetry_equiv_pos_as_xyz
  1  'x, y, z'
loop_
 _atom_site_type_symbol
 _atom_site_label
 _atom_site_symmetry_multiplicity
 _atom_site_fract_x
 _atom_site_fract_y
 _atom_site_fract_z
 _atom_site_occupancy
  Tb  Tb0  1  0.295310  0.090750  0.373902  1
  Tb  Tb1  1  0.295464  0.909205  0.872907  1
  Tb  Tb2  1  0.704605  0.086583  0.873035  1
  Tb  Tb3  1  0.704411  0.908431  0.373198  1
  Tb  Tb4  1  0.586348  0.789632  0.878397  1
  Tb  Tb5  1  0.584502  0.207008  0.374289  1
  Tb  Tb6  1  0.413733  0.791155  0.377958  1
  Tb  Tb7  1  0.410387  0.207840  0.879911  1
  Tb  Tb8  1  0.210374  0.413657  0.621544  1
  Tb  Tb9  1  0.208847  0.586266  0.122091  1
  Tb  Tb10  1  0.792981  0.415493  0.125756  1
  Tb  Tb11  1  0.792158  0.589602  0.620039  1
  Tb  Tb12  1  0.909300  0.704756  0.125997  1
  Tb  Tb13  1  0.913385  0.295463  0.627090  1
  Tb  Tb14  1  0.090843  0.704472  0.627211  1
  Tb  Tb15  1  0.091521  0.295519  0.126695  1
  Tb  Tb16  1  0.999686  0.999827  0.499398  1
  Dy  Dy17  1  0.000175  0.000324  0.000593  1
  Dy  Dy18  1  0.498278  0.500973  0.000190  1
  Dy  Dy19  1  0.499019  0.501718  0.499813  1
  Ir  Ir20  1  0.653444  0.652866  0.250108  1
  Ir  Ir21  1  0.347157  0.346537  0.249866  1
  Ir  Ir22  1  0.345389  0.654594  0.750007  1
  Ir  Ir23  1  0.500201  0.000156  0.121804  1
  Ir  Ir24  1  0.500121  0.000485  0.623161  1
  Ir  Ir25  1  0.999518  0.499881  0.876868  1
  Ir  Ir26  1  0.999840  0.499796  0.378166  1
  Pt  Pt27  1  0.845631  0.154368  0.249540  1
  Pt  Pt28  1  0.846465  0.847446  0.750946  1
  Pt  Pt29  1  0.152531  0.153554  0.749945  1
  Pt  Pt30  1  0.153695  0.846314  0.249559  1
  Pt  Pt31  1  0.654679  0.345332  0.750013  1
