# generated using pymatgen
data_KFe3NiCl12
_symmetry_space_group_name_H-M   'P 1'
_cell_length_a   12.51134400
_cell_length_b   13.00405272
_cell_length_c   14.15603200
_cell_angle_alpha   106.86719021
_cell_angle_beta   90.00000000
_cell_angle_gamma   90.00000000
_symmetry_Int_Tables_number   1
_chemical_formula_structural   KFe3NiCl12
_chemical_formula_sum   'K4 Fe12 Ni4 Cl48'
_cell_volume   2204.07838760
_cell_formula_units_Z   4
loop_
 _symmetry_equiv_pos_site_id
 _symmetry_equiv_pos_as_xyz
  1  'x, y, z'
loop_
 _atom_site_type_symbol
 _atom_site_label
 _atom_site_symmetry_multiplicity
 _atom_site_fract_x
 _atom_site_fract_y
 _atom_site_fract_z
 _atom_site_occupancy
  K  K0  1  0.790337  0.483147  0.709475  1
  K  K1  1  0.209663  0.516853  0.290525  1
  K  K2  1  0.709663  0.983147  0.709475  1
  K  K3  1  0.290337  0.016853  0.290525  1
  Fe  Fe4  1  0.004369  0.822217  0.277844  1
  Fe  Fe5  1  0.246224  0.379254  0.010121  1
  Fe  Fe6  1  0.916117  0.318653  0.382057  1
  Fe  Fe7  1  0.504369  0.677783  0.722156  1
  Fe  Fe8  1  0.253776  0.879254  0.010121  1
  Fe  Fe9  1  0.583883  0.818653  0.382057  1
  Fe  Fe10  1  0.416117  0.181347  0.617943  1
  Fe  Fe11  1  0.083883  0.681347  0.617943  1
  Fe  Fe12  1  0.495631  0.322217  0.277844  1
  Fe  Fe13  1  0.746224  0.120746  0.989879  1
  Fe  Fe14  1  0.995631  0.177783  0.722156  1
  Fe  Fe15  1  0.753776  0.620746  0.989879  1
  Ni  Ni16  1  0.262955  0.742642  0.785707  1
  Ni  Ni17  1  0.762955  0.757358  0.214293  1
  Ni  Ni18  1  0.737045  0.257359  0.214293  1
  Ni  Ni19  1  0.237045  0.242642  0.785707  1
  Cl  Cl20  1  0.878273  0.746033  0.349247  1
  Cl  Cl21  1  0.382575  0.337219  0.733742  1
  Cl  Cl22  1  0.660032  0.766924  0.073076  1
  Cl  Cl23  1  0.167056  0.415554  0.880697  1
  Cl  Cl24  1  0.121727  0.253967  0.650753  1
  Cl  Cl25  1  0.084981  0.361942  0.395681  1
  Cl  Cl26  1  0.378273  0.753967  0.650753  1
  Cl  Cl27  1  0.900822  0.858180  0.161539  1
  Cl  Cl28  1  0.850208  0.992785  0.905242  1
  Cl  Cl29  1  0.584981  0.138058  0.604319  1
  Cl  Cl30  1  0.617425  0.662781  0.266258  1
  Cl  Cl31  1  0.117425  0.837219  0.733742  1
  Cl  Cl32  1  0.621727  0.246033  0.349247  1
  Cl  Cl33  1  0.099178  0.141820  0.838461  1
  Cl  Cl34  1  0.145259  0.696956  0.478241  1
  Cl  Cl35  1  0.649792  0.492785  0.905242  1
  Cl  Cl36  1  0.868155  0.288177  0.792775  1
  Cl  Cl37  1  0.684252  0.924708  0.317064  1
  Cl  Cl38  1  0.645259  0.803044  0.521759  1
  Cl  Cl39  1  0.315748  0.075292  0.682936  1
  Cl  Cl40  1  0.815748  0.424708  0.317064  1
  Cl  Cl41  1  0.332944  0.915554  0.880697  1
  Cl  Cl42  1  0.876163  0.657521  0.894769  1
  Cl  Cl43  1  0.930109  0.031352  0.621460  1
  Cl  Cl44  1  0.832944  0.584446  0.119303  1
  Cl  Cl45  1  0.854741  0.303044  0.521759  1
  Cl  Cl46  1  0.839968  0.266924  0.073076  1
  Cl  Cl47  1  0.069891  0.968648  0.378540  1
  Cl  Cl48  1  0.631845  0.788177  0.792775  1
  Cl  Cl49  1  0.376163  0.842479  0.105231  1
  Cl  Cl50  1  0.430109  0.468648  0.378540  1
  Cl  Cl51  1  0.131845  0.711823  0.207225  1
  Cl  Cl52  1  0.149792  0.007215  0.094758  1
  Cl  Cl53  1  0.123837  0.342479  0.105231  1
  Cl  Cl54  1  0.599178  0.358180  0.161539  1
  Cl  Cl55  1  0.623837  0.157521  0.894769  1
  Cl  Cl56  1  0.667056  0.084446  0.119303  1
  Cl  Cl57  1  0.350208  0.507215  0.094758  1
  Cl  Cl58  1  0.184252  0.575292  0.682936  1
  Cl  Cl59  1  0.160032  0.733076  0.926924  1
  Cl  Cl60  1  0.354741  0.196956  0.478241  1
  Cl  Cl61  1  0.415019  0.861942  0.395681  1
  Cl  Cl62  1  0.400822  0.641820  0.838461  1
  Cl  Cl63  1  0.569891  0.531352  0.621460  1
  Cl  Cl64  1  0.339968  0.233076  0.926924  1
  Cl  Cl65  1  0.368155  0.211823  0.207225  1
  Cl  Cl66  1  0.882575  0.162781  0.266258  1
  Cl  Cl67  1  0.915019  0.638058  0.604319  1
