# generated using pymatgen
data_LaYbNi7
_symmetry_space_group_name_H-M   'P 1'
_cell_length_a   4.96301420
_cell_length_b   4.96301414
_cell_length_c   12.31686448
_cell_angle_alpha   78.37692960
_cell_angle_beta   78.37693132
_cell_angle_gamma   59.99998579
_symmetry_Int_Tables_number   1
_chemical_formula_structural   LaYbNi7
_chemical_formula_sum   'La2 Yb2 Ni14'
_cell_volume   255.52856230
_cell_formula_units_Z   2
loop_
 _symmetry_equiv_pos_site_id
 _symmetry_equiv_pos_as_xyz
  1  'x, y, z'
loop_
 _atom_site_type_symbol
 _atom_site_label
 _atom_site_symmetry_multiplicity
 _atom_site_fract_x
 _atom_site_fract_y
 _atom_site_fract_z
 _atom_site_occupancy
  La  La0  1  0.946210  0.946210  0.161372  1
  La  La1  1  0.053790  0.053790  0.838628  1
  Yb  Yb2  1  0.849979  0.849979  0.450063  1
  Yb  Yb3  1  0.150021  0.150021  0.549937  1
  Ni  Ni4  1  0.500000  0.500000  0.500000  1
  Ni  Ni5  1  0.722694  0.722694  0.831918  1
  Ni  Ni6  1  0.277306  0.277306  0.168082  1
  Ni  Ni7  1  0.611191  0.611191  0.166426  1
  Ni  Ni8  1  0.388809  0.388809  0.833574  1
  Ni  Ni9  1  0.000000  0.500000  0.000000  1
  Ni  Ni10  1  0.500000  0.000000  0.000000  1
  Ni  Ni11  1  0.500000  0.500000  0.000000  1
  Ni  Ni12  1  0.388416  0.388416  0.334372  1
  Ni  Ni13  1  0.888797  0.388416  0.334372  1
  Ni  Ni14  1  0.388416  0.888797  0.334372  1
  Ni  Ni15  1  0.611584  0.611584  0.665628  1
  Ni  Ni16  1  0.111203  0.611584  0.665628  1
  Ni  Ni17  1  0.611584  0.111203  0.665628  1
