# generated using pymatgen
data_Pr4Ho4Re(B8Ru)3
_symmetry_space_group_name_H-M   'P 1'
_cell_length_a   3.73244800
_cell_length_b   9.24616262
_cell_length_c   11.69280102
_cell_angle_alpha   90.12074274
_cell_angle_beta   90.00000000
_cell_angle_gamma   90.00000000
_symmetry_Int_Tables_number   1
_chemical_formula_structural   Pr4Ho4Re(B8Ru)3
_chemical_formula_sum   'Pr4 Ho4 Re1 B24 Ru3'
_cell_volume   403.52726897
_cell_formula_units_Z   1
loop_
 _symmetry_equiv_pos_site_id
 _symmetry_equiv_pos_as_xyz
  1  'x, y, z'
loop_
 _atom_site_type_symbol
 _atom_site_label
 _atom_site_symmetry_multiplicity
 _atom_site_fract_x
 _atom_site_fract_y
 _atom_site_fract_z
 _atom_site_occupancy
  Pr  Pr0  1  0.000000  0.323739  0.415187  1
  Pr  Pr1  1  0.000000  0.678774  0.587006  1
  Pr  Pr2  1  0.000000  0.822868  0.084078  1
  Pr  Pr3  1  0.000000  0.176496  0.913568  1
  Ho  Ho4  1  0.000000  0.943236  0.370243  1
  Ho  Ho5  1  0.000000  0.056011  0.628472  1
  Ho  Ho6  1  0.000000  0.442618  0.129168  1
  Ho  Ho7  1  0.000000  0.556143  0.871986  1
  Re  Re8  1  0.000000  0.860659  0.819197  1
  B  B9  1  0.500000  0.556913  0.430089  1
  B  B10  1  0.500000  0.443452  0.570372  1
  B  B11  1  0.500000  0.056305  0.070493  1
  B  B12  1  0.500000  0.944697  0.929954  1
  B  B13  1  0.500000  0.749654  0.416722  1
  B  B14  1  0.500000  0.250724  0.583077  1
  B  B15  1  0.500000  0.249636  0.083631  1
  B  B16  1  0.500000  0.750117  0.916466  1
  B  B17  1  0.500000  0.789273  0.266644  1
  B  B18  1  0.500000  0.210004  0.732365  1
  B  B19  1  0.500000  0.289734  0.233413  1
  B  B20  1  0.500000  0.709283  0.766778  1
  B  B21  1  0.500000  0.629672  0.185732  1
  B  B22  1  0.500000  0.369650  0.813871  1
  B  B23  1  0.500000  0.130551  0.314475  1
  B  B24  1  0.500000  0.869835  0.685996  1
  B  B25  1  0.500000  0.986214  0.213815  1
  B  B26  1  0.500000  0.015262  0.785853  1
  B  B27  1  0.500000  0.486060  0.286727  1
  B  B28  1  0.500000  0.514094  0.714159  1
  B  B29  1  0.500000  0.600100  0.028331  1
  B  B30  1  0.500000  0.397928  0.972848  1
  B  B31  1  0.500000  0.101660  0.471561  1
  B  B32  1  0.500000  0.898982  0.526781  1
  Ru  Ru33  1  0.000000  0.639565  0.319036  1
  Ru  Ru34  1  0.000000  0.360575  0.680604  1
  Ru  Ru35  1  0.000000  0.139512  0.181302  1
