# generated using pymatgen
data_NdGdCl3O
_symmetry_space_group_name_H-M   'P 1'
_cell_length_a   8.53280713
_cell_length_b   8.53280681
_cell_length_c   10.82107356
_cell_angle_alpha   59.88825213
_cell_angle_beta   59.88825303
_cell_angle_gamma   27.59598811
_symmetry_Int_Tables_number   1
_chemical_formula_structural   NdGdCl3O
_chemical_formula_sum   'Nd2 Gd2 Cl6 O2'
_cell_volume   312.49621824
_cell_formula_units_Z   2
loop_
 _symmetry_equiv_pos_site_id
 _symmetry_equiv_pos_as_xyz
  1  'x, y, z'
loop_
 _atom_site_type_symbol
 _atom_site_label
 _atom_site_symmetry_multiplicity
 _atom_site_fract_x
 _atom_site_fract_y
 _atom_site_fract_z
 _atom_site_occupancy
  Nd  Nd0  1  0.865910  0.865910  0.286389  1
  Nd  Nd1  1  0.134090  0.134090  0.713611  1
  Gd  Gd2  1  0.582418  0.582418  0.044497  1
  Gd  Gd3  1  0.417582  0.417582  0.955503  1
  Cl  Cl4  1  0.047011  0.047011  0.250898  1
  Cl  Cl5  1  0.952989  0.952989  0.749102  1
  Cl  Cl6  1  0.665574  0.665574  0.491734  1
  Cl  Cl7  1  0.334426  0.334426  0.508266  1
  Cl  Cl8  1  0.779998  0.779998  0.113166  1
  Cl  Cl9  1  0.220002  0.220002  0.886834  1
  O  O10  1  0.420749  0.420749  0.164989  1
  O  O11  1  0.579251  0.579251  0.835011  1
