# generated using pymatgen
data_Y8Tm2Si5Sb
_symmetry_space_group_name_H-M   'P 1'
_cell_length_a   8.51734000
_cell_length_b   8.55391834
_cell_length_c   6.40620700
_cell_angle_alpha   90.01529197
_cell_angle_beta   90.00000000
_cell_angle_gamma   119.85863698
_symmetry_Int_Tables_number   1
_chemical_formula_structural   Y8Tm2Si5Sb
_chemical_formula_sum   'Y8 Tm2 Si5 Sb1'
_cell_volume   404.77859642
_cell_formula_units_Z   1
loop_
 _symmetry_equiv_pos_site_id
 _symmetry_equiv_pos_as_xyz
  1  'x, y, z'
loop_
 _atom_site_type_symbol
 _atom_site_label
 _atom_site_symmetry_multiplicity
 _atom_site_fract_x
 _atom_site_fract_y
 _atom_site_fract_z
 _atom_site_occupancy
  Y  Y0  1  0.988642  0.746636  0.750144  1
  Y  Y1  1  0.998328  0.244092  0.249939  1
  Y  Y2  1  0.754236  0.755908  0.250061  1
  Y  Y3  1  0.764537  0.000000  0.750000  1
  Y  Y4  1  0.242006  0.253364  0.749856  1
  Y  Y5  1  0.242845  0.000000  0.250000  1
  Y  Y6  1  0.674065  0.342941  0.496607  1
  Y  Y7  1  0.331122  0.657059  0.003393  1
  Tm  Tm8  1  0.330798  0.655891  0.496461  1
  Tm  Tm9  1  0.674909  0.344109  0.003539  1
  Si  Si10  1  0.393734  0.391672  0.250230  1
  Si  Si11  1  0.002061  0.608328  0.249770  1
  Si  Si12  1  0.998627  0.394628  0.750011  1
  Si  Si13  1  0.603999  0.605372  0.749989  1
  Si  Si14  1  0.605766  0.000000  0.250000  1
  Sb  Sb15  1  0.394323  0.000000  0.750000  1
