# generated using pymatgen
data_Yb8Ti3GeO16
_symmetry_space_group_name_H-M   'P 1'
_cell_length_a   5.35041566
_cell_length_b   6.71324000
_cell_length_c   11.27744033
_cell_angle_alpha   90.00000000
_cell_angle_beta   89.95778384
_cell_angle_gamma   90.00000000
_symmetry_Int_Tables_number   1
_chemical_formula_structural   Yb8Ti3GeO16
_chemical_formula_sum   'Yb8 Ti3 Ge1 O16'
_cell_volume   405.07003355
_cell_formula_units_Z   1
loop_
 _symmetry_equiv_pos_site_id
 _symmetry_equiv_pos_as_xyz
  1  'x, y, z'
loop_
 _atom_site_type_symbol
 _atom_site_label
 _atom_site_symmetry_multiplicity
 _atom_site_fract_x
 _atom_site_fract_y
 _atom_site_fract_z
 _atom_site_occupancy
  Yb  Yb0  1  0.005724  0.750000  0.722337  1
  Yb  Yb1  1  0.992164  0.250000  0.277484  1
  Yb  Yb2  1  0.505360  0.250000  0.776996  1
  Yb  Yb3  1  0.492871  0.750000  0.223267  1
  Yb  Yb4  1  0.498144  0.499391  0.500179  1
  Yb  Yb5  1  0.000058  0.000192  0.999609  1
  Yb  Yb6  1  0.000058  0.499808  0.999609  1
  Yb  Yb7  1  0.498144  0.000609  0.500179  1
  Ti  Ti8  1  0.436006  0.250000  0.096846  1
  Ti  Ti9  1  0.935183  0.750000  0.403788  1
  Ti  Ti10  1  0.563683  0.750000  0.903696  1
  Ge  Ge11  1  0.069744  0.250000  0.596024  1
  O  O12  1  0.779302  0.750000  0.548839  1
  O  O13  1  0.775267  0.537810  0.336230  1
  O  O14  1  0.721994  0.537727  0.835609  1
  O  O15  1  0.738973  0.250000  0.592450  1
  O  O16  1  0.718271  0.750000  0.049170  1
  O  O17  1  0.276148  0.462511  0.164227  1
  O  O18  1  0.220384  0.459917  0.664095  1
  O  O19  1  0.280864  0.750000  0.407815  1
  O  O20  1  0.775267  0.962190  0.336230  1
  O  O21  1  0.218984  0.750000  0.906078  1
  O  O22  1  0.215027  0.250000  0.451136  1
  O  O23  1  0.721994  0.962273  0.835609  1
  O  O24  1  0.220384  0.040083  0.664095  1
  O  O25  1  0.283250  0.250000  0.951000  1
  O  O26  1  0.276148  0.037489  0.164227  1
  O  O27  1  0.780607  0.250000  0.093174  1
