# generated using pymatgen
data_Er3TmTh4(ReB6)4
_symmetry_space_group_name_H-M   'P 1'
_cell_length_a   3.75448300
_cell_length_b   9.22974701
_cell_length_c   11.66176501
_cell_angle_alpha   90.00458017
_cell_angle_beta   90.00000000
_cell_angle_gamma   90.00000000
_symmetry_Int_Tables_number   1
_chemical_formula_structural   Er3TmTh4(ReB6)4
_chemical_formula_sum   'Er3 Tm1 Th4 Re4 B24'
_cell_volume   404.11430465
_cell_formula_units_Z   1
loop_
 _symmetry_equiv_pos_site_id
 _symmetry_equiv_pos_as_xyz
  1  'x, y, z'
loop_
 _atom_site_type_symbol
 _atom_site_label
 _atom_site_symmetry_multiplicity
 _atom_site_fract_x
 _atom_site_fract_y
 _atom_site_fract_z
 _atom_site_occupancy
  Er  Er0  1  0.000000  0.944841  0.372753  1
  Er  Er1  1  0.000000  0.055159  0.627280  1
  Er  Er2  1  0.000000  0.444885  0.127140  1
  Tm  Tm3  1  0.000000  0.555158  0.872718  1
  Th  Th4  1  0.000000  0.322050  0.414195  1
  Th  Th5  1  0.000000  0.677944  0.585890  1
  Th  Th6  1  0.000000  0.821969  0.085767  1
  Th  Th7  1  0.000000  0.178055  0.914138  1
  Re  Re8  1  0.000000  0.639345  0.319727  1
  Re  Re9  1  0.000000  0.360828  0.680394  1
  Re  Re10  1  0.000000  0.139375  0.180226  1
  Re  Re11  1  0.000000  0.860342  0.819760  1
  B  B12  1  0.500000  0.556320  0.429886  1
  B  B13  1  0.500000  0.443698  0.570158  1
  B  B14  1  0.500000  0.056307  0.070111  1
  B  B15  1  0.500000  0.943646  0.929872  1
  B  B16  1  0.500000  0.750263  0.417056  1
  B  B17  1  0.500000  0.249758  0.582959  1
  B  B18  1  0.500000  0.250281  0.082941  1
  B  B19  1  0.500000  0.749526  0.917049  1
  B  B20  1  0.500000  0.791154  0.266713  1
  B  B21  1  0.500000  0.208905  0.733304  1
  B  B22  1  0.500000  0.291160  0.233279  1
  B  B23  1  0.500000  0.708649  0.766770  1
  B  B24  1  0.500000  0.630168  0.186087  1
  B  B25  1  0.500000  0.370001  0.813998  1
  B  B26  1  0.500000  0.130182  0.313901  1
  B  B27  1  0.500000  0.869787  0.686125  1
  B  B28  1  0.500000  0.984914  0.214116  1
  B  B29  1  0.500000  0.015058  0.785893  1
  B  B30  1  0.500000  0.484910  0.285874  1
  B  B31  1  0.500000  0.515197  0.714265  1
  B  B32  1  0.500000  0.601898  0.027843  1
  B  B33  1  0.500000  0.398269  0.971796  1
  B  B34  1  0.500000  0.101979  0.471945  1
  B  B35  1  0.500000  0.898020  0.528071  1
