# generated using pymatgen
data_Ba4ZnRe2NiN8
_symmetry_space_group_name_H-M   'P 1'
_cell_length_a   6.02655800
_cell_length_b   6.64194222
_cell_length_c   7.73439443
_cell_angle_alpha   68.47258781
_cell_angle_beta   90.00000000
_cell_angle_gamma   90.00000000
_symmetry_Int_Tables_number   1
_chemical_formula_structural   Ba4ZnRe2NiN8
_chemical_formula_sum   'Ba4 Zn1 Re2 Ni1 N8'
_cell_volume   287.99619347
_cell_formula_units_Z   1
loop_
 _symmetry_equiv_pos_site_id
 _symmetry_equiv_pos_as_xyz
  1  'x, y, z'
loop_
 _atom_site_type_symbol
 _atom_site_label
 _atom_site_symmetry_multiplicity
 _atom_site_fract_x
 _atom_site_fract_y
 _atom_site_fract_z
 _atom_site_occupancy
  Ba  Ba0  1  0.250000  0.257873  0.059521  1
  Ba  Ba1  1  0.750000  0.734866  0.947903  1
  Ba  Ba2  1  0.750000  0.842409  0.401783  1
  Ba  Ba3  1  0.250000  0.174580  0.580556  1
  Zn  Zn4  1  0.250000  0.645217  0.613709  1
  Re  Re5  1  0.250000  0.695343  0.217762  1
  Re  Re6  1  0.750000  0.300016  0.781585  1
  Ni  Ni7  1  0.750000  0.363382  0.381786  1
  N  N8  1  0.501244  0.474088  0.742035  1
  N  N9  1  0.004711  0.518467  0.270365  1
  N  N10  1  0.495289  0.518467  0.270365  1
  N  N11  1  0.998756  0.474088  0.742035  1
  N  N12  1  0.750000  0.137979  0.628188  1
  N  N13  1  0.250000  0.877936  0.369846  1
  N  N14  1  0.750000  0.116671  0.021603  1
  N  N15  1  0.250000  0.868619  0.970959  1
