# generated using pymatgen
data_Rb2Na2Zr6CoBr18
_symmetry_space_group_name_H-M   'P 1'
_cell_length_a   10.54316239
_cell_length_b   10.56407641
_cell_length_c   10.68245098
_cell_angle_alpha   119.11298038
_cell_angle_beta   101.22605986
_cell_angle_gamma   101.18670211
_symmetry_Int_Tables_number   1
_chemical_formula_structural   Rb2Na2Zr6CoBr18
_chemical_formula_sum   'Rb2 Na2 Zr6 Co1 Br18'
_cell_volume   959.97934970
_cell_formula_units_Z   1
loop_
 _symmetry_equiv_pos_site_id
 _symmetry_equiv_pos_as_xyz
  1  'x, y, z'
loop_
 _atom_site_type_symbol
 _atom_site_label
 _atom_site_symmetry_multiplicity
 _atom_site_fract_x
 _atom_site_fract_y
 _atom_site_fract_z
 _atom_site_occupancy
  Rb  Rb0  1  0.684986  0.228030  0.553883  1
  Rb  Rb1  1  0.315014  0.771970  0.446117  1
  Na  Na2  1  0.621564  0.531166  0.205728  1
  Na  Na3  1  0.378436  0.468834  0.794272  1
  Zr  Zr4  1  0.153363  0.070818  0.249922  1
  Zr  Zr5  1  0.846637  0.929182  0.750078  1
  Zr  Zr6  1  0.860413  0.149147  0.133878  1
  Zr  Zr7  1  0.139587  0.850853  0.866122  1
  Zr  Zr8  1  0.148809  0.236610  0.034167  1
  Zr  Zr9  1  0.851191  0.763390  0.965833  1
  Co  Co10  1  0.000000  0.000000  0.000000  1
  Br  Br11  1  0.009418  0.420358  0.179113  1
  Br  Br12  1  0.990582  0.579642  0.820887  1
  Br  Br13  1  0.328899  0.335846  0.309530  1
  Br  Br14  1  0.671101  0.664154  0.690470  1
  Br  Br15  1  0.331202  0.504299  0.074460  1
  Br  Br16  1  0.668798  0.495701  0.925540  1
  Br  Br17  1  0.006178  0.816293  0.233898  1
  Br  Br18  1  0.993822  0.183707  0.766102  1
  Br  Br19  1  0.703565  0.318673  0.280243  1
  Br  Br20  1  0.296435  0.681327  0.719757  1
  Br  Br21  1  0.314073  0.096402  0.892625  1
  Br  Br22  1  0.685927  0.903598  0.107375  1
  Br  Br23  1  0.011599  0.231962  0.417357  1
  Br  Br24  1  0.988401  0.768038  0.582643  1
  Br  Br25  1  0.320273  0.917775  0.128686  1
  Br  Br26  1  0.679727  0.082225  0.871314  1
  Br  Br27  1  0.334790  0.152745  0.533628  1
  Br  Br28  1  0.665210  0.847255  0.466372  1
