# generated using pymatgen
data_BaSb12Os3Pt
_symmetry_space_group_name_H-M   'P 1'
_cell_length_a   8.19231719
_cell_length_b   8.19231659
_cell_length_c   8.19231662
_cell_angle_alpha   109.44886862
_cell_angle_beta   109.44885477
_cell_angle_gamma   109.44886383
_symmetry_Int_Tables_number   1
_chemical_formula_structural   BaSb12Os3Pt
_chemical_formula_sum   'Ba1 Sb12 Os3 Pt1'
_cell_volume   423.60132444
_cell_formula_units_Z   1
loop_
 _symmetry_equiv_pos_site_id
 _symmetry_equiv_pos_as_xyz
  1  'x, y, z'
loop_
 _atom_site_type_symbol
 _atom_site_label
 _atom_site_symmetry_multiplicity
 _atom_site_fract_x
 _atom_site_fract_y
 _atom_site_fract_z
 _atom_site_occupancy
  Ba  Ba0  1  0.000000  0.000000  0.000000  1
  Sb  Sb1  1  0.339702  0.181289  0.840829  1
  Sb  Sb2  1  0.660298  0.818711  0.159171  1
  Sb  Sb3  1  0.659455  0.500100  0.849180  1
  Sb  Sb4  1  0.340545  0.499900  0.150820  1
  Sb  Sb5  1  0.181289  0.840829  0.339702  1
  Sb  Sb6  1  0.818711  0.159171  0.660298  1
  Sb  Sb7  1  0.500100  0.849180  0.659455  1
  Sb  Sb8  1  0.499900  0.150820  0.340545  1
  Sb  Sb9  1  0.840829  0.339702  0.181289  1
  Sb  Sb10  1  0.159171  0.660298  0.818711  1
  Sb  Sb11  1  0.849180  0.659455  0.500100  1
  Sb  Sb12  1  0.150820  0.340545  0.499900  1
  Os  Os13  1  0.000000  0.000000  0.500000  1
  Os  Os14  1  0.500000  0.000000  0.000000  1
  Os  Os15  1  0.000000  0.500000  0.000000  1
  Pt  Pt16  1  0.500000  0.500000  0.500000  1
