# generated using pymatgen
data_Dy3Y5(AlPt)2
_symmetry_space_group_name_H-M   'P 1'
_cell_length_a   9.61122251
_cell_length_b   9.62454309
_cell_length_c   9.62454321
_cell_angle_alpha   59.90844637
_cell_angle_beta   60.04577830
_cell_angle_gamma   60.04577556
_symmetry_Int_Tables_number   1
_chemical_formula_structural   Dy3Y5(AlPt)2
_chemical_formula_sum   'Dy6 Y10 Al4 Pt4'
_cell_volume   629.53839193
_cell_formula_units_Z   2
loop_
 _symmetry_equiv_pos_site_id
 _symmetry_equiv_pos_as_xyz
  1  'x, y, z'
loop_
 _atom_site_type_symbol
 _atom_site_label
 _atom_site_symmetry_multiplicity
 _atom_site_fract_x
 _atom_site_fract_y
 _atom_site_fract_z
 _atom_site_occupancy
  Dy  Dy0  1  0.353700  0.353576  0.353576  1
  Dy  Dy1  1  0.353576  0.353700  0.939148  1
  Dy  Dy2  1  0.353576  0.939148  0.353700  1
  Dy  Dy3  1  0.939148  0.353576  0.353576  1
  Dy  Dy4  1  0.807255  0.192745  0.192745  1
  Dy  Dy5  1  0.192745  0.807255  0.807255  1
  Y  Y6  1  0.193258  0.806742  0.193258  1
  Y  Y7  1  0.806742  0.193258  0.806742  1
  Y  Y8  1  0.193258  0.193258  0.806742  1
  Y  Y9  1  0.806742  0.806742  0.193258  1
  Y  Y10  1  0.936730  0.563270  0.563270  1
  Y  Y11  1  0.563270  0.936730  0.936730  1
  Y  Y12  1  0.562957  0.937043  0.562957  1
  Y  Y13  1  0.937043  0.562957  0.937043  1
  Y  Y14  1  0.562957  0.562957  0.937043  1
  Y  Y15  1  0.937043  0.937043  0.562957  1
  Al  Al16  1  0.578101  0.577840  0.577840  1
  Al  Al17  1  0.577840  0.578101  0.266219  1
  Al  Al18  1  0.577840  0.266219  0.578101  1
  Al  Al19  1  0.266219  0.577840  0.577840  1
  Pt  Pt20  1  0.141930  0.144317  0.144317  1
  Pt  Pt21  1  0.144317  0.141930  0.569438  1
  Pt  Pt22  1  0.144317  0.569438  0.141930  1
  Pt  Pt23  1  0.569438  0.144317  0.144317  1
