# generated using pymatgen
data_Sm2Dy2OsI4
_symmetry_space_group_name_H-M   'P 1'
_cell_length_a   11.73190578
_cell_length_b   11.73190821
_cell_length_c   6.25839909
_cell_angle_alpha   90.01969889
_cell_angle_beta   90.01970923
_cell_angle_gamma   89.93323147
_symmetry_Int_Tables_number   1
_chemical_formula_structural   Sm2Dy2OsI4
_chemical_formula_sum   'Sm4 Dy4 Os2 I8'
_cell_volume   861.39060541
_cell_formula_units_Z   2
loop_
 _symmetry_equiv_pos_site_id
 _symmetry_equiv_pos_as_xyz
  1  'x, y, z'
loop_
 _atom_site_type_symbol
 _atom_site_label
 _atom_site_symmetry_multiplicity
 _atom_site_fract_x
 _atom_site_fract_y
 _atom_site_fract_z
 _atom_site_occupancy
  Sm  Sm0  1  0.802769  0.081360  0.999929  1
  Sm  Sm1  1  0.081360  0.802769  0.499929  1
  Sm  Sm2  1  0.079274  0.196972  0.000029  1
  Sm  Sm3  1  0.196972  0.079274  0.500029  1
  Dy  Dy4  1  0.920443  0.810766  0.998526  1
  Dy  Dy5  1  0.921935  0.189382  0.498192  1
  Dy  Dy6  1  0.189382  0.921935  0.998192  1
  Dy  Dy7  1  0.810766  0.920443  0.498526  1
  Os  Os8  1  0.000093  0.999855  0.249344  1
  Os  Os9  1  0.999855  0.000093  0.749344  1
  I  I10  1  0.656223  0.142517  0.491308  1
  I  I11  1  0.852049  0.655815  0.506767  1
  I  I12  1  0.346777  0.140961  0.994446  1
  I  I13  1  0.140961  0.346777  0.494446  1
  I  I14  1  0.655815  0.852049  0.006767  1
  I  I15  1  0.348514  0.854295  0.511458  1
  I  I16  1  0.142517  0.656223  0.991308  1
  I  I17  1  0.854295  0.348514  0.011458  1
