# generated using pymatgen
data_Tb9YB2I15
_symmetry_space_group_name_H-M   'P 1'
_cell_length_a   9.65020277
_cell_length_b   10.39579859
_cell_length_c   11.33598672
_cell_angle_alpha   91.70382386
_cell_angle_beta   114.43016711
_cell_angle_gamma   110.47299536
_symmetry_Int_Tables_number   1
_chemical_formula_structural   Tb9YB2I15
_chemical_formula_sum   'Tb9 Y1 B2 I15'
_cell_volume   949.53124545
_cell_formula_units_Z   1
loop_
 _symmetry_equiv_pos_site_id
 _symmetry_equiv_pos_as_xyz
  1  'x, y, z'
loop_
 _atom_site_type_symbol
 _atom_site_label
 _atom_site_symmetry_multiplicity
 _atom_site_fract_x
 _atom_site_fract_y
 _atom_site_fract_z
 _atom_site_occupancy
  Tb  Tb0  1  0.784863  0.394018  0.268145  1
  Tb  Tb1  1  0.215038  0.605873  0.731807  1
  Tb  Tb2  1  0.663138  0.751724  0.825162  1
  Tb  Tb3  1  0.336703  0.248319  0.174851  1
  Tb  Tb4  1  0.523116  0.712346  0.086312  1
  Tb  Tb5  1  0.476766  0.287606  0.913662  1
  Tb  Tb6  1  0.580708  0.043596  0.309785  1
  Tb  Tb7  1  0.419231  0.956387  0.690192  1
  Tb  Tb8  1  0.708331  0.070227  0.045749  1
  Y  Y9  1  0.292399  0.929982  0.954387  1
  B  B10  1  0.468388  0.822655  0.879936  1
  B  B11  1  0.531461  0.177246  0.119998  1
  I  I12  1  0.000044  0.999947  0.999969  1
  I  I13  1  0.638640  0.882636  0.582610  1
  I  I14  1  0.361331  0.117345  0.417380  1
  I  I15  1  0.885164  0.299457  0.531606  1
  I  I16  1  0.114798  0.700531  0.468395  1
  I  I17  1  0.284358  0.760005  0.177716  1
  I  I18  1  0.715497  0.240041  0.822140  1
  I  I19  1  0.055045  0.340243  0.225571  1
  I  I20  1  0.159857  0.055877  0.701656  1
  I  I21  1  0.840057  0.944012  0.298436  1
  I  I22  1  0.228086  0.409677  0.942005  1
  I  I23  1  0.771885  0.590315  0.057987  1
  I  I24  1  0.409405  0.459233  0.659501  1
  I  I25  1  0.590574  0.540758  0.340496  1
  I  I26  1  0.945117  0.659944  0.774545  1
