# generated using pymatgen
data_Th6Ni20As13
_symmetry_space_group_name_H-M   'P 1'
_cell_length_a   13.21242500
_cell_length_b   13.21242501
_cell_length_c   4.02335700
_cell_angle_alpha   90.00000000
_cell_angle_beta   90.00000000
_cell_angle_gamma   119.99999746
_symmetry_Int_Tables_number   1
_chemical_formula_structural   Th6Ni20As13
_chemical_formula_sum   'Th6 Ni20 As13'
_cell_volume   608.25303333
_cell_formula_units_Z   1
loop_
 _symmetry_equiv_pos_site_id
 _symmetry_equiv_pos_as_xyz
  1  'x, y, z'
loop_
 _atom_site_type_symbol
 _atom_site_label
 _atom_site_symmetry_multiplicity
 _atom_site_fract_x
 _atom_site_fract_y
 _atom_site_fract_z
 _atom_site_occupancy
  Th  Th0  1  0.532170  0.816647  0.000000  1
  Th  Th1  1  0.284477  0.467830  0.000000  1
  Th  Th2  1  0.183353  0.715523  0.000000  1
  Th  Th3  1  0.814766  0.279564  0.500000  1
  Th  Th4  1  0.464798  0.185234  0.500000  1
  Th  Th5  1  0.720436  0.535202  0.500000  1
  Ni  Ni6  1  0.801913  0.916106  0.000000  1
  Ni  Ni7  1  0.114193  0.198087  0.000000  1
  Ni  Ni8  1  0.083894  0.885807  0.000000  1
  Ni  Ni9  1  0.333333  0.666667  0.500000  1
  Ni  Ni10  1  0.939775  0.079403  0.500000  1
  Ni  Ni11  1  0.139629  0.060225  0.500000  1
  Ni  Ni12  1  0.920597  0.860371  0.500000  1
  Ni  Ni13  1  0.666667  0.333333  0.000000  1
  Ni  Ni14  1  0.562643  0.587972  0.000000  1
  Ni  Ni15  1  0.025329  0.437357  0.000000  1
  Ni  Ni16  1  0.412028  0.974671  0.000000  1
  Ni  Ni17  1  0.689351  0.761837  0.500000  1
  Ni  Ni18  1  0.072487  0.310649  0.500000  1
  Ni  Ni19  1  0.238163  0.927513  0.500000  1
  Ni  Ni20  1  0.974677  0.562962  0.500000  1
  Ni  Ni21  1  0.588285  0.025323  0.500000  1
  Ni  Ni22  1  0.437038  0.411715  0.500000  1
  Ni  Ni23  1  0.758509  0.080700  0.000000  1
  Ni  Ni24  1  0.322192  0.241491  0.000000  1
  Ni  Ni25  1  0.919300  0.677808  0.000000  1
  As  As26  1  0.482554  0.615921  0.500000  1
  As  As27  1  0.133366  0.517446  0.500000  1
  As  As28  1  0.384079  0.866634  0.500000  1
  As  As29  1  0.730616  0.964029  0.500000  1
  As  As30  1  0.233414  0.269384  0.500000  1
  As  As31  1  0.035971  0.766586  0.500000  1
  As  As32  1  0.866530  0.477600  0.000000  1
  As  As33  1  0.611071  0.133470  0.000000  1
  As  As34  1  0.522400  0.388929  0.000000  1
  As  As35  1  0.958510  0.231621  0.000000  1
  As  As36  1  0.273112  0.041490  0.000000  1
  As  As37  1  0.768379  0.726888  0.000000  1
  As  As38  1  0.000000  0.000000  0.000000  1
