# generated using pymatgen
data_YTh6NpH30
_symmetry_space_group_name_H-M   'P 1'
_cell_length_a   7.84253615
_cell_length_b   7.83276957
_cell_length_c   7.80197178
_cell_angle_alpha   109.40534197
_cell_angle_beta   109.44963262
_cell_angle_gamma   109.54876007
_symmetry_Int_Tables_number   1
_chemical_formula_structural   YTh6NpH30
_chemical_formula_sum   'Y1 Th6 Np1 H30'
_cell_volume   368.98356735
_cell_formula_units_Z   1
loop_
 _symmetry_equiv_pos_site_id
 _symmetry_equiv_pos_as_xyz
  1  'x, y, z'
loop_
 _atom_site_type_symbol
 _atom_site_label
 _atom_site_symmetry_multiplicity
 _atom_site_fract_x
 _atom_site_fract_y
 _atom_site_fract_z
 _atom_site_occupancy
  Y  Y0  1  0.499199  0.999751  0.084526  1
  Th  Th1  1  0.995063  0.079848  0.495183  1
  Th  Th2  1  0.084848  0.504621  0.001430  1
  Th  Th3  1  0.998841  0.583987  0.503846  1
  Th  Th4  1  0.583540  0.503073  0.998975  1
  Th  Th5  1  0.503359  0.998534  0.587035  1
  Th  Th6  1  0.416257  0.411043  0.412270  1
  Np  Np7  1  0.912386  0.912096  0.912410  1
  H  H8  1  0.652383  0.964470  0.370365  1
  H  H9  1  0.218375  0.318229  0.844916  1
  H  H10  1  0.186768  0.403164  0.534193  1
  H  H11  1  0.095186  0.281118  0.128560  1
  H  H12  1  0.281951  0.125307  0.091778  1
  H  H13  1  0.128603  0.092675  0.278480  1
  H  H14  1  0.471765  0.155504  0.874181  1
  H  H15  1  0.718492  0.348542  0.814091  1
  H  H16  1  0.627844  0.382142  0.252181  1
  H  H17  1  0.250670  0.624587  0.377017  1
  H  H18  1  0.753534  0.873682  0.123433  1
  H  H19  1  0.119208  0.749077  0.873651  1
  H  H20  1  0.374895  0.248639  0.624254  1
  H  H21  1  0.876495  0.125813  0.751904  1
  H  H22  1  0.781126  0.594919  0.632146  1
  H  H23  1  0.318598  0.847287  0.222299  1
  H  H24  1  0.372203  0.658200  0.967264  1
  H  H25  1  0.964448  0.368637  0.652136  1
  H  H26  1  0.536731  0.186442  0.406253  1
  H  H27  1  0.405084  0.536923  0.186782  1
  H  H28  1  0.841167  0.218296  0.314600  1
  H  H29  1  0.904036  0.687710  0.032816  1
  H  H30  1  0.813762  0.717697  0.346944  1
  H  H31  1  0.152455  0.869137  0.466473  1
  H  H32  1  0.685463  0.028499  0.905042  1
  H  H33  1  0.345346  0.816519  0.721145  1
  H  H34  1  0.871736  0.471303  0.154018  1
  H  H35  1  0.632602  0.779754  0.594454  1
  H  H36  1  0.596674  0.629835  0.778888  1
  H  H37  1  0.028909  0.902939  0.684061  1
