# generated using pymatgen
data_Li3Sm4LuPt4
_symmetry_space_group_name_H-M   'P 1'
_cell_length_a   4.12186300
_cell_length_b   7.26725095
_cell_length_c   8.74614464
_cell_angle_alpha   90.94051771
_cell_angle_beta   90.00000000
_cell_angle_gamma   90.00000000
_symmetry_Int_Tables_number   1
_chemical_formula_structural   Li3Sm4LuPt4
_chemical_formula_sum   'Li3 Sm4 Lu1 Pt4'
_cell_volume   261.95207997
_cell_formula_units_Z   1
loop_
 _symmetry_equiv_pos_site_id
 _symmetry_equiv_pos_as_xyz
  1  'x, y, z'
loop_
 _atom_site_type_symbol
 _atom_site_label
 _atom_site_symmetry_multiplicity
 _atom_site_fract_x
 _atom_site_fract_y
 _atom_site_fract_z
 _atom_site_occupancy
  Li  Li0  1  0.250000  0.131191  0.056537  1
  Li  Li1  1  0.250000  0.643340  0.430556  1
  Li  Li2  1  0.750000  0.873125  0.945511  1
  Sm  Sm3  1  0.250000  0.018964  0.693289  1
  Sm  Sm4  1  0.250000  0.551470  0.834643  1
  Sm  Sm5  1  0.750000  0.951137  0.313799  1
  Sm  Sm6  1  0.750000  0.464143  0.174930  1
  Lu  Lu7  1  0.750000  0.370529  0.559666  1
  Pt  Pt8  1  0.250000  0.242002  0.380890  1
  Pt  Pt9  1  0.250000  0.754553  0.119632  1
  Pt  Pt10  1  0.750000  0.744543  0.618426  1
  Pt  Pt11  1  0.750000  0.255001  0.872119  1
