# generated using pymatgen
data_Rb5Yb(MoH9)3
_symmetry_space_group_name_H-M   'P 1'
_cell_length_a   10.04580158
_cell_length_b   9.83192641
_cell_length_c   5.67893600
_cell_angle_alpha   90.00000000
_cell_angle_beta   90.00000000
_cell_angle_gamma   119.29821289
_symmetry_Int_Tables_number   1
_chemical_formula_structural   Rb5Yb(MoH9)3
_chemical_formula_sum   'Rb5 Yb1 Mo3 H27'
_cell_volume   489.15756582
_cell_formula_units_Z   1
loop_
 _symmetry_equiv_pos_site_id
 _symmetry_equiv_pos_as_xyz
  1  'x, y, z'
loop_
 _atom_site_type_symbol
 _atom_site_label
 _atom_site_symmetry_multiplicity
 _atom_site_fract_x
 _atom_site_fract_y
 _atom_site_fract_z
 _atom_site_occupancy
  Rb  Rb0  1  0.748948  0.770947  0.500000  1
  Rb  Rb1  1  0.251052  0.021999  0.500000  1
  Rb  Rb2  1  0.000000  0.575507  0.000000  1
  Rb  Rb3  1  0.384170  0.391399  0.000000  1
  Rb  Rb4  1  0.615830  0.007229  0.000000  1
  Yb  Yb5  1  0.000000  0.252413  0.500000  1
  Mo  Mo6  1  0.689835  0.309245  0.500000  1
  Mo  Mo7  1  0.310165  0.619412  0.500000  1
  Mo  Mo8  1  0.000000  0.039206  0.000000  1
  H  H9  1  0.818610  0.296513  0.700659  1
  H  H10  1  0.660223  0.442841  0.684059  1
  H  H11  1  0.560474  0.206035  0.727841  1
  H  H12  1  0.181390  0.477904  0.299341  1
  H  H13  1  0.560474  0.206035  0.272159  1
  H  H14  1  0.818610  0.296513  0.299341  1
  H  H15  1  0.660223  0.442841  0.315941  1
  H  H16  1  0.339777  0.782619  0.684059  1
  H  H17  1  0.439526  0.645562  0.727841  1
  H  H18  1  0.173246  0.040644  0.000000  1
  H  H19  1  0.826754  0.867398  0.000000  1
  H  H20  1  0.000000  0.218757  0.000000  1
  H  H21  1  0.879490  0.040449  0.229067  1
  H  H22  1  0.120510  0.160958  0.770933  1
  H  H23  1  0.000000  0.904258  0.794976  1
  H  H24  1  0.000000  0.904258  0.205024  1
  H  H25  1  0.120510  0.160958  0.229067  1
  H  H26  1  0.879490  0.040449  0.770933  1
  H  H27  1  0.141206  0.628386  0.500000  1
  H  H28  1  0.367166  0.822659  0.500000  1
  H  H29  1  0.344409  0.461129  0.500000  1
  H  H30  1  0.632834  0.455494  0.500000  1
  H  H31  1  0.858794  0.487180  0.500000  1
  H  H32  1  0.655591  0.116719  0.500000  1
  H  H33  1  0.181390  0.477904  0.700659  1
  H  H34  1  0.339777  0.782619  0.315941  1
  H  H35  1  0.439526  0.645562  0.272159  1
