# generated using pymatgen
data_Zr6Zn18Pd5C
_symmetry_space_group_name_H-M   'P 1'
_cell_length_a   8.75321477
_cell_length_b   8.75321453
_cell_length_c   8.75321415
_cell_angle_alpha   59.72367049
_cell_angle_beta   59.72367170
_cell_angle_gamma   59.72366753
_symmetry_Int_Tables_number   1
_chemical_formula_structural   Zr6Zn18Pd5C
_chemical_formula_sum   'Zr6 Zn18 Pd5 C1'
_cell_volume   471.25236033
_cell_formula_units_Z   1
loop_
 _symmetry_equiv_pos_site_id
 _symmetry_equiv_pos_as_xyz
  1  'x, y, z'
loop_
 _atom_site_type_symbol
 _atom_site_label
 _atom_site_symmetry_multiplicity
 _atom_site_fract_x
 _atom_site_fract_y
 _atom_site_fract_z
 _atom_site_occupancy
  Zr  Zr0  1  0.691158  0.310998  0.310998  1
  Zr  Zr1  1  0.308842  0.689002  0.689002  1
  Zr  Zr2  1  0.310998  0.691158  0.310998  1
  Zr  Zr3  1  0.689002  0.308842  0.689002  1
  Zr  Zr4  1  0.310998  0.310998  0.691158  1
  Zr  Zr5  1  0.689002  0.689002  0.308842  1
  Zn  Zn6  1  0.118499  0.118499  0.641396  1
  Zn  Zn7  1  0.118499  0.641396  0.118499  1
  Zn  Zn8  1  0.881501  0.881501  0.358604  1
  Zn  Zn9  1  0.881501  0.358604  0.881501  1
  Zn  Zn10  1  0.641396  0.118499  0.118499  1
  Zn  Zn11  1  0.358604  0.881501  0.881501  1
  Zn  Zn12  1  0.500000  0.000000  0.000000  1
  Zn  Zn13  1  0.000000  0.500000  0.000000  1
  Zn  Zn14  1  0.000000  0.000000  0.500000  1
  Zn  Zn15  1  0.332927  0.332927  0.332927  1
  Zn  Zn16  1  0.667073  0.667073  0.667073  1
  Zn  Zn17  1  0.329651  0.329651  0.005029  1
  Zn  Zn18  1  0.329651  0.005029  0.329651  1
  Zn  Zn19  1  0.670349  0.670349  0.994971  1
  Zn  Zn20  1  0.670349  0.994971  0.670349  1
  Zn  Zn21  1  0.005029  0.329651  0.329651  1
  Zn  Zn22  1  0.994971  0.670349  0.670349  1
  Zn  Zn23  1  0.000000  0.000000  0.000000  1
  Pd  Pd24  1  0.117666  0.117666  0.117666  1
  Pd  Pd25  1  0.882334  0.882334  0.882334  1
  Pd  Pd26  1  0.000000  0.500000  0.500000  1
  Pd  Pd27  1  0.500000  0.000000  0.500000  1
  Pd  Pd28  1  0.500000  0.500000  0.000000  1
  C  C29  1  0.500000  0.500000  0.500000  1
