# generated using pymatgen
data_Th3Zn3Cu2Os
_symmetry_space_group_name_H-M   'P 1'
_cell_length_a   7.31224800
_cell_length_b   7.31224754
_cell_length_c   3.97945300
_cell_angle_alpha   90.00000000
_cell_angle_beta   90.00000000
_cell_angle_gamma   120.00000206
_symmetry_Int_Tables_number   1
_chemical_formula_structural   Th3Zn3Cu2Os
_chemical_formula_sum   'Th3 Zn3 Cu2 Os1'
_cell_volume   184.27049398
_cell_formula_units_Z   1
loop_
 _symmetry_equiv_pos_site_id
 _symmetry_equiv_pos_as_xyz
  1  'x, y, z'
loop_
 _atom_site_type_symbol
 _atom_site_label
 _atom_site_symmetry_multiplicity
 _atom_site_fract_x
 _atom_site_fract_y
 _atom_site_fract_z
 _atom_site_occupancy
  Th  Th0  1  0.579877  0.990993  0.500000  1
  Th  Th1  1  0.411117  0.420123  0.500000  1
  Th  Th2  1  0.009007  0.588883  0.500000  1
  Zn  Zn3  1  0.766171  0.763231  0.000000  1
  Zn  Zn4  1  0.997058  0.233829  0.000000  1
  Zn  Zn5  1  0.236769  0.002942  0.000000  1
  Cu  Cu6  1  0.000000  0.000000  0.500000  1
  Cu  Cu7  1  0.666667  0.333333  0.000000  1
  Os  Os8  1  0.333333  0.666667  0.000000  1
