# generated using pymatgen
data_Ho2ErSi3Ru2
_symmetry_space_group_name_H-M   'P 1'
_cell_length_a   5.71386184
_cell_length_b   5.71386263
_cell_length_c   13.72336775
_cell_angle_alpha   89.96471929
_cell_angle_beta   90.03528106
_cell_angle_gamma   137.24260962
_symmetry_Int_Tables_number   1
_chemical_formula_structural   Ho2ErSi3Ru2
_chemical_formula_sum   'Ho4 Er2 Si6 Ru4'
_cell_volume   304.17466546
_cell_formula_units_Z   2
loop_
 _symmetry_equiv_pos_site_id
 _symmetry_equiv_pos_as_xyz
  1  'x, y, z'
loop_
 _atom_site_type_symbol
 _atom_site_label
 _atom_site_symmetry_multiplicity
 _atom_site_fract_x
 _atom_site_fract_y
 _atom_site_fract_z
 _atom_site_occupancy
  Ho  Ho0  1  0.640710  0.359290  0.250078  1
  Ho  Ho1  1  0.359290  0.640710  0.749922  1
  Ho  Ho2  1  0.922857  0.077143  0.114450  1
  Ho  Ho3  1  0.077143  0.922857  0.885550  1
  Er  Er4  1  0.077307  0.922693  0.614202  1
  Er  Er5  1  0.922693  0.077307  0.385798  1
  Si  Si6  1  0.329083  0.670917  0.250152  1
  Si  Si7  1  0.670917  0.329083  0.749848  1
  Si  Si8  1  0.616819  0.383181  0.038434  1
  Si  Si9  1  0.383181  0.616819  0.961566  1
  Si  Si10  1  0.383354  0.616646  0.538328  1
  Si  Si11  1  0.616646  0.383354  0.461672  1
  Ru  Ru12  1  0.787221  0.212779  0.581447  1
  Ru  Ru13  1  0.212779  0.787221  0.418553  1
  Ru  Ru14  1  0.212923  0.787077  0.081517  1
  Ru  Ru15  1  0.787077  0.212923  0.918483  1
