# generated using pymatgen
data_Dy4ErPt9
_symmetry_space_group_name_H-M   'P 1'
_cell_length_a   9.76389600
_cell_length_b   9.76389600
_cell_length_c   5.77546300
_cell_angle_alpha   90.00000000
_cell_angle_beta   90.00000000
_cell_angle_gamma   90.00000000
_symmetry_Int_Tables_number   1
_chemical_formula_structural   Dy4ErPt9
_chemical_formula_sum   'Dy8 Er2 Pt18'
_cell_volume   550.59605543
_cell_formula_units_Z   2
loop_
 _symmetry_equiv_pos_site_id
 _symmetry_equiv_pos_as_xyz
  1  'x, y, z'
loop_
 _atom_site_type_symbol
 _atom_site_label
 _atom_site_symmetry_multiplicity
 _atom_site_fract_x
 _atom_site_fract_y
 _atom_site_fract_z
 _atom_site_occupancy
  Dy  Dy0  1  0.452542  0.808828  0.000000  1
  Dy  Dy1  1  0.547458  0.191172  0.000000  1
  Dy  Dy2  1  0.191172  0.547458  0.000000  1
  Dy  Dy3  1  0.808828  0.452542  0.000000  1
  Dy  Dy4  1  0.308828  0.047458  0.500000  1
  Dy  Dy5  1  0.691172  0.952542  0.500000  1
  Dy  Dy6  1  0.952542  0.691172  0.500000  1
  Dy  Dy7  1  0.047458  0.308828  0.500000  1
  Er  Er8  1  0.500000  0.500000  0.500000  1
  Er  Er9  1  0.000000  0.000000  0.000000  1
  Pt  Pt10  1  0.191609  0.808391  0.250637  1
  Pt  Pt11  1  0.808391  0.191609  0.749363  1
  Pt  Pt12  1  0.808391  0.191609  0.250637  1
  Pt  Pt13  1  0.191609  0.808391  0.749363  1
  Pt  Pt14  1  0.440691  0.781182  0.500000  1
  Pt  Pt15  1  0.559309  0.218818  0.500000  1
  Pt  Pt16  1  0.218818  0.559309  0.500000  1
  Pt  Pt17  1  0.781182  0.440691  0.500000  1
  Pt  Pt18  1  0.308391  0.308391  0.249363  1
  Pt  Pt19  1  0.691609  0.691609  0.750637  1
  Pt  Pt20  1  0.691609  0.691609  0.249363  1
  Pt  Pt21  1  0.308391  0.308391  0.750637  1
  Pt  Pt22  1  0.281182  0.059309  0.000000  1
  Pt  Pt23  1  0.718818  0.940691  0.000000  1
  Pt  Pt24  1  0.940691  0.718818  0.000000  1
  Pt  Pt25  1  0.059309  0.281182  0.000000  1
  Pt  Pt26  1  0.000000  0.000000  0.500000  1
  Pt  Pt27  1  0.500000  0.500000  0.000000  1
