# generated using pymatgen
data_Dy16Cd4CoOs3
_symmetry_space_group_name_H-M   'P 1'
_cell_length_a   9.54641961
_cell_length_b   9.65641853
_cell_length_c   9.65179968
_cell_angle_alpha   59.94389491
_cell_angle_beta   59.57240804
_cell_angle_gamma   59.58134946
_symmetry_Int_Tables_number   1
_chemical_formula_structural   Dy16Cd4CoOs3
_chemical_formula_sum   'Dy16 Cd4 Co1 Os3'
_cell_volume   624.82798914
_cell_formula_units_Z   1
loop_
 _symmetry_equiv_pos_site_id
 _symmetry_equiv_pos_as_xyz
  1  'x, y, z'
loop_
 _atom_site_type_symbol
 _atom_site_label
 _atom_site_symmetry_multiplicity
 _atom_site_fract_x
 _atom_site_fract_y
 _atom_site_fract_z
 _atom_site_occupancy
  Dy  Dy0  1  0.352875  0.344026  0.344221  1
  Dy  Dy1  1  0.352551  0.343404  0.960923  1
  Dy  Dy2  1  0.352839  0.959706  0.343952  1
  Dy  Dy3  1  0.961341  0.346171  0.346279  1
  Dy  Dy4  1  0.806811  0.188860  0.188522  1
  Dy  Dy5  1  0.186188  0.810219  0.810283  1
  Dy  Dy6  1  0.187318  0.810522  0.191312  1
  Dy  Dy7  1  0.806337  0.189713  0.814251  1
  Dy  Dy8  1  0.186816  0.192167  0.810341  1
  Dy  Dy9  1  0.806429  0.814811  0.189183  1
  Dy  Dy10  1  0.940851  0.558811  0.558331  1
  Dy  Dy11  1  0.556860  0.939280  0.939345  1
  Dy  Dy12  1  0.556206  0.939243  0.565537  1
  Dy  Dy13  1  0.941061  0.558261  0.942728  1
  Dy  Dy14  1  0.556667  0.565129  0.939250  1
  Dy  Dy15  1  0.940984  0.942687  0.558139  1
  Cd  Cd16  1  0.579163  0.580832  0.580365  1
  Cd  Cd17  1  0.579290  0.580746  0.258305  1
  Cd  Cd18  1  0.579199  0.258804  0.580329  1
  Cd  Cd19  1  0.257869  0.580562  0.580093  1
  Co  Co20  1  0.583210  0.139067  0.140037  1
  Os  Os21  1  0.142143  0.138030  0.138743  1
  Os  Os22  1  0.143797  0.138140  0.580735  1
  Os  Os23  1  0.143199  0.580811  0.138797  1
