# generated using pymatgen
data_TlMo2AsO9
_symmetry_space_group_name_H-M   'P 1'
_cell_length_a   5.06527300
_cell_length_b   9.37930300
_cell_length_c   17.14962200
_cell_angle_alpha   90.00000000
_cell_angle_beta   90.00000000
_cell_angle_gamma   90.00000000
_symmetry_Int_Tables_number   1
_chemical_formula_structural   TlMo2AsO9
_chemical_formula_sum   'Tl4 Mo8 As4 O36'
_cell_volume   814.75676540
_cell_formula_units_Z   4
loop_
 _symmetry_equiv_pos_site_id
 _symmetry_equiv_pos_as_xyz
  1  'x, y, z'
loop_
 _atom_site_type_symbol
 _atom_site_label
 _atom_site_symmetry_multiplicity
 _atom_site_fract_x
 _atom_site_fract_y
 _atom_site_fract_z
 _atom_site_occupancy
  Tl  Tl0  1  0.289851  0.050810  0.092869  1
  Tl  Tl1  1  0.210149  0.949190  0.592869  1
  Tl  Tl2  1  0.789851  0.449190  0.907131  1
  Tl  Tl3  1  0.710149  0.550810  0.407131  1
  Mo  Mo4  1  0.342401  0.637559  0.054550  1
  Mo  Mo5  1  0.157599  0.362441  0.554550  1
  Mo  Mo6  1  0.842401  0.862441  0.945450  1
  Mo  Mo7  1  0.657599  0.137559  0.445450  1
  Mo  Mo8  1  0.870940  0.431647  0.165187  1
  Mo  Mo9  1  0.629060  0.568353  0.665187  1
  Mo  Mo10  1  0.370940  0.068353  0.834813  1
  Mo  Mo11  1  0.129060  0.931647  0.334813  1
  As  As12  1  0.345904  0.269389  0.275671  1
  As  As13  1  0.154096  0.730611  0.775671  1
  As  As14  1  0.845904  0.230611  0.724329  1
  As  As15  1  0.654096  0.769389  0.224329  1
  O  O16  1  0.128595  0.783149  0.021925  1
  O  O17  1  0.371405  0.216851  0.521925  1
  O  O18  1  0.628595  0.716851  0.978075  1
  O  O19  1  0.871405  0.283149  0.478075  1
  O  O20  1  0.659773  0.515028  0.092251  1
  O  O21  1  0.840227  0.484972  0.592251  1
  O  O22  1  0.159773  0.984972  0.907749  1
  O  O23  1  0.340227  0.015028  0.407749  1
  O  O24  1  0.151118  0.574816  0.140795  1
  O  O25  1  0.348882  0.425184  0.640795  1
  O  O26  1  0.651118  0.925184  0.859205  1
  O  O27  1  0.848882  0.074816  0.359205  1
  O  O28  1  0.085298  0.386804  0.264942  1
  O  O29  1  0.414702  0.613196  0.764942  1
  O  O30  1  0.585298  0.113196  0.735058  1
  O  O31  1  0.914702  0.886804  0.235058  1
  O  O32  1  0.583230  0.310830  0.205845  1
  O  O33  1  0.916770  0.689170  0.705845  1
  O  O34  1  0.083230  0.189170  0.794155  1
  O  O35  1  0.416770  0.810830  0.294155  1
  O  O36  1  0.262986  0.503275  0.988878  1
  O  O37  1  0.237014  0.496725  0.488878  1
  O  O38  1  0.762986  0.996725  0.011122  1
  O  O39  1  0.737014  0.003275  0.511122  1
  O  O40  1  0.471750  0.293278  0.366843  1
  O  O41  1  0.028250  0.706722  0.866843  1
  O  O42  1  0.971750  0.206722  0.633157  1
  O  O43  1  0.528250  0.793278  0.133157  1
  O  O44  1  0.261889  0.097782  0.253342  1
  O  O45  1  0.238111  0.902218  0.753342  1
  O  O46  1  0.761889  0.402218  0.746658  1
  O  O47  1  0.738111  0.597782  0.246658  1
  O  O48  1  0.015056  0.300002  0.108884  1
  O  O49  1  0.484944  0.699998  0.608884  1
  O  O50  1  0.515056  0.199998  0.891116  1
  O  O51  1  0.984944  0.800002  0.391116  1
