# generated using pymatgen
data_Sm3Ho2Pb3S
_symmetry_space_group_name_H-M   'P 1'
_cell_length_a   9.25273300
_cell_length_b   9.25273426
_cell_length_c   6.79032200
_cell_angle_alpha   90.00000000
_cell_angle_beta   90.00000000
_cell_angle_gamma   119.99999907
_symmetry_Int_Tables_number   1
_chemical_formula_structural   Sm3Ho2Pb3S
_chemical_formula_sum   'Sm6 Ho4 Pb6 S2'
_cell_volume   503.45554046
_cell_formula_units_Z   2
loop_
 _symmetry_equiv_pos_site_id
 _symmetry_equiv_pos_as_xyz
  1  'x, y, z'
loop_
 _atom_site_type_symbol
 _atom_site_label
 _atom_site_symmetry_multiplicity
 _atom_site_fract_x
 _atom_site_fract_y
 _atom_site_fract_z
 _atom_site_occupancy
  Sm  Sm0  1  0.755524  0.755524  0.750000  1
  Sm  Sm1  1  0.244476  0.000000  0.750000  1
  Sm  Sm2  1  0.000000  0.244476  0.750000  1
  Sm  Sm3  1  0.244476  0.244476  0.250000  1
  Sm  Sm4  1  0.755524  0.000000  0.250000  1
  Sm  Sm5  1  0.000000  0.755524  0.250000  1
  Ho  Ho6  1  0.666667  0.333333  0.000000  1
  Ho  Ho7  1  0.333333  0.666667  0.000000  1
  Ho  Ho8  1  0.333333  0.666667  0.500000  1
  Ho  Ho9  1  0.666667  0.333333  0.500000  1
  Pb  Pb10  1  0.398902  0.398902  0.750000  1
  Pb  Pb11  1  0.601098  0.000000  0.750000  1
  Pb  Pb12  1  0.000000  0.601098  0.750000  1
  Pb  Pb13  1  0.601098  0.601098  0.250000  1
  Pb  Pb14  1  0.398902  0.000000  0.250000  1
  Pb  Pb15  1  0.000000  0.398902  0.250000  1
  S  S16  1  0.000000  0.000000  0.000000  1
  S  S17  1  0.000000  0.000000  0.500000  1
