# generated using pymatgen
data_Hf18Re7MoRhS
_symmetry_space_group_name_H-M   'P 1'
_cell_length_a   8.62398432
_cell_length_b   8.62398435
_cell_length_c   8.57747200
_cell_angle_alpha   90.00000000
_cell_angle_beta   90.00000000
_cell_angle_gamma   120.05218701
_symmetry_Int_Tables_number   1
_chemical_formula_structural   Hf18Re7MoRhS
_chemical_formula_sum   'Hf18 Re7 Mo1 Rh1 S1'
_cell_volume   552.17563054
_cell_formula_units_Z   1
loop_
 _symmetry_equiv_pos_site_id
 _symmetry_equiv_pos_as_xyz
  1  'x, y, z'
loop_
 _atom_site_type_symbol
 _atom_site_label
 _atom_site_symmetry_multiplicity
 _atom_site_fract_x
 _atom_site_fract_y
 _atom_site_fract_z
 _atom_site_occupancy
  Hf  Hf0  1  0.195392  0.804608  0.445093  1
  Hf  Hf1  1  0.195415  0.390670  0.445478  1
  Hf  Hf2  1  0.609330  0.804585  0.445478  1
  Hf  Hf3  1  0.805176  0.194824  0.550599  1
  Hf  Hf4  1  0.804206  0.609612  0.549972  1
  Hf  Hf5  1  0.390388  0.195794  0.549972  1
  Hf  Hf6  1  0.805176  0.194824  0.949401  1
  Hf  Hf7  1  0.804206  0.609612  0.950028  1
  Hf  Hf8  1  0.390388  0.195794  0.950028  1
  Hf  Hf9  1  0.195392  0.804608  0.054907  1
  Hf  Hf10  1  0.195415  0.390670  0.054522  1
  Hf  Hf11  1  0.609330  0.804585  0.054522  1
  Hf  Hf12  1  0.542731  0.457269  0.250000  1
  Hf  Hf13  1  0.543321  0.085805  0.250000  1
  Hf  Hf14  1  0.914195  0.456679  0.250000  1
  Hf  Hf15  1  0.455618  0.544382  0.750000  1
  Hf  Hf16  1  0.456424  0.911134  0.750000  1
  Hf  Hf17  1  0.088866  0.543576  0.750000  1
  Re  Re18  1  0.889135  0.110865  0.250000  1
  Re  Re19  1  0.888998  0.778218  0.250000  1
  Re  Re20  1  0.221782  0.111002  0.250000  1
  Re  Re21  1  0.110783  0.221527  0.750000  1
  Re  Re22  1  0.778473  0.889217  0.750000  1
  Re  Re23  1  0.999798  0.000202  0.499410  1
  Re  Re24  1  0.999798  0.000202  0.000590  1
  Mo  Mo25  1  0.109668  0.890332  0.750000  1
  Rh  Rh26  1  0.333532  0.666468  0.250000  1
  S  S27  1  0.667058  0.332942  0.750000  1
