# generated using pymatgen
data_Ho4TmLu15(CoSb2)4
_symmetry_space_group_name_H-M   'P 1'
_cell_length_a   7.71130523
_cell_length_b   8.72699700
_cell_length_c   11.98588236
_cell_angle_alpha   90.00000000
_cell_angle_beta   90.02807034
_cell_angle_gamma   90.00000000
_symmetry_Int_Tables_number   1
_chemical_formula_structural   Ho4TmLu15(CoSb2)4
_chemical_formula_sum   'Ho4 Tm1 Lu15 Co4 Sb8'
_cell_volume   806.60828632
_cell_formula_units_Z   1
loop_
 _symmetry_equiv_pos_site_id
 _symmetry_equiv_pos_as_xyz
  1  'x, y, z'
loop_
 _atom_site_type_symbol
 _atom_site_label
 _atom_site_symmetry_multiplicity
 _atom_site_fract_x
 _atom_site_fract_y
 _atom_site_fract_z
 _atom_site_occupancy
  Ho  Ho0  1  0.622946  0.750000  0.308002  1
  Ho  Ho1  1  0.122750  0.250000  0.191995  1
  Ho  Ho2  1  0.377194  0.250000  0.691993  1
  Ho  Ho3  1  0.877309  0.750000  0.808047  1
  Tm  Tm4  1  0.156635  0.750000  0.204250  1
  Lu  Lu5  1  0.656561  0.250000  0.296067  1
  Lu  Lu6  1  0.843420  0.250000  0.796055  1
  Lu  Lu7  1  0.343488  0.750000  0.703933  1
  Lu  Lu8  1  0.448123  0.750000  0.997561  1
  Lu  Lu9  1  0.947803  0.250000  0.502305  1
  Lu  Lu10  1  0.552290  0.250000  0.002259  1
  Lu  Lu11  1  0.052202  0.750000  0.497855  1
  Lu  Lu12  1  0.824080  0.962482  0.065276  1
  Lu  Lu13  1  0.324275  0.037863  0.434677  1
  Lu  Lu14  1  0.175740  0.462182  0.934563  1
  Lu  Lu15  1  0.675728  0.537700  0.565386  1
  Lu  Lu16  1  0.175740  0.037818  0.934563  1
  Lu  Lu17  1  0.675728  0.962300  0.565386  1
  Lu  Lu18  1  0.824080  0.537518  0.065276  1
  Lu  Lu19  1  0.324275  0.462137  0.434677  1
  Co  Co20  1  0.430519  0.750000  0.491179  1
  Co  Co21  1  0.930532  0.250000  0.008797  1
  Co  Co22  1  0.569377  0.250000  0.508797  1
  Co  Co23  1  0.069283  0.750000  0.990918  1
  Sb  Sb24  1  0.931591  0.991892  0.328640  1
  Sb  Sb25  1  0.432207  0.008640  0.171435  1
  Sb  Sb26  1  0.068096  0.491613  0.671531  1
  Sb  Sb27  1  0.568068  0.508397  0.828486  1
  Sb  Sb28  1  0.068096  0.008387  0.671531  1
  Sb  Sb29  1  0.568068  0.991603  0.828486  1
  Sb  Sb30  1  0.931591  0.508108  0.328640  1
  Sb  Sb31  1  0.432207  0.491360  0.171435  1
