# generated using pymatgen
data_Yb3(EuPd)2
_symmetry_space_group_name_H-M   'P 1'
_cell_length_a   8.89501523
_cell_length_b   8.89501552
_cell_length_c   7.72535619
_cell_angle_alpha   83.01830044
_cell_angle_beta   83.01829909
_cell_angle_gamma   43.70378139
_symmetry_Int_Tables_number   1
_chemical_formula_structural   Yb3(EuPd)2
_chemical_formula_sum   'Yb6 Eu4 Pd4'
_cell_volume   418.68695755
_cell_formula_units_Z   2
loop_
 _symmetry_equiv_pos_site_id
 _symmetry_equiv_pos_as_xyz
  1  'x, y, z'
loop_
 _atom_site_type_symbol
 _atom_site_label
 _atom_site_symmetry_multiplicity
 _atom_site_fract_x
 _atom_site_fract_y
 _atom_site_fract_z
 _atom_site_occupancy
  Yb  Yb0  1  0.367986  0.198522  0.818217  1
  Yb  Yb1  1  0.801478  0.632014  0.681783  1
  Yb  Yb2  1  0.632014  0.801478  0.181783  1
  Yb  Yb3  1  0.198522  0.367986  0.318217  1
  Yb  Yb4  1  0.580363  0.419637  0.750000  1
  Yb  Yb5  1  0.419637  0.580363  0.250000  1
  Eu  Eu6  1  0.022247  0.793527  0.922472  1
  Eu  Eu7  1  0.206473  0.977753  0.577528  1
  Eu  Eu8  1  0.977753  0.206473  0.077528  1
  Eu  Eu9  1  0.793527  0.022247  0.422472  1
  Pd  Pd10  1  0.196928  0.577952  0.578047  1
  Pd  Pd11  1  0.422048  0.803072  0.921953  1
  Pd  Pd12  1  0.803072  0.422048  0.421953  1
  Pd  Pd13  1  0.577952  0.196929  0.078047  1
