# generated using pymatgen
data_ZrPaBr6
_symmetry_space_group_name_H-M   'P 1'
_cell_length_a   7.68207100
_cell_length_b   7.68207070
_cell_length_c   6.61450100
_cell_angle_alpha   90.00000000
_cell_angle_beta   90.00000000
_cell_angle_gamma   120.00000562
_symmetry_Int_Tables_number   1
_chemical_formula_structural   ZrPaBr6
_chemical_formula_sum   'Zr1 Pa1 Br6'
_cell_volume   338.05262285
_cell_formula_units_Z   1
loop_
 _symmetry_equiv_pos_site_id
 _symmetry_equiv_pos_as_xyz
  1  'x, y, z'
loop_
 _atom_site_type_symbol
 _atom_site_label
 _atom_site_symmetry_multiplicity
 _atom_site_fract_x
 _atom_site_fract_y
 _atom_site_fract_z
 _atom_site_occupancy
  Zr  Zr0  1  0.000000  0.000000  0.000000  1
  Pa  Pa1  1  0.000000  0.000000  0.500000  1
  Br  Br2  1  0.705384  0.000000  0.765121  1
  Br  Br3  1  0.705384  0.705384  0.234879  1
  Br  Br4  1  0.294616  0.000000  0.234879  1
  Br  Br5  1  0.294616  0.294616  0.765121  1
  Br  Br6  1  0.000000  0.705384  0.765121  1
  Br  Br7  1  0.000000  0.294616  0.234879  1
