# generated using pymatgen
data_PaMn(SeO5)2
_symmetry_space_group_name_H-M   'P 1'
_cell_length_a   6.13561931
_cell_length_b   5.34914946
_cell_length_c   7.42395900
_cell_angle_alpha   79.26359456
_cell_angle_beta   70.58681474
_cell_angle_gamma   103.27668020
_symmetry_Int_Tables_number   1
_chemical_formula_structural   PaMn(SeO5)2
_chemical_formula_sum   'Pa1 Mn1 Se2 O10'
_cell_volume   214.31279481
_cell_formula_units_Z   1
loop_
 _symmetry_equiv_pos_site_id
 _symmetry_equiv_pos_as_xyz
  1  'x, y, z'
loop_
 _atom_site_type_symbol
 _atom_site_label
 _atom_site_symmetry_multiplicity
 _atom_site_fract_x
 _atom_site_fract_y
 _atom_site_fract_z
 _atom_site_occupancy
  Pa  Pa0  1  0.000000  0.000000  0.500000  1
  Mn  Mn1  1  0.000000  0.000000  0.000000  1
  Se  Se2  1  0.320087  0.674214  0.757728  1
  Se  Se3  1  0.679913  0.325786  0.242272  1
  O  O4  1  0.220548  0.394500  0.940862  1
  O  O5  1  0.779452  0.605500  0.059138  1
  O  O6  1  0.607730  0.718842  0.607626  1
  O  O7  1  0.392270  0.281158  0.392374  1
  O  O8  1  0.945295  0.066327  0.760545  1
  O  O9  1  0.054705  0.933673  0.239455  1
  O  O10  1  0.321430  0.934736  0.851791  1
  O  O11  1  0.678570  0.065264  0.148209  1
  O  O12  1  0.159861  0.670487  0.611568  1
  O  O13  1  0.840139  0.329513  0.388432  1
