# generated using pymatgen
data_CeTh2Sn3IrRh2
_symmetry_space_group_name_H-M   'P 1'
_cell_length_a   7.52573209
_cell_length_b   7.55677653
_cell_length_c   4.12326200
_cell_angle_alpha   90.00000000
_cell_angle_beta   90.00000000
_cell_angle_gamma   119.84640546
_symmetry_Int_Tables_number   1
_chemical_formula_structural   CeTh2Sn3IrRh2
_chemical_formula_sum   'Ce1 Th2 Sn3 Ir1 Rh2'
_cell_volume   203.38877690
_cell_formula_units_Z   1
loop_
 _symmetry_equiv_pos_site_id
 _symmetry_equiv_pos_as_xyz
  1  'x, y, z'
loop_
 _atom_site_type_symbol
 _atom_site_label
 _atom_site_symmetry_multiplicity
 _atom_site_fract_x
 _atom_site_fract_y
 _atom_site_fract_z
 _atom_site_occupancy
  Ce  Ce0  1  0.413919  0.001021  0.000000  1
  Th  Th1  1  0.999437  0.413835  0.000000  1
  Th  Th2  1  0.586473  0.585218  0.000000  1
  Sn  Sn3  1  0.250662  0.246238  0.500000  1
  Sn  Sn4  1  0.005488  0.754339  0.500000  1
  Sn  Sn5  1  0.743828  0.999455  0.500000  1
  Ir  Ir6  1  0.671827  0.338652  0.500000  1
  Rh  Rh7  1  0.333188  0.661343  0.500000  1
  Rh  Rh8  1  0.995178  0.999898  0.000000  1
