# generated using pymatgen
data_Ce2Dy5Ho(AlRu)8
_symmetry_space_group_name_H-M   'P 1'
_cell_length_a   4.02996000
_cell_length_b   7.13498547
_cell_length_c   15.95683081
_cell_angle_alpha   90.75493770
_cell_angle_beta   90.00000000
_cell_angle_gamma   90.00000000
_symmetry_Int_Tables_number   1
_chemical_formula_structural   Ce2Dy5Ho(AlRu)8
_chemical_formula_sum   'Ce2 Dy5 Ho1 Al8 Ru8'
_cell_volume   458.77819518
_cell_formula_units_Z   1
loop_
 _symmetry_equiv_pos_site_id
 _symmetry_equiv_pos_as_xyz
  1  'x, y, z'
loop_
 _atom_site_type_symbol
 _atom_site_label
 _atom_site_symmetry_multiplicity
 _atom_site_fract_x
 _atom_site_fract_y
 _atom_site_fract_z
 _atom_site_occupancy
  Ce  Ce0  1  0.750000  0.328783  0.064115  1
  Ce  Ce1  1  0.250000  0.538108  0.719511  1
  Dy  Dy2  1  0.250000  0.160672  0.561022  1
  Dy  Dy3  1  0.750000  0.840563  0.437730  1
  Dy  Dy4  1  0.750000  0.466276  0.282426  1
  Dy  Dy5  1  0.250000  0.661776  0.938263  1
  Dy  Dy6  1  0.250000  0.040583  0.781620  1
  Ho  Ho7  1  0.750000  0.960004  0.219651  1
  Al  Al8  1  0.750000  0.501954  0.561639  1
  Al  Al9  1  0.750000  0.363444  0.852791  1
  Al  Al10  1  0.750000  0.993345  0.934988  1
  Al  Al11  1  0.750000  0.871840  0.650980  1
  Al  Al12  1  0.250000  0.499258  0.435607  1
  Al  Al13  1  0.250000  0.990153  0.065198  1
  Al  Al14  1  0.250000  0.638868  0.153047  1
  Al  Al15  1  0.250000  0.131263  0.346973  1
  Ru  Ru16  1  0.750000  0.736801  0.807668  1
  Ru  Ru17  1  0.250000  0.234149  0.940581  1
  Ru  Ru18  1  0.750000  0.262039  0.433881  1
  Ru  Ru19  1  0.250000  0.753789  0.314873  1
  Ru  Ru20  1  0.750000  0.762825  0.065169  1
  Ru  Ru21  1  0.750000  0.262107  0.686406  1
  Ru  Ru22  1  0.250000  0.265558  0.179224  1
  Ru  Ru23  1  0.250000  0.735843  0.566639  1
