# generated using pymatgen
data_ErZr2Fe8Os
_symmetry_space_group_name_H-M   'P 1'
_cell_length_a   8.63673637
_cell_length_b   8.63673604
_cell_length_c   8.63673555
_cell_angle_alpha   33.60431325
_cell_angle_beta   33.60430497
_cell_angle_gamma   33.60430315
_symmetry_Int_Tables_number   1
_chemical_formula_structural   ErZr2Fe8Os
_chemical_formula_sum   'Er1 Zr2 Fe8 Os1'
_cell_volume   175.78781338
_cell_formula_units_Z   1
loop_
 _symmetry_equiv_pos_site_id
 _symmetry_equiv_pos_as_xyz
  1  'x, y, z'
loop_
 _atom_site_type_symbol
 _atom_site_label
 _atom_site_symmetry_multiplicity
 _atom_site_fract_x
 _atom_site_fract_y
 _atom_site_fract_z
 _atom_site_occupancy
  Er  Er0  1  0.000000  0.000000  0.000000  1
  Zr  Zr1  1  0.142235  0.142235  0.142235  1
  Zr  Zr2  1  0.857765  0.857765  0.857765  1
  Fe  Fe3  1  0.415400  0.415400  0.922209  1
  Fe  Fe4  1  0.922209  0.415400  0.415400  1
  Fe  Fe5  1  0.584600  0.077791  0.584600  1
  Fe  Fe6  1  0.584600  0.584600  0.077791  1
  Fe  Fe7  1  0.415400  0.922209  0.415400  1
  Fe  Fe8  1  0.077791  0.584600  0.584600  1
  Fe  Fe9  1  0.333321  0.333321  0.333321  1
  Fe  Fe10  1  0.666679  0.666679  0.666679  1
  Os  Os11  1  0.500000  0.500000  0.500000  1
