# generated using pymatgen
data_K4RbAg6
_symmetry_space_group_name_H-M   'P 1'
_cell_length_a   15.85590535
_cell_length_b   15.85590563
_cell_length_c   5.10930400
_cell_angle_alpha   90.00000000
_cell_angle_beta   90.00000000
_cell_angle_gamma   161.63599383
_symmetry_Int_Tables_number   1
_chemical_formula_structural   K4RbAg6
_chemical_formula_sum   'K4 Rb1 Ag6'
_cell_volume   404.69449360
_cell_formula_units_Z   1
loop_
 _symmetry_equiv_pos_site_id
 _symmetry_equiv_pos_as_xyz
  1  'x, y, z'
loop_
 _atom_site_type_symbol
 _atom_site_label
 _atom_site_symmetry_multiplicity
 _atom_site_fract_x
 _atom_site_fract_y
 _atom_site_fract_z
 _atom_site_occupancy
  K  K0  1  0.615790  0.384208  0.000000  1
  K  K1  1  0.384208  0.615790  0.000000  1
  K  K2  1  0.806418  0.193580  0.500001  1
  K  K3  1  0.193580  0.806418  0.500001  1
  Rb  Rb4  1  0.000000  0.000000  0.000000  1
  Ag  Ag5  1  0.734105  0.265893  0.000000  1
  Ag  Ag6  1  0.265893  0.734105  0.000000  1
  Ag  Ag7  1  0.920483  0.079516  0.500001  1
  Ag  Ag8  1  0.545952  0.454046  0.500001  1
  Ag  Ag9  1  0.454046  0.545952  0.500001  1
  Ag  Ag10  1  0.079516  0.920483  0.500001  1
