# generated using pymatgen
data_Nd7GdSb20
_symmetry_space_group_name_H-M   'P 1'
_cell_length_a   4.26751900
_cell_length_b   13.52455914
_cell_length_c   15.21819100
_cell_angle_alpha   77.68353178
_cell_angle_beta   90.00000000
_cell_angle_gamma   90.00000000
_symmetry_Int_Tables_number   1
_chemical_formula_structural   Nd7GdSb20
_chemical_formula_sum   'Nd7 Gd1 Sb20'
_cell_volume   858.12231908
_cell_formula_units_Z   1
loop_
 _symmetry_equiv_pos_site_id
 _symmetry_equiv_pos_as_xyz
  1  'x, y, z'
loop_
 _atom_site_type_symbol
 _atom_site_label
 _atom_site_symmetry_multiplicity
 _atom_site_fract_x
 _atom_site_fract_y
 _atom_site_fract_z
 _atom_site_occupancy
  Nd  Nd0  1  0.750000  0.335550  0.145049  1
  Nd  Nd1  1  0.250000  0.949433  0.361228  1
  Nd  Nd2  1  0.250000  0.664876  0.857632  1
  Nd  Nd3  1  0.250000  0.669017  0.575465  1
  Nd  Nd4  1  0.750000  0.049301  0.637666  1
  Nd  Nd5  1  0.750000  0.331144  0.422577  1
  Nd  Nd6  1  0.250000  0.395394  0.773381  1
  Gd  Gd7  1  0.750000  0.604757  0.227503  1
  Sb  Sb8  1  0.750000  0.850612  0.819196  1
  Sb  Sb9  1  0.250000  0.861065  0.675019  1
  Sb  Sb10  1  0.250000  0.142062  0.477403  1
  Sb  Sb11  1  0.750000  0.284320  0.941044  1
  Sb  Sb12  1  0.250000  0.143470  0.779096  1
  Sb  Sb13  1  0.750000  0.574458  0.441844  1
  Sb  Sb14  1  0.750000  0.137296  0.324875  1
  Sb  Sb15  1  0.250000  0.706840  0.350554  1
  Sb  Sb16  1  0.750000  0.292595  0.646782  1
  Sb  Sb17  1  0.750000  0.854353  0.219181  1
  Sb  Sb18  1  0.250000  0.420898  0.976598  1
  Sb  Sb19  1  0.250000  0.425198  0.555749  1
  Sb  Sb20  1  0.750000  0.578084  0.734993  1
  Sb  Sb21  1  0.250000  0.427497  0.264184  1
  Sb  Sb22  1  0.750000  0.857667  0.521512  1
  Sb  Sb23  1  0.750000  0.029756  0.889637  1
  Sb  Sb24  1  0.250000  0.715837  0.064389  1
  Sb  Sb25  1  0.250000  0.969829  0.109417  1
  Sb  Sb26  1  0.250000  0.148727  0.180625  1
  Sb  Sb27  1  0.750000  0.579960  0.027397  1
