# generated using pymatgen
data_Ce4Mg4Ir3Os
_symmetry_space_group_name_H-M   'P 1'
_cell_length_a   7.10949636
_cell_length_b   4.04934600
_cell_length_c   8.81513460
_cell_angle_alpha   90.00000000
_cell_angle_beta   90.38759802
_cell_angle_gamma   90.00000000
_symmetry_Int_Tables_number   1
_chemical_formula_structural   Ce4Mg4Ir3Os
_chemical_formula_sum   'Ce4 Mg4 Ir3 Os1'
_cell_volume   253.77143398
_cell_formula_units_Z   1
loop_
 _symmetry_equiv_pos_site_id
 _symmetry_equiv_pos_as_xyz
  1  'x, y, z'
loop_
 _atom_site_type_symbol
 _atom_site_label
 _atom_site_symmetry_multiplicity
 _atom_site_fract_x
 _atom_site_fract_y
 _atom_site_fract_z
 _atom_site_occupancy
  Ce  Ce0  1  0.961976  0.250000  0.179576  1
  Ce  Ce1  1  0.463956  0.250000  0.318626  1
  Ce  Ce2  1  0.031268  0.750000  0.817443  1
  Ce  Ce3  1  0.540113  0.750000  0.688254  1
  Mg  Mg4  1  0.866008  0.250000  0.552432  1
  Mg  Mg5  1  0.363272  0.250000  0.946390  1
  Mg  Mg6  1  0.135960  0.750000  0.445841  1
  Mg  Mg7  1  0.633259  0.750000  0.055079  1
  Ir  Ir8  1  0.258763  0.250000  0.638394  1
  Ir  Ir9  1  0.242918  0.750000  0.141325  1
  Ir  Ir10  1  0.743839  0.750000  0.358948  1
  Os  Os11  1  0.758668  0.250000  0.857689  1
