# generated using pymatgen
data_PrNd3Mn4F28
_symmetry_space_group_name_H-M   'P 1'
_cell_length_a   5.60185106
_cell_length_b   9.05615453
_cell_length_c   12.09584200
_cell_angle_alpha   61.85496668
_cell_angle_beta   90.00871426
_cell_angle_gamma   90.01218346
_symmetry_Int_Tables_number   1
_chemical_formula_structural   PrNd3Mn4F28
_chemical_formula_sum   'Pr1 Nd3 Mn4 F28'
_cell_volume   541.07826869
_cell_formula_units_Z   1
loop_
 _symmetry_equiv_pos_site_id
 _symmetry_equiv_pos_as_xyz
  1  'x, y, z'
loop_
 _atom_site_type_symbol
 _atom_site_label
 _atom_site_symmetry_multiplicity
 _atom_site_fract_x
 _atom_site_fract_y
 _atom_site_fract_z
 _atom_site_occupancy
  Pr  Pr0  1  0.739633  0.808593  0.764518  1
  Nd  Nd1  1  0.760561  0.808873  0.264440  1
  Nd  Nd2  1  0.260757  0.191704  0.235656  1
  Nd  Nd3  1  0.239039  0.192246  0.735506  1
  Mn  Mn4  1  0.243469  0.725000  0.542087  1
  Mn  Mn5  1  0.742969  0.273808  0.957488  1
  Mn  Mn6  1  0.757322  0.275881  0.456299  1
  Mn  Mn7  1  0.257304  0.724832  0.044246  1
  F  F8  1  0.969683  0.714185  0.459994  1
  F  F9  1  0.470297  0.284754  0.040078  1
  F  F10  1  0.029783  0.286174  0.539323  1
  F  F11  1  0.530895  0.713550  0.962645  1
  F  F12  1  0.067984  0.707706  0.926490  1
  F  F13  1  0.566014  0.291912  0.573798  1
  F  F14  1  0.933982  0.290902  0.074737  1
  F  F15  1  0.432715  0.708381  0.423985  1
  F  F16  1  0.735935  0.504242  0.863972  1
  F  F17  1  0.236559  0.494068  0.635209  1
  F  F18  1  0.263421  0.493949  0.137939  1
  F  F19  1  0.764198  0.506596  0.363140  1
  F  F20  1  0.739044  0.043967  0.047251  1
  F  F21  1  0.239186  0.954773  0.452576  1
  F  F22  1  0.261255  0.954420  0.953725  1
  F  F23  1  0.761094  0.046093  0.545675  1
  F  F24  1  0.055965  0.739002  0.663154  1
  F  F25  1  0.553472  0.258831  0.837061  1
  F  F26  1  0.947158  0.261429  0.335756  1
  F  F27  1  0.444864  0.739966  0.165144  1
  F  F28  1  0.010897  0.268652  0.870401  1
  F  F29  1  0.512139  0.730240  0.628175  1
  F  F30  1  0.988774  0.730667  0.130698  1
  F  F31  1  0.490189  0.270460  0.368821  1
  F  F32  1  0.096662  0.968384  0.227634  1
  F  F33  1  0.597045  0.032376  0.272515  1
  F  F34  1  0.901014  0.035071  0.772752  1
  F  F35  1  0.398721  0.968310  0.727111  1
