# generated using pymatgen
data_Tb15Ce2Ho3Pb16
_symmetry_space_group_name_H-M   'P 1'
_cell_length_a   8.22218871
_cell_length_b   15.70608103
_cell_length_c   8.31277300
_cell_angle_alpha   90.00344371
_cell_angle_beta   90.02373449
_cell_angle_gamma   89.99945867
_symmetry_Int_Tables_number   1
_chemical_formula_structural   Tb15Ce2Ho3Pb16
_chemical_formula_sum   'Tb15 Ce2 Ho3 Pb16'
_cell_volume   1073.49779517
_cell_formula_units_Z   1
loop_
 _symmetry_equiv_pos_site_id
 _symmetry_equiv_pos_as_xyz
  1  'x, y, z'
loop_
 _atom_site_type_symbol
 _atom_site_label
 _atom_site_symmetry_multiplicity
 _atom_site_fract_x
 _atom_site_fract_y
 _atom_site_fract_z
 _atom_site_occupancy
  Tb  Tb0  1  0.122910  0.879837  0.341668  1
  Tb  Tb1  1  0.376682  0.120472  0.841771  1
  Tb  Tb2  1  0.877560  0.378398  0.658150  1
  Tb  Tb3  1  0.377133  0.380057  0.842364  1
  Tb  Tb4  1  0.876382  0.121302  0.657893  1
  Tb  Tb5  1  0.622988  0.879957  0.158848  1
  Tb  Tb6  1  0.123299  0.620266  0.342072  1
  Tb  Tb7  1  0.464020  0.600548  0.676148  1
  Tb  Tb8  1  0.966329  0.900138  0.823159  1
  Tb  Tb9  1  0.534690  0.101200  0.324013  1
  Tb  Tb10  1  0.034810  0.399657  0.175822  1
  Tb  Tb11  1  0.535370  0.398620  0.323611  1
  Tb  Tb12  1  0.034549  0.100244  0.176799  1
  Tb  Tb13  1  0.465409  0.900430  0.678123  1
  Tb  Tb14  1  0.966161  0.600518  0.822503  1
  Ce  Ce15  1  0.619535  0.617926  0.159719  1
  Ce  Ce16  1  0.791716  0.750408  0.494665  1
  Ho  Ho17  1  0.291816  0.750313  0.003914  1
  Ho  Ho18  1  0.209235  0.250084  0.503117  1
  Ho  Ho19  1  0.709013  0.249252  0.996311  1
  Pb  Pb20  1  0.718909  0.455633  0.966038  1
  Pb  Pb21  1  0.218610  0.043539  0.533381  1
  Pb  Pb22  1  0.281425  0.956441  0.033163  1
  Pb  Pb23  1  0.782644  0.542935  0.468549  1
  Pb  Pb24  1  0.278378  0.543664  0.031577  1
  Pb  Pb25  1  0.781288  0.957497  0.466997  1
  Pb  Pb26  1  0.719304  0.043209  0.966506  1
  Pb  Pb27  1  0.219575  0.456891  0.532765  1
  Pb  Pb28  1  0.425591  0.750032  0.374616  1
  Pb  Pb29  1  0.928214  0.749377  0.122830  1
  Pb  Pb30  1  0.571319  0.250322  0.625739  1
  Pb  Pb31  1  0.072519  0.250443  0.875275  1
  Pb  Pb32  1  0.654730  0.749841  0.850442  1
  Pb  Pb33  1  0.156041  0.750221  0.652480  1
  Pb  Pb34  1  0.345497  0.250049  0.152573  1
  Pb  Pb35  1  0.846349  0.250278  0.346400  1
