# generated using pymatgen
data_Lu4TcB12Ir
_symmetry_space_group_name_H-M   'P 1'
_cell_length_a   3.60714400
_cell_length_b   9.03761939
_cell_length_c   11.40930516
_cell_angle_alpha   89.77380433
_cell_angle_beta   90.00000000
_cell_angle_gamma   90.00000000
_symmetry_Int_Tables_number   1
_chemical_formula_structural   Lu4TcB12Ir
_chemical_formula_sum   'Lu8 Tc2 B24 Ir2'
_cell_volume   371.94038761
_cell_formula_units_Z   2
loop_
 _symmetry_equiv_pos_site_id
 _symmetry_equiv_pos_as_xyz
  1  'x, y, z'
loop_
 _atom_site_type_symbol
 _atom_site_label
 _atom_site_symmetry_multiplicity
 _atom_site_fract_x
 _atom_site_fract_y
 _atom_site_fract_z
 _atom_site_occupancy
  Lu  Lu0  1  0.000000  0.325579  0.418072  1
  Lu  Lu1  1  0.000000  0.674421  0.581928  1
  Lu  Lu2  1  0.000000  0.815270  0.089689  1
  Lu  Lu3  1  0.000000  0.184730  0.910311  1
  Lu  Lu4  1  0.000000  0.940689  0.374077  1
  Lu  Lu5  1  0.000000  0.059311  0.625923  1
  Lu  Lu6  1  0.000000  0.446612  0.128045  1
  Lu  Lu7  1  0.000000  0.553388  0.871955  1
  Tc  Tc8  1  0.000000  0.638287  0.319615  1
  Tc  Tc9  1  0.000000  0.361713  0.680385  1
  B  B10  1  0.500000  0.553079  0.433542  1
  B  B11  1  0.500000  0.446921  0.566458  1
  B  B12  1  0.500000  0.054039  0.065156  1
  B  B13  1  0.500000  0.945961  0.934844  1
  B  B14  1  0.500000  0.748749  0.419893  1
  B  B15  1  0.500000  0.251251  0.580107  1
  B  B16  1  0.500000  0.250661  0.078472  1
  B  B17  1  0.500000  0.749339  0.921528  1
  B  B18  1  0.500000  0.792801  0.264609  1
  B  B19  1  0.500000  0.207199  0.735391  1
  B  B20  1  0.500000  0.291724  0.235153  1
  B  B21  1  0.500000  0.708276  0.764847  1
  B  B22  1  0.500000  0.630935  0.184089  1
  B  B23  1  0.500000  0.369065  0.815911  1
  B  B24  1  0.500000  0.130691  0.317006  1
  B  B25  1  0.500000  0.869309  0.682994  1
  B  B26  1  0.500000  0.980735  0.212597  1
  B  B27  1  0.500000  0.019265  0.787403  1
  B  B28  1  0.500000  0.481161  0.287029  1
  B  B29  1  0.500000  0.518839  0.712971  1
  B  B30  1  0.500000  0.605006  0.028278  1
  B  B31  1  0.500000  0.394994  0.971722  1
  B  B32  1  0.500000  0.104498  0.470637  1
  B  B33  1  0.500000  0.895502  0.529363  1
  Ir  Ir34  1  0.000000  0.136747  0.177918  1
  Ir  Ir35  1  0.000000  0.863253  0.822082  1
