# generated using pymatgen
data_Nd12TlCo4Pd
_symmetry_space_group_name_H-M   'P 1'
_cell_length_a   8.59837100
_cell_length_b   8.59808093
_cell_length_c   8.59837100
_cell_angle_alpha   111.44384378
_cell_angle_beta   109.48446854
_cell_angle_gamma   107.51058837
_symmetry_Int_Tables_number   1
_chemical_formula_structural   Nd12TlCo4Pd
_chemical_formula_sum   'Nd12 Tl1 Co4 Pd1'
_cell_volume   488.75675841
_cell_formula_units_Z   1
loop_
 _symmetry_equiv_pos_site_id
 _symmetry_equiv_pos_as_xyz
  1  'x, y, z'
loop_
 _atom_site_type_symbol
 _atom_site_label
 _atom_site_symmetry_multiplicity
 _atom_site_fract_x
 _atom_site_fract_y
 _atom_site_fract_z
 _atom_site_occupancy
  Nd  Nd0  1  0.406074  0.207691  0.198389  1
  Nd  Nd1  1  0.593926  0.792309  0.801611  1
  Nd  Nd2  1  0.009301  0.207691  0.801618  1
  Nd  Nd3  1  0.990699  0.792309  0.198382  1
  Nd  Nd4  1  0.184887  0.298119  0.482999  1
  Nd  Nd5  1  0.815113  0.701881  0.517001  1
  Nd  Nd6  1  0.184880  0.701881  0.886770  1
  Nd  Nd7  1  0.815120  0.298119  0.113230  1
  Nd  Nd8  1  0.317317  0.622772  0.305456  1
  Nd  Nd9  1  0.682683  0.377228  0.694544  1
  Nd  Nd10  1  0.317305  0.011851  0.694546  1
  Nd  Nd11  1  0.682695  0.988149  0.305454  1
  Tl  Tl12  1  0.500000  0.500000  0.000000  1
  Co  Co13  1  0.378689  0.000000  0.378689  1
  Co  Co14  1  0.621311  0.000000  0.621311  1
  Co  Co15  1  0.112405  0.612406  0.500001  1
  Co  Co16  1  0.887595  0.387594  0.499999  1
  Pd  Pd17  1  0.000000  0.000000  0.000000  1
