# generated using pymatgen
data_NdWF7
_symmetry_space_group_name_H-M   'P 1'
_cell_length_a   5.85962100
_cell_length_b   6.24426818
_cell_length_c   8.49476487
_cell_angle_alpha   101.90510351
_cell_angle_beta   90.00000000
_cell_angle_gamma   90.00000000
_symmetry_Int_Tables_number   1
_chemical_formula_structural   NdWF7
_chemical_formula_sum   'Nd2 W2 F14'
_cell_volume   304.12988710
_cell_formula_units_Z   2
loop_
 _symmetry_equiv_pos_site_id
 _symmetry_equiv_pos_as_xyz
  1  'x, y, z'
loop_
 _atom_site_type_symbol
 _atom_site_label
 _atom_site_symmetry_multiplicity
 _atom_site_fract_x
 _atom_site_fract_y
 _atom_site_fract_z
 _atom_site_occupancy
  Nd  Nd0  1  0.701494  0.659068  0.688489  1
  Nd  Nd1  1  0.201494  0.340932  0.311511  1
  W  W2  1  0.708860  0.809254  0.223226  1
  W  W3  1  0.208860  0.190746  0.776774  1
  F  F4  1  0.898110  0.456785  0.477577  1
  F  F5  1  0.398110  0.543215  0.522423  1
  F  F6  1  0.428837  0.932608  0.769649  1
  F  F7  1  0.928837  0.067392  0.230351  1
  F  F8  1  0.948323  0.977722  0.758972  1
  F  F9  1  0.448323  0.022278  0.241028  1
  F  F10  1  0.988587  0.452440  0.790460  1
  F  F11  1  0.488587  0.547560  0.209540  1
  F  F12  1  0.699254  0.761339  0.984252  1
  F  F13  1  0.199254  0.238661  0.015748  1
  F  F14  1  0.721609  0.861979  0.463406  1
  F  F15  1  0.221609  0.138021  0.536594  1
  F  F16  1  0.481287  0.387976  0.790821  1
  F  F17  1  0.981287  0.612024  0.209179  1
