# generated using pymatgen
data_SmDyCBr
_symmetry_space_group_name_H-M   'P 1'
_cell_length_a   3.71973800
_cell_length_b   3.71973748
_cell_length_c   14.38269600
_cell_angle_alpha   90.00000000
_cell_angle_beta   90.00000000
_cell_angle_gamma   120.00000465
_symmetry_Int_Tables_number   1
_chemical_formula_structural   SmDyCBr
_chemical_formula_sum   'Sm2 Dy2 C2 Br2'
_cell_volume   172.34375626
_cell_formula_units_Z   2
loop_
 _symmetry_equiv_pos_site_id
 _symmetry_equiv_pos_as_xyz
  1  'x, y, z'
loop_
 _atom_site_type_symbol
 _atom_site_label
 _atom_site_symmetry_multiplicity
 _atom_site_fract_x
 _atom_site_fract_y
 _atom_site_fract_z
 _atom_site_occupancy
  Sm  Sm0  1  0.666667  0.333333  0.591253  1
  Sm  Sm1  1  0.333333  0.666667  0.091253  1
  Dy  Dy2  1  0.333333  0.666667  0.410032  1
  Dy  Dy3  1  0.666667  0.333333  0.910032  1
  C  C4  1  0.000000  0.000000  0.495223  1
  C  C5  1  0.000000  0.000000  0.995223  1
  Br  Br6  1  0.666667  0.333333  0.253493  1
  Br  Br7  1  0.333333  0.666667  0.753493  1
