# generated using pymatgen
data_LiCeDy2(Co4P3)2
_symmetry_space_group_name_H-M   'P 1'
_cell_length_a   3.73226200
_cell_length_b   10.60676600
_cell_length_c   12.19325900
_cell_angle_alpha   90.00000000
_cell_angle_beta   90.00000000
_cell_angle_gamma   90.00000000
_symmetry_Int_Tables_number   1
_chemical_formula_structural   LiCeDy2(Co4P3)2
_chemical_formula_sum   'Li2 Ce2 Dy4 Co16 P12'
_cell_volume   482.69734464
_cell_formula_units_Z   2
loop_
 _symmetry_equiv_pos_site_id
 _symmetry_equiv_pos_as_xyz
  1  'x, y, z'
loop_
 _atom_site_type_symbol
 _atom_site_label
 _atom_site_symmetry_multiplicity
 _atom_site_fract_x
 _atom_site_fract_y
 _atom_site_fract_z
 _atom_site_occupancy
  Li  Li0  1  0.500000  0.500000  0.150828  1
  Li  Li1  1  0.000000  0.000000  0.849172  1
  Ce  Ce2  1  0.000000  0.500000  0.526757  1
  Ce  Ce3  1  0.500000  0.000000  0.473243  1
  Dy  Dy4  1  0.500000  0.817414  0.204823  1
  Dy  Dy5  1  0.500000  0.182586  0.204823  1
  Dy  Dy6  1  0.000000  0.682586  0.795177  1
  Dy  Dy7  1  0.000000  0.317414  0.795177  1
  Co  Co8  1  0.500000  0.500000  0.701050  1
  Co  Co9  1  0.000000  0.000000  0.298950  1
  Co  Co10  1  0.000000  0.500000  0.985342  1
  Co  Co11  1  0.500000  0.000000  0.014658  1
  Co  Co12  1  0.500000  0.333160  0.996239  1
  Co  Co13  1  0.500000  0.666840  0.996239  1
  Co  Co14  1  0.000000  0.166840  0.003761  1
  Co  Co15  1  0.000000  0.833160  0.003761  1
  Co  Co16  1  0.500000  0.298547  0.430637  1
  Co  Co17  1  0.500000  0.701453  0.430637  1
  Co  Co18  1  0.000000  0.201453  0.569363  1
  Co  Co19  1  0.000000  0.798547  0.569363  1
  Co  Co20  1  0.500000  0.879247  0.709101  1
  Co  Co21  1  0.500000  0.120753  0.709101  1
  Co  Co22  1  0.000000  0.620753  0.290899  1
  Co  Co23  1  0.000000  0.379247  0.290899  1
  P  P24  1  0.500000  0.500000  0.883306  1
  P  P25  1  0.000000  0.000000  0.116694  1
  P  P26  1  0.500000  0.500000  0.343393  1
  P  P27  1  0.000000  0.000000  0.656607  1
  P  P28  1  0.500000  0.305711  0.616421  1
  P  P29  1  0.500000  0.694289  0.616421  1
  P  P30  1  0.000000  0.194289  0.383579  1
  P  P31  1  0.000000  0.805711  0.383579  1
  P  P32  1  0.500000  0.843961  0.894963  1
  P  P33  1  0.500000  0.156039  0.894963  1
  P  P34  1  0.000000  0.656039  0.105037  1
  P  P35  1  0.000000  0.343961  0.105037  1
