# generated using pymatgen
data_Dy5Y(ScAu5)2
_symmetry_space_group_name_H-M   'P 1'
_cell_length_a   7.92656340
_cell_length_b   7.92668443
_cell_length_c   7.92433724
_cell_angle_alpha   66.25915951
_cell_angle_beta   66.25677311
_cell_angle_gamma   66.24925470
_symmetry_Int_Tables_number   1
_chemical_formula_structural   Dy5Y(ScAu5)2
_chemical_formula_sum   'Dy5 Y1 Sc2 Au10'
_cell_volume   399.60905066
_cell_formula_units_Z   1
loop_
 _symmetry_equiv_pos_site_id
 _symmetry_equiv_pos_as_xyz
  1  'x, y, z'
loop_
 _atom_site_type_symbol
 _atom_site_label
 _atom_site_symmetry_multiplicity
 _atom_site_fract_x
 _atom_site_fract_y
 _atom_site_fract_z
 _atom_site_occupancy
  Dy  Dy0  1  0.891331  0.188920  0.619140  1
  Dy  Dy1  1  0.619141  0.891384  0.188905  1
  Dy  Dy2  1  0.189015  0.619152  0.891250  1
  Dy  Dy3  1  0.108650  0.811131  0.380945  1
  Dy  Dy4  1  0.380828  0.108815  0.811047  1
  Y  Y5  1  0.811141  0.380992  0.108647  1
  Sc  Sc6  1  0.659058  0.658957  0.659250  1
  Sc  Sc7  1  0.340922  0.340926  0.340741  1
  Au  Au8  1  0.000135  0.999753  0.999911  1
  Au  Au9  1  0.499910  0.500020  0.500202  1
  Au  Au10  1  0.806934  0.807109  0.806865  1
  Au  Au11  1  0.193363  0.192852  0.193170  1
  Au  Au12  1  0.937095  0.550226  0.320115  1
  Au  Au13  1  0.320004  0.936974  0.550143  1
  Au  Au14  1  0.549979  0.319975  0.936871  1
  Au  Au15  1  0.063232  0.449840  0.679729  1
  Au  Au16  1  0.679905  0.062649  0.450130  1
  Au  Au17  1  0.449355  0.680323  0.062938  1
