# generated using pymatgen
data_Li5Fe(Rh2Pb)6
_symmetry_space_group_name_H-M   'P 1'
_cell_length_a   4.50375029
_cell_length_b   6.34530268
_cell_length_c   13.49531127
_cell_angle_alpha   89.95398538
_cell_angle_beta   90.01876980
_cell_angle_gamma   89.88574212
_symmetry_Int_Tables_number   1
_chemical_formula_structural   Li5Fe(Rh2Pb)6
_chemical_formula_sum   'Li5 Fe1 Rh12 Pb6'
_cell_volume   385.66348853
_cell_formula_units_Z   1
loop_
 _symmetry_equiv_pos_site_id
 _symmetry_equiv_pos_as_xyz
  1  'x, y, z'
loop_
 _atom_site_type_symbol
 _atom_site_label
 _atom_site_symmetry_multiplicity
 _atom_site_fract_x
 _atom_site_fract_y
 _atom_site_fract_z
 _atom_site_occupancy
  Li  Li0  1  0.499782  0.499954  0.165580  1
  Li  Li1  1  0.999743  0.999996  0.334108  1
  Li  Li2  1  0.500000  0.500000  0.500000  1
  Li  Li3  1  0.000257  0.000004  0.665893  1
  Li  Li4  1  0.500218  0.500046  0.834421  1
  Fe  Fe5  1  0.000000  0.000000  0.000000  1
  Rh  Rh6  1  0.499976  0.236902  0.000003  1
  Rh  Rh7  1  0.500024  0.763097  0.999997  1
  Rh  Rh8  1  0.999744  0.245107  0.163067  1
  Rh  Rh9  1  0.999770  0.754929  0.163085  1
  Rh  Rh10  1  0.499960  0.253160  0.334493  1
  Rh  Rh11  1  0.499986  0.746838  0.334455  1
  Rh  Rh12  1  0.000084  0.250772  0.499984  1
  Rh  Rh13  1  0.999916  0.749227  0.500016  1
  Rh  Rh14  1  0.500014  0.253162  0.665545  1
  Rh  Rh15  1  0.500040  0.746840  0.665507  1
  Rh  Rh16  1  0.000230  0.245070  0.836915  1
  Rh  Rh17  1  0.000256  0.754892  0.836933  1
  Pb  Pb18  1  0.000000  0.500000  0.000000  1
  Pb  Pb19  1  0.499768  0.000070  0.172734  1
  Pb  Pb20  1  0.000073  0.499970  0.332558  1
  Pb  Pb21  1  0.500000  0.000000  0.500000  1
  Pb  Pb22  1  0.999927  0.500030  0.667443  1
  Pb  Pb23  1  0.500232  0.999930  0.827266  1
