# generated using pymatgen
data_LuU7B24(MoW)2
_symmetry_space_group_name_H-M   'P 1'
_cell_length_a   3.68237900
_cell_length_b   9.27336166
_cell_length_c   11.36898152
_cell_angle_alpha   89.99540346
_cell_angle_beta   90.00000000
_cell_angle_gamma   90.00000000
_symmetry_Int_Tables_number   1
_chemical_formula_structural   LuU7B24(MoW)2
_chemical_formula_sum   'Lu1 U7 B24 Mo2 W2'
_cell_volume   388.22834622
_cell_formula_units_Z   1
loop_
 _symmetry_equiv_pos_site_id
 _symmetry_equiv_pos_as_xyz
  1  'x, y, z'
loop_
 _atom_site_type_symbol
 _atom_site_label
 _atom_site_symmetry_multiplicity
 _atom_site_fract_x
 _atom_site_fract_y
 _atom_site_fract_z
 _atom_site_occupancy
  Lu  Lu0  1  0.000000  0.335085  0.407986  1
  U  U1  1  0.000000  0.664115  0.592117  1
  U  U2  1  0.000000  0.834314  0.092786  1
  U  U3  1  0.000000  0.165512  0.907499  1
  U  U4  1  0.000000  0.956665  0.394767  1
  U  U5  1  0.000000  0.045185  0.604585  1
  U  U6  1  0.000000  0.456218  0.105484  1
  U  U7  1  0.000000  0.543341  0.894808  1
  B  B8  1  0.500000  0.551333  0.433466  1
  B  B9  1  0.500000  0.450902  0.568277  1
  B  B10  1  0.500000  0.049678  0.066700  1
  B  B11  1  0.500000  0.950161  0.933103  1
  B  B12  1  0.500000  0.742484  0.424757  1
  B  B13  1  0.500000  0.256593  0.575901  1
  B  B14  1  0.500000  0.244010  0.075921  1
  B  B15  1  0.500000  0.756286  0.924429  1
  B  B16  1  0.500000  0.803406  0.273033  1
  B  B17  1  0.500000  0.196527  0.727174  1
  B  B18  1  0.500000  0.303250  0.225837  1
  B  B19  1  0.500000  0.696140  0.772313  1
  B  B20  1  0.500000  0.643720  0.187960  1
  B  B21  1  0.500000  0.355246  0.812506  1
  B  B22  1  0.500000  0.143924  0.312232  1
  B  B23  1  0.500000  0.855364  0.687276  1
  B  B24  1  0.500000  0.985670  0.218465  1
  B  B25  1  0.500000  0.014596  0.781258  1
  B  B26  1  0.500000  0.486342  0.281071  1
  B  B27  1  0.500000  0.514993  0.717926  1
  B  B28  1  0.500000  0.641923  0.039525  1
  B  B29  1  0.500000  0.358192  0.960763  1
  B  B30  1  0.500000  0.140351  0.461010  1
  B  B31  1  0.500000  0.857707  0.539481  1
  Mo  Mo32  1  0.000000  0.646911  0.319591  1
  Mo  Mo33  1  0.000000  0.355251  0.681870  1
  W  W34  1  0.000000  0.143587  0.177839  1
  W  W35  1  0.000000  0.855017  0.820287  1
