# generated using pymatgen
data_Tb2LuCo8TcP6
_symmetry_space_group_name_H-M   'P 1'
_cell_length_a   3.70640600
_cell_length_b   10.50556100
_cell_length_c   12.20706500
_cell_angle_alpha   90.00000000
_cell_angle_beta   90.00000000
_cell_angle_gamma   90.00000000
_symmetry_Int_Tables_number   1
_chemical_formula_structural   Tb2LuCo8TcP6
_chemical_formula_sum   'Tb4 Lu2 Co16 Tc2 P12'
_cell_volume   475.31716283
_cell_formula_units_Z   2
loop_
 _symmetry_equiv_pos_site_id
 _symmetry_equiv_pos_as_xyz
  1  'x, y, z'
loop_
 _atom_site_type_symbol
 _atom_site_label
 _atom_site_symmetry_multiplicity
 _atom_site_fract_x
 _atom_site_fract_y
 _atom_site_fract_z
 _atom_site_occupancy
  Tb  Tb0  1  0.000000  0.500000  0.524115  1
  Tb  Tb1  1  0.500000  0.000000  0.474947  1
  Tb  Tb2  1  0.000000  0.682466  0.794527  1
  Tb  Tb3  1  0.000000  0.317534  0.794527  1
  Lu  Lu4  1  0.500000  0.818455  0.205655  1
  Lu  Lu5  1  0.500000  0.181545  0.205655  1
  Co  Co6  1  0.500000  0.500000  0.702900  1
  Co  Co7  1  0.000000  0.000000  0.295644  1
  Co  Co8  1  0.000000  0.500000  0.988501  1
  Co  Co9  1  0.500000  0.000000  0.014304  1
  Co  Co10  1  0.500000  0.331560  0.991375  1
  Co  Co11  1  0.500000  0.668440  0.991375  1
  Co  Co12  1  0.000000  0.167262  0.011726  1
  Co  Co13  1  0.000000  0.832738  0.011726  1
  Co  Co14  1  0.500000  0.296126  0.429516  1
  Co  Co15  1  0.500000  0.703874  0.429516  1
  Co  Co16  1  0.000000  0.203300  0.568065  1
  Co  Co17  1  0.000000  0.796700  0.568065  1
  Co  Co18  1  0.500000  0.879377  0.707711  1
  Co  Co19  1  0.500000  0.120623  0.707711  1
  Co  Co20  1  0.000000  0.622031  0.291115  1
  Co  Co21  1  0.000000  0.377969  0.291115  1
  Tc  Tc22  1  0.500000  0.500000  0.156631  1
  Tc  Tc23  1  0.000000  0.000000  0.843963  1
  P  P24  1  0.500000  0.500000  0.882436  1
  P  P25  1  0.000000  0.000000  0.120321  1
  P  P26  1  0.500000  0.500000  0.348031  1
  P  P27  1  0.000000  0.000000  0.651519  1
  P  P28  1  0.500000  0.310721  0.615231  1
  P  P29  1  0.500000  0.689279  0.615231  1
  P  P30  1  0.000000  0.188174  0.381743  1
  P  P31  1  0.000000  0.811826  0.381743  1
  P  P32  1  0.500000  0.846834  0.893394  1
  P  P33  1  0.500000  0.153166  0.893394  1
  P  P34  1  0.000000  0.655218  0.108287  1
  P  P35  1  0.000000  0.344782  0.108287  1
