# generated using pymatgen
data_Tb17Tm3Si15Os
_symmetry_space_group_name_H-M   'P 1'
_cell_length_a   7.39925083
_cell_length_b   7.76038234
_cell_length_c   14.60216600
_cell_angle_alpha   90.00000000
_cell_angle_beta   90.00000000
_cell_angle_gamma   90.05157435
_symmetry_Int_Tables_number   1
_chemical_formula_structural   Tb17Tm3Si15Os
_chemical_formula_sum   'Tb17 Tm3 Si15 Os1'
_cell_volume   838.47086044
_cell_formula_units_Z   1
loop_
 _symmetry_equiv_pos_site_id
 _symmetry_equiv_pos_as_xyz
  1  'x, y, z'
loop_
 _atom_site_type_symbol
 _atom_site_label
 _atom_site_symmetry_multiplicity
 _atom_site_fract_x
 _atom_site_fract_y
 _atom_site_fract_z
 _atom_site_occupancy
  Tb  Tb0  1  0.672794  0.185565  0.625912  1
  Tb  Tb1  1  0.191553  0.324693  0.873302  1
  Tb  Tb2  1  0.318046  0.819322  0.123325  1
  Tb  Tb3  1  0.817683  0.678728  0.376974  1
  Tb  Tb4  1  0.318046  0.819322  0.376675  1
  Tb  Tb5  1  0.817683  0.678728  0.123026  1
  Tb  Tb6  1  0.672794  0.185565  0.874088  1
  Tb  Tb7  1  0.191553  0.324693  0.626698  1
  Tb  Tb8  1  0.522690  0.673156  0.598036  1
  Tb  Tb9  1  0.026767  0.816402  0.902839  1
  Tb  Tb10  1  0.472793  0.315124  0.097335  1
  Tb  Tb11  1  0.973531  0.183385  0.402876  1
  Tb  Tb12  1  0.472793  0.315124  0.402665  1
  Tb  Tb13  1  0.973531  0.183385  0.097124  1
  Tb  Tb14  1  0.522690  0.673156  0.901964  1
  Tb  Tb15  1  0.026767  0.816402  0.597161  1
  Tb  Tb16  1  0.648764  0.013961  0.250000  1
  Tm  Tm17  1  0.840865  0.513187  0.750000  1
  Tm  Tm18  1  0.354708  0.987014  0.750000  1
  Tm  Tm19  1  0.150632  0.483703  0.250000  1
  Si  Si20  1  0.645090  0.971675  0.460790  1
  Si  Si21  1  0.148267  0.527689  0.039979  1
  Si  Si22  1  0.349997  0.024951  0.960126  1
  Si  Si23  1  0.857129  0.471637  0.539765  1
  Si  Si24  1  0.349997  0.024951  0.539874  1
  Si  Si25  1  0.857129  0.471637  0.960235  1
  Si  Si26  1  0.645090  0.971675  0.039210  1
  Si  Si27  1  0.148267  0.527689  0.460021  1
  Si  Si28  1  0.981241  0.098386  0.750000  1
  Si  Si29  1  0.522518  0.601062  0.250000  1
  Si  Si30  1  0.020493  0.896274  0.250000  1
  Si  Si31  1  0.740199  0.874772  0.750000  1
  Si  Si32  1  0.230382  0.635272  0.750000  1
  Si  Si33  1  0.265381  0.129648  0.250000  1
  Si  Si34  1  0.769927  0.373645  0.250000  1
  Os  Os35  1  0.482207  0.408419  0.750000  1
