# generated using pymatgen
data_Tb3ThAgRu
_symmetry_space_group_name_H-M   'P 1'
_cell_length_a   9.65228747
_cell_length_b   9.65228772
_cell_length_c   9.65228700
_cell_angle_alpha   59.99999905
_cell_angle_beta   59.99999818
_cell_angle_gamma   60.00000163
_symmetry_Int_Tables_number   1
_chemical_formula_structural   Tb3ThAgRu
_chemical_formula_sum   'Tb12 Th4 Ag4 Ru4'
_cell_volume   635.88082955
_cell_formula_units_Z   4
loop_
 _symmetry_equiv_pos_site_id
 _symmetry_equiv_pos_as_xyz
  1  'x, y, z'
loop_
 _atom_site_type_symbol
 _atom_site_label
 _atom_site_symmetry_multiplicity
 _atom_site_fract_x
 _atom_site_fract_y
 _atom_site_fract_z
 _atom_site_occupancy
  Tb  Tb0  1  0.062055  0.437945  0.437945  1
  Tb  Tb1  1  0.437945  0.062055  0.062055  1
  Tb  Tb2  1  0.437945  0.062055  0.437945  1
  Tb  Tb3  1  0.062055  0.437945  0.062055  1
  Tb  Tb4  1  0.437945  0.437945  0.062055  1
  Tb  Tb5  1  0.062055  0.062055  0.437945  1
  Tb  Tb6  1  0.186075  0.813925  0.813925  1
  Tb  Tb7  1  0.813925  0.186075  0.186075  1
  Tb  Tb8  1  0.813925  0.186075  0.813925  1
  Tb  Tb9  1  0.186075  0.813925  0.186075  1
  Tb  Tb10  1  0.813925  0.813925  0.186075  1
  Tb  Tb11  1  0.186075  0.186075  0.813925  1
  Th  Th12  1  0.599393  0.599393  0.599393  1
  Th  Th13  1  0.599393  0.599393  0.201822  1
  Th  Th14  1  0.599393  0.201822  0.599393  1
  Th  Th15  1  0.201822  0.599393  0.599393  1
  Ag  Ag16  1  0.832206  0.832206  0.832206  1
  Ag  Ag17  1  0.832206  0.832206  0.503383  1
  Ag  Ag18  1  0.832206  0.503383  0.832206  1
  Ag  Ag19  1  0.503383  0.832206  0.832206  1
  Ru  Ru20  1  0.393922  0.393922  0.393922  1
  Ru  Ru21  1  0.393922  0.393922  0.818234  1
  Ru  Ru22  1  0.393922  0.818234  0.393922  1
  Ru  Ru23  1  0.818234  0.393922  0.393922  1
