# generated using pymatgen
data_Y4MnNiC8
_symmetry_space_group_name_H-M   'P 1'
_cell_length_a   6.63976887
_cell_length_b   6.63976955
_cell_length_c   6.63976952
_cell_angle_alpha   134.88132707
_cell_angle_beta   110.79157745
_cell_angle_gamma   86.52516298
_symmetry_Int_Tables_number   1
_chemical_formula_structural   Y4MnNiC8
_chemical_formula_sum   'Y4 Mn1 Ni1 C8'
_cell_volume   185.77226293
_cell_formula_units_Z   1
loop_
 _symmetry_equiv_pos_site_id
 _symmetry_equiv_pos_as_xyz
  1  'x, y, z'
loop_
 _atom_site_type_symbol
 _atom_site_label
 _atom_site_symmetry_multiplicity
 _atom_site_fract_x
 _atom_site_fract_y
 _atom_site_fract_z
 _atom_site_occupancy
  Y  Y0  1  0.512894  0.356284  0.158546  1
  Y  Y1  1  0.487106  0.645652  0.843390  1
  Y  Y2  1  0.197738  0.854348  0.341454  1
  Y  Y3  1  0.802262  0.143716  0.656610  1
  Mn  Mn4  1  0.000000  0.750000  0.750000  1
  Ni  Ni5  1  0.000000  0.250000  0.250000  1
  C  C6  1  0.250975  0.050192  0.141237  1
  C  C7  1  0.749025  0.890261  0.799216  1
  C  C8  1  0.908955  0.609739  0.358763  1
  C  C9  1  0.091045  0.449808  0.700784  1
  C  C10  1  0.466615  0.133195  0.344236  1
  C  C11  1  0.533385  0.877621  0.666581  1
  C  C12  1  0.788960  0.622379  0.155764  1
  C  C13  1  0.211040  0.366805  0.833419  1
