# generated using pymatgen
data_Ho4ScPt9
_symmetry_space_group_name_H-M   'P 1'
_cell_length_a   9.67347400
_cell_length_b   9.67347400
_cell_length_c   5.73219900
_cell_angle_alpha   90.00000000
_cell_angle_beta   90.00000000
_cell_angle_gamma   90.00000000
_symmetry_Int_Tables_number   1
_chemical_formula_structural   Ho4ScPt9
_chemical_formula_sum   'Ho8 Sc2 Pt18'
_cell_volume   536.39682242
_cell_formula_units_Z   2
loop_
 _symmetry_equiv_pos_site_id
 _symmetry_equiv_pos_as_xyz
  1  'x, y, z'
loop_
 _atom_site_type_symbol
 _atom_site_label
 _atom_site_symmetry_multiplicity
 _atom_site_fract_x
 _atom_site_fract_y
 _atom_site_fract_z
 _atom_site_occupancy
  Ho  Ho0  1  0.452494  0.809493  0.000000  1
  Ho  Ho1  1  0.547506  0.190507  0.000000  1
  Ho  Ho2  1  0.190507  0.547506  0.000000  1
  Ho  Ho3  1  0.809493  0.452494  0.000000  1
  Ho  Ho4  1  0.309493  0.047506  0.500000  1
  Ho  Ho5  1  0.690507  0.952494  0.500000  1
  Ho  Ho6  1  0.952494  0.690507  0.500000  1
  Ho  Ho7  1  0.047506  0.309493  0.500000  1
  Sc  Sc8  1  0.500000  0.500000  0.500000  1
  Sc  Sc9  1  0.000000  0.000000  0.000000  1
  Pt  Pt10  1  0.189345  0.810655  0.249421  1
  Pt  Pt11  1  0.810655  0.189345  0.750579  1
  Pt  Pt12  1  0.810655  0.189345  0.249421  1
  Pt  Pt13  1  0.189345  0.810655  0.750579  1
  Pt  Pt14  1  0.440012  0.775766  0.500000  1
  Pt  Pt15  1  0.559988  0.224234  0.500000  1
  Pt  Pt16  1  0.224234  0.559988  0.500000  1
  Pt  Pt17  1  0.775766  0.440012  0.500000  1
  Pt  Pt18  1  0.310655  0.310655  0.250579  1
  Pt  Pt19  1  0.689345  0.689345  0.749421  1
  Pt  Pt20  1  0.689345  0.689345  0.250579  1
  Pt  Pt21  1  0.310655  0.310655  0.749421  1
  Pt  Pt22  1  0.275766  0.059988  0.000000  1
  Pt  Pt23  1  0.724234  0.940012  0.000000  1
  Pt  Pt24  1  0.940012  0.724234  0.000000  1
  Pt  Pt25  1  0.059988  0.275766  0.000000  1
  Pt  Pt26  1  0.000000  0.000000  0.500000  1
  Pt  Pt27  1  0.500000  0.500000  0.000000  1
