# generated using pymatgen
data_Yb2YSi6Pd17Pt3
_symmetry_space_group_name_H-M   'P 1'
_cell_length_a   8.72265615
_cell_length_b   8.72265618
_cell_length_c   8.73741858
_cell_angle_alpha   59.72641189
_cell_angle_beta   59.72641174
_cell_angle_gamma   59.64916864
_symmetry_Int_Tables_number   1
_chemical_formula_structural   Yb2YSi6Pd17Pt3
_chemical_formula_sum   'Yb2 Y1 Si6 Pd17 Pt3'
_cell_volume   466.87660622
_cell_formula_units_Z   1
loop_
 _symmetry_equiv_pos_site_id
 _symmetry_equiv_pos_as_xyz
  1  'x, y, z'
loop_
 _atom_site_type_symbol
 _atom_site_label
 _atom_site_symmetry_multiplicity
 _atom_site_fract_x
 _atom_site_fract_y
 _atom_site_fract_z
 _atom_site_occupancy
  Yb  Yb0  1  0.750004  0.750004  0.750750  1
  Yb  Yb1  1  0.999959  0.999959  0.000021  1
  Y  Y2  1  0.250158  0.250158  0.250138  1
  Si  Si3  1  0.730858  0.268774  0.268343  1
  Si  Si4  1  0.269863  0.730329  0.730902  1
  Si  Si5  1  0.268774  0.730858  0.268343  1
  Si  Si6  1  0.730329  0.269863  0.730902  1
  Si  Si7  1  0.269635  0.269635  0.730205  1
  Si  Si8  1  0.731426  0.731426  0.268958  1
  Pd  Pd9  1  0.382034  0.849980  0.382301  1
  Pd  Pd10  1  0.618058  0.618058  0.149410  1
  Pd  Pd11  1  0.619420  0.148826  0.616192  1
  Pd  Pd12  1  0.849980  0.382034  0.382301  1
  Pd  Pd13  1  0.148826  0.619420  0.616192  1
  Pd  Pd14  1  0.343411  0.000287  0.001035  1
  Pd  Pd15  1  0.655184  0.000120  0.001121  1
  Pd  Pd16  1  0.999771  0.343622  0.656857  1
  Pd  Pd17  1  0.999802  0.655728  0.344478  1
  Pd  Pd18  1  0.000287  0.343411  0.001035  1
  Pd  Pd19  1  0.655728  0.999802  0.344478  1
  Pd  Pd20  1  0.000120  0.655184  0.001121  1
  Pd  Pd21  1  0.343622  0.999771  0.656857  1
  Pd  Pd22  1  0.000186  0.000186  0.344751  1
  Pd  Pd23  1  0.000028  0.000028  0.655698  1
  Pd  Pd24  1  0.655759  0.343202  0.000773  1
  Pd  Pd25  1  0.343202  0.655759  0.000773  1
  Pt  Pt26  1  0.383873  0.383873  0.384175  1
  Pt  Pt27  1  0.617081  0.617081  0.613406  1
  Pt  Pt28  1  0.382619  0.382619  0.848489  1
