# generated using pymatgen
data_Np2AlGa7
_symmetry_space_group_name_H-M   'P 1'
_cell_length_a   7.96223524
_cell_length_b   7.96223515
_cell_length_c   7.96223448
_cell_angle_alpha   148.36234908
_cell_angle_beta   133.44277937
_cell_angle_gamma   57.38357362
_symmetry_Int_Tables_number   1
_chemical_formula_structural   Np2AlGa7
_chemical_formula_sum   'Np2 Al1 Ga7'
_cell_volume   190.81428720
_cell_formula_units_Z   1
loop_
 _symmetry_equiv_pos_site_id
 _symmetry_equiv_pos_as_xyz
  1  'x, y, z'
loop_
 _atom_site_type_symbol
 _atom_site_label
 _atom_site_symmetry_multiplicity
 _atom_site_fract_x
 _atom_site_fract_y
 _atom_site_fract_z
 _atom_site_occupancy
  Np  Np0  1  0.636299  0.886299  0.750000  1
  Np  Np1  1  0.360833  0.110833  0.250000  1
  Al  Al2  1  0.858723  0.108723  0.750000  1
  Ga  Ga3  1  0.993985  0.500829  0.493155  1
  Ga  Ga4  1  0.507674  0.500829  0.006845  1
  Ga  Ga5  1  0.143856  0.893856  0.250000  1
  Ga  Ga6  1  0.167382  0.697501  0.469882  1
  Ga  Ga7  1  0.833670  0.301815  0.531855  1
  Ga  Ga8  1  0.269960  0.301815  0.968145  1
  Ga  Ga9  1  0.727619  0.697501  0.030118  1
