# generated using pymatgen
data_AlGa3(Ni2Pt)4
_symmetry_space_group_name_H-M   'P 1'
_cell_length_a   3.69635000
_cell_length_b   3.73371600
_cell_length_c   14.77508300
_cell_angle_alpha   90.00000000
_cell_angle_beta   90.00000000
_cell_angle_gamma   90.00000000
_symmetry_Int_Tables_number   1
_chemical_formula_structural   AlGa3(Ni2Pt)4
_chemical_formula_sum   'Al1 Ga3 Ni8 Pt4'
_cell_volume   203.91271029
_cell_formula_units_Z   1
loop_
 _symmetry_equiv_pos_site_id
 _symmetry_equiv_pos_as_xyz
  1  'x, y, z'
loop_
 _atom_site_type_symbol
 _atom_site_label
 _atom_site_symmetry_multiplicity
 _atom_site_fract_x
 _atom_site_fract_y
 _atom_site_fract_z
 _atom_site_occupancy
  Al  Al0  1  0.000000  0.000000  0.000000  1
  Ga  Ga1  1  0.000000  0.000000  0.249834  1
  Ga  Ga2  1  0.000000  0.000000  0.500000  1
  Ga  Ga3  1  0.000000  0.000000  0.750166  1
  Ni  Ni4  1  0.500000  0.500000  0.000000  1
  Ni  Ni5  1  0.500000  0.500000  0.249376  1
  Ni  Ni6  1  0.500000  0.500000  0.500000  1
  Ni  Ni7  1  0.500000  0.500000  0.750624  1
  Ni  Ni8  1  0.000000  0.500000  0.123835  1
  Ni  Ni9  1  0.000000  0.500000  0.375342  1
  Ni  Ni10  1  0.000000  0.500000  0.624658  1
  Ni  Ni11  1  0.000000  0.500000  0.876165  1
  Pt  Pt12  1  0.500000  0.000000  0.123248  1
  Pt  Pt13  1  0.500000  0.000000  0.374719  1
  Pt  Pt14  1  0.500000  0.000000  0.625281  1
  Pt  Pt15  1  0.500000  0.000000  0.876752  1
