# generated using pymatgen
data_Dy5HoTi2(Al11Ru4)2
_symmetry_space_group_name_H-M   'P 1'
_cell_length_a   8.84013001
_cell_length_b   8.84015678
_cell_length_c   9.52644500
_cell_angle_alpha   89.99795168
_cell_angle_beta   90.00189057
_cell_angle_gamma   120.00620051
_symmetry_Int_Tables_number   1
_chemical_formula_structural   Dy5HoTi2(Al11Ru4)2
_chemical_formula_sum   'Dy5 Ho1 Ti2 Al22 Ru8'
_cell_volume   644.69303371
_cell_formula_units_Z   1
loop_
 _symmetry_equiv_pos_site_id
 _symmetry_equiv_pos_as_xyz
  1  'x, y, z'
loop_
 _atom_site_type_symbol
 _atom_site_label
 _atom_site_symmetry_multiplicity
 _atom_site_fract_x
 _atom_site_fract_y
 _atom_site_fract_z
 _atom_site_occupancy
  Dy  Dy0  1  0.193593  0.387193  0.251183  1
  Dy  Dy1  1  0.806279  0.612532  0.748923  1
  Dy  Dy2  1  0.612808  0.806410  0.251186  1
  Dy  Dy3  1  0.387471  0.193718  0.748920  1
  Dy  Dy4  1  0.193630  0.806373  0.251177  1
  Ho  Ho5  1  0.806113  0.193883  0.748993  1
  Ti  Ti6  1  0.333355  0.666655  0.997296  1
  Ti  Ti7  1  0.666692  0.333296  0.002692  1
  Al  Al8  1  0.666722  0.333280  0.516754  1
  Al  Al9  1  0.333346  0.666653  0.483369  1
  Al  Al10  1  0.161394  0.322977  0.577429  1
  Al  Al11  1  0.838464  0.676927  0.422673  1
  Al  Al12  1  0.677024  0.838604  0.577429  1
  Al  Al13  1  0.840722  0.681445  0.077141  1
  Al  Al14  1  0.323072  0.161538  0.422672  1
  Al  Al15  1  0.159083  0.318327  0.922729  1
  Al  Al16  1  0.161508  0.838485  0.577386  1
  Al  Al17  1  0.318546  0.159277  0.077149  1
  Al  Al18  1  0.838478  0.161528  0.422771  1
  Al  Al19  1  0.681682  0.840918  0.922720  1
  Al  Al20  1  0.840727  0.159281  0.077027  1
  Al  Al21  1  0.159184  0.840810  0.922755  1
  Al  Al22  1  0.560954  0.121882  0.251988  1
  Al  Al23  1  0.439306  0.878378  0.747933  1
  Al  Al24  1  0.878121  0.439047  0.251985  1
  Al  Al25  1  0.121618  0.560690  0.747936  1
  Al  Al26  1  0.560941  0.439061  0.251991  1
  Al  Al27  1  0.439085  0.560915  0.747918  1
  Al  Al28  1  0.000005  0.999994  0.250520  1
  Al  Al29  1  0.999885  0.000118  0.749488  1
  Ru  Ru30  1  0.500186  0.000167  0.999875  1
  Ru  Ru31  1  0.999834  0.499813  0.999876  1
  Ru  Ru32  1  0.500133  0.000063  0.500058  1
  Ru  Ru33  1  0.500041  0.499953  0.999982  1
  Ru  Ru34  1  0.999937  0.499868  0.500061  1
  Ru  Ru35  1  0.500032  0.499968  0.499991  1
  Ru  Ru36  1  0.000017  0.999986  0.000046  1
  Ru  Ru37  1  0.000012  0.999988  0.499975  1
