# generated using pymatgen
data_YbDy3(Si4Tc3)2
_symmetry_space_group_name_H-M   'P 1'
_cell_length_a   6.81153900
_cell_length_b   6.74096172
_cell_length_c   6.79195341
_cell_angle_alpha   70.02301454
_cell_angle_beta   90.03884014
_cell_angle_gamma   89.83199841
_symmetry_Int_Tables_number   1
_chemical_formula_structural   YbDy3(Si4Tc3)2
_chemical_formula_sum   'Yb1 Dy3 Si8 Tc6'
_cell_volume   293.09507192
_cell_formula_units_Z   1
loop_
 _symmetry_equiv_pos_site_id
 _symmetry_equiv_pos_as_xyz
  1  'x, y, z'
loop_
 _atom_site_type_symbol
 _atom_site_label
 _atom_site_symmetry_multiplicity
 _atom_site_fract_x
 _atom_site_fract_y
 _atom_site_fract_z
 _atom_site_occupancy
  Yb  Yb0  1  0.665702  0.445181  0.185207  1
  Dy  Dy1  1  0.167194  0.058661  0.807458  1
  Dy  Dy2  1  0.333599  0.556990  0.810133  1
  Dy  Dy3  1  0.831809  0.941451  0.193105  1
  Si  Si4  1  0.450562  0.120358  0.104323  1
  Si  Si5  1  0.949505  0.379709  0.897605  1
  Si  Si6  1  0.549734  0.878961  0.898297  1
  Si  Si7  1  0.048170  0.619412  0.104867  1
  Si  Si8  1  0.856694  0.135653  0.508727  1
  Si  Si9  1  0.361395  0.368542  0.485595  1
  Si  Si10  1  0.141415  0.867451  0.488548  1
  Si  Si11  1  0.642013  0.628857  0.511487  1
  Tc  Tc12  1  0.500057  0.998279  0.501170  1
  Tc  Tc13  1  0.002275  0.499753  0.502646  1
  Tc  Tc14  1  0.153347  0.242539  0.239448  1
  Tc  Tc15  1  0.654050  0.255030  0.761693  1
  Tc  Tc16  1  0.847674  0.759338  0.760308  1
  Tc  Tc17  1  0.344806  0.743835  0.239385  1
