# generated using pymatgen
data_TbTm5Al14(Si5Os4)2
_symmetry_space_group_name_H-M   'P 1'
_cell_length_a   8.69228367
_cell_length_b   8.69227918
_cell_length_c   9.28508400
_cell_angle_alpha   90.00000000
_cell_angle_beta   90.00000000
_cell_angle_gamma   120.13093057
_symmetry_Int_Tables_number   1
_chemical_formula_structural   TbTm5Al14(Si5Os4)2
_chemical_formula_sum   'Tb1 Tm5 Al14 Si10 Os8'
_cell_volume   606.74964285
_cell_formula_units_Z   1
loop_
 _symmetry_equiv_pos_site_id
 _symmetry_equiv_pos_as_xyz
  1  'x, y, z'
loop_
 _atom_site_type_symbol
 _atom_site_label
 _atom_site_symmetry_multiplicity
 _atom_site_fract_x
 _atom_site_fract_y
 _atom_site_fract_z
 _atom_site_occupancy
  Tb  Tb0  1  0.188176  0.379611  0.250000  1
  Tm  Tm1  1  0.808412  0.613251  0.750000  1
  Tm  Tm2  1  0.613319  0.808413  0.250000  1
  Tm  Tm3  1  0.387680  0.192322  0.750000  1
  Tm  Tm4  1  0.195114  0.805158  0.250000  1
  Tm  Tm5  1  0.805272  0.195278  0.750000  1
  Al  Al6  1  0.165136  0.328824  0.580185  1
  Al  Al7  1  0.835562  0.669877  0.420325  1
  Al  Al8  1  0.672033  0.835512  0.579498  1
  Al  Al9  1  0.835562  0.669877  0.079675  1
  Al  Al10  1  0.332151  0.165275  0.421052  1
  Al  Al11  1  0.165136  0.328824  0.919815  1
  Al  Al12  1  0.163995  0.836410  0.579636  1
  Al  Al13  1  0.332151  0.165275  0.078948  1
  Al  Al14  1  0.833194  0.166297  0.422381  1
  Al  Al15  1  0.672033  0.835512  0.920502  1
  Al  Al16  1  0.833194  0.166297  0.077619  1
  Al  Al17  1  0.163995  0.836410  0.920364  1
  Al  Al18  1  0.436178  0.565079  0.750000  1
  Al  Al19  1  0.999648  0.001259  0.750000  1
  Si  Si20  1  0.334738  0.665497  0.041845  1
  Si  Si21  1  0.666132  0.334705  0.956181  1
  Si  Si22  1  0.666132  0.334705  0.543819  1
  Si  Si23  1  0.334738  0.665497  0.458155  1
  Si  Si24  1  0.560645  0.122921  0.250000  1
  Si  Si25  1  0.436168  0.875488  0.750000  1
  Si  Si26  1  0.874820  0.439404  0.250000  1
  Si  Si27  1  0.124737  0.564570  0.750000  1
  Si  Si28  1  0.564365  0.438239  0.250000  1
  Si  Si29  1  0.996826  0.987869  0.250000  1
  Os  Os30  1  0.499974  0.000697  0.000277  1
  Os  Os31  1  0.998985  0.500704  0.999884  1
  Os  Os32  1  0.499974  0.000697  0.499723  1
  Os  Os33  1  0.501882  0.499937  0.005866  1
  Os  Os34  1  0.998985  0.500704  0.500116  1
  Os  Os35  1  0.501882  0.499937  0.494134  1
  Os  Os36  1  0.000537  0.001835  0.007543  1
  Os  Os37  1  0.000537  0.001835  0.492457  1
