# generated using pymatgen
data_La2Sm3Pb4
_symmetry_space_group_name_H-M   'P 1'
_cell_length_a   8.46917800
_cell_length_b   8.56044000
_cell_length_c   16.25615300
_cell_angle_alpha   90.00000000
_cell_angle_beta   90.00000000
_cell_angle_gamma   90.00000000
_symmetry_Int_Tables_number   1
_chemical_formula_structural   La2Sm3Pb4
_chemical_formula_sum   'La8 Sm12 Pb16'
_cell_volume   1178.56930625
_cell_formula_units_Z   4
loop_
 _symmetry_equiv_pos_site_id
 _symmetry_equiv_pos_as_xyz
  1  'x, y, z'
loop_
 _atom_site_type_symbol
 _atom_site_label
 _atom_site_symmetry_multiplicity
 _atom_site_fract_x
 _atom_site_fract_y
 _atom_site_fract_z
 _atom_site_occupancy
  La  La0  1  0.029526  0.179478  0.100067  1
  La  La1  1  0.529526  0.320522  0.399933  1
  La  La2  1  0.470474  0.679478  0.899933  1
  La  La3  1  0.970474  0.820522  0.600067  1
  La  La4  1  0.970474  0.820522  0.899933  1
  La  La5  1  0.470474  0.679478  0.600067  1
  La  La6  1  0.529526  0.320522  0.100067  1
  La  La7  1  0.029526  0.179478  0.399933  1
  Sm  Sm8  1  0.876568  0.658947  0.119291  1
  Sm  Sm9  1  0.376568  0.841053  0.380709  1
  Sm  Sm10  1  0.623432  0.158947  0.880709  1
  Sm  Sm11  1  0.123432  0.341053  0.619291  1
  Sm  Sm12  1  0.123432  0.341053  0.880709  1
  Sm  Sm13  1  0.623432  0.158947  0.619291  1
  Sm  Sm14  1  0.376568  0.841053  0.119291  1
  Sm  Sm15  1  0.876568  0.658947  0.380709  1
  Sm  Sm16  1  0.708661  0.995349  0.250000  1
  Sm  Sm17  1  0.208661  0.504651  0.250000  1
  Sm  Sm18  1  0.791339  0.495349  0.750000  1
  Sm  Sm19  1  0.291339  0.004651  0.750000  1
  Pb  Pb20  1  0.073461  0.871037  0.250000  1
  Pb  Pb21  1  0.573461  0.628963  0.250000  1
  Pb  Pb22  1  0.426539  0.371037  0.750000  1
  Pb  Pb23  1  0.926539  0.128963  0.750000  1
  Pb  Pb24  1  0.838865  0.355451  0.250000  1
  Pb  Pb25  1  0.338865  0.144549  0.250000  1
  Pb  Pb26  1  0.661135  0.855451  0.750000  1
  Pb  Pb27  1  0.161135  0.644549  0.750000  1
  Pb  Pb28  1  0.783567  0.465382  0.956069  1
  Pb  Pb29  1  0.283567  0.034618  0.543931  1
  Pb  Pb30  1  0.716433  0.965382  0.043931  1
  Pb  Pb31  1  0.216433  0.534618  0.456069  1
  Pb  Pb32  1  0.216433  0.534618  0.043931  1
  Pb  Pb33  1  0.716433  0.965382  0.456069  1
  Pb  Pb34  1  0.283567  0.034618  0.956069  1
  Pb  Pb35  1  0.783567  0.465382  0.543931  1
