# generated using pymatgen
data_Tb7Dy5In2(CoOs)2
_symmetry_space_group_name_H-M   'P 1'
_cell_length_a   8.45572376
_cell_length_b   8.45572468
_cell_length_c   8.45564202
_cell_angle_alpha   112.94135459
_cell_angle_beta   110.04753396
_cell_angle_gamma   105.51072702
_symmetry_Int_Tables_number   1
_chemical_formula_structural   Tb7Dy5In2(CoOs)2
_chemical_formula_sum   'Tb7 Dy5 In2 Co2 Os2'
_cell_volume   463.42569523
_cell_formula_units_Z   1
loop_
 _symmetry_equiv_pos_site_id
 _symmetry_equiv_pos_as_xyz
  1  'x, y, z'
loop_
 _atom_site_type_symbol
 _atom_site_label
 _atom_site_symmetry_multiplicity
 _atom_site_fract_x
 _atom_site_fract_y
 _atom_site_fract_z
 _atom_site_occupancy
  Tb  Tb0  1  0.442420  0.241804  0.200579  1
  Tb  Tb1  1  0.557623  0.758233  0.799423  1
  Tb  Tb2  1  0.041190  0.241802  0.799423  1
  Tb  Tb3  1  0.958776  0.758158  0.200579  1
  Tb  Tb4  1  0.183532  0.284292  0.467825  1
  Tb  Tb5  1  0.816439  0.715699  0.532136  1
  Tb  Tb6  1  0.183571  0.715723  0.899295  1
  Dy  Dy7  1  0.816450  0.284247  0.100697  1
  Dy  Dy8  1  0.324718  0.641295  0.316548  1
  Dy  Dy9  1  0.675267  0.358683  0.683473  1
  Dy  Dy10  1  0.324789  0.008205  0.683473  1
  Dy  Dy11  1  0.675253  0.991830  0.316548  1
  In  In12  1  0.500004  0.499996  0.000000  1
  In  In13  1  0.999979  0.000040  0.000020  1
  Co  Co14  1  0.110797  0.610784  0.499957  1
  Co  Co15  1  0.889173  0.389160  0.499957  1
  Os  Os16  1  0.330794  0.000004  0.330798  1
  Os  Os17  1  0.669223  0.000047  0.669269  1
