# generated using pymatgen
data_Pr4ZnSi6Rh
_symmetry_space_group_name_H-M   'P 1'
_cell_length_a   8.26572600
_cell_length_b   8.26572490
_cell_length_c   8.64301200
_cell_angle_alpha   90.00000000
_cell_angle_beta   90.00000000
_cell_angle_gamma   119.99999641
_symmetry_Int_Tables_number   1
_chemical_formula_structural   Pr4ZnSi6Rh
_chemical_formula_sum   'Pr8 Zn2 Si12 Rh2'
_cell_volume   511.39645712
_cell_formula_units_Z   2
loop_
 _symmetry_equiv_pos_site_id
 _symmetry_equiv_pos_as_xyz
  1  'x, y, z'
loop_
 _atom_site_type_symbol
 _atom_site_label
 _atom_site_symmetry_multiplicity
 _atom_site_fract_x
 _atom_site_fract_y
 _atom_site_fract_z
 _atom_site_occupancy
  Pr  Pr0  1  0.000000  0.000000  0.250000  1
  Pr  Pr1  1  0.000000  0.000000  0.750000  1
  Pr  Pr2  1  0.994206  0.497102  0.250000  1
  Pr  Pr3  1  0.502898  0.497102  0.250000  1
  Pr  Pr4  1  0.503420  0.006840  0.750000  1
  Pr  Pr5  1  0.502898  0.005794  0.250000  1
  Pr  Pr6  1  0.503420  0.496580  0.750000  1
  Pr  Pr7  1  0.993160  0.496580  0.750000  1
  Zn  Zn8  1  0.333333  0.666667  0.996536  1
  Zn  Zn9  1  0.333333  0.666667  0.503464  1
  Si  Si10  1  0.163458  0.326916  0.000383  1
  Si  Si11  1  0.673084  0.836542  0.000383  1
  Si  Si12  1  0.163458  0.326916  0.499617  1
  Si  Si13  1  0.338871  0.169437  0.000333  1
  Si  Si14  1  0.163458  0.836542  0.000383  1
  Si  Si15  1  0.673084  0.836542  0.499617  1
  Si  Si16  1  0.830563  0.661129  0.000333  1
  Si  Si17  1  0.338871  0.169437  0.499667  1
  Si  Si18  1  0.163458  0.836542  0.499617  1
  Si  Si19  1  0.830563  0.661129  0.499667  1
  Si  Si20  1  0.830563  0.169437  0.000333  1
  Si  Si21  1  0.830563  0.169437  0.499667  1
  Rh  Rh22  1  0.666667  0.333333  0.999813  1
  Rh  Rh23  1  0.666667  0.333333  0.500187  1
