# generated using pymatgen
data_Ho12Ni4HgIr
_symmetry_space_group_name_H-M   'P 1'
_cell_length_a   8.24777699
_cell_length_b   8.24059970
_cell_length_c   8.24777682
_cell_angle_alpha   110.93693740
_cell_angle_beta   109.91235992
_cell_angle_gamma   107.61693805
_symmetry_Int_Tables_number   1
_chemical_formula_structural   Ho12Ni4HgIr
_chemical_formula_sum   'Ho12 Ni4 Hg1 Ir1'
_cell_volume   430.96622359
_cell_formula_units_Z   1
loop_
 _symmetry_equiv_pos_site_id
 _symmetry_equiv_pos_as_xyz
  1  'x, y, z'
loop_
 _atom_site_type_symbol
 _atom_site_label
 _atom_site_symmetry_multiplicity
 _atom_site_fract_x
 _atom_site_fract_y
 _atom_site_fract_z
 _atom_site_occupancy
  Ho  Ho0  1  0.416124  0.227025  0.189252  1
  Ho  Ho1  1  0.583876  0.772975  0.810748  1
  Ho  Ho2  1  0.037773  0.227025  0.810900  1
  Ho  Ho3  1  0.962227  0.772975  0.189100  1
  Ho  Ho4  1  0.178389  0.279858  0.458335  1
  Ho  Ho5  1  0.821611  0.720142  0.541665  1
  Ho  Ho6  1  0.178478  0.720142  0.898531  1
  Ho  Ho7  1  0.821522  0.279858  0.101469  1
  Ho  Ho8  1  0.324549  0.630670  0.306122  1
  Ho  Ho9  1  0.675451  0.369330  0.693878  1
  Ho  Ho10  1  0.324263  0.017765  0.693503  1
  Ho  Ho11  1  0.675737  0.982235  0.306497  1
  Ni  Ni12  1  0.355649  0.000000  0.355649  1
  Ni  Ni13  1  0.644351  0.000000  0.644351  1
  Ni  Ni14  1  0.120116  0.619098  0.498983  1
  Ni  Ni15  1  0.879884  0.380902  0.501017  1
  Hg  Hg16  1  0.500000  0.500000  0.000000  1
  Ir  Ir17  1  0.000000  0.000000  0.000000  1
