# generated using pymatgen
data_Er8Si13Ge
_symmetry_space_group_name_H-M   'P 1'
_cell_length_a   7.18588337
_cell_length_b   7.18588378
_cell_length_c   11.28672707
_cell_angle_alpha   89.93407851
_cell_angle_beta   89.93408072
_cell_angle_gamma   133.70448634
_symmetry_Int_Tables_number   1
_chemical_formula_structural   Er8Si13Ge
_chemical_formula_sum   'Er8 Si13 Ge1'
_cell_volume   421.32048863
_cell_formula_units_Z   1
loop_
 _symmetry_equiv_pos_site_id
 _symmetry_equiv_pos_as_xyz
  1  'x, y, z'
loop_
 _atom_site_type_symbol
 _atom_site_label
 _atom_site_symmetry_multiplicity
 _atom_site_fract_x
 _atom_site_fract_y
 _atom_site_fract_z
 _atom_site_occupancy
  Er  Er0  1  0.516163  0.516659  0.501183  1
  Er  Er1  1  0.483341  0.483837  0.998817  1
  Er  Er2  1  0.001052  0.998948  0.250000  1
  Er  Er3  1  0.998223  0.001777  0.750000  1
  Er  Er4  1  0.021185  0.513081  0.620065  1
  Er  Er5  1  0.513621  0.020181  0.380648  1
  Er  Er6  1  0.979819  0.486379  0.119352  1
  Er  Er7  1  0.486919  0.978815  0.879935  1
  Si  Si8  1  0.436452  0.563548  0.750000  1
  Si  Si9  1  0.826768  0.525562  0.840805  1
  Si  Si10  1  0.525692  0.827387  0.158922  1
  Si  Si11  1  0.172613  0.474308  0.341078  1
  Si  Si12  1  0.474438  0.173232  0.659195  1
  Si  Si13  1  0.077410  0.418205  0.871297  1
  Si  Si14  1  0.415788  0.072297  0.126780  1
  Si  Si15  1  0.931169  0.107426  0.491345  1
  Si  Si16  1  0.107997  0.931490  0.508710  1
  Si  Si17  1  0.068510  0.892003  0.991290  1
  Si  Si18  1  0.892574  0.068831  0.008655  1
  Si  Si19  1  0.581795  0.922590  0.628703  1
  Si  Si20  1  0.927703  0.584212  0.373220  1
  Ge  Ge21  1  0.560770  0.439230  0.250000  1
