# generated using pymatgen
data_ErTm9(GaSb)4
_symmetry_space_group_name_H-M   'P 1'
_cell_length_a   8.53871365
_cell_length_b   8.53696273
_cell_length_c   7.83414704
_cell_angle_alpha   90.00714192
_cell_angle_beta   90.00341899
_cell_angle_gamma   125.40808233
_symmetry_Int_Tables_number   1
_chemical_formula_structural   ErTm9(GaSb)4
_chemical_formula_sum   'Er1 Tm9 Ga4 Sb4'
_cell_volume   465.44642949
_cell_formula_units_Z   1
loop_
 _symmetry_equiv_pos_site_id
 _symmetry_equiv_pos_as_xyz
  1  'x, y, z'
loop_
 _atom_site_type_symbol
 _atom_site_label
 _atom_site_symmetry_multiplicity
 _atom_site_fract_x
 _atom_site_fract_y
 _atom_site_fract_z
 _atom_site_occupancy
  Er  Er0  1  0.538856  0.797795  0.166990  1
  Tm  Tm1  1  0.297241  0.038897  0.333262  1
  Tm  Tm2  1  0.202657  0.461009  0.833163  1
  Tm  Tm3  1  0.961100  0.702691  0.666787  1
  Tm  Tm4  1  0.702778  0.961101  0.666745  1
  Tm  Tm5  1  0.461082  0.202631  0.833255  1
  Tm  Tm6  1  0.797290  0.538875  0.166730  1
  Tm  Tm7  1  0.038927  0.297272  0.333244  1
  Tm  Tm8  1  0.499966  0.499855  0.500123  1
  Tm  Tm9  1  0.000191  0.000083  0.999918  1
  Ga  Ga10  1  0.627175  0.627050  0.872968  1
  Ga  Ga11  1  0.127202  0.127165  0.626880  1
  Ga  Ga12  1  0.873007  0.872849  0.373236  1
  Ga  Ga13  1  0.372758  0.372613  0.126847  1
  Sb  Sb14  1  0.294015  0.705662  0.500279  1
  Sb  Sb15  1  0.205461  0.794165  0.999847  1
  Sb  Sb16  1  0.705771  0.294155  0.499945  1
  Sb  Sb17  1  0.794522  0.206133  0.999780  1
