# generated using pymatgen
data_Ta2VCr3
_symmetry_space_group_name_H-M   'P 1'
_cell_length_a   4.92478978
_cell_length_b   4.92479001
_cell_length_c   4.95298902
_cell_angle_alpha   60.18815904
_cell_angle_beta   60.18815907
_cell_angle_gamma   59.99999278
_symmetry_Int_Tables_number   1
_chemical_formula_structural   Ta2VCr3
_chemical_formula_sum   'Ta2 V1 Cr3'
_cell_volume   85.18381080
_cell_formula_units_Z   1
loop_
 _symmetry_equiv_pos_site_id
 _symmetry_equiv_pos_as_xyz
  1  'x, y, z'
loop_
 _atom_site_type_symbol
 _atom_site_label
 _atom_site_symmetry_multiplicity
 _atom_site_fract_x
 _atom_site_fract_y
 _atom_site_fract_z
 _atom_site_occupancy
  Ta  Ta0  1  0.500370  0.500370  0.498890  1
  Ta  Ta1  1  0.749630  0.749630  0.751110  1
  V  V2  1  0.125000  0.125000  0.625000  1
  Cr  Cr3  1  0.125000  0.125000  0.125000  1
  Cr  Cr4  1  0.625000  0.125000  0.125000  1
  Cr  Cr5  1  0.125000  0.625000  0.125000  1
