# generated using pymatgen
data_Tm3Al12FeCo3
_symmetry_space_group_name_H-M   'P 1'
_cell_length_a   8.66605100
_cell_length_b   8.66605184
_cell_length_c   9.18395000
_cell_angle_alpha   90.00000000
_cell_angle_beta   90.00000000
_cell_angle_gamma   120.00000060
_symmetry_Int_Tables_number   1
_chemical_formula_structural   Tm3Al12FeCo3
_chemical_formula_sum   'Tm6 Al24 Fe2 Co6'
_cell_volume   597.31395737
_cell_formula_units_Z   2
loop_
 _symmetry_equiv_pos_site_id
 _symmetry_equiv_pos_as_xyz
  1  'x, y, z'
loop_
 _atom_site_type_symbol
 _atom_site_label
 _atom_site_symmetry_multiplicity
 _atom_site_fract_x
 _atom_site_fract_y
 _atom_site_fract_z
 _atom_site_occupancy
  Tm  Tm0  1  0.193902  0.387802  0.250000  1
  Tm  Tm1  1  0.806098  0.612198  0.750000  1
  Tm  Tm2  1  0.612198  0.806098  0.250000  1
  Tm  Tm3  1  0.387802  0.193902  0.750000  1
  Tm  Tm4  1  0.193902  0.806098  0.250000  1
  Tm  Tm5  1  0.806098  0.193902  0.750000  1
  Al  Al6  1  0.333333  0.666667  0.017730  1
  Al  Al7  1  0.666667  0.333333  0.982270  1
  Al  Al8  1  0.666667  0.333333  0.517730  1
  Al  Al9  1  0.333333  0.666667  0.482270  1
  Al  Al10  1  0.161616  0.323234  0.575837  1
  Al  Al11  1  0.838384  0.676766  0.424163  1
  Al  Al12  1  0.676766  0.838384  0.575837  1
  Al  Al13  1  0.838384  0.676766  0.075837  1
  Al  Al14  1  0.323234  0.161616  0.424163  1
  Al  Al15  1  0.161616  0.323234  0.924163  1
  Al  Al16  1  0.161616  0.838384  0.575837  1
  Al  Al17  1  0.323234  0.161616  0.075837  1
  Al  Al18  1  0.838384  0.161616  0.424163  1
  Al  Al19  1  0.676766  0.838384  0.924163  1
  Al  Al20  1  0.838384  0.161616  0.075837  1
  Al  Al21  1  0.161616  0.838384  0.924163  1
  Al  Al22  1  0.559114  0.118228  0.250000  1
  Al  Al23  1  0.440886  0.881772  0.750000  1
  Al  Al24  1  0.881772  0.440886  0.250000  1
  Al  Al25  1  0.118228  0.559114  0.750000  1
  Al  Al26  1  0.559114  0.440886  0.250000  1
  Al  Al27  1  0.440886  0.559114  0.750000  1
  Al  Al28  1  0.000000  0.000000  0.250000  1
  Al  Al29  1  0.000000  0.000000  0.750000  1
  Fe  Fe30  1  0.000000  0.000000  0.000000  1
  Fe  Fe31  1  0.000000  0.000000  0.500000  1
  Co  Co32  1  0.500000  0.000000  0.000000  1
  Co  Co33  1  0.000000  0.500000  0.000000  1
  Co  Co34  1  0.500000  0.000000  0.500000  1
  Co  Co35  1  0.500000  0.500000  0.000000  1
  Co  Co36  1  0.000000  0.500000  0.500000  1
  Co  Co37  1  0.500000  0.500000  0.500000  1
