# generated using pymatgen
data_Ho3Th5(ReC2)4
_symmetry_space_group_name_H-M   'P 1'
_cell_length_a   5.29695300
_cell_length_b   6.66909789
_cell_length_c   9.93715412
_cell_angle_alpha   90.19863233
_cell_angle_beta   90.00000000
_cell_angle_gamma   90.00000000
_symmetry_Int_Tables_number   1
_chemical_formula_structural   Ho3Th5(ReC2)4
_chemical_formula_sum   'Ho3 Th5 Re4 C8'
_cell_volume   351.03678420
_cell_formula_units_Z   1
loop_
 _symmetry_equiv_pos_site_id
 _symmetry_equiv_pos_as_xyz
  1  'x, y, z'
loop_
 _atom_site_type_symbol
 _atom_site_label
 _atom_site_symmetry_multiplicity
 _atom_site_fract_x
 _atom_site_fract_y
 _atom_site_fract_z
 _atom_site_occupancy
  Ho  Ho0  1  0.750000  0.675659  0.551643  1
  Ho  Ho1  1  0.250000  0.323464  0.448256  1
  Ho  Ho2  1  0.750000  0.179686  0.946629  1
  Th  Th3  1  0.250000  0.469843  0.781340  1
  Th  Th4  1  0.750000  0.029099  0.284740  1
  Th  Th5  1  0.250000  0.973202  0.712767  1
  Th  Th6  1  0.750000  0.525175  0.221420  1
  Th  Th7  1  0.250000  0.814456  0.047343  1
  Re  Re8  1  0.250000  0.273594  0.137276  1
  Re  Re9  1  0.750000  0.228886  0.635987  1
  Re  Re10  1  0.250000  0.772579  0.366674  1
  Re  Re11  1  0.750000  0.729058  0.860569  1
  C  C12  1  0.250000  0.170841  0.947488  1
  C  C13  1  0.750000  0.833109  0.052034  1
  C  C14  1  0.250000  0.669735  0.552949  1
  C  C15  1  0.750000  0.331240  0.448407  1
  C  C16  1  0.250000  0.040898  0.263011  1
  C  C17  1  0.750000  0.462068  0.759224  1
  C  C18  1  0.250000  0.535335  0.244447  1
  C  C19  1  0.750000  0.962072  0.737797  1
