# generated using pymatgen
data_CoCuBi2(Pt2O7)2
_symmetry_space_group_name_H-M   'P 1'
_cell_length_a   7.10332530
_cell_length_b   7.25087012
_cell_length_c   7.25086986
_cell_angle_alpha   60.82789029
_cell_angle_beta   59.81258853
_cell_angle_gamma   59.81259266
_symmetry_Int_Tables_number   1
_chemical_formula_structural   CoCuBi2(Pt2O7)2
_chemical_formula_sum   'Co1 Cu1 Bi2 Pt4 O14'
_cell_volume   264.92254238
_cell_formula_units_Z   1
loop_
 _symmetry_equiv_pos_site_id
 _symmetry_equiv_pos_as_xyz
  1  'x, y, z'
loop_
 _atom_site_type_symbol
 _atom_site_label
 _atom_site_symmetry_multiplicity
 _atom_site_fract_x
 _atom_site_fract_y
 _atom_site_fract_z
 _atom_site_occupancy
  Co  Co0  1  0.125000  0.125000  0.125000  1
  Cu  Cu1  1  0.625000  0.125000  0.125000  1
  Bi  Bi2  1  0.125000  0.125000  0.625000  1
  Bi  Bi3  1  0.125000  0.625000  0.125000  1
  Pt  Pt4  1  0.625000  0.625000  0.125000  1
  Pt  Pt5  1  0.625000  0.125000  0.625000  1
  Pt  Pt6  1  0.125000  0.625000  0.625000  1
  Pt  Pt7  1  0.625000  0.625000  0.625000  1
  O  O8  1  0.278778  0.232055  0.232055  1
  O  O9  1  0.971222  0.017945  0.017945  1
  O  O10  1  0.543354  0.959440  0.536937  1
  O  O11  1  0.282514  0.721519  0.286664  1
  O  O12  1  0.543354  0.536937  0.959440  1
  O  O13  1  0.965453  0.536113  0.536113  1
  O  O14  1  0.532186  0.962670  0.962670  1
  O  O15  1  0.967486  0.963336  0.528481  1
  O  O16  1  0.967486  0.528481  0.963336  1
  O  O17  1  0.717814  0.287330  0.287330  1
  O  O18  1  0.284547  0.713887  0.713887  1
  O  O19  1  0.706646  0.290560  0.713063  1
  O  O20  1  0.282514  0.286664  0.721519  1
  O  O21  1  0.706646  0.713063  0.290560  1
