# generated using pymatgen
data_Tm8AlPdPt23
_symmetry_space_group_name_H-M   'P 1'
_cell_length_a   8.35879900
_cell_length_b   8.34411600
_cell_length_c   8.34411600
_cell_angle_alpha   90.00000000
_cell_angle_beta   90.00000000
_cell_angle_gamma   90.00000000
_symmetry_Int_Tables_number   1
_chemical_formula_structural   Tm8AlPdPt23
_chemical_formula_sum   'Tm8 Al1 Pd1 Pt23'
_cell_volume   581.97529368
_cell_formula_units_Z   1
loop_
 _symmetry_equiv_pos_site_id
 _symmetry_equiv_pos_as_xyz
  1  'x, y, z'
loop_
 _atom_site_type_symbol
 _atom_site_label
 _atom_site_symmetry_multiplicity
 _atom_site_fract_x
 _atom_site_fract_y
 _atom_site_fract_z
 _atom_site_occupancy
  Tm  Tm0  1  0.251272  0.250922  0.749078  1
  Tm  Tm1  1  0.251272  0.749078  0.250922  1
  Tm  Tm2  1  0.748157  0.251768  0.251768  1
  Tm  Tm3  1  0.748157  0.748232  0.748232  1
  Tm  Tm4  1  0.748157  0.748232  0.251768  1
  Tm  Tm5  1  0.748157  0.251768  0.748232  1
  Tm  Tm6  1  0.251272  0.749078  0.749078  1
  Tm  Tm7  1  0.251272  0.250922  0.250922  1
  Al  Al8  1  0.004515  0.000000  0.000000  1
  Pd  Pd9  1  0.710629  0.000000  0.000000  1
  Pt  Pt10  1  0.499573  0.500000  0.746728  1
  Pt  Pt11  1  0.499573  0.253272  0.500000  1
  Pt  Pt12  1  0.253549  0.500000  0.500000  1
  Pt  Pt13  1  0.499573  0.500000  0.253272  1
  Pt  Pt14  1  0.499573  0.746728  0.500000  1
  Pt  Pt15  1  0.746343  0.500000  0.500000  1
  Pt  Pt16  1  0.998598  0.000000  0.707895  1
  Pt  Pt17  1  0.998598  0.292105  0.000000  1
  Pt  Pt18  1  0.296338  0.000000  0.000000  1
  Pt  Pt19  1  0.998598  0.000000  0.292105  1
  Pt  Pt20  1  0.998598  0.707895  0.000000  1
  Pt  Pt21  1  0.000079  0.500000  0.738931  1
  Pt  Pt22  1  0.500304  0.260750  0.000000  1
  Pt  Pt23  1  0.260611  0.000000  0.500000  1
  Pt  Pt24  1  0.000079  0.261069  0.500000  1
  Pt  Pt25  1  0.500304  0.000000  0.739250  1
  Pt  Pt26  1  0.260611  0.500000  0.000000  1
  Pt  Pt27  1  0.000079  0.500000  0.261069  1
  Pt  Pt28  1  0.500304  0.739250  0.000000  1
  Pt  Pt29  1  0.000079  0.738931  0.500000  1
  Pt  Pt30  1  0.500304  0.000000  0.260750  1
  Pt  Pt31  1  0.737737  0.000000  0.500000  1
  Pt  Pt32  1  0.737737  0.500000  0.000000  1
