# generated using pymatgen
data_Ti2Mn(ZnRh2)3
_symmetry_space_group_name_H-M   'P 1'
_cell_length_a   4.29545500
_cell_length_b   6.12629100
_cell_length_c   12.90339700
_cell_angle_alpha   90.00000000
_cell_angle_beta   89.99992446
_cell_angle_gamma   90.00000000
_symmetry_Int_Tables_number   1
_chemical_formula_structural   Ti2Mn(ZnRh2)3
_chemical_formula_sum   'Ti4 Mn2 Zn6 Rh12'
_cell_volume   339.55556702
_cell_formula_units_Z   2
loop_
 _symmetry_equiv_pos_site_id
 _symmetry_equiv_pos_as_xyz
  1  'x, y, z'
loop_
 _atom_site_type_symbol
 _atom_site_label
 _atom_site_symmetry_multiplicity
 _atom_site_fract_x
 _atom_site_fract_y
 _atom_site_fract_z
 _atom_site_occupancy
  Ti  Ti0  1  0.999983  0.500001  0.996872  1
  Ti  Ti1  1  0.499863  0.000000  0.165782  1
  Ti  Ti2  1  0.999861  0.500001  0.334229  1
  Ti  Ti3  1  0.499983  0.000000  0.503109  1
  Mn  Mn4  1  0.000200  0.500001  0.668403  1
  Mn  Mn5  1  0.500207  0.000000  0.831664  1
  Zn  Zn6  1  0.999971  0.000000  0.998440  1
  Zn  Zn7  1  0.499866  0.500001  0.165428  1
  Zn  Zn8  1  0.999860  0.000000  0.334571  1
  Zn  Zn9  1  0.499973  0.500001  0.501501  1
  Zn  Zn10  1  0.000119  0.000000  0.668837  1
  Zn  Zn11  1  0.500123  0.500001  0.831164  1
  Rh  Rh12  1  0.499984  0.249153  0.999849  1
  Rh  Rh13  1  0.499984  0.750846  0.999849  1
  Rh  Rh14  1  0.999891  0.249376  0.166711  1
  Rh  Rh15  1  0.999891  0.750624  0.166711  1
  Rh  Rh16  1  0.499892  0.250612  0.333308  1
  Rh  Rh17  1  0.499892  0.749387  0.333308  1
  Rh  Rh18  1  0.999983  0.250845  0.500164  1
  Rh  Rh19  1  0.999983  0.749155  0.500164  1
  Rh  Rh20  1  0.500123  0.250418  0.665460  1
  Rh  Rh21  1  0.500123  0.749581  0.665460  1
  Rh  Rh22  1  0.000121  0.249563  0.834508  1
  Rh  Rh23  1  0.000121  0.750437  0.834508  1
