# generated using pymatgen
data_Y2LuPa(Ga3Rh)6
_symmetry_space_group_name_H-M   'P 1'
_cell_length_a   7.59759057
_cell_length_b   7.59203810
_cell_length_c   9.46941100
_cell_angle_alpha   90.00000000
_cell_angle_beta   90.00000000
_cell_angle_gamma   119.78213264
_symmetry_Int_Tables_number   1
_chemical_formula_structural   Y2LuPa(Ga3Rh)6
_chemical_formula_sum   'Y2 Lu1 Pa1 Ga18 Rh6'
_cell_volume   474.06415919
_cell_formula_units_Z   1
loop_
 _symmetry_equiv_pos_site_id
 _symmetry_equiv_pos_as_xyz
  1  'x, y, z'
loop_
 _atom_site_type_symbol
 _atom_site_label
 _atom_site_symmetry_multiplicity
 _atom_site_fract_x
 _atom_site_fract_y
 _atom_site_fract_z
 _atom_site_occupancy
  Y  Y0  1  0.003329  0.330773  0.750000  1
  Y  Y1  1  0.670849  0.997344  0.250000  1
  Lu  Lu2  1  0.329699  0.001954  0.750000  1
  Pa  Pa3  1  0.997696  0.669307  0.250000  1
  Ga  Ga4  1  0.337638  0.545825  0.250000  1
  Ga  Ga5  1  0.660487  0.450099  0.750000  1
  Ga  Ga6  1  0.545876  0.340224  0.250000  1
  Ga  Ga7  1  0.452002  0.662565  0.750000  1
  Ga  Ga8  1  0.999557  0.331482  0.079068  1
  Ga  Ga9  1  0.001310  0.666315  0.916246  1
  Ga  Ga10  1  0.001310  0.666315  0.583754  1
  Ga  Ga11  1  0.338241  0.002728  0.421365  1
  Ga  Ga12  1  0.999557  0.331482  0.420932  1
  Ga  Ga13  1  0.664208  0.001041  0.581727  1
  Ga  Ga14  1  0.664208  0.001041  0.918273  1
  Ga  Ga15  1  0.338241  0.002728  0.078635  1
  Ga  Ga16  1  0.331819  0.330699  0.569760  1
  Ga  Ga17  1  0.663962  0.667280  0.435420  1
  Ga  Ga18  1  0.663962  0.667280  0.064580  1
  Ga  Ga19  1  0.331819  0.330699  0.930240  1
  Ga  Ga20  1  0.130241  0.128937  0.250000  1
  Ga  Ga21  1  0.874433  0.874922  0.750000  1
  Rh  Rh22  1  0.673215  0.330840  0.001313  1
  Rh  Rh23  1  0.326502  0.671304  0.001177  1
  Rh  Rh24  1  0.326502  0.671304  0.498823  1
  Rh  Rh25  1  0.673215  0.330840  0.498687  1
  Rh  Rh26  1  0.000059  0.997338  0.001647  1
  Rh  Rh27  1  0.000059  0.997338  0.498353  1
