# generated using pymatgen
data_La3Tm2P12Ir8Ru11
_symmetry_space_group_name_H-M   'P 1'
_cell_length_a   12.68940271
_cell_length_b   12.68728774
_cell_length_c   3.98629000
_cell_angle_alpha   90.00000000
_cell_angle_beta   90.00000000
_cell_angle_gamma   119.80620270
_symmetry_Int_Tables_number   1
_chemical_formula_structural   La3Tm2P12Ir8Ru11
_chemical_formula_sum   'La3 Tm2 P12 Ir8 Ru11'
_cell_volume   556.87059616
_cell_formula_units_Z   1
loop_
 _symmetry_equiv_pos_site_id
 _symmetry_equiv_pos_as_xyz
  1  'x, y, z'
loop_
 _atom_site_type_symbol
 _atom_site_label
 _atom_site_symmetry_multiplicity
 _atom_site_fract_x
 _atom_site_fract_y
 _atom_site_fract_z
 _atom_site_occupancy
  La  La0  1  0.189255  0.189590  0.000000  1
  La  La1  1  0.811552  0.999607  0.000000  1
  La  La2  1  0.001101  0.812011  0.000000  1
  Tm  Tm3  1  0.333031  0.665823  0.500000  1
  Tm  Tm4  1  0.667212  0.334313  0.500000  1
  P  P5  1  0.301783  0.818595  0.000000  1
  P  P6  1  0.177778  0.483865  0.000000  1
  P  P7  1  0.515220  0.690724  0.000000  1
  P  P8  1  0.823005  0.304923  0.000000  1
  P  P9  1  0.482307  0.177716  0.000000  1
  P  P10  1  0.695169  0.519269  0.000000  1
  P  P11  1  0.368399  0.375171  0.500000  1
  P  P12  1  0.630043  0.998273  0.500000  1
  P  P13  1  0.005781  0.631682  0.500000  1
  P  P14  1  0.813275  0.813201  0.500000  1
  P  P15  1  0.189199  0.001323  0.500000  1
  P  P16  1  0.999928  0.187190  0.500000  1
  Ir  Ir17  1  0.502375  0.869452  0.000000  1
  Ir  Ir18  1  0.633061  0.129789  0.000000  1
  Ir  Ir19  1  0.497936  0.367883  0.000000  1
  Ir  Ir20  1  0.868784  0.502356  0.000000  1
  Ir  Ir21  1  0.710615  0.710880  0.000000  1
  Ir  Ir22  1  0.291911  0.001179  0.000000  1
  Ir  Ir23  1  0.998578  0.288914  0.000000  1
  Ir  Ir24  1  0.001131  0.000151  0.500000  1
  Ru  Ru25  1  0.202188  0.818463  0.500000  1
  Ru  Ru26  1  0.180773  0.383041  0.500000  1
  Ru  Ru27  1  0.615822  0.799627  0.500000  1
  Ru  Ru28  1  0.814641  0.197757  0.500000  1
  Ru  Ru29  1  0.383978  0.185942  0.500000  1
  Ru  Ru30  1  0.803037  0.618168  0.500000  1
  Ru  Ru31  1  0.124563  0.631619  0.000000  1
  Ru  Ru32  1  0.366255  0.492672  0.000000  1
  Ru  Ru33  1  0.551960  0.549746  0.500000  1
  Ru  Ru34  1  0.452422  0.001475  0.500000  1
  Ru  Ru35  1  0.995930  0.447610  0.500000  1
