# generated using pymatgen
data_Y5Tl2InCl
_symmetry_space_group_name_H-M   'P 1'
_cell_length_a   9.12339380
_cell_length_b   9.12339348
_cell_length_c   6.75962900
_cell_angle_alpha   90.00000000
_cell_angle_beta   90.00000000
_cell_angle_gamma   119.95850561
_symmetry_Int_Tables_number   1
_chemical_formula_structural   Y5Tl2InCl
_chemical_formula_sum   'Y10 Tl4 In2 Cl2'
_cell_volume   487.46984653
_cell_formula_units_Z   2
loop_
 _symmetry_equiv_pos_site_id
 _symmetry_equiv_pos_as_xyz
  1  'x, y, z'
loop_
 _atom_site_type_symbol
 _atom_site_label
 _atom_site_symmetry_multiplicity
 _atom_site_fract_x
 _atom_site_fract_y
 _atom_site_fract_z
 _atom_site_occupancy
  Y  Y0  1  0.742806  0.742806  0.250000  1
  Y  Y1  1  0.999681  0.742839  0.750000  1
  Y  Y2  1  0.742839  0.999681  0.750000  1
  Y  Y3  1  0.257194  0.257194  0.750000  1
  Y  Y4  1  0.000319  0.257161  0.250000  1
  Y  Y5  1  0.257161  0.000319  0.250000  1
  Y  Y6  1  0.333675  0.666325  0.500000  1
  Y  Y7  1  0.666325  0.333675  0.500000  1
  Y  Y8  1  0.333675  0.666325  0.000000  1
  Y  Y9  1  0.666325  0.333675  0.000000  1
  Tl  Tl10  1  0.395321  0.999834  0.750000  1
  Tl  Tl11  1  0.000166  0.604679  0.250000  1
  Tl  Tl12  1  0.604679  0.000166  0.250000  1
  Tl  Tl13  1  0.999834  0.395321  0.750000  1
  In  In14  1  0.395681  0.395681  0.250000  1
  In  In15  1  0.604319  0.604319  0.750000  1
  Cl  Cl16  1  0.000000  0.000000  0.500000  1
  Cl  Cl17  1  0.000000  0.000000  0.000000  1
