# generated using pymatgen
data_LiNp4(BrN)4
_symmetry_space_group_name_H-M   'P 1'
_cell_length_a   3.82933100
_cell_length_b   6.61496308
_cell_length_c   10.67129366
_cell_angle_alpha   77.74621865
_cell_angle_beta   90.00000000
_cell_angle_gamma   90.00000000
_symmetry_Int_Tables_number   1
_chemical_formula_structural   LiNp4(BrN)4
_chemical_formula_sum   'Li1 Np4 Br4 N4'
_cell_volume   264.15477298
_cell_formula_units_Z   1
loop_
 _symmetry_equiv_pos_site_id
 _symmetry_equiv_pos_as_xyz
  1  'x, y, z'
loop_
 _atom_site_type_symbol
 _atom_site_label
 _atom_site_symmetry_multiplicity
 _atom_site_fract_x
 _atom_site_fract_y
 _atom_site_fract_z
 _atom_site_occupancy
  Li  Li0  1  0.000000  0.000000  0.000000  1
  Np  Np1  1  0.500000  0.711708  0.366247  1
  Np  Np2  1  0.000000  0.213058  0.367265  1
  Np  Np3  1  0.500000  0.288292  0.633753  1
  Np  Np4  1  0.000000  0.786942  0.632735  1
  Br  Br5  1  0.000000  0.382177  0.837637  1
  Br  Br6  1  0.500000  0.885093  0.845966  1
  Br  Br7  1  0.000000  0.617823  0.162363  1
  Br  Br8  1  0.500000  0.114907  0.154034  1
  N  N9  1  0.500000  0.639260  0.583190  1
  N  N10  1  0.000000  0.137888  0.582816  1
  N  N11  1  0.500000  0.360740  0.416810  1
  N  N12  1  0.000000  0.862112  0.417184  1
