# generated using pymatgen
data_CsSc4Cl11
_symmetry_space_group_name_H-M   'P 1'
_cell_length_a   7.46403600
_cell_length_b   6.85454700
_cell_length_c   18.48945300
_cell_angle_alpha   90.00000000
_cell_angle_beta   90.00000000
_cell_angle_gamma   90.00000000
_symmetry_Int_Tables_number   1
_chemical_formula_structural   CsSc4Cl11
_chemical_formula_sum   'Cs2 Sc8 Cl22'
_cell_volume   945.96822129
_cell_formula_units_Z   2
loop_
 _symmetry_equiv_pos_site_id
 _symmetry_equiv_pos_as_xyz
  1  'x, y, z'
loop_
 _atom_site_type_symbol
 _atom_site_label
 _atom_site_symmetry_multiplicity
 _atom_site_fract_x
 _atom_site_fract_y
 _atom_site_fract_z
 _atom_site_occupancy
  Cs  Cs0  1  0.500000  0.518997  0.750000  1
  Cs  Cs1  1  0.500000  0.481003  0.250000  1
  Sc  Sc2  1  0.000000  0.852784  0.332520  1
  Sc  Sc3  1  0.725749  0.000000  0.000000  1
  Sc  Sc4  1  0.274251  0.000000  0.000000  1
  Sc  Sc5  1  0.000000  0.852784  0.167480  1
  Sc  Sc6  1  0.000000  0.147216  0.667480  1
  Sc  Sc7  1  0.274251  0.000000  0.500000  1
  Sc  Sc8  1  0.725749  0.000000  0.500000  1
  Sc  Sc9  1  0.000000  0.147216  0.832520  1
  Cl  Cl10  1  0.500000  0.180015  0.074431  1
  Cl  Cl11  1  0.244319  0.714951  0.086420  1
  Cl  Cl12  1  0.767805  0.005180  0.250000  1
  Cl  Cl13  1  0.000000  0.855233  0.923086  1
  Cl  Cl14  1  0.000000  0.144767  0.076914  1
  Cl  Cl15  1  0.500000  0.819985  0.925569  1
  Cl  Cl16  1  0.767805  0.994820  0.750000  1
  Cl  Cl17  1  0.000000  0.855233  0.576914  1
  Cl  Cl18  1  0.755681  0.714951  0.086420  1
  Cl  Cl19  1  0.000000  0.556867  0.250000  1
  Cl  Cl20  1  0.000000  0.144767  0.423086  1
  Cl  Cl21  1  0.000000  0.443133  0.750000  1
  Cl  Cl22  1  0.232195  0.994820  0.750000  1
  Cl  Cl23  1  0.755681  0.714951  0.413580  1
  Cl  Cl24  1  0.755681  0.285049  0.586420  1
  Cl  Cl25  1  0.244319  0.285049  0.913580  1
  Cl  Cl26  1  0.755681  0.285049  0.913580  1
  Cl  Cl27  1  0.244319  0.714951  0.413580  1
  Cl  Cl28  1  0.500000  0.180015  0.425569  1
  Cl  Cl29  1  0.244319  0.285049  0.586420  1
  Cl  Cl30  1  0.232195  0.005180  0.250000  1
  Cl  Cl31  1  0.500000  0.819985  0.574431  1
