# generated using pymatgen
data_La4Dy6Ir3Os
_symmetry_space_group_name_H-M   'P 1'
_cell_length_a   6.56183015
_cell_length_b   7.23788454
_cell_length_c   8.89908100
_cell_angle_alpha   96.84877425
_cell_angle_beta   111.69688546
_cell_angle_gamma   90.03513142
_symmetry_Int_Tables_number   1
_chemical_formula_structural   La4Dy6Ir3Os
_chemical_formula_sum   'La4 Dy6 Ir3 Os1'
_cell_volume   389.44702893
_cell_formula_units_Z   1
loop_
 _symmetry_equiv_pos_site_id
 _symmetry_equiv_pos_as_xyz
  1  'x, y, z'
loop_
 _atom_site_type_symbol
 _atom_site_label
 _atom_site_symmetry_multiplicity
 _atom_site_fract_x
 _atom_site_fract_y
 _atom_site_fract_z
 _atom_site_occupancy
  La  La0  1  0.782384  0.086130  0.805086  1
  La  La1  1  0.979803  0.418086  0.192709  1
  La  La2  1  0.213866  0.917376  0.193685  1
  La  La3  1  0.017028  0.580444  0.804816  1
  Dy  Dy4  1  0.207806  0.183966  0.567359  1
  Dy  Dy5  1  0.637483  0.315716  0.433467  1
  Dy  Dy6  1  0.793811  0.815997  0.433552  1
  Dy  Dy7  1  0.361869  0.684043  0.569617  1
  Dy  Dy8  1  0.431060  0.250646  0.999351  1
  Dy  Dy9  1  0.569162  0.748662  0.998450  1
  Ir  Ir10  1  0.816163  0.075855  0.227916  1
  Ir  Ir11  1  0.410964  0.577078  0.225316  1
  Ir  Ir12  1  0.183052  0.923179  0.772257  1
  Os  Os13  1  0.595550  0.422825  0.776420  1
