# generated using pymatgen
data_EuDyHoGa8Ag3
_symmetry_space_group_name_H-M   'P 1'
_cell_length_a   4.38273741
_cell_length_b   8.42668752
_cell_length_c   8.42668770
_cell_angle_alpha   69.84689600
_cell_angle_beta   74.92690523
_cell_angle_gamma   74.92690627
_symmetry_Int_Tables_number   1
_chemical_formula_structural   EuDyHoGa8Ag3
_chemical_formula_sum   'Eu1 Dy1 Ho1 Ga8 Ag3'
_cell_volume   277.07575700
_cell_formula_units_Z   1
loop_
 _symmetry_equiv_pos_site_id
 _symmetry_equiv_pos_as_xyz
  1  'x, y, z'
loop_
 _atom_site_type_symbol
 _atom_site_label
 _atom_site_symmetry_multiplicity
 _atom_site_fract_x
 _atom_site_fract_y
 _atom_site_fract_z
 _atom_site_occupancy
  Eu  Eu0  1  0.500149  0.499851  0.499851  1
  Dy  Dy1  1  0.199506  0.800494  0.800494  1
  Ho  Ho2  1  0.800664  0.199336  0.199336  1
  Ga  Ga3  1  0.645328  0.072505  0.636839  1
  Ga  Ga4  1  0.354633  0.927862  0.362872  1
  Ga  Ga5  1  0.645328  0.636839  0.072505  1
  Ga  Ga6  1  0.354633  0.362872  0.927862  1
  Ga  Ga7  1  0.838603  0.793387  0.529407  1
  Ga  Ga8  1  0.161594  0.206474  0.470337  1
  Ga  Ga9  1  0.838603  0.529407  0.793387  1
  Ga  Ga10  1  0.161594  0.470337  0.206474  1
  Ag  Ag11  1  0.499742  0.000258  0.000258  1
  Ag  Ag12  1  0.999812  0.806676  0.193701  1
  Ag  Ag13  1  0.999812  0.193701  0.806676  1
