# generated using pymatgen
data_Yb3Dy2Pb3Br
_symmetry_space_group_name_H-M   'P 1'
_cell_length_a   9.29937100
_cell_length_b   9.29937166
_cell_length_c   6.98313400
_cell_angle_alpha   90.00000000
_cell_angle_beta   90.00000000
_cell_angle_gamma   120.00000121
_symmetry_Int_Tables_number   1
_chemical_formula_structural   Yb3Dy2Pb3Br
_chemical_formula_sum   'Yb6 Dy4 Pb6 Br2'
_cell_volume   522.98373429
_cell_formula_units_Z   2
loop_
 _symmetry_equiv_pos_site_id
 _symmetry_equiv_pos_as_xyz
  1  'x, y, z'
loop_
 _atom_site_type_symbol
 _atom_site_label
 _atom_site_symmetry_multiplicity
 _atom_site_fract_x
 _atom_site_fract_y
 _atom_site_fract_z
 _atom_site_occupancy
  Yb  Yb0  1  0.257960  0.000000  0.250000  1
  Yb  Yb1  1  0.742040  0.000000  0.750000  1
  Yb  Yb2  1  0.000000  0.257960  0.250000  1
  Yb  Yb3  1  0.000000  0.742040  0.750000  1
  Yb  Yb4  1  0.742040  0.742040  0.250000  1
  Yb  Yb5  1  0.257960  0.257960  0.750000  1
  Dy  Dy6  1  0.333333  0.666667  0.000000  1
  Dy  Dy7  1  0.666667  0.333333  0.000000  1
  Dy  Dy8  1  0.666667  0.333333  0.500000  1
  Dy  Dy9  1  0.333333  0.666667  0.500000  1
  Pb  Pb10  1  0.597865  0.000000  0.250000  1
  Pb  Pb11  1  0.402135  0.000000  0.750000  1
  Pb  Pb12  1  0.000000  0.597865  0.250000  1
  Pb  Pb13  1  0.000000  0.402135  0.750000  1
  Pb  Pb14  1  0.402135  0.402135  0.250000  1
  Pb  Pb15  1  0.597865  0.597865  0.750000  1
  Br  Br16  1  0.000000  0.000000  0.000000  1
  Br  Br17  1  0.000000  0.000000  0.500000  1
