# generated using pymatgen
data_Dy6Zn16Pt7Se
_symmetry_space_group_name_H-M   'P 1'
_cell_length_a   9.05043061
_cell_length_b   9.05043014
_cell_length_c   9.05043000
_cell_angle_alpha   60.00000050
_cell_angle_beta   60.00000223
_cell_angle_gamma   59.99999554
_symmetry_Int_Tables_number   1
_chemical_formula_structural   Dy6Zn16Pt7Se
_chemical_formula_sum   'Dy6 Zn16 Pt7 Se1'
_cell_volume   524.19475777
_cell_formula_units_Z   1
loop_
 _symmetry_equiv_pos_site_id
 _symmetry_equiv_pos_as_xyz
  1  'x, y, z'
loop_
 _atom_site_type_symbol
 _atom_site_label
 _atom_site_symmetry_multiplicity
 _atom_site_fract_x
 _atom_site_fract_y
 _atom_site_fract_z
 _atom_site_occupancy
  Dy  Dy0  1  0.721263  0.278737  0.278737  1
  Dy  Dy1  1  0.278737  0.721263  0.721263  1
  Dy  Dy2  1  0.278737  0.721263  0.278737  1
  Dy  Dy3  1  0.721263  0.278737  0.721263  1
  Dy  Dy4  1  0.278737  0.278737  0.721263  1
  Dy  Dy5  1  0.721263  0.721263  0.278737  1
  Zn  Zn6  1  0.123265  0.123265  0.123265  1
  Zn  Zn7  1  0.876735  0.876735  0.876735  1
  Zn  Zn8  1  0.123265  0.123265  0.630207  1
  Zn  Zn9  1  0.123265  0.630207  0.123265  1
  Zn  Zn10  1  0.876735  0.876735  0.369793  1
  Zn  Zn11  1  0.876735  0.369793  0.876735  1
  Zn  Zn12  1  0.630207  0.123265  0.123265  1
  Zn  Zn13  1  0.369793  0.876735  0.876735  1
  Zn  Zn14  1  0.333834  0.333834  0.333834  1
  Zn  Zn15  1  0.666166  0.666166  0.666166  1
  Zn  Zn16  1  0.333834  0.333834  0.998496  1
  Zn  Zn17  1  0.333834  0.998496  0.333834  1
  Zn  Zn18  1  0.666166  0.666166  0.001504  1
  Zn  Zn19  1  0.666166  0.001504  0.666166  1
  Zn  Zn20  1  0.998496  0.333834  0.333834  1
  Zn  Zn21  1  0.001504  0.666166  0.666166  1
  Pt  Pt22  1  0.500000  0.000000  0.000000  1
  Pt  Pt23  1  0.000000  0.500000  0.500000  1
  Pt  Pt24  1  0.000000  0.500000  0.000000  1
  Pt  Pt25  1  0.500000  0.000000  0.500000  1
  Pt  Pt26  1  0.000000  0.000000  0.500000  1
  Pt  Pt27  1  0.500000  0.500000  0.000000  1
  Pt  Pt28  1  0.000000  0.000000  0.000000  1
  Se  Se29  1  0.500000  0.500000  0.500000  1
