# generated using pymatgen
data_YbDy4Y2Co6Sn23
_symmetry_space_group_name_H-M   'P 1'
_cell_length_a   9.72031101
_cell_length_b   9.71987107
_cell_length_c   9.96402901
_cell_angle_alpha   90.00000072
_cell_angle_beta   89.99610532
_cell_angle_gamma   119.99850006
_symmetry_Int_Tables_number   1
_chemical_formula_structural   YbDy4Y2Co6Sn23
_chemical_formula_sum   'Yb1 Dy4 Y2 Co6 Sn23'
_cell_volume   815.29136467
_cell_formula_units_Z   1
loop_
 _symmetry_equiv_pos_site_id
 _symmetry_equiv_pos_as_xyz
  1  'x, y, z'
loop_
 _atom_site_type_symbol
 _atom_site_label
 _atom_site_symmetry_multiplicity
 _atom_site_fract_x
 _atom_site_fract_y
 _atom_site_fract_z
 _atom_site_occupancy
  Yb  Yb0  1  0.999983  0.999991  0.000010  1
  Dy  Dy1  1  0.042206  0.521103  0.305945  1
  Dy  Dy2  1  0.479169  0.957963  0.305793  1
  Dy  Dy3  1  0.479169  0.521206  0.305793  1
  Dy  Dy4  1  0.957773  0.478887  0.693978  1
  Y  Y5  1  0.521249  0.042861  0.693745  1
  Y  Y6  1  0.521249  0.478387  0.693745  1
  Co  Co7  1  0.167706  0.830948  0.801561  1
  Co  Co8  1  0.663370  0.831685  0.801669  1
  Co  Co9  1  0.167706  0.336757  0.801561  1
  Co  Co10  1  0.831546  0.168649  0.198606  1
  Co  Co11  1  0.337319  0.168660  0.198605  1
  Co  Co12  1  0.831546  0.662897  0.198606  1
  Sn  Sn13  1  0.000043  0.000021  0.499856  1
  Sn  Sn14  1  0.117065  0.883068  0.273504  1
  Sn  Sn15  1  0.765513  0.882758  0.273763  1
  Sn  Sn16  1  0.117065  0.234000  0.273504  1
  Sn  Sn17  1  0.883272  0.116840  0.726627  1
  Sn  Sn18  1  0.233796  0.116897  0.726501  1
  Sn  Sn19  1  0.883272  0.766430  0.726627  1
  Sn  Sn20  1  0.345567  0.999901  0.000145  1
  Sn  Sn21  1  0.654299  0.654518  0.000246  1
  Sn  Sn22  1  0.999993  0.346053  0.000088  1
  Sn  Sn23  1  0.345567  0.345666  0.000145  1
  Sn  Sn24  1  0.999993  0.653941  0.000088  1
  Sn  Sn25  1  0.654299  0.999780  0.000246  1
  Sn  Sn26  1  0.781656  0.562491  0.451745  1
  Sn  Sn27  1  0.781656  0.219164  0.451745  1
  Sn  Sn28  1  0.437183  0.218591  0.451328  1
  Sn  Sn29  1  0.218406  0.437664  0.547754  1
  Sn  Sn30  1  0.218406  0.780743  0.547754  1
  Sn  Sn31  1  0.562612  0.781307  0.547777  1
  Sn  Sn32  1  0.666726  0.333363  0.184855  1
  Sn  Sn33  1  0.332922  0.666462  0.815237  1
  Sn  Sn34  1  0.667362  0.333681  0.882604  1
  Sn  Sn35  1  0.333333  0.666667  0.118242  1
