# generated using pymatgen
data_Li8Sm8Sn5BiSb2
_symmetry_space_group_name_H-M   'P 1'
_cell_length_a   9.50691863
_cell_length_b   9.51014957
_cell_length_c   7.45461947
_cell_angle_alpha   90.00000163
_cell_angle_beta   89.96490178
_cell_angle_gamma   120.01124584
_symmetry_Int_Tables_number   1
_chemical_formula_structural   Li8Sm8Sn5BiSb2
_chemical_formula_sum   'Li8 Sm8 Sn5 Bi1 Sb2'
_cell_volume   583.62501836
_cell_formula_units_Z   1
loop_
 _symmetry_equiv_pos_site_id
 _symmetry_equiv_pos_as_xyz
  1  'x, y, z'
loop_
 _atom_site_type_symbol
 _atom_site_label
 _atom_site_symmetry_multiplicity
 _atom_site_fract_x
 _atom_site_fract_y
 _atom_site_fract_z
 _atom_site_occupancy
  Li  Li0  1  0.833709  0.167711  0.719393  1
  Li  Li1  1  0.833709  0.665999  0.719393  1
  Li  Li2  1  0.333056  0.166528  0.721072  1
  Li  Li3  1  0.164856  0.829894  0.212816  1
  Li  Li4  1  0.164856  0.334961  0.212816  1
  Li  Li5  1  0.666864  0.833432  0.215001  1
  Li  Li6  1  0.670759  0.335379  0.329293  1
  Li  Li7  1  0.332250  0.666125  0.821507  1
  Sm  Sm8  1  0.489796  0.514744  0.509049  1
  Sm  Sm9  1  0.489796  0.975053  0.509049  1
  Sm  Sm10  1  0.023910  0.511956  0.508210  1
  Sm  Sm11  1  0.512177  0.493306  0.002401  1
  Sm  Sm12  1  0.512177  0.018870  0.002401  1
  Sm  Sm13  1  0.978697  0.489348  0.004022  1
  Sm  Sm14  1  0.995956  0.997978  0.503768  1
  Sm  Sm15  1  0.997155  0.998577  0.995524  1
  Sn  Sn16  1  0.166913  0.833419  0.766824  1
  Sn  Sn17  1  0.166913  0.333495  0.766824  1
  Sn  Sn18  1  0.666494  0.833248  0.766262  1
  Sn  Sn19  1  0.666222  0.333111  0.737803  1
  Sn  Sn20  1  0.333747  0.666874  0.237223  1
  Bi  Bi21  1  0.333770  0.166885  0.265889  1
  Sb  Sb22  1  0.833108  0.166486  0.265739  1
  Sb  Sb23  1  0.833108  0.666621  0.265739  1
