# generated using pymatgen
data_Tb7Dy9MgHg3Ru4
_symmetry_space_group_name_H-M   'P 1'
_cell_length_a   9.61662338
_cell_length_b   9.61190214
_cell_length_c   9.60820600
_cell_angle_alpha   60.01271961
_cell_angle_beta   60.02895029
_cell_angle_gamma   60.07486404
_symmetry_Int_Tables_number   1
_chemical_formula_structural   Tb7Dy9MgHg3Ru4
_chemical_formula_sum   'Tb7 Dy9 Mg1 Hg3 Ru4'
_cell_volume   628.55198930
_cell_formula_units_Z   1
loop_
 _symmetry_equiv_pos_site_id
 _symmetry_equiv_pos_as_xyz
  1  'x, y, z'
loop_
 _atom_site_type_symbol
 _atom_site_label
 _atom_site_symmetry_multiplicity
 _atom_site_fract_x
 _atom_site_fract_y
 _atom_site_fract_z
 _atom_site_occupancy
  Tb  Tb0  1  0.058448  0.060106  0.440723  1
  Tb  Tb1  1  0.189369  0.811052  0.810182  1
  Tb  Tb2  1  0.811772  0.189792  0.188222  1
  Tb  Tb3  1  0.811772  0.189792  0.810215  1
  Tb  Tb4  1  0.189369  0.811052  0.189396  1
  Tb  Tb5  1  0.812309  0.812158  0.187767  1
  Tb  Tb6  1  0.191014  0.190775  0.809105  1
  Dy  Dy7  1  0.596323  0.596107  0.598024  1
  Dy  Dy8  1  0.596323  0.596107  0.209546  1
  Dy  Dy9  1  0.594748  0.212756  0.596248  1
  Dy  Dy10  1  0.202734  0.597351  0.599958  1
  Dy  Dy11  1  0.058278  0.441188  0.439837  1
  Dy  Dy12  1  0.437586  0.062112  0.063036  1
  Dy  Dy13  1  0.437586  0.062112  0.437264  1
  Dy  Dy14  1  0.058278  0.441188  0.060698  1
  Dy  Dy15  1  0.436328  0.437457  0.063107  1
  Mg  Mg16  1  0.537538  0.820258  0.821101  1
  Hg  Hg17  1  0.830780  0.835625  0.836832  1
  Hg  Hg18  1  0.830780  0.835625  0.496760  1
  Hg  Hg19  1  0.831160  0.496260  0.836289  1
  Ru  Ru20  1  0.385939  0.390268  0.390893  1
  Ru  Ru21  1  0.385939  0.390268  0.832900  1
  Ru  Ru22  1  0.387377  0.830261  0.391180  1
  Ru  Ru23  1  0.828247  0.390326  0.390713  1
