# generated using pymatgen
data_CsNd(PSe3)2
_symmetry_space_group_name_H-M   'P 1'
_cell_length_a   7.84507700
_cell_length_b   6.97758833
_cell_length_c   10.53634600
_cell_angle_alpha   87.90737643
_cell_angle_beta   90.00000000
_cell_angle_gamma   90.00000000
_symmetry_Int_Tables_number   1
_chemical_formula_structural   CsNd(PSe3)2
_chemical_formula_sum   'Cs2 Nd2 P4 Se12'
_cell_volume   576.37196885
_cell_formula_units_Z   2
loop_
 _symmetry_equiv_pos_site_id
 _symmetry_equiv_pos_as_xyz
  1  'x, y, z'
loop_
 _atom_site_type_symbol
 _atom_site_label
 _atom_site_symmetry_multiplicity
 _atom_site_fract_x
 _atom_site_fract_y
 _atom_site_fract_z
 _atom_site_occupancy
  Cs  Cs0  1  0.049863  0.300034  0.498015  1
  Cs  Cs1  1  0.549863  0.699966  0.501985  1
  Nd  Nd2  1  0.258395  0.214938  0.998578  1
  Nd  Nd3  1  0.758395  0.785062  0.001422  1
  P  P4  1  0.752255  0.312815  0.832617  1
  P  P5  1  0.252255  0.687185  0.167383  1
  P  P6  1  0.032306  0.793541  0.285852  1
  P  P7  1  0.532306  0.206459  0.714148  1
  Se  Se8  1  0.631906  0.357498  0.021928  1
  Se  Se9  1  0.106553  0.813722  0.480710  1
  Se  Se10  1  0.946670  0.079706  0.828768  1
  Se  Se11  1  0.832470  0.582535  0.250981  1
  Se  Se12  1  0.349887  0.412717  0.245244  1
  Se  Se13  1  0.332470  0.417465  0.749019  1
  Se  Se14  1  0.453195  0.941355  0.826597  1
  Se  Se15  1  0.953195  0.058645  0.173403  1
  Se  Se16  1  0.606553  0.186278  0.519290  1
  Se  Se17  1  0.131906  0.642502  0.978072  1
  Se  Se18  1  0.446670  0.920294  0.171232  1
  Se  Se19  1  0.849887  0.587283  0.754756  1
