# generated using pymatgen
data_Ho4Lu8ZnCo4Bi
_symmetry_space_group_name_H-M   'P 1'
_cell_length_a   8.23140972
_cell_length_b   8.23142331
_cell_length_c   8.23140975
_cell_angle_alpha   111.51045711
_cell_angle_beta   109.76955534
_cell_angle_gamma   107.16292693
_symmetry_Int_Tables_number   1
_chemical_formula_structural   Ho4Lu8ZnCo4Bi
_chemical_formula_sum   'Ho4 Lu8 Zn1 Co4 Bi1'
_cell_volume   428.71715355
_cell_formula_units_Z   1
loop_
 _symmetry_equiv_pos_site_id
 _symmetry_equiv_pos_as_xyz
  1  'x, y, z'
loop_
 _atom_site_type_symbol
 _atom_site_label
 _atom_site_symmetry_multiplicity
 _atom_site_fract_x
 _atom_site_fract_y
 _atom_site_fract_z
 _atom_site_occupancy
  Ho  Ho0  1  0.569670  0.777808  0.791869  1
  Ho  Ho1  1  0.430330  0.222192  0.208131  1
  Ho  Ho2  1  0.985939  0.777808  0.208138  1
  Ho  Ho3  1  0.014061  0.222192  0.791862  1
  Lu  Lu4  1  0.820021  0.715940  0.535971  1
  Lu  Lu5  1  0.179979  0.284060  0.464029  1
  Lu  Lu6  1  0.179971  0.715940  0.895919  1
  Lu  Lu7  1  0.820029  0.284060  0.104081  1
  Lu  Lu8  1  0.685138  0.377819  0.692682  1
  Lu  Lu9  1  0.314862  0.622181  0.307318  1
  Lu  Lu10  1  0.685137  0.992460  0.307324  1
  Lu  Lu11  1  0.314863  0.007540  0.692676  1
  Zn  Zn12  1  0.000000  0.000000  0.000000  1
  Co  Co13  1  0.623307  0.000000  0.623307  1
  Co  Co14  1  0.376693  0.000000  0.376693  1
  Co  Co15  1  0.113396  0.613399  0.500003  1
  Co  Co16  1  0.886604  0.386601  0.499997  1
  Bi  Bi17  1  0.500000  0.500000  0.000000  1
