# generated using pymatgen
data_Cs5Ho(PSe3)4
_symmetry_space_group_name_H-M   'P 1'
_cell_length_a   14.24338700
_cell_length_b   14.24338700
_cell_length_c   7.76650400
_cell_angle_alpha   90.00000000
_cell_angle_beta   90.00000000
_cell_angle_gamma   90.00000000
_symmetry_Int_Tables_number   1
_chemical_formula_structural   Cs5Ho(PSe3)4
_chemical_formula_sum   'Cs10 Ho2 P8 Se24'
_cell_volume   1575.62230125
_cell_formula_units_Z   2
loop_
 _symmetry_equiv_pos_site_id
 _symmetry_equiv_pos_as_xyz
  1  'x, y, z'
loop_
 _atom_site_type_symbol
 _atom_site_label
 _atom_site_symmetry_multiplicity
 _atom_site_fract_x
 _atom_site_fract_y
 _atom_site_fract_z
 _atom_site_occupancy
  Cs  Cs0  1  0.000000  0.000000  0.500000  1
  Cs  Cs1  1  0.000000  0.000000  0.000000  1
  Cs  Cs2  1  0.318010  0.342050  0.500000  1
  Cs  Cs3  1  0.681990  0.657950  0.500000  1
  Cs  Cs4  1  0.657950  0.318010  0.000000  1
  Cs  Cs5  1  0.342050  0.681990  0.000000  1
  Cs  Cs6  1  0.320542  0.968075  0.500000  1
  Cs  Cs7  1  0.679458  0.031925  0.500000  1
  Cs  Cs8  1  0.031925  0.320542  0.000000  1
  Cs  Cs9  1  0.968075  0.679458  0.000000  1
  Ho  Ho10  1  0.000000  0.500000  0.500000  1
  Ho  Ho11  1  0.500000  0.000000  0.000000  1
  P  P12  1  0.201757  0.608480  0.500000  1
  P  P13  1  0.798243  0.391520  0.500000  1
  P  P14  1  0.391520  0.201757  0.000000  1
  P  P15  1  0.608480  0.798243  0.000000  1
  P  P16  1  0.115026  0.745357  0.500000  1
  P  P17  1  0.884974  0.254643  0.500000  1
  P  P18  1  0.254643  0.115026  0.000000  1
  P  P19  1  0.745357  0.884974  0.000000  1
  Se  Se20  1  0.150713  0.819831  0.263037  1
  Se  Se21  1  0.849287  0.180169  0.263037  1
  Se  Se22  1  0.180169  0.150713  0.763037  1
  Se  Se23  1  0.819831  0.849287  0.763037  1
  Se  Se24  1  0.849287  0.180169  0.736963  1
  Se  Se25  1  0.150713  0.819831  0.736963  1
  Se  Se26  1  0.819831  0.849287  0.236963  1
  Se  Se27  1  0.180169  0.150713  0.236963  1
  Se  Se28  1  0.034340  0.304319  0.500000  1
  Se  Se29  1  0.965660  0.695681  0.500000  1
  Se  Se30  1  0.695681  0.034340  0.000000  1
  Se  Se31  1  0.304319  0.965660  0.000000  1
  Se  Se32  1  0.350353  0.634170  0.500000  1
  Se  Se33  1  0.649647  0.365830  0.500000  1
  Se  Se34  1  0.365830  0.350353  0.000000  1
  Se  Se35  1  0.634170  0.649647  0.000000  1
  Se  Se36  1  0.152471  0.530556  0.265268  1
  Se  Se37  1  0.847529  0.469444  0.265268  1
  Se  Se38  1  0.469444  0.152471  0.765268  1
  Se  Se39  1  0.530556  0.847529  0.765268  1
  Se  Se40  1  0.847529  0.469444  0.734732  1
  Se  Se41  1  0.152471  0.530556  0.734732  1
  Se  Se42  1  0.530556  0.847529  0.234732  1
  Se  Se43  1  0.469444  0.152471  0.234732  1
