# generated using pymatgen
data_LiY16Cd3Co3Ni
_symmetry_space_group_name_H-M   'P 1'
_cell_length_a   9.60899434
_cell_length_b   9.61475199
_cell_length_c   9.61475087
_cell_angle_alpha   59.96848531
_cell_angle_beta   59.89526962
_cell_angle_gamma   59.89527552
_symmetry_Int_Tables_number   1
_chemical_formula_structural   LiY16Cd3Co3Ni
_chemical_formula_sum   'Li1 Y16 Cd3 Co3 Ni1'
_cell_volume   626.96971212
_cell_formula_units_Z   1
loop_
 _symmetry_equiv_pos_site_id
 _symmetry_equiv_pos_as_xyz
  1  'x, y, z'
loop_
 _atom_site_type_symbol
 _atom_site_label
 _atom_site_symmetry_multiplicity
 _atom_site_fract_x
 _atom_site_fract_y
 _atom_site_fract_z
 _atom_site_occupancy
  Li  Li0  1  0.820204  0.820323  0.820323  1
  Y  Y1  1  0.594671  0.598429  0.598429  1
  Y  Y2  1  0.594537  0.598319  0.210800  1
  Y  Y3  1  0.594537  0.210800  0.598319  1
  Y  Y4  1  0.213921  0.595417  0.595417  1
  Y  Y5  1  0.063595  0.439949  0.439949  1
  Y  Y6  1  0.434548  0.063927  0.063927  1
  Y  Y7  1  0.438936  0.060999  0.439616  1
  Y  Y8  1  0.066530  0.435647  0.059882  1
  Y  Y9  1  0.438936  0.439616  0.060999  1
  Y  Y10  1  0.066530  0.059882  0.435647  1
  Y  Y11  1  0.188122  0.812449  0.812449  1
  Y  Y12  1  0.812358  0.187341  0.187341  1
  Y  Y13  1  0.811159  0.189045  0.814068  1
  Y  Y14  1  0.187105  0.813573  0.187296  1
  Y  Y15  1  0.811159  0.814068  0.189045  1
  Y  Y16  1  0.187105  0.187296  0.813573  1
  Cd  Cd17  1  0.831505  0.831195  0.507082  1
  Cd  Cd18  1  0.831505  0.507082  0.831195  1
  Cd  Cd19  1  0.506579  0.831688  0.831688  1
  Co  Co20  1  0.393275  0.391741  0.391741  1
  Co  Co21  1  0.393247  0.392556  0.826778  1
  Co  Co22  1  0.393247  0.826778  0.392556  1
  Ni  Ni23  1  0.826683  0.391878  0.391878  1
