# generated using pymatgen
data_Na4La3PrTe8
_symmetry_space_group_name_H-M   'P 1'
_cell_length_a   9.22836115
_cell_length_b   9.27260438
_cell_length_c   9.27260400
_cell_angle_alpha   60.00000135
_cell_angle_beta   59.84128114
_cell_angle_gamma   59.84128243
_symmetry_Int_Tables_number   1
_chemical_formula_structural   Na4La3PrTe8
_chemical_formula_sum   'Na4 La3 Pr1 Te8'
_cell_volume   559.71503450
_cell_formula_units_Z   1
loop_
 _symmetry_equiv_pos_site_id
 _symmetry_equiv_pos_as_xyz
  1  'x, y, z'
loop_
 _atom_site_type_symbol
 _atom_site_label
 _atom_site_symmetry_multiplicity
 _atom_site_fract_x
 _atom_site_fract_y
 _atom_site_fract_z
 _atom_site_occupancy
  Na  Na0  1  0.125000  0.625000  0.125000  1
  Na  Na1  1  0.125000  0.125000  0.625000  1
  Na  Na2  1  0.625000  0.125000  0.125000  1
  Na  Na3  1  0.125000  0.125000  0.125000  1
  La  La4  1  0.625000  0.125000  0.625000  1
  La  La5  1  0.625000  0.625000  0.625000  1
  La  La6  1  0.625000  0.625000  0.125000  1
  Pr  Pr7  1  0.125000  0.625000  0.625000  1
  Te  Te8  1  0.376129  0.866151  0.378860  1
  Te  Te9  1  0.873871  0.383849  0.871140  1
  Te  Te10  1  0.873871  0.871140  0.383849  1
  Te  Te11  1  0.873871  0.871140  0.871140  1
  Te  Te12  1  0.866983  0.377672  0.377672  1
  Te  Te13  1  0.376129  0.378860  0.866151  1
  Te  Te14  1  0.376129  0.378860  0.378860  1
  Te  Te15  1  0.383017  0.872328  0.872328  1
