# generated using pymatgen
data_Dy9Er(SnBi)3
_symmetry_space_group_name_H-M   'P 1'
_cell_length_a   9.07794508
_cell_length_b   9.09196923
_cell_length_c   6.50401900
_cell_angle_alpha   90.00562751
_cell_angle_beta   89.99243247
_cell_angle_gamma   119.99294523
_symmetry_Int_Tables_number   1
_chemical_formula_structural   Dy9Er(SnBi)3
_chemical_formula_sum   'Dy9 Er1 Sn3 Bi3'
_cell_volume   464.93132292
_cell_formula_units_Z   1
loop_
 _symmetry_equiv_pos_site_id
 _symmetry_equiv_pos_as_xyz
  1  'x, y, z'
loop_
 _atom_site_type_symbol
 _atom_site_label
 _atom_site_symmetry_multiplicity
 _atom_site_fract_x
 _atom_site_fract_y
 _atom_site_fract_z
 _atom_site_occupancy
  Dy  Dy0  1  0.759407  0.753306  0.250046  1
  Dy  Dy1  1  0.005825  0.246304  0.250197  1
  Dy  Dy2  1  0.765179  0.006281  0.749732  1
  Dy  Dy3  1  0.236362  0.999809  0.250148  1
  Dy  Dy4  1  0.671857  0.338160  0.498651  1
  Dy  Dy5  1  0.999732  0.755521  0.749960  1
  Dy  Dy6  1  0.325330  0.658589  0.001497  1
  Dy  Dy7  1  0.238027  0.243775  0.749790  1
  Dy  Dy8  1  0.672116  0.338473  0.001383  1
  Er  Er9  1  0.324893  0.658359  0.498501  1
  Sn  Sn10  1  0.998036  0.393045  0.749362  1
  Sn  Sn11  1  0.392920  0.390759  0.250678  1
  Sn  Sn12  1  0.001982  0.608583  0.250688  1
  Bi  Bi13  1  0.608214  0.611529  0.749289  1
  Bi  Bi14  1  0.391403  0.999734  0.749427  1
  Bi  Bi15  1  0.608717  0.997772  0.250651  1
