# generated using pymatgen
data_Dy16Ho4(Ir3Os)3
_symmetry_space_group_name_H-M   'P 1'
_cell_length_a   10.87335000
_cell_length_b   10.87335000
_cell_length_c   6.41073300
_cell_angle_alpha   90.00000000
_cell_angle_beta   90.00000000
_cell_angle_gamma   90.00000000
_symmetry_Int_Tables_number   1
_chemical_formula_structural   Dy16Ho4(Ir3Os)3
_chemical_formula_sum   'Dy16 Ho4 Ir9 Os3'
_cell_volume   757.93929723
_cell_formula_units_Z   1
loop_
 _symmetry_equiv_pos_site_id
 _symmetry_equiv_pos_as_xyz
  1  'x, y, z'
loop_
 _atom_site_type_symbol
 _atom_site_label
 _atom_site_symmetry_multiplicity
 _atom_site_fract_x
 _atom_site_fract_y
 _atom_site_fract_z
 _atom_site_occupancy
  Dy  Dy0  1  0.293886  0.086565  0.378088  1
  Dy  Dy1  1  0.293900  0.913667  0.878170  1
  Dy  Dy2  1  0.706100  0.086333  0.878170  1
  Dy  Dy3  1  0.706114  0.913435  0.378088  1
  Dy  Dy4  1  0.586333  0.793900  0.878170  1
  Dy  Dy5  1  0.586565  0.206114  0.378088  1
  Dy  Dy6  1  0.413435  0.793886  0.378088  1
  Dy  Dy7  1  0.413667  0.206100  0.878170  1
  Dy  Dy8  1  0.207909  0.412815  0.623479  1
  Dy  Dy9  1  0.207558  0.587259  0.119675  1
  Dy  Dy10  1  0.792442  0.412741  0.119675  1
  Dy  Dy11  1  0.792091  0.587185  0.623479  1
  Dy  Dy12  1  0.912741  0.707558  0.119675  1
  Dy  Dy13  1  0.912815  0.292091  0.623479  1
  Dy  Dy14  1  0.087185  0.707909  0.623479  1
  Dy  Dy15  1  0.087259  0.292442  0.119675  1
  Ho  Ho16  1  0.000000  0.000000  0.499618  1
  Ho  Ho17  1  0.000000  0.000000  0.999823  1
  Ho  Ho18  1  0.500000  0.500000  0.999823  1
  Ho  Ho19  1  0.500000  0.500000  0.499618  1
  Ir  Ir20  1  0.848495  0.152805  0.250315  1
  Ir  Ir21  1  0.848313  0.847338  0.749830  1
  Ir  Ir22  1  0.151687  0.152662  0.749830  1
  Ir  Ir23  1  0.151505  0.847195  0.250315  1
  Ir  Ir24  1  0.652662  0.348313  0.749830  1
  Ir  Ir25  1  0.652805  0.651505  0.250315  1
  Ir  Ir26  1  0.347195  0.348495  0.250315  1
  Ir  Ir27  1  0.347338  0.651687  0.749830  1
  Ir  Ir28  1  0.000000  0.500000  0.377536  1
  Os  Os29  1  0.500000  0.000000  0.124668  1
  Os  Os30  1  0.500000  0.000000  0.624524  1
  Os  Os31  1  0.000000  0.500000  0.876160  1
