# generated using pymatgen
data_YbTiB4Ru5
_symmetry_space_group_name_H-M   'P 1'
_cell_length_a   2.96969400
_cell_length_b   8.57541167
_cell_length_c   10.10318321
_cell_angle_alpha   89.87425051
_cell_angle_beta   90.00000000
_cell_angle_gamma   90.00000000
_symmetry_Int_Tables_number   1
_chemical_formula_structural   YbTiB4Ru5
_chemical_formula_sum   'Yb2 Ti2 B8 Ru10'
_cell_volume   257.29056590
_cell_formula_units_Z   2
loop_
 _symmetry_equiv_pos_site_id
 _symmetry_equiv_pos_as_xyz
  1  'x, y, z'
loop_
 _atom_site_type_symbol
 _atom_site_label
 _atom_site_symmetry_multiplicity
 _atom_site_fract_x
 _atom_site_fract_y
 _atom_site_fract_z
 _atom_site_occupancy
  Yb  Yb0  1  0.500000  0.157484  0.682515  1
  Yb  Yb1  1  0.500000  0.842516  0.317485  1
  Ti  Ti2  1  0.500000  0.653210  0.817906  1
  Ti  Ti3  1  0.500000  0.346790  0.182094  1
  B  B4  1  0.500000  0.851103  0.599928  1
  B  B5  1  0.500000  0.148897  0.400072  1
  B  B6  1  0.500000  0.352353  0.898770  1
  B  B7  1  0.500000  0.647647  0.101230  1
  B  B8  1  0.500000  0.964339  0.911408  1
  B  B9  1  0.500000  0.035661  0.088592  1
  B  B10  1  0.500000  0.463220  0.587379  1
  B  B11  1  0.500000  0.536780  0.412621  1
  Ru  Ru12  1  0.000000  0.416669  0.741350  1
  Ru  Ru13  1  0.000000  0.583331  0.258650  1
  Ru  Ru14  1  0.000000  0.888573  0.764241  1
  Ru  Ru15  1  0.000000  0.111427  0.235759  1
  Ru  Ru16  1  0.000000  0.000000  0.500000  1
  Ru  Ru17  1  0.000000  0.500000  0.000000  1
  Ru  Ru18  1  0.000000  0.658311  0.548553  1
  Ru  Ru19  1  0.000000  0.341689  0.451447  1
  Ru  Ru20  1  0.000000  0.163066  0.954370  1
  Ru  Ru21  1  0.000000  0.836934  0.045630  1
