# generated using pymatgen
data_DyPu2Ni7B2
_symmetry_space_group_name_H-M   'P 1'
_cell_length_a   5.04975406
_cell_length_b   5.04975416
_cell_length_c   14.40332000
_cell_angle_alpha   90.00000000
_cell_angle_beta   90.00000000
_cell_angle_gamma   119.95303593
_symmetry_Int_Tables_number   1
_chemical_formula_structural   DyPu2Ni7B2
_chemical_formula_sum   'Dy2 Pu4 Ni14 B4'
_cell_volume   318.22847361
_cell_formula_units_Z   2
loop_
 _symmetry_equiv_pos_site_id
 _symmetry_equiv_pos_as_xyz
  1  'x, y, z'
loop_
 _atom_site_type_symbol
 _atom_site_label
 _atom_site_symmetry_multiplicity
 _atom_site_fract_x
 _atom_site_fract_y
 _atom_site_fract_z
 _atom_site_occupancy
  Dy  Dy0  1  0.666694  0.333306  0.250000  1
  Dy  Dy1  1  0.333306  0.666694  0.750000  1
  Pu  Pu2  1  0.666686  0.333314  0.029731  1
  Pu  Pu3  1  0.333314  0.666686  0.970269  1
  Pu  Pu4  1  0.333314  0.666686  0.529731  1
  Pu  Pu5  1  0.666686  0.333314  0.470269  1
  Ni  Ni6  1  0.834279  0.668509  0.650351  1
  Ni  Ni7  1  0.834208  0.165792  0.650257  1
  Ni  Ni8  1  0.331491  0.165721  0.650351  1
  Ni  Ni9  1  0.165721  0.331491  0.349649  1
  Ni  Ni10  1  0.165792  0.834208  0.349743  1
  Ni  Ni11  1  0.668509  0.834279  0.349649  1
  Ni  Ni12  1  0.165721  0.331491  0.150351  1
  Ni  Ni13  1  0.165792  0.834208  0.150257  1
  Ni  Ni14  1  0.668509  0.834279  0.150351  1
  Ni  Ni15  1  0.834279  0.668509  0.849649  1
  Ni  Ni16  1  0.834208  0.165792  0.849743  1
  Ni  Ni17  1  0.331491  0.165721  0.849649  1
  Ni  Ni18  1  0.000000  0.000000  0.500000  1
  Ni  Ni19  1  0.000000  0.000000  0.000000  1
  B  B20  1  0.666649  0.333351  0.750000  1
  B  B21  1  0.333351  0.666649  0.250000  1
  B  B22  1  0.000032  0.999968  0.750000  1
  B  B23  1  0.999968  0.000032  0.250000  1
