# generated using pymatgen
data_Ti20Ga7As3S2
_symmetry_space_group_name_H-M   'P 1'
_cell_length_a   6.66150488
_cell_length_b   7.85465278
_cell_length_c   9.83845875
_cell_angle_alpha   89.93115458
_cell_angle_beta   89.94965893
_cell_angle_gamma   90.06097871
_symmetry_Int_Tables_number   1
_chemical_formula_structural   Ti20Ga7As3S2
_chemical_formula_sum   'Ti20 Ga7 As3 S2'
_cell_volume   514.78476230
_cell_formula_units_Z   1
loop_
 _symmetry_equiv_pos_site_id
 _symmetry_equiv_pos_as_xyz
  1  'x, y, z'
loop_
 _atom_site_type_symbol
 _atom_site_label
 _atom_site_symmetry_multiplicity
 _atom_site_fract_x
 _atom_site_fract_y
 _atom_site_fract_z
 _atom_site_occupancy
  Ti  Ti0  1  0.818321  0.561184  0.056610  1
  Ti  Ti1  1  0.680710  0.935908  0.560758  1
  Ti  Ti2  1  0.184471  0.049121  0.939059  1
  Ti  Ti3  1  0.317298  0.451108  0.440156  1
  Ti  Ti4  1  0.183023  0.453688  0.938518  1
  Ti  Ti5  1  0.317075  0.048241  0.440160  1
  Ti  Ti6  1  0.818948  0.937535  0.059829  1
  Ti  Ti7  1  0.676993  0.560860  0.563110  1
  Ti  Ti8  1  0.168851  0.750549  0.218731  1
  Ti  Ti9  1  0.332723  0.746065  0.717652  1
  Ti  Ti10  1  0.825799  0.254851  0.775293  1
  Ti  Ti11  1  0.673354  0.249926  0.273373  1
  Ti  Ti12  1  0.475516  0.748134  0.003015  1
  Ti  Ti13  1  0.021640  0.749863  0.502437  1
  Ti  Ti14  1  0.514571  0.252128  0.996001  1
  Ti  Ti15  1  0.987342  0.249690  0.496379  1
  Ti  Ti16  1  0.657247  0.749082  0.290815  1
  Ti  Ti17  1  0.845295  0.748599  0.791781  1
  Ti  Ti18  1  0.334442  0.253453  0.714052  1
  Ti  Ti19  1  0.167351  0.248991  0.215547  1
  Ga  Ga20  1  0.937310  0.505783  0.323647  1
  Ga  Ga21  1  0.561389  0.993630  0.824270  1
  Ga  Ga22  1  0.061333  0.006372  0.675844  1
  Ga  Ga23  1  0.438031  0.493994  0.176813  1
  Ga  Ga24  1  0.061199  0.494463  0.673049  1
  Ga  Ga25  1  0.439919  0.005638  0.174479  1
  Ga  Ga26  1  0.937492  0.993487  0.324215  1
  As  As27  1  0.602139  0.247991  0.529312  1
  As  As28  1  0.900820  0.249302  0.031312  1
  As  As29  1  0.562351  0.509603  0.826242  1
  S  S30  1  0.399167  0.749596  0.472541  1
  S  S31  1  0.097881  0.751165  0.975003  1
