# generated using pymatgen
data_Ba4FeReWO12
_symmetry_space_group_name_H-M   'P 1'
_cell_length_a   9.99294413
_cell_length_b   9.99294414
_cell_length_c   9.99294371
_cell_angle_alpha   33.72234038
_cell_angle_beta   33.72234092
_cell_angle_gamma   33.72233261
_symmetry_Int_Tables_number   1
_chemical_formula_structural   Ba4FeReWO12
_chemical_formula_sum   'Ba4 Fe1 Re1 W1 O12'
_cell_volume   274.02578248
_cell_formula_units_Z   1
loop_
 _symmetry_equiv_pos_site_id
 _symmetry_equiv_pos_as_xyz
  1  'x, y, z'
loop_
 _atom_site_type_symbol
 _atom_site_label
 _atom_site_symmetry_multiplicity
 _atom_site_fract_x
 _atom_site_fract_y
 _atom_site_fract_z
 _atom_site_occupancy
  Ba  Ba0  1  0.707841  0.707841  0.707841  1
  Ba  Ba1  1  0.290283  0.290283  0.290283  1
  Ba  Ba2  1  0.870096  0.870096  0.870096  1
  Ba  Ba3  1  0.134113  0.134113  0.134113  1
  Fe  Fe4  1  0.998180  0.998180  0.998180  1
  Re  Re5  1  0.418238  0.418238  0.418238  1
  W  W6  1  0.580535  0.580535  0.580535  1
  O  O7  1  0.386168  0.386168  0.865997  1
  O  O8  1  0.865997  0.386168  0.386168  1
  O  O9  1  0.386168  0.865997  0.386168  1
  O  O10  1  0.608179  0.608179  0.141544  1
  O  O11  1  0.141544  0.608179  0.608179  1
  O  O12  1  0.608179  0.141544  0.608179  1
  O  O13  1  0.216273  0.216273  0.695256  1
  O  O14  1  0.695256  0.216273  0.216273  1
  O  O15  1  0.216273  0.695256  0.216273  1
  O  O16  1  0.788802  0.788802  0.299070  1
  O  O17  1  0.299070  0.788802  0.788802  1
  O  O18  1  0.788802  0.299070  0.788802  1
