# generated using pymatgen
data_Th8Si12PtRh3
_symmetry_space_group_name_H-M   'P 1'
_cell_length_a   8.22527900
_cell_length_b   8.22527876
_cell_length_c   8.48343400
_cell_angle_alpha   90.00000000
_cell_angle_beta   90.00000000
_cell_angle_gamma   120.00000499
_symmetry_Int_Tables_number   1
_chemical_formula_structural   Th8Si12PtRh3
_chemical_formula_sum   'Th8 Si12 Pt1 Rh3'
_cell_volume   497.05398350
_cell_formula_units_Z   1
loop_
 _symmetry_equiv_pos_site_id
 _symmetry_equiv_pos_as_xyz
  1  'x, y, z'
loop_
 _atom_site_type_symbol
 _atom_site_label
 _atom_site_symmetry_multiplicity
 _atom_site_fract_x
 _atom_site_fract_y
 _atom_site_fract_z
 _atom_site_occupancy
  Th  Th0  1  0.000000  0.000000  0.749670  1
  Th  Th1  1  0.000000  0.000000  0.250640  1
  Th  Th2  1  0.499315  0.500685  0.747884  1
  Th  Th3  1  0.499315  0.998631  0.747884  1
  Th  Th4  1  0.001369  0.500685  0.747884  1
  Th  Th5  1  0.498340  0.501660  0.251870  1
  Th  Th6  1  0.003322  0.501660  0.251870  1
  Th  Th7  1  0.498340  0.996678  0.251870  1
  Si  Si8  1  0.835230  0.164770  0.000127  1
  Si  Si9  1  0.835230  0.670460  0.000127  1
  Si  Si10  1  0.329540  0.164770  0.000127  1
  Si  Si11  1  0.833201  0.166799  0.499839  1
  Si  Si12  1  0.833201  0.666404  0.499839  1
  Si  Si13  1  0.333596  0.166799  0.499839  1
  Si  Si14  1  0.166109  0.833891  0.500213  1
  Si  Si15  1  0.667783  0.833891  0.500213  1
  Si  Si16  1  0.166109  0.332217  0.500213  1
  Si  Si17  1  0.167430  0.832570  0.999940  1
  Si  Si18  1  0.665140  0.832570  0.999940  1
  Si  Si19  1  0.167430  0.334860  0.999940  1
  Pt  Pt20  1  0.666667  0.333333  0.999571  1
  Rh  Rh21  1  0.666667  0.333333  0.500847  1
  Rh  Rh22  1  0.333333  0.666667  0.498444  1
  Rh  Rh23  1  0.333333  0.666667  0.001206  1
