# generated using pymatgen
data_MnAl11Re3
_symmetry_space_group_name_H-M   'P 1'
_cell_length_a   5.15653862
_cell_length_b   5.17128598
_cell_length_c   9.01543881
_cell_angle_alpha   105.27794112
_cell_angle_beta   90.24423333
_cell_angle_gamma   100.17295506
_symmetry_Int_Tables_number   1
_chemical_formula_structural   MnAl11Re3
_chemical_formula_sum   'Mn1 Al11 Re3'
_cell_volume   227.93615608
_cell_formula_units_Z   1
loop_
 _symmetry_equiv_pos_site_id
 _symmetry_equiv_pos_as_xyz
  1  'x, y, z'
loop_
 _atom_site_type_symbol
 _atom_site_label
 _atom_site_symmetry_multiplicity
 _atom_site_fract_x
 _atom_site_fract_y
 _atom_site_fract_z
 _atom_site_occupancy
  Mn  Mn0  1  0.282233  0.152764  0.600866  1
  Al  Al1  1  0.802682  0.264938  0.635025  1
  Al  Al2  1  0.196658  0.740021  0.367258  1
  Al  Al3  1  0.146277  0.461856  0.871477  1
  Al  Al4  1  0.855142  0.535790  0.128924  1
  Al  Al5  1  0.998739  0.999163  0.999341  1
  Al  Al6  1  0.498215  0.093974  0.871230  1
  Al  Al7  1  0.500303  0.903597  0.128162  1
  Al  Al8  1  0.567287  0.320446  0.378696  1
  Al  Al9  1  0.429738  0.670300  0.621398  1
  Al  Al10  1  0.947481  0.813549  0.667308  1
  Al  Al11  1  0.058707  0.196688  0.331448  1
  Re  Re12  1  0.717111  0.851329  0.401376  1
  Re  Re13  1  0.660312  0.606672  0.864797  1
  Re  Re14  1  0.339111  0.388912  0.132694  1
