# generated using pymatgen
data_Y3Hg2Ir
_symmetry_space_group_name_H-M   'P 1'
_cell_length_a   12.99740700
_cell_length_b   12.99740599
_cell_length_c   3.77627200
_cell_angle_alpha   90.00000000
_cell_angle_beta   90.00000000
_cell_angle_gamma   114.80051956
_symmetry_Int_Tables_number   1
_chemical_formula_structural   Y3Hg2Ir
_chemical_formula_sum   'Y12 Hg8 Ir4'
_cell_volume   579.10092167
_cell_formula_units_Z   4
loop_
 _symmetry_equiv_pos_site_id
 _symmetry_equiv_pos_as_xyz
  1  'x, y, z'
loop_
 _atom_site_type_symbol
 _atom_site_label
 _atom_site_symmetry_multiplicity
 _atom_site_fract_x
 _atom_site_fract_y
 _atom_site_fract_z
 _atom_site_occupancy
  Y  Y0  1  0.500000  0.500000  0.500000  1
  Y  Y1  1  0.782389  0.782389  0.500000  1
  Y  Y2  1  0.217611  0.217611  0.500000  1
  Y  Y3  1  0.590348  0.919331  0.500000  1
  Y  Y4  1  0.409652  0.080669  0.500000  1
  Y  Y5  1  0.919331  0.590348  0.500000  1
  Y  Y6  1  0.080669  0.409652  0.500000  1
  Y  Y7  1  0.142414  0.857586  0.500000  1
  Y  Y8  1  0.857586  0.142414  0.500000  1
  Y  Y9  1  0.334359  0.665641  0.500000  1
  Y  Y10  1  0.665641  0.334359  0.500000  1
  Y  Y11  1  0.000000  0.000000  0.000000  1
  Hg  Hg12  1  0.357941  0.867934  0.000000  1
  Hg  Hg13  1  0.642059  0.132066  0.000000  1
  Hg  Hg14  1  0.867934  0.357941  0.000000  1
  Hg  Hg15  1  0.132066  0.642059  0.000000  1
  Hg  Hg16  1  0.549767  0.709778  0.000000  1
  Hg  Hg17  1  0.450233  0.290222  0.000000  1
  Hg  Hg18  1  0.709778  0.549767  0.000000  1
  Hg  Hg19  1  0.290222  0.450233  0.000000  1
  Ir  Ir20  1  0.762473  0.950302  0.000000  1
  Ir  Ir21  1  0.237527  0.049698  0.000000  1
  Ir  Ir22  1  0.950302  0.762473  0.000000  1
  Ir  Ir23  1  0.049698  0.237527  0.000000  1
