# generated using pymatgen
data_Ti10Be2AlSb5
_symmetry_space_group_name_H-M   'P 1'
_cell_length_a   8.04516200
_cell_length_b   8.09038005
_cell_length_c   5.42070200
_cell_angle_alpha   90.00000000
_cell_angle_beta   90.00000000
_cell_angle_gamma   119.81527705
_symmetry_Int_Tables_number   1
_chemical_formula_structural   Ti10Be2AlSb5
_chemical_formula_sum   'Ti10 Be2 Al1 Sb5'
_cell_volume   306.12251130
_cell_formula_units_Z   1
loop_
 _symmetry_equiv_pos_site_id
 _symmetry_equiv_pos_as_xyz
  1  'x, y, z'
loop_
 _atom_site_type_symbol
 _atom_site_label
 _atom_site_symmetry_multiplicity
 _atom_site_fract_x
 _atom_site_fract_y
 _atom_site_fract_z
 _atom_site_occupancy
  Ti  Ti0  1  0.261789  0.000000  0.750000  1
  Ti  Ti1  1  0.750825  0.000000  0.250000  1
  Ti  Ti2  1  0.989507  0.251594  0.750000  1
  Ti  Ti3  1  0.003504  0.750796  0.250000  1
  Ti  Ti4  1  0.737913  0.748406  0.750000  1
  Ti  Ti5  1  0.252708  0.249204  0.250000  1
  Ti  Ti6  1  0.335315  0.668896  0.504047  1
  Ti  Ti7  1  0.666420  0.331104  0.504047  1
  Ti  Ti8  1  0.666420  0.331104  0.995953  1
  Ti  Ti9  1  0.335315  0.668896  0.995953  1
  Be  Be10  1  0.999014  0.000000  0.513124  1
  Be  Be11  1  0.999014  0.000000  0.986876  1
  Al  Al12  1  0.609813  0.000000  0.750000  1
  Sb  Sb13  1  0.398699  0.000000  0.250000  1
  Sb  Sb14  1  0.998685  0.616087  0.750000  1
  Sb  Sb15  1  0.000383  0.388307  0.250000  1
  Sb  Sb16  1  0.382598  0.383913  0.750000  1
  Sb  Sb17  1  0.612077  0.611693  0.250000  1
