# generated using pymatgen
data_NaFe2NiSb12Rh
_symmetry_space_group_name_H-M   'P 1'
_cell_length_a   8.01778993
_cell_length_b   8.01218095
_cell_length_c   8.02670630
_cell_angle_alpha   109.54147529
_cell_angle_beta   109.53854396
_cell_angle_gamma   109.68184478
_symmetry_Int_Tables_number   1
_chemical_formula_structural   NaFe2NiSb12Rh
_chemical_formula_sum   'Na1 Fe2 Ni1 Sb12 Rh1'
_cell_volume   395.22082556
_cell_formula_units_Z   1
loop_
 _symmetry_equiv_pos_site_id
 _symmetry_equiv_pos_as_xyz
  1  'x, y, z'
loop_
 _atom_site_type_symbol
 _atom_site_label
 _atom_site_symmetry_multiplicity
 _atom_site_fract_x
 _atom_site_fract_y
 _atom_site_fract_z
 _atom_site_occupancy
  Na  Na0  1  0.000000  0.000000  0.000000  1
  Fe  Fe1  1  0.000000  0.500000  0.000000  1
  Fe  Fe2  1  0.500000  0.000000  0.000000  1
  Ni  Ni3  1  0.000000  0.000000  0.500000  1
  Sb  Sb4  1  0.659540  0.822469  0.155450  1
  Sb  Sb5  1  0.838137  0.331309  0.168927  1
  Sb  Sb6  1  0.503033  0.847805  0.669665  1
  Sb  Sb7  1  0.847064  0.660977  0.500769  1
  Sb  Sb8  1  0.496967  0.152195  0.330335  1
  Sb  Sb9  1  0.161863  0.668691  0.831073  1
  Sb  Sb10  1  0.822745  0.163838  0.667126  1
  Sb  Sb11  1  0.177255  0.836162  0.332874  1
  Sb  Sb12  1  0.152936  0.339023  0.499231  1
  Sb  Sb13  1  0.669207  0.503851  0.847409  1
  Sb  Sb14  1  0.330793  0.496149  0.152591  1
  Sb  Sb15  1  0.340460  0.177531  0.844550  1
  Rh  Rh16  1  0.500000  0.500000  0.500000  1
