# generated using pymatgen
data_Zr4Si3AsPd4
_symmetry_space_group_name_H-M   'P 1'
_cell_length_a   3.95075400
_cell_length_b   6.67900043
_cell_length_c   7.69750204
_cell_angle_alpha   90.63617174
_cell_angle_beta   90.00000000
_cell_angle_gamma   90.00000000
_symmetry_Int_Tables_number   1
_chemical_formula_structural   Zr4Si3AsPd4
_chemical_formula_sum   'Zr4 Si3 As1 Pd4'
_cell_volume   203.10214099
_cell_formula_units_Z   1
loop_
 _symmetry_equiv_pos_site_id
 _symmetry_equiv_pos_as_xyz
  1  'x, y, z'
loop_
 _atom_site_type_symbol
 _atom_site_label
 _atom_site_symmetry_multiplicity
 _atom_site_fract_x
 _atom_site_fract_y
 _atom_site_fract_z
 _atom_site_occupancy
  Zr  Zr0  1  0.250000  0.025960  0.318215  1
  Zr  Zr1  1  0.250000  0.528298  0.178235  1
  Zr  Zr2  1  0.750000  0.967215  0.683791  1
  Zr  Zr3  1  0.750000  0.472228  0.819478  1
  Si  Si4  1  0.250000  0.760565  0.878242  1
  Si  Si5  1  0.750000  0.741769  0.375816  1
  Si  Si6  1  0.750000  0.240035  0.119701  1
  As  As7  1  0.250000  0.257391  0.628054  1
  Pd  Pd8  1  0.250000  0.138269  0.949942  1
  Pd  Pd9  1  0.250000  0.655907  0.559231  1
  Pd  Pd10  1  0.750000  0.852735  0.062306  1
  Pd  Pd11  1  0.750000  0.359627  0.426987  1
