# generated using pymatgen
data_Mg4MnNb(SbPt)6
_symmetry_space_group_name_H-M   'P 1'
_cell_length_a   7.74070941
_cell_length_b   7.75332099
_cell_length_c   7.75065111
_cell_angle_alpha   99.66690761
_cell_angle_beta   99.57133076
_cell_angle_gamma   120.07203763
_symmetry_Int_Tables_number   1
_chemical_formula_structural   Mg4MnNb(SbPt)6
_chemical_formula_sum   'Mg4 Mn1 Nb1 Sb6 Pt6'
_cell_volume   379.35425605
_cell_formula_units_Z   1
loop_
 _symmetry_equiv_pos_site_id
 _symmetry_equiv_pos_as_xyz
  1  'x, y, z'
loop_
 _atom_site_type_symbol
 _atom_site_label
 _atom_site_symmetry_multiplicity
 _atom_site_fract_x
 _atom_site_fract_y
 _atom_site_fract_z
 _atom_site_occupancy
  Mg  Mg0  1  0.330066  0.163211  0.498499  1
  Mg  Mg1  1  0.999259  0.502183  0.498668  1
  Mg  Mg2  1  0.163698  0.330150  0.999866  1
  Mg  Mg3  1  0.502794  0.000731  0.000397  1
  Mn  Mn4  1  0.669155  0.831741  0.499005  1
  Nb  Nb5  1  0.833545  0.668130  0.001784  1
  Sb  Sb6  1  0.916747  0.091213  0.249579  1
  Sb  Sb7  1  0.259275  0.750713  0.251005  1
  Sb  Sb8  1  0.577431  0.411851  0.255972  1
  Sb  Sb9  1  0.088732  0.919097  0.746364  1
  Sb  Sb10  1  0.748947  0.250545  0.747853  1
  Sb  Sb11  1  0.409939  0.579989  0.751241  1
  Pt  Pt12  1  0.197731  0.029450  0.120706  1
  Pt  Pt13  1  0.873765  0.386115  0.121636  1
  Pt  Pt14  1  0.552793  0.708203  0.127269  1
  Pt  Pt15  1  0.033357  0.201525  0.622296  1
  Pt  Pt16  1  0.382940  0.873655  0.623548  1
  Pt  Pt17  1  0.709822  0.551498  0.634312  1
