# generated using pymatgen
data_DyErAs4O9
_symmetry_space_group_name_H-M   'P 1'
_cell_length_a   6.72931048
_cell_length_b   7.52832244
_cell_length_c   9.81368575
_cell_angle_alpha   94.76420807
_cell_angle_beta   104.06962990
_cell_angle_gamma   104.81200566
_symmetry_Int_Tables_number   1
_chemical_formula_structural   DyErAs4O9
_chemical_formula_sum   'Dy2 Er2 As8 O18'
_cell_volume   460.60283052
_cell_formula_units_Z   2
loop_
 _symmetry_equiv_pos_site_id
 _symmetry_equiv_pos_as_xyz
  1  'x, y, z'
loop_
 _atom_site_type_symbol
 _atom_site_label
 _atom_site_symmetry_multiplicity
 _atom_site_fract_x
 _atom_site_fract_y
 _atom_site_fract_z
 _atom_site_occupancy
  Dy  Dy0  1  0.243212  0.939193  0.614990  1
  Dy  Dy1  1  0.756788  0.060807  0.385010  1
  Er  Er2  1  0.720844  0.529046  0.409681  1
  Er  Er3  1  0.279156  0.470954  0.590319  1
  As  As4  1  0.682532  0.773804  0.078823  1
  As  As5  1  0.317468  0.226196  0.921177  1
  As  As6  1  0.170478  0.751875  0.912597  1
  As  As7  1  0.829522  0.248125  0.087403  1
  As  As8  1  0.743313  0.914568  0.709728  1
  As  As9  1  0.256687  0.085432  0.290272  1
  As  As10  1  0.809727  0.351970  0.701392  1
  As  As11  1  0.190273  0.648030  0.298608  1
  O  O12  1  0.722326  0.747304  0.259364  1
  O  O13  1  0.277674  0.252696  0.740636  1
  O  O14  1  0.315298  0.978791  0.869481  1
  O  O15  1  0.684702  0.021209  0.130519  1
  O  O16  1  0.608018  0.324879  0.985347  1
  O  O17  1  0.391982  0.675121  0.014653  1
  O  O18  1  0.127373  0.644926  0.737890  1
  O  O19  1  0.872627  0.355074  0.262110  1
  O  O20  1  0.847073  0.874601  0.559545  1
  O  O21  1  0.152927  0.125399  0.440455  1
  O  O22  1  0.481865  0.766833  0.666192  1
  O  O23  1  0.518135  0.233167  0.333808  1
  O  O24  1  0.373330  0.533276  0.380722  1
  O  O25  1  0.626670  0.466724  0.619278  1
  O  O26  1  0.088289  0.668380  0.453703  1
  O  O27  1  0.911711  0.331620  0.546297  1
  O  O28  1  0.377038  0.899378  0.358705  1
  O  O29  1  0.622962  0.100622  0.641295  1
