# generated using pymatgen
data_Na4HoAs12Rh19
_symmetry_space_group_name_H-M   'P 1'
_cell_length_a   13.17065052
_cell_length_b   13.12751793
_cell_length_c   3.96944700
_cell_angle_alpha   90.00000000
_cell_angle_beta   90.00000000
_cell_angle_gamma   119.89172643
_symmetry_Int_Tables_number   1
_chemical_formula_structural   Na4HoAs12Rh19
_chemical_formula_sum   'Na4 Ho1 As12 Rh19'
_cell_volume   595.00865540
_cell_formula_units_Z   1
loop_
 _symmetry_equiv_pos_site_id
 _symmetry_equiv_pos_as_xyz
  1  'x, y, z'
loop_
 _atom_site_type_symbol
 _atom_site_label
 _atom_site_symmetry_multiplicity
 _atom_site_fract_x
 _atom_site_fract_y
 _atom_site_fract_z
 _atom_site_occupancy
  Na  Na0  1  0.817672  0.815827  0.500000  1
  Na  Na1  1  0.182328  0.998155  0.500000  1
  Na  Na2  1  0.668051  0.334295  0.000000  1
  Na  Na3  1  0.331949  0.666245  0.000000  1
  Ho  Ho4  1  0.000000  0.176407  0.500000  1
  As  As5  1  0.487065  0.320421  0.500000  1
  As  As6  1  0.816656  0.994491  0.000000  1
  As  As7  1  0.183344  0.177835  0.000000  1
  As  As8  1  0.000000  0.821298  0.000000  1
  As  As9  1  0.362209  0.000731  0.000000  1
  As  As10  1  0.680133  0.166504  0.500000  1
  As  As11  1  0.833999  0.514828  0.500000  1
  As  As12  1  0.512935  0.833356  0.500000  1
  As  As13  1  0.166001  0.680829  0.500000  1
  As  As14  1  0.319867  0.486370  0.500000  1
  As  As15  1  0.000000  0.361582  0.000000  1
  As  As16  1  0.637791  0.638522  0.000000  1
  Rh  Rh17  1  0.806130  0.176925  0.000000  1
  Rh  Rh18  1  0.379280  0.199516  0.000000  1
  Rh  Rh19  1  0.645342  0.519634  0.500000  1
  Rh  Rh20  1  0.872407  0.352644  0.500000  1
  Rh  Rh21  1  0.354658  0.874292  0.500000  1
  Rh  Rh22  1  0.517939  0.646362  0.500000  1
  Rh  Rh23  1  0.127593  0.480238  0.500000  1
  Rh  Rh24  1  0.820859  0.624004  0.000000  1
  Rh  Rh25  1  0.620720  0.820236  0.000000  1
  Rh  Rh26  1  0.179141  0.803144  0.000000  1
  Rh  Rh27  1  0.193870  0.370794  0.000000  1
  Rh  Rh28  1  0.000000  0.714414  0.500000  1
  Rh  Rh29  1  0.286117  0.286689  0.500000  1
  Rh  Rh30  1  0.713883  0.000572  0.500000  1
  Rh  Rh31  1  0.000000  0.546166  0.000000  1
  Rh  Rh32  1  0.450491  0.456688  0.000000  1
  Rh  Rh33  1  0.549509  0.006196  0.000000  1
  Rh  Rh34  1  0.000000  0.005363  0.000000  1
  Rh  Rh35  1  0.482061  0.128424  0.500000  1
