# generated using pymatgen
data_Sc6Zn16Cu7
_symmetry_space_group_name_H-M   'P 1'
_cell_length_a   8.61175063
_cell_length_b   8.61175044
_cell_length_c   8.61175100
_cell_angle_alpha   60.00000169
_cell_angle_beta   60.00000242
_cell_angle_gamma   60.00000309
_symmetry_Int_Tables_number   1
_chemical_formula_structural   Sc6Zn16Cu7
_chemical_formula_sum   'Sc6 Zn16 Cu7'
_cell_volume   451.60565484
_cell_formula_units_Z   1
loop_
 _symmetry_equiv_pos_site_id
 _symmetry_equiv_pos_as_xyz
  1  'x, y, z'
loop_
 _atom_site_type_symbol
 _atom_site_label
 _atom_site_symmetry_multiplicity
 _atom_site_fract_x
 _atom_site_fract_y
 _atom_site_fract_z
 _atom_site_occupancy
  Sc  Sc0  1  0.700356  0.299644  0.299644  1
  Sc  Sc1  1  0.700356  0.299644  0.700356  1
  Sc  Sc2  1  0.700356  0.700356  0.299644  1
  Sc  Sc3  1  0.299644  0.700356  0.700356  1
  Sc  Sc4  1  0.299644  0.700356  0.299644  1
  Sc  Sc5  1  0.299644  0.299644  0.700356  1
  Zn  Zn6  1  0.642583  0.119139  0.119139  1
  Zn  Zn7  1  0.119139  0.642583  0.119139  1
  Zn  Zn8  1  0.119139  0.119139  0.642583  1
  Zn  Zn9  1  0.119139  0.119139  0.119139  1
  Zn  Zn10  1  0.357417  0.880861  0.880861  1
  Zn  Zn11  1  0.880861  0.357417  0.880861  1
  Zn  Zn12  1  0.880861  0.880861  0.357417  1
  Zn  Zn13  1  0.880861  0.880861  0.880861  1
  Zn  Zn14  1  0.004021  0.331993  0.331993  1
  Zn  Zn15  1  0.331993  0.004021  0.331993  1
  Zn  Zn16  1  0.331993  0.331993  0.004021  1
  Zn  Zn17  1  0.331993  0.331993  0.331993  1
  Zn  Zn18  1  0.995979  0.668007  0.668007  1
  Zn  Zn19  1  0.668007  0.995979  0.668007  1
  Zn  Zn20  1  0.668007  0.668007  0.995979  1
  Zn  Zn21  1  0.668007  0.668007  0.668007  1
  Cu  Cu22  1  0.000000  0.000000  0.000000  1
  Cu  Cu23  1  0.500000  0.000000  0.000000  1
  Cu  Cu24  1  0.500000  0.000000  0.500000  1
  Cu  Cu25  1  0.500000  0.500000  0.000000  1
  Cu  Cu26  1  0.000000  0.500000  0.500000  1
  Cu  Cu27  1  0.000000  0.500000  0.000000  1
  Cu  Cu28  1  0.000000  0.000000  0.500000  1
