# generated using pymatgen
data_DyHoLu(Co3P2)3
_symmetry_space_group_name_H-M   'P 1'
_cell_length_a   3.67932800
_cell_length_b   10.48426900
_cell_length_c   12.12996700
_cell_angle_alpha   90.00000000
_cell_angle_beta   90.00000000
_cell_angle_gamma   90.00000000
_symmetry_Int_Tables_number   1
_chemical_formula_structural   DyHoLu(Co3P2)3
_chemical_formula_sum   'Dy2 Ho2 Lu2 Co18 P12'
_cell_volume   467.91425930
_cell_formula_units_Z   2
loop_
 _symmetry_equiv_pos_site_id
 _symmetry_equiv_pos_as_xyz
  1  'x, y, z'
loop_
 _atom_site_type_symbol
 _atom_site_label
 _atom_site_symmetry_multiplicity
 _atom_site_fract_x
 _atom_site_fract_y
 _atom_site_fract_z
 _atom_site_occupancy
  Dy  Dy0  1  0.000000  0.500000  0.522917  1
  Dy  Dy1  1  0.500000  0.000000  0.477881  1
  Ho  Ho2  1  0.500000  0.817879  0.205543  1
  Ho  Ho3  1  0.500000  0.182121  0.205543  1
  Lu  Lu4  1  0.000000  0.681517  0.794116  1
  Lu  Lu5  1  0.000000  0.318483  0.794116  1
  Co  Co6  1  0.500000  0.500000  0.159006  1
  Co  Co7  1  0.000000  0.000000  0.840708  1
  Co  Co8  1  0.500000  0.500000  0.705193  1
  Co  Co9  1  0.000000  0.000000  0.295748  1
  Co  Co10  1  0.000000  0.500000  0.985720  1
  Co  Co11  1  0.500000  0.000000  0.012067  1
  Co  Co12  1  0.500000  0.333537  0.994010  1
  Co  Co13  1  0.500000  0.666463  0.994010  1
  Co  Co14  1  0.000000  0.167433  0.004030  1
  Co  Co15  1  0.000000  0.832567  0.004030  1
  Co  Co16  1  0.500000  0.297448  0.431131  1
  Co  Co17  1  0.500000  0.702552  0.431131  1
  Co  Co18  1  0.000000  0.203012  0.570403  1
  Co  Co19  1  0.000000  0.796988  0.570403  1
  Co  Co20  1  0.500000  0.878136  0.710331  1
  Co  Co21  1  0.500000  0.121864  0.710331  1
  Co  Co22  1  0.000000  0.620862  0.290449  1
  Co  Co23  1  0.000000  0.379138  0.290449  1
  P  P24  1  0.500000  0.500000  0.882202  1
  P  P25  1  0.000000  0.000000  0.115968  1
  P  P26  1  0.500000  0.500000  0.344464  1
  P  P27  1  0.000000  0.000000  0.655813  1
  P  P28  1  0.500000  0.311284  0.617778  1
  P  P29  1  0.500000  0.688716  0.617778  1
  P  P30  1  0.000000  0.189437  0.384372  1
  P  P31  1  0.000000  0.810563  0.384372  1
  P  P32  1  0.500000  0.845579  0.891826  1
  P  P33  1  0.500000  0.154421  0.891826  1
  P  P34  1  0.000000  0.652576  0.107168  1
  P  P35  1  0.000000  0.347424  0.107168  1
