# generated using pymatgen
data_Hf3Si3Ni
_symmetry_space_group_name_H-M   'P 1'
_cell_length_a   5.25468154
_cell_length_b   5.25468147
_cell_length_c   12.85230977
_cell_angle_alpha   71.44141759
_cell_angle_beta   71.44141872
_cell_angle_gamma   42.72343228
_symmetry_Int_Tables_number   1
_chemical_formula_structural   Hf3Si3Ni
_chemical_formula_sum   'Hf6 Si6 Ni2'
_cell_volume   226.27111562
_cell_formula_units_Z   2
loop_
 _symmetry_equiv_pos_site_id
 _symmetry_equiv_pos_as_xyz
  1  'x, y, z'
loop_
 _atom_site_type_symbol
 _atom_site_label
 _atom_site_symmetry_multiplicity
 _atom_site_fract_x
 _atom_site_fract_y
 _atom_site_fract_z
 _atom_site_occupancy
  Hf  Hf0  1  0.479136  0.479136  0.377558  1
  Hf  Hf1  1  0.520864  0.520864  0.622442  1
  Hf  Hf2  1  0.607157  0.607157  0.079384  1
  Hf  Hf3  1  0.392843  0.392843  0.920616  1
  Hf  Hf4  1  0.251507  0.251507  0.226539  1
  Hf  Hf5  1  0.748493  0.748493  0.773461  1
  Si  Si6  1  0.965740  0.965740  0.234305  1
  Si  Si7  1  0.034260  0.034260  0.765695  1
  Si  Si8  1  0.884780  0.884780  0.075634  1
  Si  Si9  1  0.115220  0.115220  0.924366  1
  Si  Si10  1  0.864599  0.864599  0.543430  1
  Si  Si11  1  0.135401  0.135401  0.456570  1
  Ni  Ni12  1  0.761042  0.761042  0.396657  1
  Ni  Ni13  1  0.238958  0.238958  0.603343  1
