# generated using pymatgen
data_Nd8Zn8Ir5PdRh2
_symmetry_space_group_name_H-M   'P 1'
_cell_length_a   4.03220200
_cell_length_b   7.35021115
_cell_length_c   16.68156336
_cell_angle_alpha   90.14271822
_cell_angle_beta   90.00000000
_cell_angle_gamma   90.00000000
_symmetry_Int_Tables_number   1
_chemical_formula_structural   Nd8Zn8Ir5PdRh2
_chemical_formula_sum   'Nd8 Zn8 Ir5 Pd1 Rh2'
_cell_volume   494.39890290
_cell_formula_units_Z   1
loop_
 _symmetry_equiv_pos_site_id
 _symmetry_equiv_pos_as_xyz
  1  'x, y, z'
loop_
 _atom_site_type_symbol
 _atom_site_label
 _atom_site_symmetry_multiplicity
 _atom_site_fract_x
 _atom_site_fract_y
 _atom_site_fract_z
 _atom_site_occupancy
  Nd  Nd0  1  0.250000  0.169055  0.938583  1
  Nd  Nd1  1  0.250000  0.664961  0.565509  1
  Nd  Nd2  1  0.750000  0.328289  0.439802  1
  Nd  Nd3  1  0.750000  0.955627  0.280271  1
  Nd  Nd4  1  0.750000  0.831543  0.060720  1
  Nd  Nd5  1  0.750000  0.450533  0.214920  1
  Nd  Nd6  1  0.250000  0.048853  0.716382  1
  Nd  Nd7  1  0.250000  0.547590  0.784974  1
  Zn  Zn8  1  0.750000  0.004308  0.563017  1
  Zn  Zn9  1  0.250000  0.620003  0.345204  1
  Zn  Zn10  1  0.750000  0.377284  0.652003  1
  Zn  Zn11  1  0.250000  0.499406  0.059889  1
  Zn  Zn12  1  0.750000  0.500634  0.940389  1
  Zn  Zn13  1  0.250000  0.002106  0.439844  1
  Zn  Zn14  1  0.250000  0.123399  0.150158  1
  Zn  Zn15  1  0.750000  0.877099  0.848655  1
  Ir  Ir16  1  0.250000  0.244172  0.314404  1
  Ir  Ir17  1  0.750000  0.254435  0.814225  1
  Ir  Ir18  1  0.750000  0.755789  0.685619  1
  Ir  Ir19  1  0.250000  0.244978  0.564904  1
  Ir  Ir20  1  0.250000  0.744370  0.186840  1
  Pd  Pd21  1  0.750000  0.756262  0.433873  1
  Rh  Rh22  1  0.750000  0.254858  0.065159  1
  Rh  Rh23  1  0.250000  0.744443  0.934657  1
