# generated using pymatgen
data_Nd2Zn2Co6BC
_symmetry_space_group_name_H-M   'P 1'
_cell_length_a   5.19861900
_cell_length_b   5.19861915
_cell_length_c   6.73669600
_cell_angle_alpha   90.00000000
_cell_angle_beta   90.00000000
_cell_angle_gamma   120.00000543
_symmetry_Int_Tables_number   1
_chemical_formula_structural   Nd2Zn2Co6BC
_chemical_formula_sum   'Nd2 Zn2 Co6 B1 C1'
_cell_volume   157.67162716
_cell_formula_units_Z   1
loop_
 _symmetry_equiv_pos_site_id
 _symmetry_equiv_pos_as_xyz
  1  'x, y, z'
loop_
 _atom_site_type_symbol
 _atom_site_label
 _atom_site_symmetry_multiplicity
 _atom_site_fract_x
 _atom_site_fract_y
 _atom_site_fract_z
 _atom_site_occupancy
  Nd  Nd0  1  0.000000  0.000000  0.000000  1
  Nd  Nd1  1  0.000000  0.000000  0.500000  1
  Zn  Zn2  1  0.333333  0.666667  0.000000  1
  Zn  Zn3  1  0.666667  0.333333  0.000000  1
  Co  Co4  1  0.497314  0.994629  0.695498  1
  Co  Co5  1  0.005371  0.502686  0.304502  1
  Co  Co6  1  0.497314  0.994629  0.304502  1
  Co  Co7  1  0.497314  0.502686  0.695498  1
  Co  Co8  1  0.497314  0.502686  0.304502  1
  Co  Co9  1  0.005371  0.502686  0.695498  1
  B  B10  1  0.666667  0.333333  0.500000  1
  C  C11  1  0.333333  0.666667  0.500000  1
