# generated using pymatgen
data_Tb5P12Ru9Rh10
_symmetry_space_group_name_H-M   'P 1'
_cell_length_a   3.94437000
_cell_length_b   12.63571106
_cell_length_c   12.63795406
_cell_angle_alpha   119.99413136
_cell_angle_beta   90.00000000
_cell_angle_gamma   90.00000000
_symmetry_Int_Tables_number   1
_chemical_formula_structural   Tb5P12Ru9Rh10
_chemical_formula_sum   'Tb5 P12 Ru9 Rh10'
_cell_volume   545.51967271
_cell_formula_units_Z   1
loop_
 _symmetry_equiv_pos_site_id
 _symmetry_equiv_pos_as_xyz
  1  'x, y, z'
loop_
 _atom_site_type_symbol
 _atom_site_label
 _atom_site_symmetry_multiplicity
 _atom_site_fract_x
 _atom_site_fract_y
 _atom_site_fract_z
 _atom_site_occupancy
  Tb  Tb0  1  0.500000  0.000022  0.185875  1
  Tb  Tb1  1  0.500000  0.185882  0.000000  1
  Tb  Tb2  1  0.500000  0.814148  0.814125  1
  Tb  Tb3  1  0.000000  0.333331  0.666664  1
  Tb  Tb4  1  0.000000  0.666667  0.333336  1
  P  P5  1  0.000000  0.999978  0.817562  1
  P  P6  1  0.000000  0.817595  0.000000  1
  P  P7  1  0.000000  0.182415  0.182438  1
  P  P8  1  0.500000  0.310859  0.482608  1
  P  P9  1  0.500000  0.171800  0.689140  1
  P  P10  1  0.500000  0.517347  0.828194  1
  P  P11  1  0.500000  0.828251  0.517392  1
  P  P12  1  0.500000  0.482659  0.310860  1
  P  P13  1  0.500000  0.689154  0.171806  1
  P  P14  1  0.000000  0.000031  0.370362  1
  P  P15  1  0.000000  0.370234  0.000000  1
  P  P16  1  0.000000  0.629669  0.629638  1
  Ru  Ru17  1  0.500000  0.999910  0.715098  1
  Ru  Ru18  1  0.500000  0.715148  0.000000  1
  Ru  Ru19  1  0.500000  0.284813  0.284902  1
  Ru  Ru20  1  0.500000  0.126636  0.488586  1
  Ru  Ru21  1  0.500000  0.361860  0.873338  1
  Ru  Ru22  1  0.500000  0.511453  0.638086  1
  Ru  Ru23  1  0.500000  0.638050  0.511414  1
  Ru  Ru24  1  0.500000  0.488523  0.126662  1
  Ru  Ru25  1  0.500000  0.873367  0.361914  1
  Rh  Rh26  1  0.000000  0.000008  0.550981  1
  Rh  Rh27  1  0.000000  0.550918  0.000000  1
  Rh  Rh28  1  0.000000  0.449026  0.449019  1
  Rh  Rh29  1  0.000000  0.192730  0.375172  1
  Rh  Rh30  1  0.000000  0.182501  0.807270  1
  Rh  Rh31  1  0.000000  0.624806  0.817498  1
  Rh  Rh32  1  0.000000  0.817557  0.624828  1
  Rh  Rh33  1  0.000000  0.375232  0.192730  1
  Rh  Rh34  1  0.000000  0.807308  0.182502  1
  Rh  Rh35  1  0.000000  0.000011  0.000000  1
