# generated using pymatgen
data_NdEuY2(WN3)4
_symmetry_space_group_name_H-M   'P 1'
_cell_length_a   7.34460572
_cell_length_b   7.34460563
_cell_length_c   6.28235667
_cell_angle_alpha   75.17404165
_cell_angle_beta   75.17404377
_cell_angle_gamma   83.48624069
_symmetry_Int_Tables_number   1
_chemical_formula_structural   NdEuY2(WN3)4
_chemical_formula_sum   'Nd1 Eu1 Y2 W4 N12'
_cell_volume   316.28383143
_cell_formula_units_Z   1
loop_
 _symmetry_equiv_pos_site_id
 _symmetry_equiv_pos_as_xyz
  1  'x, y, z'
loop_
 _atom_site_type_symbol
 _atom_site_label
 _atom_site_symmetry_multiplicity
 _atom_site_fract_x
 _atom_site_fract_y
 _atom_site_fract_z
 _atom_site_occupancy
  Nd  Nd0  1  0.700096  0.299904  0.750000  1
  Eu  Eu1  1  0.295350  0.704650  0.250000  1
  Y  Y2  1  0.087985  0.912015  0.750000  1
  Y  Y3  1  0.911348  0.088652  0.250000  1
  W  W4  1  0.380249  0.201112  0.245438  1
  W  W5  1  0.619764  0.798106  0.756240  1
  W  W6  1  0.798888  0.619751  0.254562  1
  W  W7  1  0.201894  0.380236  0.743760  1
  N  N8  1  0.619694  0.108781  0.163957  1
  N  N9  1  0.364510  0.348644  0.466291  1
  N  N10  1  0.005219  0.216007  0.851575  1
  N  N11  1  0.379273  0.888319  0.839653  1
  N  N12  1  0.783993  0.994781  0.648425  1
  N  N13  1  0.111681  0.620727  0.660347  1
  N  N14  1  0.891219  0.380306  0.336043  1
  N  N15  1  0.639664  0.648166  0.536889  1
  N  N16  1  0.651356  0.635490  0.033709  1
  N  N17  1  0.351834  0.360336  0.963111  1
  N  N18  1  0.992724  0.786741  0.146998  1
  N  N19  1  0.213259  0.007276  0.353002  1
