# generated using pymatgen
data_Nd3Y5Cd2RuPt
_symmetry_space_group_name_H-M   'P 1'
_cell_length_a   9.79086506
_cell_length_b   9.79086473
_cell_length_c   9.81720000
_cell_angle_alpha   59.91097608
_cell_angle_beta   59.91097719
_cell_angle_gamma   59.97097880
_symmetry_Int_Tables_number   1
_chemical_formula_structural   Nd3Y5Cd2RuPt
_chemical_formula_sum   'Nd6 Y10 Cd4 Ru2 Pt2'
_cell_volume   664.40665873
_cell_formula_units_Z   2
loop_
 _symmetry_equiv_pos_site_id
 _symmetry_equiv_pos_as_xyz
  1  'x, y, z'
loop_
 _atom_site_type_symbol
 _atom_site_label
 _atom_site_symmetry_multiplicity
 _atom_site_fract_x
 _atom_site_fract_y
 _atom_site_fract_z
 _atom_site_occupancy
  Nd  Nd0  1  0.939015  0.557093  0.563613  1
  Nd  Nd1  1  0.557093  0.939015  0.940279  1
  Nd  Nd2  1  0.557093  0.939015  0.563613  1
  Nd  Nd3  1  0.939015  0.557093  0.940279  1
  Nd  Nd4  1  0.560941  0.560941  0.939059  1
  Nd  Nd5  1  0.939441  0.939441  0.560559  1
  Y  Y6  1  0.348701  0.348701  0.352178  1
  Y  Y7  1  0.348701  0.348701  0.950421  1
  Y  Y8  1  0.345465  0.957277  0.348629  1
  Y  Y9  1  0.957277  0.345465  0.348629  1
  Y  Y10  1  0.816101  0.186795  0.188981  1
  Y  Y11  1  0.186795  0.816101  0.808123  1
  Y  Y12  1  0.186795  0.816101  0.188981  1
  Y  Y13  1  0.816101  0.186795  0.808123  1
  Y  Y14  1  0.187053  0.187053  0.812947  1
  Y  Y15  1  0.809265  0.809265  0.190735  1
  Cd  Cd16  1  0.579324  0.579324  0.579946  1
  Cd  Cd17  1  0.579324  0.579324  0.261407  1
  Cd  Cd18  1  0.580273  0.259726  0.580000  1
  Cd  Cd19  1  0.259726  0.580273  0.580000  1
  Ru  Ru20  1  0.143362  0.143362  0.137557  1
  Ru  Ru21  1  0.143362  0.143362  0.575720  1
  Pt  Pt22  1  0.144263  0.575517  0.140110  1
  Pt  Pt23  1  0.575517  0.144263  0.140110  1
