# generated using pymatgen
data_Mn3Fe3As2P
_symmetry_space_group_name_H-M   'P 1'
_cell_length_a   6.30439800
_cell_length_b   6.30439952
_cell_length_c   3.25967500
_cell_angle_alpha   90.00000000
_cell_angle_beta   90.00000000
_cell_angle_gamma   120.00000252
_symmetry_Int_Tables_number   1
_chemical_formula_structural   Mn3Fe3As2P
_chemical_formula_sum   'Mn3 Fe3 As2 P1'
_cell_volume   112.19984892
_cell_formula_units_Z   1
loop_
 _symmetry_equiv_pos_site_id
 _symmetry_equiv_pos_as_xyz
  1  'x, y, z'
loop_
 _atom_site_type_symbol
 _atom_site_label
 _atom_site_symmetry_multiplicity
 _atom_site_fract_x
 _atom_site_fract_y
 _atom_site_fract_z
 _atom_site_occupancy
  Mn  Mn0  1  0.608770  0.000000  0.500000  1
  Mn  Mn1  1  0.391230  0.391230  0.500000  1
  Mn  Mn2  1  0.000000  0.608770  0.500000  1
  Fe  Fe3  1  0.249885  0.000000  0.000000  1
  Fe  Fe4  1  0.750115  0.750115  0.000000  1
  Fe  Fe5  1  0.000000  0.249885  0.000000  1
  As  As6  1  0.333333  0.666667  0.000000  1
  As  As7  1  0.666667  0.333333  0.000000  1
  P  P8  1  0.000000  0.000000  0.500000  1
