# generated using pymatgen
data_HoEr7B24IrRu3
_symmetry_space_group_name_H-M   'P 1'
_cell_length_a   3.63303000
_cell_length_b   9.11180512
_cell_length_c   11.45262400
_cell_angle_alpha   90.03814632
_cell_angle_beta   90.00000000
_cell_angle_gamma   90.00000000
_symmetry_Int_Tables_number   1
_chemical_formula_structural   HoEr7B24IrRu3
_chemical_formula_sum   'Ho1 Er7 B24 Ir1 Ru3'
_cell_volume   379.12141215
_cell_formula_units_Z   1
loop_
 _symmetry_equiv_pos_site_id
 _symmetry_equiv_pos_as_xyz
  1  'x, y, z'
loop_
 _atom_site_type_symbol
 _atom_site_label
 _atom_site_symmetry_multiplicity
 _atom_site_fract_x
 _atom_site_fract_y
 _atom_site_fract_z
 _atom_site_occupancy
  Ho  Ho0  1  0.000000  0.319037  0.414381  1
  Er  Er1  1  0.000000  0.679140  0.589080  1
  Er  Er2  1  0.000000  0.823373  0.084074  1
  Er  Er3  1  0.000000  0.178779  0.913070  1
  Er  Er4  1  0.000000  0.945413  0.373132  1
  Er  Er5  1  0.000000  0.056006  0.626960  1
  Er  Er6  1  0.000000  0.442009  0.125622  1
  Er  Er7  1  0.000000  0.556023  0.873318  1
  B  B8  1  0.500000  0.553574  0.433926  1
  B  B9  1  0.500000  0.446247  0.566963  1
  B  B10  1  0.500000  0.053960  0.066658  1
  B  B11  1  0.500000  0.946472  0.932973  1
  B  B12  1  0.500000  0.749436  0.421374  1
  B  B13  1  0.500000  0.251400  0.580013  1
  B  B14  1  0.500000  0.247968  0.079591  1
  B  B15  1  0.500000  0.752078  0.920243  1
  B  B16  1  0.500000  0.792172  0.265440  1
  B  B17  1  0.500000  0.208777  0.733870  1
  B  B18  1  0.500000  0.291313  0.234089  1
  B  B19  1  0.500000  0.708583  0.766214  1
  B  B20  1  0.500000  0.631871  0.183602  1
  B  B21  1  0.500000  0.368560  0.814896  1
  B  B22  1  0.500000  0.131390  0.315029  1
  B  B23  1  0.500000  0.868268  0.685206  1
  B  B24  1  0.500000  0.982708  0.212803  1
  B  B25  1  0.500000  0.017302  0.786909  1
  B  B26  1  0.500000  0.481753  0.286843  1
  B  B27  1  0.500000  0.517325  0.713197  1
  B  B28  1  0.500000  0.609385  0.030397  1
  B  B29  1  0.500000  0.390712  0.969905  1
  B  B30  1  0.500000  0.108350  0.470128  1
  B  B31  1  0.500000  0.890605  0.529757  1
  Ir  Ir32  1  0.000000  0.637369  0.321663  1
  Ru  Ru33  1  0.000000  0.362615  0.678575  1
  Ru  Ru34  1  0.000000  0.137700  0.179032  1
  Ru  Ru35  1  0.000000  0.862326  0.821069  1
