# generated using pymatgen
data_Tm4LuIr2
_symmetry_space_group_name_H-M   'P 1'
_cell_length_a   6.39037827
_cell_length_b   7.16828049
_cell_length_c   8.37474989
_cell_angle_alpha   96.87243601
_cell_angle_beta   112.42826249
_cell_angle_gamma   89.99999388
_symmetry_Int_Tables_number   1
_chemical_formula_structural   Tm4LuIr2
_chemical_formula_sum   'Tm8 Lu2 Ir4'
_cell_volume   351.62835016
_cell_formula_units_Z   2
loop_
 _symmetry_equiv_pos_site_id
 _symmetry_equiv_pos_as_xyz
  1  'x, y, z'
loop_
 _atom_site_type_symbol
 _atom_site_label
 _atom_site_symmetry_multiplicity
 _atom_site_fract_x
 _atom_site_fract_y
 _atom_site_fract_z
 _atom_site_occupancy
  Tm  Tm0  1  0.526736  0.081611  0.816184  1
  Tm  Tm1  1  0.473264  0.918389  0.183816  1
  Tm  Tm2  1  0.710552  0.418389  0.183816  1
  Tm  Tm3  1  0.289448  0.581611  0.816184  1
  Tm  Tm4  1  0.293706  0.315202  0.440049  1
  Tm  Tm5  1  0.706294  0.684798  0.559951  1
  Tm  Tm6  1  0.853657  0.184798  0.559951  1
  Tm  Tm7  1  0.146343  0.815202  0.440049  1
  Lu  Lu8  1  0.072911  0.250000  0.000000  1
  Lu  Lu9  1  0.927089  0.750000  0.000000  1
  Ir  Ir10  1  0.321332  0.574305  0.217801  1
  Ir  Ir11  1  0.678668  0.425695  0.782199  1
  Ir  Ir12  1  0.103532  0.925695  0.782199  1
  Ir  Ir13  1  0.896468  0.074305  0.217801  1
