# generated using pymatgen
data_Pa3Ni3Bi4
_symmetry_space_group_name_H-M   'P 1'
_cell_length_a   8.38848828
_cell_length_b   8.38985531
_cell_length_c   8.38938413
_cell_angle_alpha   109.46056961
_cell_angle_beta   109.47360964
_cell_angle_gamma   109.48694004
_symmetry_Int_Tables_number   1
_chemical_formula_structural   Pa3Ni3Bi4
_chemical_formula_sum   'Pa6 Ni6 Bi8'
_cell_volume   454.47120194
_cell_formula_units_Z   2
loop_
 _symmetry_equiv_pos_site_id
 _symmetry_equiv_pos_as_xyz
  1  'x, y, z'
loop_
 _atom_site_type_symbol
 _atom_site_label
 _atom_site_symmetry_multiplicity
 _atom_site_fract_x
 _atom_site_fract_y
 _atom_site_fract_z
 _atom_site_occupancy
  Pa  Pa0  1  0.750045  0.375007  0.625034  1
  Pa  Pa1  1  0.125308  0.875547  0.251195  1
  Pa  Pa2  1  0.374762  0.625913  0.750289  1
  Pa  Pa3  1  0.875586  0.249756  0.124523  1
  Pa  Pa4  1  0.624424  0.748880  0.374176  1
  Pa  Pa5  1  0.249976  0.125001  0.875027  1
  Ni  Ni6  1  0.623698  0.374293  0.249205  1
  Ni  Ni7  1  0.875793  0.125605  0.750335  1
  Ni  Ni8  1  0.375624  0.249803  0.625407  1
  Ni  Ni9  1  0.124678  0.750141  0.874407  1
  Ni  Ni10  1  0.250142  0.624982  0.375109  1
  Ni  Ni11  1  0.749895  0.874989  0.125052  1
  Bi  Bi12  1  0.330552  0.330653  0.331487  1
  Bi  Bi13  1  0.169432  0.500923  0.000108  1
  Bi  Bi14  1  0.000069  0.169376  0.500063  1
  Bi  Bi15  1  0.830644  0.830659  0.830775  1
  Bi  Bi16  1  0.500072  0.000029  0.169400  1
  Bi  Bi17  1  0.669389  0.500118  0.999926  1
  Bi  Bi18  1  0.500857  0.999953  0.669412  1
  Bi  Bi19  1  0.999056  0.668372  0.499070  1
