# generated using pymatgen
data_ErTmLu2(HfRh)4
_symmetry_space_group_name_H-M   'P 1'
_cell_length_a   4.57924100
_cell_length_b   6.92941431
_cell_length_c   8.20528274
_cell_angle_alpha   90.01083158
_cell_angle_beta   90.00000000
_cell_angle_gamma   90.00000000
_symmetry_Int_Tables_number   1
_chemical_formula_structural   ErTmLu2(HfRh)4
_chemical_formula_sum   'Er1 Tm1 Lu2 Hf4 Rh4'
_cell_volume   260.36558098
_cell_formula_units_Z   1
loop_
 _symmetry_equiv_pos_site_id
 _symmetry_equiv_pos_as_xyz
  1  'x, y, z'
loop_
 _atom_site_type_symbol
 _atom_site_label
 _atom_site_symmetry_multiplicity
 _atom_site_fract_x
 _atom_site_fract_y
 _atom_site_fract_z
 _atom_site_occupancy
  Er  Er0  1  0.250000  0.515649  0.177211  1
  Tm  Tm1  1  0.250000  0.015688  0.323148  1
  Lu  Lu2  1  0.750000  0.483500  0.822321  1
  Lu  Lu3  1  0.750000  0.983796  0.677282  1
  Hf  Hf4  1  0.250000  0.642125  0.575367  1
  Hf  Hf5  1  0.750000  0.358426  0.427191  1
  Hf  Hf6  1  0.750000  0.858953  0.073104  1
  Hf  Hf7  1  0.250000  0.141776  0.924778  1
  Rh  Rh8  1  0.250000  0.765580  0.908193  1
  Rh  Rh9  1  0.750000  0.234308  0.089835  1
  Rh  Rh10  1  0.750000  0.734843  0.410117  1
  Rh  Rh11  1  0.250000  0.265357  0.591455  1
