# generated using pymatgen
data_Te8Ir2Ru
_symmetry_space_group_name_H-M   'P 1'
_cell_length_a   6.50538794
_cell_length_b   6.49812679
_cell_length_c   6.52912117
_cell_angle_alpha   90.21938620
_cell_angle_beta   90.05859774
_cell_angle_gamma   90.15147944
_symmetry_Int_Tables_number   1
_chemical_formula_structural   Te8Ir2Ru
_chemical_formula_sum   'Te8 Ir2 Ru1'
_cell_volume   276.00133124
_cell_formula_units_Z   1
loop_
 _symmetry_equiv_pos_site_id
 _symmetry_equiv_pos_as_xyz
  1  'x, y, z'
loop_
 _atom_site_type_symbol
 _atom_site_label
 _atom_site_symmetry_multiplicity
 _atom_site_fract_x
 _atom_site_fract_y
 _atom_site_fract_z
 _atom_site_occupancy
  Te  Te0  1  0.872442  0.124361  0.372376  1
  Te  Te1  1  0.373779  0.871051  0.123060  1
  Te  Te2  1  0.127567  0.375969  0.872476  1
  Te  Te3  1  0.626994  0.627306  0.632492  1
  Te  Te4  1  0.127558  0.875639  0.627624  1
  Te  Te5  1  0.626221  0.128949  0.876940  1
  Te  Te6  1  0.872433  0.624031  0.127524  1
  Te  Te7  1  0.373006  0.372694  0.367508  1
  Ir  Ir8  1  0.000000  0.500000  0.500000  1
  Ir  Ir9  1  0.500000  0.000000  0.500000  1
  Ru  Ru10  1  0.500000  0.500000  0.000000  1
