# generated using pymatgen
data_Er2U(AlIr)3
_symmetry_space_group_name_H-M   'P 1'
_cell_length_a   6.97338639
_cell_length_b   7.19027768
_cell_length_c   3.97208400
_cell_angle_alpha   90.00000000
_cell_angle_beta   90.00000000
_cell_angle_gamma   121.00050090
_symmetry_Int_Tables_number   1
_chemical_formula_structural   Er2U(AlIr)3
_chemical_formula_sum   'Er2 U1 Al3 Ir3'
_cell_volume   170.71478305
_cell_formula_units_Z   1
loop_
 _symmetry_equiv_pos_site_id
 _symmetry_equiv_pos_as_xyz
  1  'x, y, z'
loop_
 _atom_site_type_symbol
 _atom_site_label
 _atom_site_symmetry_multiplicity
 _atom_site_fract_x
 _atom_site_fract_y
 _atom_site_fract_z
 _atom_site_occupancy
  Er  Er0  1  0.412707  0.415023  0.500000  1
  Er  Er1  1  0.587291  0.002321  0.500000  1
  U  U2  1  0.999999  0.578674  0.500000  1
  Al  Al3  1  0.750733  0.757029  0.000000  1
  Al  Al4  1  0.249338  0.006205  0.000000  1
  Al  Al5  1  0.999894  0.227762  0.000000  1
  Ir  Ir6  1  0.697722  0.361509  0.000000  1
  Ir  Ir7  1  0.302263  0.663490  0.000000  1
  Ir  Ir8  1  0.000052  0.987987  0.500000  1
