# generated using pymatgen
data_Mn2BeCo5B2
_symmetry_space_group_name_H-M   'P 1'
_cell_length_a   8.32220900
_cell_length_b   8.32220900
_cell_length_c   2.75983900
_cell_angle_alpha   90.00000000
_cell_angle_beta   90.00000000
_cell_angle_gamma   90.00000000
_symmetry_Int_Tables_number   1
_chemical_formula_structural   Mn2BeCo5B2
_chemical_formula_sum   'Mn4 Be2 Co10 B4'
_cell_volume   191.14413816
_cell_formula_units_Z   2
loop_
 _symmetry_equiv_pos_site_id
 _symmetry_equiv_pos_as_xyz
  1  'x, y, z'
loop_
 _atom_site_type_symbol
 _atom_site_label
 _atom_site_symmetry_multiplicity
 _atom_site_fract_x
 _atom_site_fract_y
 _atom_site_fract_z
 _atom_site_occupancy
  Mn  Mn0  1  0.675874  0.175874  0.000000  1
  Mn  Mn1  1  0.324126  0.824126  0.000000  1
  Mn  Mn2  1  0.175874  0.324126  0.000000  1
  Mn  Mn3  1  0.824126  0.675874  0.000000  1
  Be  Be4  1  0.000000  0.000000  0.000000  1
  Be  Be5  1  0.500000  0.500000  0.000000  1
  Co  Co6  1  0.207821  0.066901  0.500000  1
  Co  Co7  1  0.792179  0.933099  0.500000  1
  Co  Co8  1  0.066901  0.792179  0.500000  1
  Co  Co9  1  0.707821  0.433099  0.500000  1
  Co  Co10  1  0.933099  0.207821  0.500000  1
  Co  Co11  1  0.292179  0.566901  0.500000  1
  Co  Co12  1  0.566901  0.707821  0.500000  1
  Co  Co13  1  0.433099  0.292179  0.500000  1
  Co  Co14  1  0.500000  0.000000  0.500000  1
  Co  Co15  1  0.000000  0.500000  0.500000  1
  B  B16  1  0.128419  0.628419  0.000000  1
  B  B17  1  0.871581  0.371581  0.000000  1
  B  B18  1  0.628419  0.871581  0.000000  1
  B  B19  1  0.371581  0.128419  0.000000  1
