# generated using pymatgen
data_Sc3Co2AgSn3
_symmetry_space_group_name_H-M   'P 1'
_cell_length_a   7.51002101
_cell_length_b   7.51372424
_cell_length_c   6.88420600
_cell_angle_alpha   89.99804137
_cell_angle_beta   90.00219098
_cell_angle_gamma   119.97802498
_symmetry_Int_Tables_number   1
_chemical_formula_structural   Sc3Co2AgSn3
_chemical_formula_sum   'Sc6 Co4 Ag2 Sn6'
_cell_volume   336.49376253
_cell_formula_units_Z   2
loop_
 _symmetry_equiv_pos_site_id
 _symmetry_equiv_pos_as_xyz
  1  'x, y, z'
loop_
 _atom_site_type_symbol
 _atom_site_label
 _atom_site_symmetry_multiplicity
 _atom_site_fract_x
 _atom_site_fract_y
 _atom_site_fract_z
 _atom_site_occupancy
  Sc  Sc0  1  0.376954  0.966432  0.250007  1
  Sc  Sc1  1  0.589502  0.623102  0.249988  1
  Sc  Sc2  1  0.033498  0.410503  0.249989  1
  Sc  Sc3  1  0.376024  0.964549  0.750009  1
  Sc  Sc4  1  0.588558  0.624036  0.749987  1
  Sc  Sc5  1  0.035391  0.411462  0.750002  1
  Co  Co6  1  0.333416  0.666618  0.001292  1
  Co  Co7  1  0.333421  0.666623  0.498729  1
  Co  Co8  1  0.000101  0.000041  0.249970  1
  Co  Co9  1  0.000101  0.000042  0.750031  1
  Ag  Ag10  1  0.666688  0.333337  0.996393  1
  Ag  Ag11  1  0.666686  0.333364  0.503603  1
  Sn  Sn12  1  0.736260  0.002665  0.000071  1
  Sn  Sn13  1  0.266356  0.263735  0.499936  1
  Sn  Sn14  1  0.997217  0.733545  0.499930  1
  Sn  Sn15  1  0.997201  0.733537  0.000063  1
  Sn  Sn16  1  0.266371  0.263741  0.000047  1
  Sn  Sn17  1  0.736253  0.002664  0.499951  1
