# generated using pymatgen
data_Dy3ErTm2NiI10
_symmetry_space_group_name_H-M   'P 1'
_cell_length_a   7.66286793
_cell_length_b   9.64496620
_cell_length_c   9.65013339
_cell_angle_alpha   106.89667507
_cell_angle_beta   96.57174857
_cell_angle_gamma   104.24569189
_symmetry_Int_Tables_number   1
_chemical_formula_structural   Dy3ErTm2NiI10
_chemical_formula_sum   'Dy3 Er1 Tm2 Ni1 I10'
_cell_volume   648.01314097
_cell_formula_units_Z   1
loop_
 _symmetry_equiv_pos_site_id
 _symmetry_equiv_pos_as_xyz
  1  'x, y, z'
loop_
 _atom_site_type_symbol
 _atom_site_label
 _atom_site_symmetry_multiplicity
 _atom_site_fract_x
 _atom_site_fract_y
 _atom_site_fract_z
 _atom_site_occupancy
  Dy  Dy0  1  0.966704  0.278213  0.082361  1
  Dy  Dy1  1  0.033351  0.721665  0.916467  1
  Dy  Dy2  1  0.886821  0.959063  0.236420  1
  Er  Er3  1  0.112378  0.040598  0.766382  1
  Tm  Tm4  1  0.333735  0.117256  0.157829  1
  Tm  Tm5  1  0.666452  0.882914  0.841974  1
  Ni  Ni6  1  0.999961  0.999751  0.000255  1
  I  I7  1  0.348586  0.445519  0.270877  1
  I  I8  1  0.650925  0.554446  0.728785  1
  I  I9  1  0.764219  0.252646  0.341535  1
  I  I10  1  0.235623  0.749362  0.657759  1
  I  I11  1  0.544046  0.183942  0.906036  1
  I  I12  1  0.454816  0.815548  0.093092  1
  I  I13  1  0.744763  0.914098  0.540739  1
  I  I14  1  0.257416  0.086726  0.461230  1
  I  I15  1  0.914235  0.626799  0.181262  1
  I  I16  1  0.085969  0.371455  0.816997  1
