# generated using pymatgen
data_Ca12LuV7(GeO4)12
_symmetry_space_group_name_H-M   'P 1'
_cell_length_a   10.87182518
_cell_length_b   10.87182535
_cell_length_c   10.87182524
_cell_angle_alpha   109.48331093
_cell_angle_beta   109.48331050
_cell_angle_gamma   109.48331576
_symmetry_Int_Tables_number   1
_chemical_formula_structural   Ca12LuV7(GeO4)12
_chemical_formula_sum   'Ca12 Lu1 V7 Ge12 O48'
_cell_volume   988.76007003
_cell_formula_units_Z   1
loop_
 _symmetry_equiv_pos_site_id
 _symmetry_equiv_pos_as_xyz
  1  'x, y, z'
loop_
 _atom_site_type_symbol
 _atom_site_label
 _atom_site_symmetry_multiplicity
 _atom_site_fract_x
 _atom_site_fract_y
 _atom_site_fract_z
 _atom_site_occupancy
  Ca  Ca0  1  0.249698  0.875576  0.625850  1
  Ca  Ca1  1  0.755308  0.627722  0.880418  1
  Ca  Ca2  1  0.627722  0.880418  0.755308  1
  Ca  Ca3  1  0.875576  0.625850  0.249698  1
  Ca  Ca4  1  0.625850  0.249698  0.875576  1
  Ca  Ca5  1  0.880418  0.755308  0.627722  1
  Ca  Ca6  1  0.750302  0.124424  0.374150  1
  Ca  Ca7  1  0.244692  0.372278  0.119582  1
  Ca  Ca8  1  0.372278  0.119582  0.244692  1
  Ca  Ca9  1  0.124424  0.374150  0.750302  1
  Ca  Ca10  1  0.374150  0.750302  0.124424  1
  Ca  Ca11  1  0.119582  0.244692  0.372278  1
  Lu  Lu12  1  0.500000  0.500000  0.500000  1
  V  V13  1  0.500000  0.000000  0.500000  1
  V  V14  1  0.000000  0.500000  0.500000  1
  V  V15  1  0.500000  0.500000  0.000000  1
  V  V16  1  0.000000  0.000000  0.500000  1
  V  V17  1  0.000000  0.500000  0.000000  1
  V  V18  1  0.500000  0.000000  0.000000  1
  V  V19  1  0.000000  0.000000  0.000000  1
  Ge  Ge20  1  0.124133  0.750061  0.875695  1
  Ge  Ge21  1  0.875867  0.249939  0.124305  1
  Ge  Ge22  1  0.625653  0.371120  0.244718  1
  Ge  Ge23  1  0.750061  0.875695  0.124133  1
  Ge  Ge24  1  0.875695  0.124133  0.750061  1
  Ge  Ge25  1  0.244718  0.625653  0.371120  1
  Ge  Ge26  1  0.755282  0.374347  0.628880  1
  Ge  Ge27  1  0.249939  0.124305  0.875867  1
  Ge  Ge28  1  0.124305  0.875867  0.249939  1
  Ge  Ge29  1  0.374347  0.628880  0.755282  1
  Ge  Ge30  1  0.628880  0.755282  0.374347  1
  Ge  Ge31  1  0.371120  0.244718  0.625653  1
  O  O32  1  0.414429  0.816652  0.797730  1
  O  O33  1  0.883051  0.398814  0.084832  1
  O  O34  1  0.102779  0.981927  0.687456  1
  O  O35  1  0.519215  0.626008  0.714991  1
  O  O36  1  0.687860  0.084997  0.704293  1
  O  O37  1  0.626008  0.714991  0.519215  1
  O  O38  1  0.621928  0.416083  0.099972  1
  O  O39  1  0.714991  0.519215  0.626008  1
  O  O40  1  0.813598  0.514601  0.396137  1
  O  O41  1  0.983405  0.797927  0.881907  1
  O  O42  1  0.797927  0.881907  0.983405  1
  O  O43  1  0.704293  0.687860  0.084997  1
  O  O44  1  0.416083  0.099972  0.621928  1
  O  O45  1  0.396137  0.813598  0.514601  1
  O  O46  1  0.084997  0.704293  0.687860  1
  O  O47  1  0.099972  0.621928  0.416083  1
  O  O48  1  0.514601  0.396137  0.813598  1
  O  O49  1  0.084832  0.883051  0.398814  1
  O  O50  1  0.981927  0.687456  0.102779  1
  O  O51  1  0.186402  0.485399  0.603863  1
  O  O52  1  0.687456  0.102779  0.981927  1
  O  O53  1  0.797730  0.414429  0.816652  1
  O  O54  1  0.398814  0.084832  0.883051  1
  O  O55  1  0.881907  0.983405  0.797927  1
  O  O56  1  0.585571  0.183348  0.202270  1
  O  O57  1  0.116949  0.601186  0.915168  1
  O  O58  1  0.897221  0.018073  0.312544  1
  O  O59  1  0.480785  0.373992  0.285009  1
  O  O60  1  0.312140  0.915003  0.295707  1
  O  O61  1  0.373992  0.285009  0.480785  1
  O  O62  1  0.378072  0.583917  0.900028  1
  O  O63  1  0.285009  0.480785  0.373992  1
  O  O64  1  0.118093  0.016595  0.202073  1
  O  O65  1  0.601186  0.915168  0.116949  1
  O  O66  1  0.202270  0.585571  0.183348  1
  O  O67  1  0.183348  0.202270  0.585571  1
  O  O68  1  0.312544  0.897221  0.018073  1
  O  O69  1  0.018073  0.312544  0.897221  1
  O  O70  1  0.915168  0.116949  0.601186  1
  O  O71  1  0.485399  0.603863  0.186402  1
  O  O72  1  0.900028  0.378072  0.583917  1
  O  O73  1  0.915003  0.295707  0.312140  1
  O  O74  1  0.603863  0.186402  0.485399  1
  O  O75  1  0.583917  0.900028  0.378072  1
  O  O76  1  0.295707  0.312140  0.915003  1
  O  O77  1  0.202073  0.118093  0.016595  1
  O  O78  1  0.016595  0.202073  0.118093  1
  O  O79  1  0.816652  0.797730  0.414429  1
