# generated using pymatgen
data_Dy5HoTa4Al12Os7
_symmetry_space_group_name_H-M   'P 1'
_cell_length_a   9.04059251
_cell_length_b   9.04593665
_cell_length_c   9.04593716
_cell_angle_alpha   59.95917896
_cell_angle_beta   60.01954749
_cell_angle_gamma   60.01954144
_symmetry_Int_Tables_number   1
_chemical_formula_structural   Dy5HoTa4Al12Os7
_chemical_formula_sum   'Dy5 Ho1 Ta4 Al12 Os7'
_cell_volume   523.09792696
_cell_formula_units_Z   1
loop_
 _symmetry_equiv_pos_site_id
 _symmetry_equiv_pos_as_xyz
  1  'x, y, z'
loop_
 _atom_site_type_symbol
 _atom_site_label
 _atom_site_symmetry_multiplicity
 _atom_site_fract_x
 _atom_site_fract_y
 _atom_site_fract_z
 _atom_site_occupancy
  Dy  Dy0  1  0.705885  0.705821  0.293902  1
  Dy  Dy1  1  0.294392  0.705821  0.293902  1
  Dy  Dy2  1  0.707089  0.292911  0.292911  1
  Dy  Dy3  1  0.294392  0.293902  0.705821  1
  Dy  Dy4  1  0.705885  0.293902  0.705821  1
  Ho  Ho5  1  0.292431  0.707569  0.707569  1
  Ta  Ta6  1  0.879821  0.878626  0.361731  1
  Ta  Ta7  1  0.879821  0.361731  0.878626  1
  Ta  Ta8  1  0.361501  0.879664  0.879664  1
  Ta  Ta9  1  0.879169  0.879664  0.879664  1
  Al  Al10  1  0.120030  0.120847  0.639094  1
  Al  Al11  1  0.120030  0.639094  0.120847  1
  Al  Al12  1  0.638579  0.120243  0.120243  1
  Al  Al13  1  0.120935  0.120243  0.120243  1
  Al  Al14  1  0.666765  0.666515  0.999958  1
  Al  Al15  1  0.666765  0.999958  0.666515  1
  Al  Al16  1  0.001243  0.666450  0.666450  1
  Al  Al17  1  0.665860  0.666450  0.666450  1
  Al  Al18  1  0.330879  0.331577  0.006664  1
  Al  Al19  1  0.330879  0.006664  0.331577  1
  Al  Al20  1  0.007386  0.330838  0.330838  1
  Al  Al21  1  0.330940  0.330838  0.330838  1
  Os  Os22  1  0.999833  0.000167  0.000167  1
  Os  Os23  1  0.995756  0.995244  0.504899  1
  Os  Os24  1  0.504100  0.995244  0.504899  1
  Os  Os25  1  0.995265  0.504735  0.504735  1
  Os  Os26  1  0.504100  0.504899  0.995244  1
  Os  Os27  1  0.995756  0.504899  0.995244  1
  Os  Os28  1  0.504515  0.995485  0.995485  1
