# generated using pymatgen
data_Li2Dy2Er3P12Ir17
_symmetry_space_group_name_H-M   'P 1'
_cell_length_a   12.65671800
_cell_length_b   12.75972070
_cell_length_c   3.95126600
_cell_angle_alpha   90.00000000
_cell_angle_beta   90.00000000
_cell_angle_gamma   119.73346641
_symmetry_Int_Tables_number   1
_chemical_formula_structural   Li2Dy2Er3P12Ir17
_chemical_formula_sum   'Li2 Dy2 Er3 P12 Ir17'
_cell_volume   554.10150731
_cell_formula_units_Z   1
loop_
 _symmetry_equiv_pos_site_id
 _symmetry_equiv_pos_as_xyz
  1  'x, y, z'
loop_
 _atom_site_type_symbol
 _atom_site_label
 _atom_site_symmetry_multiplicity
 _atom_site_fract_x
 _atom_site_fract_y
 _atom_site_fract_z
 _atom_site_occupancy
  Li  Li0  1  0.999544  0.442158  0.500000  1
  Li  Li1  1  0.557473  0.557924  0.500000  1
  Dy  Dy2  1  0.192484  0.190754  0.000000  1
  Dy  Dy3  1  0.811252  0.999986  0.000000  1
  Er  Er4  1  0.332529  0.662404  0.500000  1
  Er  Er5  1  0.670060  0.337613  0.500000  1
  Er  Er6  1  0.001640  0.809032  0.000000  1
  P  P7  1  0.999395  0.630913  0.500000  1
  P  P8  1  0.368850  0.369511  0.500000  1
  P  P9  1  0.639583  0.000005  0.500000  1
  P  P10  1  0.513221  0.683256  0.000000  1
  P  P11  1  0.307273  0.822866  0.000000  1
  P  P12  1  0.167144  0.480252  0.000000  1
  P  P13  1  0.484378  0.177127  0.000000  1
  P  P14  1  0.686950  0.519747  0.000000  1
  P  P15  1  0.829940  0.316839  0.000000  1
  P  P16  1  0.997680  0.177771  0.500000  1
  P  P17  1  0.819920  0.822044  0.500000  1
  P  P18  1  0.178313  0.999751  0.500000  1
  Ir  Ir19  1  0.503018  0.864558  0.000000  1
  Ir  Ir20  1  0.129807  0.638794  0.000000  1
  Ir  Ir21  1  0.356297  0.488391  0.000000  1
  Ir  Ir22  1  0.491145  0.361336  0.000000  1
  Ir  Ir23  1  0.867908  0.511732  0.000000  1
  Ir  Ir24  1  0.638416  0.135443  0.000000  1
  Ir  Ir25  1  0.458679  0.999950  0.500000  1
  Ir  Ir26  1  0.996319  0.277544  0.000000  1
  Ir  Ir27  1  0.719065  0.722487  0.000000  1
  Ir  Ir28  1  0.286499  0.999821  0.000000  1
  Ir  Ir29  1  0.622019  0.807069  0.500000  1
  Ir  Ir30  1  0.198859  0.823223  0.500000  1
  Ir  Ir31  1  0.177168  0.370745  0.500000  1
  Ir  Ir32  1  0.376303  0.176581  0.500000  1
  Ir  Ir33  1  0.807235  0.629938  0.500000  1
  Ir  Ir34  1  0.814873  0.192916  0.500000  1
  Ir  Ir35  1  0.998758  0.999520  0.500000  1
