# generated using pymatgen
data_Ca3Ho(AgSn)2
_symmetry_space_group_name_H-M   'P 1'
_cell_length_a   5.32735514
_cell_length_b   7.48032570
_cell_length_c   15.93867660
_cell_angle_alpha   89.84769226
_cell_angle_beta   89.99525370
_cell_angle_gamma   90.01509507
_symmetry_Int_Tables_number   1
_chemical_formula_structural   Ca3Ho(AgSn)2
_chemical_formula_sum   'Ca9 Ho3 Ag6 Sn6'
_cell_volume   635.15959756
_cell_formula_units_Z   3
loop_
 _symmetry_equiv_pos_site_id
 _symmetry_equiv_pos_as_xyz
  1  'x, y, z'
loop_
 _atom_site_type_symbol
 _atom_site_label
 _atom_site_symmetry_multiplicity
 _atom_site_fract_x
 _atom_site_fract_y
 _atom_site_fract_z
 _atom_site_occupancy
  Ca  Ca0  1  0.000013  0.745333  0.168712  1
  Ca  Ca1  1  0.499988  0.252327  0.334675  1
  Ca  Ca2  1  0.499994  0.748768  0.331830  1
  Ca  Ca3  1  0.000025  0.249537  0.500284  1
  Ca  Ca4  1  0.999995  0.752980  0.497874  1
  Ca  Ca5  1  0.500025  0.252065  0.668073  1
  Ca  Ca6  1  0.500055  0.749036  0.668053  1
  Ca  Ca7  1  0.000014  0.249712  0.830526  1
  Ca  Ca8  1  0.000020  0.752936  0.832419  1
  Ho  Ho9  1  0.499971  0.246342  0.997416  1
  Ho  Ho10  1  0.499989  0.753458  0.000726  1
  Ho  Ho11  1  0.000014  0.247960  0.168963  1
  Ag  Ag12  1  0.000009  0.493288  0.001293  1
  Ag  Ag13  1  0.499959  0.010231  0.163491  1
  Ag  Ag14  1  0.000007  0.491508  0.331469  1
  Ag  Ag15  1  0.499990  0.000008  0.501287  1
  Ag  Ag16  1  0.000028  0.502603  0.664545  1
  Ag  Ag17  1  0.500034  0.999371  0.838378  1
  Sn  Sn18  1  0.999926  0.002029  0.002872  1
  Sn  Sn19  1  0.499938  0.492893  0.160365  1
  Sn  Sn20  1  0.999976  0.004726  0.328982  1
  Sn  Sn21  1  0.499999  0.502036  0.499876  1
  Sn  Sn22  1  0.999996  0.998793  0.666653  1
  Sn  Sn23  1  0.500035  0.502055  0.841238  1
