# generated using pymatgen
data_HoEr7In3Os
_symmetry_space_group_name_H-M   'P 1'
_cell_length_a   10.31485708
_cell_length_b   10.31485687
_cell_length_c   7.03006408
_cell_angle_alpha   89.98544237
_cell_angle_beta   90.01455760
_cell_angle_gamma   119.99896191
_symmetry_Int_Tables_number   1
_chemical_formula_structural   HoEr7In3Os
_chemical_formula_sum   'Ho2 Er14 In6 Os2'
_cell_volume   647.77004378
_cell_formula_units_Z   2
loop_
 _symmetry_equiv_pos_site_id
 _symmetry_equiv_pos_as_xyz
  1  'x, y, z'
loop_
 _atom_site_type_symbol
 _atom_site_label
 _atom_site_symmetry_multiplicity
 _atom_site_fract_x
 _atom_site_fract_y
 _atom_site_fract_z
 _atom_site_occupancy
  Ho  Ho0  1  0.532704  0.065487  0.793724  1
  Ho  Ho1  1  0.934513  0.467296  0.793724  1
  Er  Er2  1  0.532831  0.467169  0.793800  1
  Er  Er3  1  0.467068  0.934112  0.293722  1
  Er  Er4  1  0.065888  0.532932  0.293722  1
  Er  Er5  1  0.467083  0.532917  0.293775  1
  Er  Er6  1  0.822682  0.645447  0.499157  1
  Er  Er7  1  0.354553  0.177318  0.499157  1
  Er  Er8  1  0.822785  0.177215  0.499100  1
  Er  Er9  1  0.177360  0.354552  0.999302  1
  Er  Er10  1  0.645448  0.822640  0.999302  1
  Er  Er11  1  0.177243  0.822757  0.999387  1
  Er  Er12  1  0.666601  0.333399  0.171659  1
  Er  Er13  1  0.333380  0.666620  0.671497  1
  Er  Er14  1  0.000002  0.999998  0.777944  1
  Er  Er15  1  0.000001  0.999999  0.277940  1
  In  In16  1  0.836923  0.673989  0.039652  1
  In  In17  1  0.326011  0.163077  0.039652  1
  In  In18  1  0.837030  0.162970  0.039770  1
  In  In19  1  0.163061  0.326108  0.539582  1
  In  In20  1  0.673892  0.836939  0.539582  1
  In  In21  1  0.163055  0.836945  0.539584  1
  Os  Os22  1  0.666571  0.333429  0.570442  1
  Os  Os23  1  0.333315  0.666685  0.070729  1
