# generated using pymatgen
data_Sr6PrNdBi6
_symmetry_space_group_name_H-M   'P 1'
_cell_length_a   8.80794718
_cell_length_b   8.71506944
_cell_length_c   8.77159720
_cell_angle_alpha   109.41828932
_cell_angle_beta   109.72003709
_cell_angle_gamma   109.60009617
_symmetry_Int_Tables_number   1
_chemical_formula_structural   Sr6PrNdBi6
_chemical_formula_sum   'Sr6 Pr1 Nd1 Bi6'
_cell_volume   516.23461744
_cell_formula_units_Z   1
loop_
 _symmetry_equiv_pos_site_id
 _symmetry_equiv_pos_as_xyz
  1  'x, y, z'
loop_
 _atom_site_type_symbol
 _atom_site_label
 _atom_site_symmetry_multiplicity
 _atom_site_fract_x
 _atom_site_fract_y
 _atom_site_fract_z
 _atom_site_occupancy
  Sr  Sr0  1  0.142094  0.501650  0.000716  1
  Sr  Sr1  1  0.640370  0.498255  0.999168  1
  Sr  Sr2  1  0.497517  0.999040  0.640472  1
  Sr  Sr3  1  0.362118  0.362560  0.360312  1
  Sr  Sr4  1  0.498720  0.001029  0.141632  1
  Sr  Sr5  1  0.999619  0.637382  0.497658  1
  Pr  Pr6  1  0.863082  0.863765  0.862668  1
  Nd  Nd7  1  0.999290  0.135663  0.498894  1
  Bi  Bi8  1  0.376327  0.620706  0.747941  1
  Bi  Bi9  1  0.875516  0.237861  0.124751  1
  Bi  Bi10  1  0.638326  0.762892  0.386646  1
  Bi  Bi11  1  0.115690  0.880302  0.246662  1
  Bi  Bi12  1  0.235602  0.120267  0.865510  1
  Bi  Bi13  1  0.755726  0.378629  0.626971  1
