# generated using pymatgen
data_PaF4
_symmetry_space_group_name_H-M   'P 1'
_cell_length_a   8.51287423
_cell_length_b   8.51287467
_cell_length_c   8.51632132
_cell_angle_alpha   63.07128142
_cell_angle_beta   63.07127973
_cell_angle_gamma   80.51841677
_symmetry_Int_Tables_number   1
_chemical_formula_structural   PaF4
_chemical_formula_sum   'Pa6 F24'
_cell_volume   489.95384741
_cell_formula_units_Z   6
loop_
 _symmetry_equiv_pos_site_id
 _symmetry_equiv_pos_as_xyz
  1  'x, y, z'
loop_
 _atom_site_type_symbol
 _atom_site_label
 _atom_site_symmetry_multiplicity
 _atom_site_fract_x
 _atom_site_fract_y
 _atom_site_fract_z
 _atom_site_occupancy
  Pa  Pa0  1  0.633444  0.776993  0.667886  1
  Pa  Pa1  1  0.366556  0.223007  0.332114  1
  Pa  Pa2  1  0.223007  0.366556  0.832114  1
  Pa  Pa3  1  0.776993  0.633444  0.167886  1
  Pa  Pa4  1  0.786284  0.213716  0.750000  1
  Pa  Pa5  1  0.213716  0.786284  0.250000  1
  F  F6  1  0.319159  0.262113  0.603979  1
  F  F7  1  0.680841  0.737887  0.396021  1
  F  F8  1  0.737887  0.680841  0.896021  1
  F  F9  1  0.262113  0.319159  0.103979  1
  F  F10  1  0.825618  0.934179  0.955434  1
  F  F11  1  0.174382  0.065821  0.044566  1
  F  F12  1  0.065821  0.174382  0.544566  1
  F  F13  1  0.934179  0.825618  0.455434  1
  F  F14  1  0.397679  0.602321  0.750000  1
  F  F15  1  0.602321  0.397679  0.250000  1
  F  F16  1  0.500000  0.000000  0.500000  1
  F  F17  1  0.000000  0.500000  0.000000  1
  F  F18  1  0.502099  0.258434  0.785592  1
  F  F19  1  0.497901  0.741566  0.214408  1
  F  F20  1  0.741566  0.497901  0.714408  1
  F  F21  1  0.258434  0.502099  0.285592  1
  F  F22  1  0.402227  0.813335  0.928725  1
  F  F23  1  0.597773  0.186665  0.071275  1
  F  F24  1  0.186665  0.597773  0.571275  1
  F  F25  1  0.813335  0.402227  0.428725  1
  F  F26  1  0.725809  0.027151  0.652056  1
  F  F27  1  0.274191  0.972849  0.347944  1
  F  F28  1  0.972849  0.274191  0.847944  1
  F  F29  1  0.027151  0.725809  0.152056  1
