# generated using pymatgen
data_Ca2TbEr(Ga2Ag)4
_symmetry_space_group_name_H-M   'P 1'
_cell_length_a   4.34785300
_cell_length_b   7.00134484
_cell_length_c   10.43966412
_cell_angle_alpha   90.09961720
_cell_angle_beta   90.00000000
_cell_angle_gamma   90.00000000
_symmetry_Int_Tables_number   1
_chemical_formula_structural   Ca2TbEr(Ga2Ag)4
_chemical_formula_sum   'Ca2 Tb1 Er1 Ga8 Ag4'
_cell_volume   317.79143692
_cell_formula_units_Z   1
loop_
 _symmetry_equiv_pos_site_id
 _symmetry_equiv_pos_as_xyz
  1  'x, y, z'
loop_
 _atom_site_type_symbol
 _atom_site_label
 _atom_site_symmetry_multiplicity
 _atom_site_fract_x
 _atom_site_fract_y
 _atom_site_fract_z
 _atom_site_occupancy
  Ca  Ca0  1  0.750000  0.224225  0.173858  1
  Ca  Ca1  1  0.750000  0.724104  0.325872  1
  Tb  Tb2  1  0.250000  0.279309  0.672998  1
  Er  Er3  1  0.250000  0.778858  0.828277  1
  Ga  Ga4  1  0.250000  0.926385  0.149970  1
  Ga  Ga5  1  0.750000  0.071297  0.844209  1
  Ga  Ga6  1  0.750000  0.574473  0.656136  1
  Ga  Ga7  1  0.250000  0.426392  0.350207  1
  Ga  Ga8  1  0.250000  0.703050  0.536948  1
  Ga  Ga9  1  0.750000  0.297055  0.466709  1
  Ga  Ga10  1  0.750000  0.797285  0.032550  1
  Ga  Ga11  1  0.250000  0.200208  0.964044  1
  Ag  Ag12  1  0.250000  0.543044  0.095894  1
  Ag  Ag13  1  0.750000  0.456204  0.901316  1
  Ag  Ag14  1  0.750000  0.955556  0.598281  1
  Ag  Ag15  1  0.250000  0.042557  0.402730  1
