# generated using pymatgen
data_Ce4ZnIr3Pb2
_symmetry_space_group_name_H-M   'P 1'
_cell_length_a   7.88698315
_cell_length_b   7.88698309
_cell_length_c   3.74126500
_cell_angle_alpha   90.00000000
_cell_angle_beta   90.00000000
_cell_angle_gamma   89.40309392
_symmetry_Int_Tables_number   1
_chemical_formula_structural   Ce4ZnIr3Pb2
_chemical_formula_sum   'Ce4 Zn1 Ir3 Pb2'
_cell_volume   232.71089972
_cell_formula_units_Z   1
loop_
 _symmetry_equiv_pos_site_id
 _symmetry_equiv_pos_as_xyz
  1  'x, y, z'
loop_
 _atom_site_type_symbol
 _atom_site_label
 _atom_site_symmetry_multiplicity
 _atom_site_fract_x
 _atom_site_fract_y
 _atom_site_fract_z
 _atom_site_occupancy
  Ce  Ce0  1  0.652966  0.152966  0.500000  1
  Ce  Ce1  1  0.191804  0.336150  0.500000  1
  Ce  Ce2  1  0.836150  0.691804  0.500000  1
  Ce  Ce3  1  0.325644  0.825644  0.500000  1
  Zn  Zn4  1  0.875640  0.375640  0.000000  1
  Ir  Ir5  1  0.366391  0.129230  0.000000  1
  Ir  Ir6  1  0.110750  0.610750  0.000000  1
  Ir  Ir7  1  0.629230  0.866391  0.000000  1
  Pb  Pb8  1  0.002897  0.008527  0.000000  1
  Pb  Pb9  1  0.508527  0.502897  0.000000  1
