# generated using pymatgen
data_La2NdLu(AsPt)4
_symmetry_space_group_name_H-M   'P 1'
_cell_length_a   4.33892700
_cell_length_b   4.33892724
_cell_length_c   16.05814900
_cell_angle_alpha   90.00000000
_cell_angle_beta   90.00000000
_cell_angle_gamma   120.00000577
_symmetry_Int_Tables_number   1
_chemical_formula_structural   La2NdLu(AsPt)4
_chemical_formula_sum   'La2 Nd1 Lu1 As4 Pt4'
_cell_volume   261.81275521
_cell_formula_units_Z   1
loop_
 _symmetry_equiv_pos_site_id
 _symmetry_equiv_pos_as_xyz
  1  'x, y, z'
loop_
 _atom_site_type_symbol
 _atom_site_label
 _atom_site_symmetry_multiplicity
 _atom_site_fract_x
 _atom_site_fract_y
 _atom_site_fract_z
 _atom_site_occupancy
  La  La0  1  0.000000  0.000000  0.506675  1
  La  La1  1  0.000000  0.000000  0.993325  1
  Nd  Nd2  1  0.000000  0.000000  0.250000  1
  Lu  Lu3  1  0.000000  0.000000  0.750000  1
  As  As4  1  0.333333  0.666667  0.875546  1
  As  As5  1  0.666667  0.333333  0.119155  1
  As  As6  1  0.666667  0.333333  0.380845  1
  As  As7  1  0.333333  0.666667  0.624454  1
  Pt  Pt8  1  0.333333  0.666667  0.372432  1
  Pt  Pt9  1  0.666667  0.333333  0.650845  1
  Pt  Pt10  1  0.666667  0.333333  0.849155  1
  Pt  Pt11  1  0.333333  0.666667  0.127568  1
