# generated using pymatgen
data_Sm4Fe3(CoO4)5
_symmetry_space_group_name_H-M   'P 1'
_cell_length_a   5.76576800
_cell_length_b   7.43921110
_cell_length_c   8.58257943
_cell_angle_alpha   89.99130285
_cell_angle_beta   90.00000000
_cell_angle_gamma   90.00000000
_symmetry_Int_Tables_number   1
_chemical_formula_structural   Sm4Fe3(CoO4)5
_chemical_formula_sum   'Sm4 Fe3 Co5 O20'
_cell_volume   368.13056074
_cell_formula_units_Z   1
loop_
 _symmetry_equiv_pos_site_id
 _symmetry_equiv_pos_as_xyz
  1  'x, y, z'
loop_
 _atom_site_type_symbol
 _atom_site_label
 _atom_site_symmetry_multiplicity
 _atom_site_fract_x
 _atom_site_fract_y
 _atom_site_fract_z
 _atom_site_occupancy
  Sm  Sm0  1  0.000000  0.358998  0.669898  1
  Sm  Sm1  1  0.000000  0.640140  0.329716  1
  Sm  Sm2  1  0.000000  0.861149  0.828011  1
  Sm  Sm3  1  0.000000  0.134041  0.173765  1
  Fe  Fe4  1  0.500000  0.110278  0.855917  1
  Fe  Fe5  1  0.500000  0.887634  0.144813  1
  Fe  Fe6  1  0.500000  0.611565  0.643782  1
  Co  Co7  1  0.500000  0.407293  0.347444  1
  Co  Co8  1  0.252145  0.498345  0.001095  1
  Co  Co9  1  0.746317  0.003839  0.500209  1
  Co  Co10  1  0.747855  0.498345  0.001095  1
  Co  Co11  1  0.253683  0.003839  0.500209  1
  O  O12  1  0.245481  0.901439  0.296808  1
  O  O13  1  0.245190  0.100098  0.703172  1
  O  O14  1  0.752847  0.400229  0.205627  1
  O  O15  1  0.755459  0.596079  0.796532  1
  O  O16  1  0.754810  0.100098  0.703172  1
  O  O17  1  0.754519  0.901439  0.296808  1
  O  O18  1  0.244541  0.596079  0.796532  1
  O  O19  1  0.247153  0.400229  0.205627  1
  O  O20  1  0.500000  0.349589  0.938230  1
  O  O21  1  0.500000  0.647816  0.063748  1
  O  O22  1  0.500000  0.850589  0.565599  1
  O  O23  1  0.500000  0.151297  0.438184  1
  O  O24  1  0.268880  0.998135  0.999598  1
  O  O25  1  0.724620  0.495317  0.496576  1
  O  O26  1  0.731120  0.998135  0.999598  1
  O  O27  1  0.275380  0.495317  0.496576  1
  O  O28  1  0.000000  0.159612  0.446410  1
  O  O29  1  0.000000  0.846178  0.551927  1
  O  O30  1  0.000000  0.654077  0.053624  1
  O  O31  1  0.000000  0.342784  0.949702  1
