# generated using pymatgen
data_NdCu4AgO8
_symmetry_space_group_name_H-M   'P 1'
_cell_length_a   6.30748564
_cell_length_b   6.30748559
_cell_length_c   6.30748545
_cell_angle_alpha   124.70791649
_cell_angle_beta   124.70791919
_cell_angle_gamma   82.02237864
_symmetry_Int_Tables_number   1
_chemical_formula_structural   NdCu4AgO8
_chemical_formula_sum   'Nd1 Cu4 Ag1 O8'
_cell_volume   163.07442793
_cell_formula_units_Z   1
loop_
 _symmetry_equiv_pos_site_id
 _symmetry_equiv_pos_as_xyz
  1  'x, y, z'
loop_
 _atom_site_type_symbol
 _atom_site_label
 _atom_site_symmetry_multiplicity
 _atom_site_fract_x
 _atom_site_fract_y
 _atom_site_fract_z
 _atom_site_occupancy
  Nd  Nd0  1  0.750000  0.250000  0.500000  1
  Cu  Cu1  1  0.380305  0.124498  0.753963  1
  Cu  Cu2  1  0.370535  0.626342  0.246037  1
  Cu  Cu3  1  0.875502  0.629465  0.255807  1
  Cu  Cu4  1  0.373658  0.619695  0.744193  1
  Ag  Ag5  1  0.000000  0.000000  0.000000  1
  O  O6  1  0.173888  0.583786  0.860369  1
  O  O7  1  0.723417  0.313519  0.139631  1
  O  O8  1  0.572666  0.658906  0.628857  1
  O  O9  1  0.030050  0.943809  0.371143  1
  O  O10  1  0.341094  0.969950  0.913759  1
  O  O11  1  0.056191  0.427334  0.086241  1
  O  O12  1  0.686481  0.826112  0.409898  1
  O  O13  1  0.416214  0.276583  0.590102  1
