# generated using pymatgen
data_Al4V12Zn3NiN4
_symmetry_space_group_name_H-M   'P 1'
_cell_length_a   6.58320727
_cell_length_b   6.58320727
_cell_length_c   6.58320727
_cell_angle_alpha   89.97672495
_cell_angle_beta   90.02327505
_cell_angle_gamma   90.02327505
_symmetry_Int_Tables_number   1
_chemical_formula_structural   Al4V12Zn3NiN4
_chemical_formula_sum   'Al4 V12 Zn3 Ni1 N4'
_cell_volume   285.30703442
_cell_formula_units_Z   1
loop_
 _symmetry_equiv_pos_site_id
 _symmetry_equiv_pos_as_xyz
  1  'x, y, z'
loop_
 _atom_site_type_symbol
 _atom_site_label
 _atom_site_symmetry_multiplicity
 _atom_site_fract_x
 _atom_site_fract_y
 _atom_site_fract_z
 _atom_site_occupancy
  Al  Al0  1  0.177531  0.822469  0.322469  1
  Al  Al1  1  0.329771  0.185360  0.825670  1
  Al  Al2  1  0.814640  0.325670  0.170229  1
  Al  Al3  1  0.674330  0.670229  0.685360  1
  V  V4  1  0.789958  0.961661  0.375379  1
  V  V5  1  0.709789  0.040108  0.876172  1
  V  V6  1  0.212008  0.461567  0.123130  1
  V  V7  1  0.291083  0.537950  0.624074  1
  V  V8  1  0.959892  0.376172  0.790211  1
  V  V9  1  0.038339  0.875379  0.710042  1
  V  V10  1  0.462050  0.124074  0.208917  1
  V  V11  1  0.538433  0.623130  0.287992  1
  V  V12  1  0.376870  0.787992  0.961567  1
  V  V13  1  0.875926  0.708917  0.037950  1
  V  V14  1  0.124621  0.210042  0.461661  1
  V  V15  1  0.623828  0.290211  0.540108  1
  Zn  Zn16  1  0.429381  0.928896  0.573024  1
  Zn  Zn17  1  0.926976  0.570619  0.428896  1
  Zn  Zn18  1  0.071104  0.073024  0.070619  1
  Ni  Ni19  1  0.571243  0.428757  0.928757  1
  N  N20  1  0.872662  0.127338  0.627338  1
  N  N21  1  0.627903  0.872625  0.125713  1
  N  N22  1  0.127375  0.625713  0.872097  1
  N  N23  1  0.374287  0.372097  0.372625  1
