# generated using pymatgen
data_Tm5Al2GeC4
_symmetry_space_group_name_H-M   'P 1'
_cell_length_a   10.62443000
_cell_length_b   10.62443000
_cell_length_c   3.48042500
_cell_angle_alpha   90.00000000
_cell_angle_beta   90.00000000
_cell_angle_gamma   90.00000000
_symmetry_Int_Tables_number   1
_chemical_formula_structural   Tm5Al2GeC4
_chemical_formula_sum   'Tm10 Al4 Ge2 C8'
_cell_volume   392.86519800
_cell_formula_units_Z   2
loop_
 _symmetry_equiv_pos_site_id
 _symmetry_equiv_pos_as_xyz
  1  'x, y, z'
loop_
 _atom_site_type_symbol
 _atom_site_label
 _atom_site_symmetry_multiplicity
 _atom_site_fract_x
 _atom_site_fract_y
 _atom_site_fract_z
 _atom_site_occupancy
  Tm  Tm0  1  0.550659  0.727328  0.500000  1
  Tm  Tm1  1  0.449341  0.272672  0.500000  1
  Tm  Tm2  1  0.050659  0.772672  0.500000  1
  Tm  Tm3  1  0.949341  0.227328  0.500000  1
  Tm  Tm4  1  0.272672  0.550659  0.500000  1
  Tm  Tm5  1  0.727328  0.449341  0.500000  1
  Tm  Tm6  1  0.227328  0.050659  0.500000  1
  Tm  Tm7  1  0.772672  0.949341  0.500000  1
  Tm  Tm8  1  0.500000  0.000000  0.000000  1
  Tm  Tm9  1  0.000000  0.500000  0.000000  1
  Al  Al10  1  0.703252  0.203252  0.000000  1
  Al  Al11  1  0.296748  0.796748  0.000000  1
  Al  Al12  1  0.203252  0.296748  0.000000  1
  Al  Al13  1  0.796748  0.703252  0.000000  1
  Ge  Ge14  1  0.500000  0.500000  0.000000  1
  Ge  Ge15  1  0.000000  0.000000  0.000000  1
  C  C16  1  0.631084  0.131084  0.500000  1
  C  C17  1  0.368916  0.868916  0.500000  1
  C  C18  1  0.131084  0.368916  0.500000  1
  C  C19  1  0.868916  0.631084  0.500000  1
  C  C20  1  0.162386  0.662386  0.000000  1
  C  C21  1  0.837614  0.337614  0.000000  1
  C  C22  1  0.662386  0.837614  0.000000  1
  C  C23  1  0.337614  0.162386  0.000000  1
