# generated using pymatgen
data_Li3Dy5As8(PIr4)4
_symmetry_space_group_name_H-M   'P 1'
_cell_length_a   13.02159819
_cell_length_b   13.01861984
_cell_length_c   4.03083700
_cell_angle_alpha   90.00000000
_cell_angle_beta   90.00000000
_cell_angle_gamma   119.71015397
_symmetry_Int_Tables_number   1
_chemical_formula_structural   Li3Dy5As8(PIr4)4
_chemical_formula_sum   'Li3 Dy5 As8 P4 Ir16'
_cell_volume   593.49374209
_cell_formula_units_Z   1
loop_
 _symmetry_equiv_pos_site_id
 _symmetry_equiv_pos_as_xyz
  1  'x, y, z'
loop_
 _atom_site_type_symbol
 _atom_site_label
 _atom_site_symmetry_multiplicity
 _atom_site_fract_x
 _atom_site_fract_y
 _atom_site_fract_z
 _atom_site_occupancy
  Li  Li0  1  0.996323  0.436313  0.500000  1
  Li  Li1  1  0.562431  0.561540  0.500000  1
  Li  Li2  1  0.437336  0.999412  0.500000  1
  Dy  Dy3  1  0.332986  0.666360  0.500000  1
  Dy  Dy4  1  0.671268  0.332917  0.500000  1
  Dy  Dy5  1  0.000579  0.811514  0.000000  1
  Dy  Dy6  1  0.187235  0.187963  0.000000  1
  Dy  Dy7  1  0.813111  0.000658  0.000000  1
  As  As8  1  0.999772  0.629876  0.500000  1
  As  As9  1  0.368663  0.369060  0.500000  1
  As  As10  1  0.631184  0.001231  0.500000  1
  As  As11  1  0.518661  0.683879  0.000000  1
  As  As12  1  0.316607  0.834978  0.000000  1
  As  As13  1  0.165331  0.483269  0.000000  1
  As  As14  1  0.483046  0.166000  0.000000  1
  As  As15  1  0.685287  0.516213  0.000000  1
  P  P16  1  0.832740  0.310747  0.000000  1
  P  P17  1  0.999443  0.177425  0.500000  1
  P  P18  1  0.825482  0.824390  0.500000  1
  P  P19  1  0.174507  0.000710  0.500000  1
  Ir  Ir20  1  0.516710  0.870225  0.000000  1
  Ir  Ir21  1  0.128969  0.647639  0.000000  1
  Ir  Ir22  1  0.353349  0.484953  0.000000  1
  Ir  Ir23  1  0.483996  0.353707  0.000000  1
  Ir  Ir24  1  0.865333  0.500425  0.000000  1
  Ir  Ir25  1  0.652115  0.134823  0.000000  1
  Ir  Ir26  1  0.996898  0.269976  0.000000  1
  Ir  Ir27  1  0.734084  0.732630  0.000000  1
  Ir  Ir28  1  0.266892  0.000646  0.000000  1
  Ir  Ir29  1  0.634160  0.807047  0.500000  1
  Ir  Ir30  1  0.193127  0.827232  0.500000  1
  Ir  Ir31  1  0.171680  0.366737  0.500000  1
  Ir  Ir32  1  0.366629  0.173364  0.500000  1
  Ir  Ir33  1  0.808027  0.631820  0.500000  1
  Ir  Ir34  1  0.827356  0.202837  0.500000  1
  Ir  Ir35  1  0.998684  0.001481  0.500000  1
