# generated using pymatgen
data_ScVCo4As3
_symmetry_space_group_name_H-M   'P 1'
_cell_length_a   3.71515900
_cell_length_b   10.65324100
_cell_length_c   12.19952500
_cell_angle_alpha   90.00000000
_cell_angle_beta   90.00000000
_cell_angle_gamma   90.00000000
_symmetry_Int_Tables_number   1
_chemical_formula_structural   ScVCo4As3
_chemical_formula_sum   'Sc4 V4 Co16 As12'
_cell_volume   482.83870722
_cell_formula_units_Z   4
loop_
 _symmetry_equiv_pos_site_id
 _symmetry_equiv_pos_as_xyz
  1  'x, y, z'
loop_
 _atom_site_type_symbol
 _atom_site_label
 _atom_site_symmetry_multiplicity
 _atom_site_fract_x
 _atom_site_fract_y
 _atom_site_fract_z
 _atom_site_occupancy
  Sc  Sc0  1  0.250000  0.579207  0.705965  1
  Sc  Sc1  1  0.250000  0.920793  0.205965  1
  Sc  Sc2  1  0.750000  0.420793  0.294035  1
  Sc  Sc3  1  0.750000  0.079207  0.794035  1
  V  V4  1  0.250000  0.704221  0.990206  1
  V  V5  1  0.250000  0.795779  0.490206  1
  V  V6  1  0.750000  0.295779  0.009794  1
  V  V7  1  0.750000  0.204221  0.509794  1
  Co  Co8  1  0.250000  0.405718  0.487290  1
  Co  Co9  1  0.250000  0.094282  0.987290  1
  Co  Co10  1  0.750000  0.594282  0.512710  1
  Co  Co11  1  0.750000  0.905718  0.012710  1
  Co  Co12  1  0.250000  0.215578  0.176473  1
  Co  Co13  1  0.250000  0.284423  0.676473  1
  Co  Co14  1  0.750000  0.784423  0.823527  1
  Co  Co15  1  0.750000  0.715577  0.323527  1
  Co  Co16  1  0.250000  0.886037  0.698135  1
  Co  Co17  1  0.250000  0.613963  0.198135  1
  Co  Co18  1  0.750000  0.113963  0.301865  1
  Co  Co19  1  0.750000  0.386037  0.801865  1
  Co  Co20  1  0.250000  0.465328  0.933628  1
  Co  Co21  1  0.250000  0.034672  0.433628  1
  Co  Co22  1  0.750000  0.534672  0.066372  1
  Co  Co23  1  0.750000  0.965328  0.566372  1
  As  As24  1  0.250000  0.416526  0.118910  1
  As  As25  1  0.250000  0.083474  0.618910  1
  As  As26  1  0.750000  0.583474  0.881090  1
  As  As27  1  0.750000  0.916526  0.381090  1
  As  As28  1  0.250000  0.262366  0.864787  1
  As  As29  1  0.250000  0.237634  0.364787  1
  As  As30  1  0.750000  0.737634  0.135213  1
  As  As31  1  0.750000  0.762366  0.635213  1
  As  As32  1  0.250000  0.593175  0.388861  1
  As  As33  1  0.250000  0.906825  0.888861  1
  As  As34  1  0.750000  0.406825  0.611139  1
  As  As35  1  0.750000  0.093175  0.111139  1
