# generated using pymatgen
data_Dy8Re2OsRuC8
_symmetry_space_group_name_H-M   'P 1'
_cell_length_a   5.12042700
_cell_length_b   6.53588022
_cell_length_c   9.83474274
_cell_angle_alpha   89.92792075
_cell_angle_beta   90.00000000
_cell_angle_gamma   90.00000000
_symmetry_Int_Tables_number   1
_chemical_formula_structural   Dy8Re2OsRuC8
_chemical_formula_sum   'Dy8 Re2 Os1 Ru1 C8'
_cell_volume   329.13413329
_cell_formula_units_Z   1
loop_
 _symmetry_equiv_pos_site_id
 _symmetry_equiv_pos_as_xyz
  1  'x, y, z'
loop_
 _atom_site_type_symbol
 _atom_site_label
 _atom_site_symmetry_multiplicity
 _atom_site_fract_x
 _atom_site_fract_y
 _atom_site_fract_z
 _atom_site_occupancy
  Dy  Dy0  1  0.250000  0.678562  0.554756  1
  Dy  Dy1  1  0.750000  0.318077  0.443935  1
  Dy  Dy2  1  0.750000  0.824133  0.054405  1
  Dy  Dy3  1  0.250000  0.180754  0.944087  1
  Dy  Dy4  1  0.250000  0.529665  0.214513  1
  Dy  Dy5  1  0.750000  0.467658  0.784529  1
  Dy  Dy6  1  0.750000  0.970120  0.714620  1
  Dy  Dy7  1  0.250000  0.030912  0.285142  1
  Re  Re8  1  0.250000  0.722698  0.864710  1
  Re  Re9  1  0.750000  0.777669  0.364429  1
  Os  Os10  1  0.250000  0.223316  0.634694  1
  Ru  Ru11  1  0.750000  0.277521  0.134848  1
  C  C12  1  0.250000  0.456601  0.759285  1
  C  C13  1  0.750000  0.544399  0.242804  1
  C  C14  1  0.750000  0.043199  0.260399  1
  C  C15  1  0.250000  0.957079  0.741220  1
  C  C16  1  0.250000  0.821798  0.050829  1
  C  C17  1  0.750000  0.176152  0.950019  1
  C  C18  1  0.750000  0.677210  0.551023  1
  C  C19  1  0.250000  0.322479  0.449747  1
