# generated using pymatgen
data_Er3Lu5Ga3Co
_symmetry_space_group_name_H-M   'P 1'
_cell_length_a   9.85338100
_cell_length_b   9.85338239
_cell_length_c   6.81224200
_cell_angle_alpha   90.00000000
_cell_angle_beta   90.00000000
_cell_angle_gamma   120.00000540
_symmetry_Int_Tables_number   1
_chemical_formula_structural   Er3Lu5Ga3Co
_chemical_formula_sum   'Er6 Lu10 Ga6 Co2'
_cell_volume   572.78454188
_cell_formula_units_Z   2
loop_
 _symmetry_equiv_pos_site_id
 _symmetry_equiv_pos_as_xyz
  1  'x, y, z'
loop_
 _atom_site_type_symbol
 _atom_site_label
 _atom_site_symmetry_multiplicity
 _atom_site_fract_x
 _atom_site_fract_y
 _atom_site_fract_z
 _atom_site_occupancy
  Er  Er0  1  0.464700  0.535300  0.292825  1
  Er  Er1  1  0.535300  0.464700  0.792825  1
  Er  Er2  1  0.464700  0.929401  0.292825  1
  Er  Er3  1  0.070599  0.535300  0.292825  1
  Er  Er4  1  0.929401  0.464700  0.792825  1
  Er  Er5  1  0.535300  0.070599  0.792825  1
  Lu  Lu6  1  0.000000  0.000000  0.269180  1
  Lu  Lu7  1  0.000000  0.000000  0.769180  1
  Lu  Lu8  1  0.173174  0.826826  0.990882  1
  Lu  Lu9  1  0.826826  0.173174  0.490882  1
  Lu  Lu10  1  0.173174  0.346347  0.990882  1
  Lu  Lu11  1  0.653653  0.826826  0.990882  1
  Lu  Lu12  1  0.346347  0.173174  0.490882  1
  Lu  Lu13  1  0.826826  0.653653  0.490882  1
  Lu  Lu14  1  0.333333  0.666667  0.673944  1
  Lu  Lu15  1  0.666667  0.333333  0.173944  1
  Ga  Ga16  1  0.163309  0.836691  0.540676  1
  Ga  Ga17  1  0.836691  0.163309  0.040676  1
  Ga  Ga18  1  0.163309  0.326617  0.540676  1
  Ga  Ga19  1  0.673383  0.836691  0.540676  1
  Ga  Ga20  1  0.326617  0.163309  0.040676  1
  Ga  Ga21  1  0.836691  0.673383  0.040676  1
  Co  Co22  1  0.333333  0.666667  0.056787  1
  Co  Co23  1  0.666667  0.333333  0.556787  1
