# generated using pymatgen
data_YbU(Al3Ir)3
_symmetry_space_group_name_H-M   'P 1'
_cell_length_a   7.58525326
_cell_length_b   7.58120623
_cell_length_c   9.34911200
_cell_angle_alpha   90.00000000
_cell_angle_beta   90.00000000
_cell_angle_gamma   119.64734822
_symmetry_Int_Tables_number   1
_chemical_formula_structural   YbU(Al3Ir)3
_chemical_formula_sum   'Yb2 U2 Al18 Ir6'
_cell_volume   467.24185236
_cell_formula_units_Z   2
loop_
 _symmetry_equiv_pos_site_id
 _symmetry_equiv_pos_as_xyz
  1  'x, y, z'
loop_
 _atom_site_type_symbol
 _atom_site_label
 _atom_site_symmetry_multiplicity
 _atom_site_fract_x
 _atom_site_fract_y
 _atom_site_fract_z
 _atom_site_occupancy
  Yb  Yb0  1  0.670390  0.993973  0.250000  1
  Yb  Yb1  1  0.329610  0.006027  0.750000  1
  U  U2  1  0.000350  0.673692  0.250000  1
  U  U3  1  0.999650  0.326308  0.750000  1
  Al  Al4  1  0.131651  0.126702  0.250000  1
  Al  Al5  1  0.868349  0.873298  0.750000  1
  Al  Al6  1  0.999677  0.332547  0.078110  1
  Al  Al7  1  0.000323  0.667453  0.921890  1
  Al  Al8  1  0.000323  0.667453  0.578110  1
  Al  Al9  1  0.338625  0.003418  0.424297  1
  Al  Al10  1  0.999677  0.332547  0.421890  1
  Al  Al11  1  0.661375  0.996582  0.575703  1
  Al  Al12  1  0.661375  0.996582  0.924297  1
  Al  Al13  1  0.338625  0.003418  0.075703  1
  Al  Al14  1  0.334054  0.332996  0.554367  1
  Al  Al15  1  0.665946  0.667004  0.445633  1
  Al  Al16  1  0.665946  0.667004  0.054367  1
  Al  Al17  1  0.334054  0.332996  0.945633  1
  Al  Al18  1  0.338201  0.548110  0.250000  1
  Al  Al19  1  0.661799  0.451890  0.750000  1
  Al  Al20  1  0.551896  0.345900  0.250000  1
  Al  Al21  1  0.448104  0.654100  0.750000  1
  Ir  Ir22  1  0.676360  0.330684  0.999090  1
  Ir  Ir23  1  0.323640  0.669316  0.000910  1
  Ir  Ir24  1  0.323640  0.669316  0.499090  1
  Ir  Ir25  1  0.676360  0.330684  0.500910  1
  Ir  Ir26  1  0.000000  0.000000  0.000000  1
  Ir  Ir27  1  0.000000  0.000000  0.500000  1
