# generated using pymatgen
data_Gd4Lu4B24RuW3
_symmetry_space_group_name_H-M   'P 1'
_cell_length_a   3.60432200
_cell_length_b   9.22620855
_cell_length_c   11.64375022
_cell_angle_alpha   89.91484203
_cell_angle_beta   90.00000000
_cell_angle_gamma   90.00000000
_symmetry_Int_Tables_number   1
_chemical_formula_structural   Gd4Lu4B24RuW3
_chemical_formula_sum   'Gd4 Lu4 B24 Ru1 W3'
_cell_volume   387.20347865
_cell_formula_units_Z   1
loop_
 _symmetry_equiv_pos_site_id
 _symmetry_equiv_pos_as_xyz
  1  'x, y, z'
loop_
 _atom_site_type_symbol
 _atom_site_label
 _atom_site_symmetry_multiplicity
 _atom_site_fract_x
 _atom_site_fract_y
 _atom_site_fract_z
 _atom_site_occupancy
  Gd  Gd0  1  0.000000  0.321230  0.414054  1
  Gd  Gd1  1  0.000000  0.678415  0.586102  1
  Gd  Gd2  1  0.000000  0.821374  0.085623  1
  Gd  Gd3  1  0.000000  0.177824  0.913782  1
  Lu  Lu4  1  0.000000  0.944344  0.372950  1
  Lu  Lu5  1  0.000000  0.054579  0.630039  1
  Lu  Lu6  1  0.000000  0.444871  0.127131  1
  Lu  Lu7  1  0.000000  0.558803  0.870993  1
  B  B8  1  0.500000  0.551910  0.433997  1
  B  B9  1  0.500000  0.447467  0.566481  1
  B  B10  1  0.500000  0.051158  0.064574  1
  B  B11  1  0.500000  0.944250  0.930699  1
  B  B12  1  0.500000  0.753148  0.420777  1
  B  B13  1  0.500000  0.246202  0.580381  1
  B  B14  1  0.500000  0.254033  0.079250  1
  B  B15  1  0.500000  0.750541  0.916946  1
  B  B16  1  0.500000  0.795654  0.264904  1
  B  B17  1  0.500000  0.203561  0.736656  1
  B  B18  1  0.500000  0.295069  0.234952  1
  B  B19  1  0.500000  0.709080  0.765678  1
  B  B20  1  0.500000  0.630841  0.182461  1
  B  B21  1  0.500000  0.370086  0.818349  1
  B  B22  1  0.500000  0.129648  0.316791  1
  B  B23  1  0.500000  0.869492  0.685694  1
  B  B24  1  0.500000  0.978772  0.213424  1
  B  B25  1  0.500000  0.015282  0.787291  1
  B  B26  1  0.500000  0.479221  0.285778  1
  B  B27  1  0.500000  0.521832  0.713845  1
  B  B28  1  0.500000  0.600308  0.026045  1
  B  B29  1  0.500000  0.403234  0.972363  1
  B  B30  1  0.500000  0.098148  0.473797  1
  B  B31  1  0.500000  0.901034  0.528937  1
  Ru  Ru32  1  0.000000  0.859800  0.819044  1
  W  W33  1  0.000000  0.640150  0.319552  1
  W  W34  1  0.000000  0.359606  0.681674  1
  W  W35  1  0.000000  0.139030  0.178986  1
