# generated using pymatgen
data_LaTcF7
_symmetry_space_group_name_H-M   'P 1'
_cell_length_a   5.82892200
_cell_length_b   9.33311845
_cell_length_c   12.51869010
_cell_angle_alpha   62.09448488
_cell_angle_beta   90.00000000
_cell_angle_gamma   90.00000000
_symmetry_Int_Tables_number   1
_chemical_formula_structural   LaTcF7
_chemical_formula_sum   'La4 Tc4 F28'
_cell_volume   601.85085393
_cell_formula_units_Z   4
loop_
 _symmetry_equiv_pos_site_id
 _symmetry_equiv_pos_as_xyz
  1  'x, y, z'
loop_
 _atom_site_type_symbol
 _atom_site_label
 _atom_site_symmetry_multiplicity
 _atom_site_fract_x
 _atom_site_fract_y
 _atom_site_fract_z
 _atom_site_occupancy
  La  La0  1  0.758480  0.810122  0.265188  1
  La  La1  1  0.258480  0.189878  0.234812  1
  La  La2  1  0.241520  0.189878  0.734812  1
  La  La3  1  0.741520  0.810122  0.765188  1
  Tc  Tc4  1  0.243724  0.726033  0.543217  1
  Tc  Tc5  1  0.743724  0.273967  0.956783  1
  Tc  Tc6  1  0.756276  0.273967  0.456783  1
  Tc  Tc7  1  0.256276  0.726033  0.043217  1
  F  F8  1  0.966403  0.715491  0.457151  1
  F  F9  1  0.466403  0.284509  0.042849  1
  F  F10  1  0.033597  0.284509  0.542849  1
  F  F11  1  0.533597  0.715491  0.957151  1
  F  F12  1  0.057399  0.709325  0.923182  1
  F  F13  1  0.557399  0.290675  0.576818  1
  F  F14  1  0.942601  0.290675  0.076818  1
  F  F15  1  0.442601  0.709325  0.423182  1
  F  F16  1  0.735942  0.511688  0.861448  1
  F  F17  1  0.235942  0.488312  0.638552  1
  F  F18  1  0.264058  0.488312  0.138552  1
  F  F19  1  0.764058  0.511688  0.361448  1
  F  F20  1  0.740811  0.037177  0.050099  1
  F  F21  1  0.240811  0.962823  0.449901  1
  F  F22  1  0.259189  0.962823  0.949901  1
  F  F23  1  0.759189  0.037177  0.550099  1
  F  F24  1  0.048919  0.742652  0.665894  1
  F  F25  1  0.548919  0.257348  0.834106  1
  F  F26  1  0.951081  0.257348  0.334106  1
  F  F27  1  0.451081  0.742652  0.165894  1
  F  F28  1  0.014349  0.268321  0.865048  1
  F  F29  1  0.514349  0.731679  0.634952  1
  F  F30  1  0.985651  0.731679  0.134952  1
  F  F31  1  0.485651  0.268321  0.365048  1
  F  F32  1  0.086771  0.968971  0.231735  1
  F  F33  1  0.586771  0.031029  0.268265  1
  F  F34  1  0.913229  0.031029  0.768265  1
  F  F35  1  0.413229  0.968971  0.731735  1
