# generated using pymatgen
data_Yb19HfSb16
_symmetry_space_group_name_H-M   'P 1'
_cell_length_a   8.21030142
_cell_length_b   16.00239100
_cell_length_c   8.22288064
_cell_angle_alpha   90.00000000
_cell_angle_beta   90.06991127
_cell_angle_gamma   90.00000000
_symmetry_Int_Tables_number   1
_chemical_formula_structural   Yb19HfSb16
_chemical_formula_sum   'Yb19 Hf1 Sb16'
_cell_volume   1080.35787554
_cell_formula_units_Z   1
loop_
 _symmetry_equiv_pos_site_id
 _symmetry_equiv_pos_as_xyz
  1  'x, y, z'
loop_
 _atom_site_type_symbol
 _atom_site_label
 _atom_site_symmetry_multiplicity
 _atom_site_fract_x
 _atom_site_fract_y
 _atom_site_fract_z
 _atom_site_occupancy
  Yb  Yb0  1  0.738500  0.750000  0.001158  1
  Yb  Yb1  1  0.924698  0.106311  0.167396  1
  Yb  Yb2  1  0.924698  0.393689  0.167396  1
  Yb  Yb3  1  0.408287  0.604426  0.163530  1
  Yb  Yb4  1  0.408287  0.895574  0.163530  1
  Yb  Yb5  1  0.906557  0.607167  0.337474  1
  Yb  Yb6  1  0.906557  0.892833  0.337474  1
  Yb  Yb7  1  0.428124  0.106635  0.338055  1
  Yb  Yb8  1  0.428124  0.393365  0.338055  1
  Yb  Yb9  1  0.238999  0.750000  0.498512  1
  Yb  Yb10  1  0.760160  0.250000  0.500544  1
  Yb  Yb11  1  0.572026  0.602276  0.666603  1
  Yb  Yb12  1  0.572026  0.897724  0.666603  1
  Yb  Yb13  1  0.094738  0.111766  0.657161  1
  Yb  Yb14  1  0.094738  0.388234  0.657161  1
  Yb  Yb15  1  0.599094  0.111382  0.837946  1
  Yb  Yb16  1  0.599094  0.388618  0.837946  1
  Yb  Yb17  1  0.067656  0.599785  0.829144  1
  Yb  Yb18  1  0.067656  0.900215  0.829144  1
  Hf  Hf19  1  0.260685  0.250000  0.000362  1
  Sb  Sb20  1  0.742018  0.548911  0.007085  1
  Sb  Sb21  1  0.742018  0.951089  0.007085  1
  Sb  Sb22  1  0.114595  0.750000  0.120989  1
  Sb  Sb23  1  0.608555  0.250000  0.127949  1
  Sb  Sb24  1  0.137526  0.250000  0.346043  1
  Sb  Sb25  1  0.611417  0.750000  0.374201  1
  Sb  Sb26  1  0.242749  0.548841  0.492892  1
  Sb  Sb27  1  0.242749  0.951159  0.492892  1
  Sb  Sb28  1  0.758405  0.051182  0.507508  1
  Sb  Sb29  1  0.758405  0.448818  0.507508  1
  Sb  Sb30  1  0.385355  0.250000  0.650243  1
  Sb  Sb31  1  0.866182  0.750000  0.631441  1
  Sb  Sb32  1  0.362707  0.750000  0.871959  1
  Sb  Sb33  1  0.910930  0.250000  0.878879  1
  Sb  Sb34  1  0.257851  0.061296  0.994067  1
  Sb  Sb35  1  0.257851  0.438704  0.994067  1
