# generated using pymatgen
data_Tb4Al16Si2Ir5Pd
_symmetry_space_group_name_H-M   'P 1'
_cell_length_a   7.55825657
_cell_length_b   7.55825653
_cell_length_c   9.34754921
_cell_angle_alpha   89.98299447
_cell_angle_beta   89.98300035
_cell_angle_gamma   119.69081956
_symmetry_Int_Tables_number   1
_chemical_formula_structural   Tb4Al16Si2Ir5Pd
_chemical_formula_sum   'Tb4 Al16 Si2 Ir5 Pd1'
_cell_volume   463.89127905
_cell_formula_units_Z   1
loop_
 _symmetry_equiv_pos_site_id
 _symmetry_equiv_pos_as_xyz
  1  'x, y, z'
loop_
 _atom_site_type_symbol
 _atom_site_label
 _atom_site_symmetry_multiplicity
 _atom_site_fract_x
 _atom_site_fract_y
 _atom_site_fract_z
 _atom_site_occupancy
  Tb  Tb0  1  0.994235  0.673871  0.250539  1
  Tb  Tb1  1  0.004623  0.325592  0.749432  1
  Tb  Tb2  1  0.674408  0.995377  0.250568  1
  Tb  Tb3  1  0.326129  0.005765  0.749461  1
  Al  Al4  1  0.004872  0.336143  0.077503  1
  Al  Al5  1  0.001472  0.667222  0.922945  1
  Al  Al6  1  0.999407  0.663320  0.574830  1
  Al  Al7  1  0.336680  0.000593  0.425170  1
  Al  Al8  1  0.000575  0.336182  0.424370  1
  Al  Al9  1  0.663818  0.999425  0.575630  1
  Al  Al10  1  0.663857  0.995128  0.922497  1
  Al  Al11  1  0.332778  0.998528  0.077055  1
  Al  Al12  1  0.334954  0.334871  0.553919  1
  Al  Al13  1  0.665129  0.665046  0.446081  1
  Al  Al14  1  0.664058  0.667223  0.058339  1
  Al  Al15  1  0.332777  0.335942  0.941661  1
  Al  Al16  1  0.336593  0.548754  0.250508  1
  Al  Al17  1  0.664592  0.453612  0.747863  1
  Al  Al18  1  0.546388  0.335408  0.252137  1
  Al  Al19  1  0.451246  0.663407  0.749492  1
  Si  Si20  1  0.128611  0.127883  0.250557  1
  Si  Si21  1  0.872117  0.871389  0.749443  1
  Ir  Ir22  1  0.328249  0.671751  0.000000  1
  Ir  Ir23  1  0.328575  0.671425  0.500000  1
  Ir  Ir24  1  0.671685  0.328315  0.500000  1
  Ir  Ir25  1  0.999773  0.000227  0.000000  1
  Ir  Ir26  1  0.000097  0.999903  0.500000  1
  Pd  Pd27  1  0.672304  0.327696  0.000000  1
