# generated using pymatgen
data_Dy9Tm(PPb3)2
_symmetry_space_group_name_H-M   'P 1'
_cell_length_a   9.15130500
_cell_length_b   9.15130372
_cell_length_c   6.77704600
_cell_angle_alpha   90.00000000
_cell_angle_beta   90.00000000
_cell_angle_gamma   119.99999377
_symmetry_Int_Tables_number   1
_chemical_formula_structural   Dy9Tm(PPb3)2
_chemical_formula_sum   'Dy9 Tm1 P2 Pb6'
_cell_volume   491.51535737
_cell_formula_units_Z   1
loop_
 _symmetry_equiv_pos_site_id
 _symmetry_equiv_pos_as_xyz
  1  'x, y, z'
loop_
 _atom_site_type_symbol
 _atom_site_label
 _atom_site_symmetry_multiplicity
 _atom_site_fract_x
 _atom_site_fract_y
 _atom_site_fract_z
 _atom_site_occupancy
  Dy  Dy0  1  0.762094  0.761888  0.249855  1
  Dy  Dy1  1  0.238112  0.000206  0.249855  1
  Dy  Dy2  1  0.999794  0.237906  0.249855  1
  Dy  Dy3  1  0.238112  0.237906  0.750145  1
  Dy  Dy4  1  0.762094  0.000206  0.750145  1
  Dy  Dy5  1  0.999794  0.761888  0.750145  1
  Dy  Dy6  1  0.666667  0.333333  0.500000  1
  Dy  Dy7  1  0.333333  0.666667  0.500000  1
  Dy  Dy8  1  0.333333  0.666667  0.000000  1
  Tm  Tm9  1  0.666667  0.333333  0.000000  1
  P  P10  1  0.000000  0.000000  0.500000  1
  P  P11  1  0.000000  0.000000  0.000000  1
  Pb  Pb12  1  0.400000  0.399567  0.249660  1
  Pb  Pb13  1  0.600433  0.000433  0.249660  1
  Pb  Pb14  1  0.999567  0.600000  0.249660  1
  Pb  Pb15  1  0.600433  0.600000  0.750340  1
  Pb  Pb16  1  0.400000  0.000433  0.750340  1
  Pb  Pb17  1  0.999567  0.399567  0.750340  1
