# generated using pymatgen
data_Zn3Hg(PN2)6
_symmetry_space_group_name_H-M   'P 1'
_cell_length_a   7.30010351
_cell_length_b   7.30010352
_cell_length_c   7.30010329
_cell_angle_alpha   109.48034044
_cell_angle_beta   109.48033802
_cell_angle_gamma   109.48032569
_symmetry_Int_Tables_number   1
_chemical_formula_structural   Zn3Hg(PN2)6
_chemical_formula_sum   'Zn3 Hg1 P6 N12'
_cell_volume   299.37705805
_cell_formula_units_Z   1
loop_
 _symmetry_equiv_pos_site_id
 _symmetry_equiv_pos_as_xyz
  1  'x, y, z'
loop_
 _atom_site_type_symbol
 _atom_site_label
 _atom_site_symmetry_multiplicity
 _atom_site_fract_x
 _atom_site_fract_y
 _atom_site_fract_z
 _atom_site_occupancy
  Zn  Zn0  1  0.997816  0.437028  0.997816  1
  Zn  Zn1  1  0.997816  0.997816  0.437028  1
  Zn  Zn2  1  0.437028  0.997816  0.997816  1
  Hg  Hg3  1  0.958910  0.958910  0.958910  1
  P  P4  1  0.496551  0.253970  0.746790  1
  P  P5  1  0.253970  0.746790  0.496551  1
  P  P6  1  0.746790  0.496551  0.253970  1
  P  P7  1  0.746790  0.253970  0.496551  1
  P  P8  1  0.496551  0.746790  0.253970  1
  P  P9  1  0.253970  0.496551  0.746790  1
  N  N10  1  0.434773  0.716135  0.434773  1
  N  N11  1  0.716135  0.434773  0.434773  1
  N  N12  1  0.434773  0.434773  0.716135  1
  N  N13  1  0.718031  0.278154  0.718031  1
  N  N14  1  0.998074  0.561840  0.277040  1
  N  N15  1  0.277040  0.561840  0.998074  1
  N  N16  1  0.277040  0.998074  0.561840  1
  N  N17  1  0.998074  0.277040  0.561840  1
  N  N18  1  0.718031  0.718031  0.278154  1
  N  N19  1  0.561840  0.998074  0.277040  1
  N  N20  1  0.278154  0.718031  0.718031  1
  N  N21  1  0.561840  0.277040  0.998074  1
