# generated using pymatgen
data_Lu8In3BiAu8
_symmetry_space_group_name_H-M   'P 1'
_cell_length_a   7.93622900
_cell_length_b   7.93622900
_cell_length_c   7.24022500
_cell_angle_alpha   90.00000000
_cell_angle_beta   90.00000000
_cell_angle_gamma   90.00000000
_symmetry_Int_Tables_number   1
_chemical_formula_structural   Lu8In3BiAu8
_chemical_formula_sum   'Lu8 In3 Bi1 Au8'
_cell_volume   456.01638190
_cell_formula_units_Z   1
loop_
 _symmetry_equiv_pos_site_id
 _symmetry_equiv_pos_as_xyz
  1  'x, y, z'
loop_
 _atom_site_type_symbol
 _atom_site_label
 _atom_site_symmetry_multiplicity
 _atom_site_fract_x
 _atom_site_fract_y
 _atom_site_fract_z
 _atom_site_occupancy
  Lu  Lu0  1  0.850765  0.160576  0.503461  1
  Lu  Lu1  1  0.149235  0.839424  0.503461  1
  Lu  Lu2  1  0.339424  0.350765  0.996539  1
  Lu  Lu3  1  0.660576  0.649235  0.996539  1
  Lu  Lu4  1  0.683960  0.676128  0.502606  1
  Lu  Lu5  1  0.316040  0.323872  0.502606  1
  Lu  Lu6  1  0.176129  0.816040  0.997394  1
  Lu  Lu7  1  0.823872  0.183961  0.997394  1
  In  In8  1  0.000000  0.500000  0.750000  1
  In  In9  1  0.500000  0.000000  0.750000  1
  In  In10  1  0.000000  0.500000  0.250000  1
  Bi  Bi11  1  0.500000  0.000000  0.250000  1
  Au  Au12  1  0.634409  0.376491  0.276298  1
  Au  Au13  1  0.365591  0.623509  0.276298  1
  Au  Au14  1  0.133185  0.127173  0.774932  1
  Au  Au15  1  0.866815  0.872827  0.774932  1
  Au  Au16  1  0.372827  0.633185  0.725068  1
  Au  Au17  1  0.627173  0.366815  0.725068  1
  Au  Au18  1  0.876491  0.865591  0.223702  1
  Au  Au19  1  0.123509  0.134409  0.223702  1
