# generated using pymatgen
data_LiSm(CuO2)4
_symmetry_space_group_name_H-M   'P 1'
_cell_length_a   6.21767672
_cell_length_b   6.21767745
_cell_length_c   6.21767728
_cell_angle_alpha   125.23507568
_cell_angle_beta   125.23508119
_cell_angle_gamma   81.14902762
_symmetry_Int_Tables_number   1
_chemical_formula_structural   LiSm(CuO2)4
_chemical_formula_sum   'Li1 Sm1 Cu4 O8'
_cell_volume   154.48512260
_cell_formula_units_Z   1
loop_
 _symmetry_equiv_pos_site_id
 _symmetry_equiv_pos_as_xyz
  1  'x, y, z'
loop_
 _atom_site_type_symbol
 _atom_site_label
 _atom_site_symmetry_multiplicity
 _atom_site_fract_x
 _atom_site_fract_y
 _atom_site_fract_z
 _atom_site_occupancy
  Li  Li0  1  0.000000  0.000000  0.000000  1
  Sm  Sm1  1  0.750000  0.250000  0.500000  1
  Cu  Cu2  1  0.877321  0.621637  0.250649  1
  Cu  Cu3  1  0.370989  0.626672  0.749351  1
  Cu  Cu4  1  0.373328  0.122679  0.744316  1
  Cu  Cu5  1  0.378363  0.629011  0.255684  1
  O  O6  1  0.405108  0.831687  0.136233  1
  O  O7  1  0.695454  0.268874  0.863767  1
  O  O8  1  0.341304  0.420590  0.363786  1
  O  O9  1  0.056803  0.977518  0.636214  1
  O  O10  1  0.022482  0.658696  0.079286  1
  O  O11  1  0.579410  0.943197  0.920714  1
  O  O12  1  0.168313  0.304546  0.573422  1
  O  O13  1  0.731126  0.594892  0.426578  1
