# generated using pymatgen
data_Tb4Mn2BiO12
_symmetry_space_group_name_H-M   'P 1'
_cell_length_a   6.81121155
_cell_length_b   6.81121213
_cell_length_c   7.24187001
_cell_angle_alpha   74.60601791
_cell_angle_beta   74.60601508
_cell_angle_gamma   51.04346892
_symmetry_Int_Tables_number   1
_chemical_formula_structural   Tb4Mn2BiO12
_chemical_formula_sum   'Tb4 Mn2 Bi1 O12'
_cell_volume   249.69857422
_cell_formula_units_Z   1
loop_
 _symmetry_equiv_pos_site_id
 _symmetry_equiv_pos_as_xyz
  1  'x, y, z'
loop_
 _atom_site_type_symbol
 _atom_site_label
 _atom_site_symmetry_multiplicity
 _atom_site_fract_x
 _atom_site_fract_y
 _atom_site_fract_z
 _atom_site_occupancy
  Tb  Tb0  1  0.694675  0.694675  0.655673  1
  Tb  Tb1  1  0.692640  0.692640  0.149645  1
  Tb  Tb2  1  0.307360  0.307360  0.850355  1
  Tb  Tb3  1  0.305325  0.305325  0.344327  1
  Mn  Mn4  1  0.245946  0.754054  0.500000  1
  Mn  Mn5  1  0.754054  0.245946  0.500000  1
  Bi  Bi6  1  0.000000  0.000000  0.000000  1
  O  O7  1  0.397787  0.902593  0.927921  1
  O  O8  1  0.575510  0.098893  0.584592  1
  O  O9  1  0.901107  0.424490  0.415408  1
  O  O10  1  0.097407  0.602213  0.072079  1
  O  O11  1  0.998951  0.998951  0.321907  1
  O  O12  1  0.500974  0.500974  0.678497  1
  O  O13  1  0.902593  0.397787  0.927921  1
  O  O14  1  0.098893  0.575510  0.584592  1
  O  O15  1  0.424490  0.901107  0.415408  1
  O  O16  1  0.602213  0.097407  0.072079  1
  O  O17  1  0.499026  0.499026  0.321503  1
  O  O18  1  0.001049  0.001049  0.678093  1
