# generated using pymatgen
data_Pr3(Ga2Si)2
_symmetry_space_group_name_H-M   'P 1'
_cell_length_a   4.22040484
_cell_length_b   4.33468732
_cell_length_c   21.96258843
_cell_angle_alpha   84.33662395
_cell_angle_beta   84.48642031
_cell_angle_gamma   89.99999737
_symmetry_Int_Tables_number   1
_chemical_formula_structural   Pr3(Ga2Si)2
_chemical_formula_sum   'Pr6 Ga8 Si4'
_cell_volume   397.95734188
_cell_formula_units_Z   2
loop_
 _symmetry_equiv_pos_site_id
 _symmetry_equiv_pos_as_xyz
  1  'x, y, z'
loop_
 _atom_site_type_symbol
 _atom_site_label
 _atom_site_symmetry_multiplicity
 _atom_site_fract_x
 _atom_site_fract_y
 _atom_site_fract_z
 _atom_site_occupancy
  Pr  Pr0  1  0.957815  0.707815  0.084370  1
  Pr  Pr1  1  0.290581  0.040581  0.418838  1
  Pr  Pr2  1  0.623606  0.373606  0.752787  1
  Pr  Pr3  1  0.376897  0.626897  0.246207  1
  Pr  Pr4  1  0.709375  0.959375  0.581248  1
  Pr  Pr5  1  0.041397  0.291397  0.917207  1
  Ga  Ga6  1  0.820156  0.570156  0.359688  1
  Ga  Ga7  1  0.153001  0.903001  0.693999  1
  Ga  Ga8  1  0.431351  0.181351  0.137297  1
  Ga  Ga9  1  0.764105  0.514105  0.471789  1
  Ga  Ga10  1  0.096951  0.846951  0.806098  1
  Ga  Ga11  1  0.847613  0.097613  0.304775  1
  Ga  Ga12  1  0.180399  0.430399  0.639202  1
  Ga  Ga13  1  0.513197  0.763197  0.973605  1
  Si  Si14  1  0.902688  0.152688  0.194624  1
  Si  Si15  1  0.235612  0.485612  0.528775  1
  Si  Si16  1  0.568636  0.818636  0.862728  1
  Si  Si17  1  0.486619  0.236619  0.026760  1
