# generated using pymatgen
data_Dy20Ge3Bi8Te
_symmetry_space_group_name_H-M   'P 1'
_cell_length_a   8.12115076
_cell_length_b   9.27562200
_cell_length_c   12.07669306
_cell_angle_alpha   90.00000000
_cell_angle_beta   89.81330106
_cell_angle_gamma   90.00000000
_symmetry_Int_Tables_number   1
_chemical_formula_structural   Dy20Ge3Bi8Te
_chemical_formula_sum   'Dy20 Ge3 Bi8 Te1'
_cell_volume   909.71705633
_cell_formula_units_Z   1
loop_
 _symmetry_equiv_pos_site_id
 _symmetry_equiv_pos_as_xyz
  1  'x, y, z'
loop_
 _atom_site_type_symbol
 _atom_site_label
 _atom_site_symmetry_multiplicity
 _atom_site_fract_x
 _atom_site_fract_y
 _atom_site_fract_z
 _atom_site_occupancy
  Dy  Dy0  1  0.819754  0.554255  0.061693  1
  Dy  Dy1  1  0.687718  0.950820  0.565349  1
  Dy  Dy2  1  0.180503  0.054066  0.937252  1
  Dy  Dy3  1  0.316641  0.434179  0.436585  1
  Dy  Dy4  1  0.180503  0.445934  0.937252  1
  Dy  Dy5  1  0.316641  0.065821  0.436585  1
  Dy  Dy6  1  0.819754  0.945745  0.061693  1
  Dy  Dy7  1  0.687718  0.549180  0.565349  1
  Dy  Dy8  1  0.162197  0.750000  0.211847  1
  Dy  Dy9  1  0.330067  0.750000  0.722294  1
  Dy  Dy10  1  0.834229  0.250000  0.786188  1
  Dy  Dy11  1  0.664478  0.250000  0.285944  1
  Dy  Dy12  1  0.465154  0.750000  0.002415  1
  Dy  Dy13  1  0.025365  0.750000  0.500834  1
  Dy  Dy14  1  0.537178  0.250000  0.998355  1
  Dy  Dy15  1  0.963012  0.250000  0.498398  1
  Dy  Dy16  1  0.651842  0.750000  0.288090  1
  Dy  Dy17  1  0.860127  0.750000  0.793666  1
  Dy  Dy18  1  0.359846  0.250000  0.705316  1
  Dy  Dy19  1  0.139641  0.250000  0.205893  1
  Ge  Ge20  1  0.090025  0.750000  0.976003  1
  Ge  Ge21  1  0.589900  0.250000  0.522902  1
  Ge  Ge22  1  0.909636  0.250000  0.023601  1
  Bi  Bi23  1  0.932495  0.508858  0.325574  1
  Bi  Bi24  1  0.567727  0.989682  0.826103  1
  Bi  Bi25  1  0.068617  0.010047  0.673817  1
  Bi  Bi26  1  0.431822  0.490278  0.174650  1
  Bi  Bi27  1  0.068617  0.489953  0.673817  1
  Bi  Bi28  1  0.431822  0.009722  0.174650  1
  Bi  Bi29  1  0.932495  0.991142  0.325574  1
  Bi  Bi30  1  0.567727  0.510318  0.826103  1
  Te  Te31  1  0.406749  0.750000  0.476209  1
