# generated using pymatgen
data_Dy5Er3(Sc3Sn4)4
_symmetry_space_group_name_H-M   'P 1'
_cell_length_a   7.71034975
_cell_length_b   7.91287106
_cell_length_c   14.83985800
_cell_angle_alpha   89.99942797
_cell_angle_beta   89.97469737
_cell_angle_gamma   90.00714645
_symmetry_Int_Tables_number   1
_chemical_formula_structural   Dy5Er3(Sc3Sn4)4
_chemical_formula_sum   'Dy5 Er3 Sc12 Sn16'
_cell_volume   905.39453195
_cell_formula_units_Z   1
loop_
 _symmetry_equiv_pos_site_id
 _symmetry_equiv_pos_as_xyz
  1  'x, y, z'
loop_
 _atom_site_type_symbol
 _atom_site_label
 _atom_site_symmetry_multiplicity
 _atom_site_fract_x
 _atom_site_fract_y
 _atom_site_fract_z
 _atom_site_occupancy
  Dy  Dy0  1  0.990201  0.176673  0.094321  1
  Dy  Dy1  1  0.010041  0.823204  0.905463  1
  Dy  Dy2  1  0.509393  0.676630  0.906001  1
  Dy  Dy3  1  0.009729  0.822748  0.593622  1
  Dy  Dy4  1  0.490500  0.323119  0.094287  1
  Er  Er5  1  0.989811  0.177727  0.406073  1
  Er  Er6  1  0.489191  0.322794  0.405926  1
  Er  Er7  1  0.510856  0.677276  0.593770  1
  Sc  Sc8  1  0.173325  0.495187  0.749657  1
  Sc  Sc9  1  0.826876  0.504901  0.250490  1
  Sc  Sc10  1  0.327251  0.994938  0.250395  1
  Sc  Sc11  1  0.673155  0.005144  0.749669  1
  Sc  Sc12  1  0.344298  0.161097  0.626825  1
  Sc  Sc13  1  0.655555  0.838814  0.373058  1
  Sc  Sc14  1  0.155584  0.660798  0.373340  1
  Sc  Sc15  1  0.656242  0.838974  0.127721  1
  Sc  Sc16  1  0.844409  0.339435  0.626596  1
  Sc  Sc17  1  0.343928  0.160764  0.872620  1
  Sc  Sc18  1  0.843724  0.338952  0.872858  1
  Sc  Sc19  1  0.156106  0.661075  0.127286  1
  Sn  Sn20  1  0.036278  0.124539  0.749635  1
  Sn  Sn21  1  0.963802  0.876065  0.250420  1
  Sn  Sn22  1  0.463193  0.623900  0.250245  1
  Sn  Sn23  1  0.536509  0.376002  0.749803  1
  Sn  Sn24  1  0.315231  0.848888  0.749284  1
  Sn  Sn25  1  0.685451  0.151184  0.250867  1
  Sn  Sn26  1  0.185173  0.348990  0.250725  1
  Sn  Sn27  1  0.814175  0.650268  0.749664  1
  Sn  Sn28  1  0.187535  0.457068  0.542230  1
  Sn  Sn29  1  0.812535  0.542294  0.457530  1
  Sn  Sn30  1  0.314177  0.957714  0.457318  1
  Sn  Sn31  1  0.815448  0.543519  0.042575  1
  Sn  Sn32  1  0.685437  0.043316  0.542011  1
  Sn  Sn33  1  0.184456  0.456371  0.957539  1
  Sn  Sn34  1  0.684901  0.042926  0.957637  1
  Sn  Sn35  1  0.315523  0.956709  0.042543  1
