# generated using pymatgen
data_HoTm12Th7Pb16
_symmetry_space_group_name_H-M   'P 1'
_cell_length_a   8.26637361
_cell_length_b   15.57656765
_cell_length_c   8.28667300
_cell_angle_alpha   89.94432109
_cell_angle_beta   90.03579958
_cell_angle_gamma   90.14122030
_symmetry_Int_Tables_number   1
_chemical_formula_structural   HoTm12Th7Pb16
_chemical_formula_sum   'Ho1 Tm12 Th7 Pb16'
_cell_volume   1067.00238145
_cell_formula_units_Z   1
loop_
 _symmetry_equiv_pos_site_id
 _symmetry_equiv_pos_as_xyz
  1  'x, y, z'
loop_
 _atom_site_type_symbol
 _atom_site_label
 _atom_site_symmetry_multiplicity
 _atom_site_fract_x
 _atom_site_fract_y
 _atom_site_fract_z
 _atom_site_occupancy
  Ho  Ho0  1  0.972941  0.597382  0.825929  1
  Tm  Tm1  1  0.641387  0.624771  0.156031  1
  Tm  Tm2  1  0.145395  0.874002  0.346016  1
  Tm  Tm3  1  0.353882  0.124312  0.844964  1
  Tm  Tm4  1  0.854614  0.375694  0.656543  1
  Tm  Tm5  1  0.358635  0.376281  0.843682  1
  Tm  Tm6  1  0.854957  0.124499  0.656923  1
  Tm  Tm7  1  0.646929  0.875083  0.154237  1
  Tm  Tm8  1  0.146553  0.624977  0.343204  1
  Tm  Tm9  1  0.810345  0.749419  0.499458  1
  Tm  Tm10  1  0.311337  0.749668  0.999675  1
  Tm  Tm11  1  0.189738  0.250065  0.499432  1
  Tm  Tm12  1  0.689146  0.250507  0.000287  1
  Th  Th13  1  0.480098  0.594034  0.672976  1
  Th  Th14  1  0.981460  0.905790  0.823433  1
  Th  Th15  1  0.520205  0.093676  0.325739  1
  Th  Th16  1  0.021259  0.404917  0.175535  1
  Th  Th17  1  0.521673  0.406724  0.325271  1
  Th  Th18  1  0.020347  0.094714  0.175341  1
  Th  Th19  1  0.478073  0.904519  0.674987  1
  Pb  Pb20  1  0.702548  0.457763  0.955301  1
  Pb  Pb21  1  0.197415  0.043886  0.544415  1
  Pb  Pb22  1  0.302438  0.955879  0.046339  1
  Pb  Pb23  1  0.805068  0.544792  0.456411  1
  Pb  Pb24  1  0.295430  0.544851  0.038906  1
  Pb  Pb25  1  0.802377  0.955470  0.456239  1
  Pb  Pb26  1  0.697963  0.044134  0.955938  1
  Pb  Pb27  1  0.197554  0.455332  0.543249  1
  Pb  Pb28  1  0.451132  0.750520  0.370241  1
  Pb  Pb29  1  0.950948  0.749977  0.129539  1
  Pb  Pb30  1  0.549228  0.249924  0.630871  1
  Pb  Pb31  1  0.050228  0.250741  0.868922  1
  Pb  Pb32  1  0.670437  0.749233  0.848692  1
  Pb  Pb33  1  0.165666  0.746221  0.654423  1
  Pb  Pb34  1  0.332559  0.250321  0.150874  1
  Pb  Pb35  1  0.830034  0.249924  0.349977  1
