# generated using pymatgen
data_Dy7YTe12
_symmetry_space_group_name_H-M   'P 1'
_cell_length_a   14.51213618
_cell_length_b   13.83693600
_cell_length_c   7.55524967
_cell_angle_alpha   79.54509905
_cell_angle_beta   69.65956916
_cell_angle_gamma   30.79269510
_symmetry_Int_Tables_number   1
_chemical_formula_structural   Dy7YTe12
_chemical_formula_sum   'Dy7 Y1 Te12'
_cell_volume   706.22002940
_cell_formula_units_Z   1
loop_
 _symmetry_equiv_pos_site_id
 _symmetry_equiv_pos_as_xyz
  1  'x, y, z'
loop_
 _atom_site_type_symbol
 _atom_site_label
 _atom_site_symmetry_multiplicity
 _atom_site_fract_x
 _atom_site_fract_y
 _atom_site_fract_z
 _atom_site_occupancy
  Dy  Dy0  1  0.167276  0.167276  0.332724  1
  Dy  Dy1  1  0.917256  0.917256  0.082744  1
  Dy  Dy2  1  0.082734  0.082734  0.917266  1
  Dy  Dy3  1  0.999789  0.999789  0.500211  1
  Dy  Dy4  1  0.500211  0.500211  0.999789  1
  Dy  Dy5  1  0.250210  0.250210  0.749790  1
  Dy  Dy6  1  0.749785  0.749785  0.250215  1
  Y  Y7  1  0.332735  0.332735  0.167265  1
  Te  Te8  1  0.998766  0.501164  0.501308  1
  Te  Te9  1  0.501164  0.998766  0.998763  1
  Te  Te10  1  0.251107  0.748893  0.748814  1
  Te  Te11  1  0.748893  0.251107  0.251185  1
  Te  Te12  1  0.665816  0.168790  0.833988  1
  Te  Te13  1  0.834116  0.331349  0.665713  1
  Te  Te14  1  0.331349  0.834116  0.168822  1
  Te  Te15  1  0.168790  0.665816  0.331406  1
  Te  Te16  1  0.584399  0.081069  0.415959  1
  Te  Te17  1  0.415883  0.918652  0.584281  1
  Te  Te18  1  0.918652  0.415883  0.081184  1
  Te  Te19  1  0.081069  0.584399  0.918573  1
