# generated using pymatgen
data_Li4Nb5MoS12
_symmetry_space_group_name_H-M   'P 1'
_cell_length_a   5.80321200
_cell_length_b   5.80321112
_cell_length_c   13.02215600
_cell_angle_alpha   90.00000000
_cell_angle_beta   90.00000000
_cell_angle_gamma   120.00000501
_symmetry_Int_Tables_number   1
_chemical_formula_structural   Li4Nb5MoS12
_chemical_formula_sum   'Li4 Nb5 Mo1 S12'
_cell_volume   379.79593333
_cell_formula_units_Z   1
loop_
 _symmetry_equiv_pos_site_id
 _symmetry_equiv_pos_as_xyz
  1  'x, y, z'
loop_
 _atom_site_type_symbol
 _atom_site_label
 _atom_site_symmetry_multiplicity
 _atom_site_fract_x
 _atom_site_fract_y
 _atom_site_fract_z
 _atom_site_occupancy
  Li  Li0  1  0.000000  0.000000  0.251140  1
  Li  Li1  1  0.000000  0.000000  0.748860  1
  Li  Li2  1  0.333333  0.666667  0.250960  1
  Li  Li3  1  0.666667  0.333333  0.749040  1
  Nb  Nb4  1  0.000000  0.000000  0.500000  1
  Nb  Nb5  1  0.333333  0.666667  0.500595  1
  Nb  Nb6  1  0.333333  0.666667  0.999645  1
  Nb  Nb7  1  0.666667  0.333333  0.000355  1
  Nb  Nb8  1  0.666667  0.333333  0.499405  1
  Mo  Mo9  1  0.000000  0.000000  0.000000  1
  S  S10  1  0.001048  0.328957  0.880626  1
  S  S11  1  0.998952  0.327907  0.119374  1
  S  S12  1  0.000788  0.666220  0.620858  1
  S  S13  1  0.999212  0.665431  0.379142  1
  S  S14  1  0.327907  0.998952  0.880626  1
  S  S15  1  0.333780  0.334569  0.620858  1
  S  S16  1  0.334569  0.333780  0.379142  1
  S  S17  1  0.328957  0.001048  0.119374  1
  S  S18  1  0.671043  0.672093  0.880626  1
  S  S19  1  0.672093  0.671043  0.119374  1
  S  S20  1  0.665431  0.999212  0.620858  1
  S  S21  1  0.666220  0.000788  0.379142  1
