# generated using pymatgen
data_Ho2(CuP)3
_symmetry_space_group_name_H-M   'P 1'
_cell_length_a   3.83886300
_cell_length_b   10.63873900
_cell_length_c   12.91677700
_cell_angle_alpha   90.00000000
_cell_angle_beta   90.00000000
_cell_angle_gamma   90.00000000
_symmetry_Int_Tables_number   1
_chemical_formula_structural   Ho2(CuP)3
_chemical_formula_sum   'Ho8 Cu12 P12'
_cell_volume   527.52971731
_cell_formula_units_Z   4
loop_
 _symmetry_equiv_pos_site_id
 _symmetry_equiv_pos_as_xyz
  1  'x, y, z'
loop_
 _atom_site_type_symbol
 _atom_site_label
 _atom_site_symmetry_multiplicity
 _atom_site_fract_x
 _atom_site_fract_y
 _atom_site_fract_z
 _atom_site_occupancy
  Ho  Ho0  1  0.250000  0.929724  0.793162  1
  Ho  Ho1  1  0.750000  0.429724  0.706838  1
  Ho  Ho2  1  0.250000  0.570276  0.293162  1
  Ho  Ho3  1  0.750000  0.070276  0.206838  1
  Ho  Ho4  1  0.250000  0.841510  0.503097  1
  Ho  Ho5  1  0.750000  0.341510  0.996903  1
  Ho  Ho6  1  0.250000  0.658490  0.003097  1
  Ho  Ho7  1  0.750000  0.158490  0.496903  1
  Cu  Cu8  1  0.250000  0.402091  0.514189  1
  Cu  Cu9  1  0.750000  0.902091  0.985811  1
  Cu  Cu10  1  0.250000  0.097909  0.014189  1
  Cu  Cu11  1  0.750000  0.597909  0.485811  1
  Cu  Cu12  1  0.250000  0.273402  0.332345  1
  Cu  Cu13  1  0.750000  0.773402  0.167655  1
  Cu  Cu14  1  0.250000  0.226598  0.832345  1
  Cu  Cu15  1  0.750000  0.726598  0.667655  1
  Cu  Cu16  1  0.250000  0.860843  0.279818  1
  Cu  Cu17  1  0.750000  0.360843  0.220182  1
  Cu  Cu18  1  0.250000  0.639157  0.779818  1
  Cu  Cu19  1  0.750000  0.139157  0.720182  1
  P  P20  1  0.250000  0.240363  0.643298  1
  P  P21  1  0.750000  0.740363  0.856702  1
  P  P22  1  0.250000  0.259637  0.143298  1
  P  P23  1  0.750000  0.759637  0.356702  1
  P  P24  1  0.250000  0.603775  0.600415  1
  P  P25  1  0.750000  0.103775  0.899585  1
  P  P26  1  0.250000  0.896225  0.100415  1
  P  P27  1  0.750000  0.396225  0.399585  1
  P  P28  1  0.250000  0.057243  0.368624  1
  P  P29  1  0.750000  0.557243  0.131376  1
  P  P30  1  0.250000  0.442757  0.868624  1
  P  P31  1  0.750000  0.942757  0.631376  1
