# generated using pymatgen
data_LiYb8(Si4Pd)3
_symmetry_space_group_name_H-M   'P 1'
_cell_length_a   8.27275700
_cell_length_b   8.27275836
_cell_length_c   8.32101500
_cell_angle_alpha   90.00000000
_cell_angle_beta   90.00000000
_cell_angle_gamma   119.99999857
_symmetry_Int_Tables_number   1
_chemical_formula_structural   LiYb8(Si4Pd)3
_chemical_formula_sum   'Li1 Yb8 Si12 Pd3'
_cell_volume   493.18237718
_cell_formula_units_Z   1
loop_
 _symmetry_equiv_pos_site_id
 _symmetry_equiv_pos_as_xyz
  1  'x, y, z'
loop_
 _atom_site_type_symbol
 _atom_site_label
 _atom_site_symmetry_multiplicity
 _atom_site_fract_x
 _atom_site_fract_y
 _atom_site_fract_z
 _atom_site_occupancy
  Li  Li0  1  0.666667  0.333333  0.996676  1
  Yb  Yb1  1  0.496287  0.503713  0.745988  1
  Yb  Yb2  1  0.497164  0.502836  0.253944  1
  Yb  Yb3  1  0.007426  0.503713  0.745988  1
  Yb  Yb4  1  0.005672  0.502836  0.253944  1
  Yb  Yb5  1  0.496287  0.992574  0.745988  1
  Yb  Yb6  1  0.497164  0.994328  0.253944  1
  Yb  Yb7  1  0.000000  0.000000  0.750275  1
  Yb  Yb8  1  0.000000  0.000000  0.249978  1
  Si  Si9  1  0.838336  0.161664  0.000294  1
  Si  Si10  1  0.164943  0.835057  0.000037  1
  Si  Si11  1  0.323328  0.161664  0.000294  1
  Si  Si12  1  0.163905  0.836095  0.499973  1
  Si  Si13  1  0.670115  0.835057  0.000037  1
  Si  Si14  1  0.834849  0.165151  0.500240  1
  Si  Si15  1  0.838336  0.676672  0.000294  1
  Si  Si16  1  0.672190  0.836095  0.499973  1
  Si  Si17  1  0.164943  0.329885  0.000037  1
  Si  Si18  1  0.330302  0.165151  0.500240  1
  Si  Si19  1  0.163905  0.327810  0.499973  1
  Si  Si20  1  0.834849  0.669698  0.500240  1
  Pd  Pd21  1  0.333333  0.666667  0.001068  1
  Pd  Pd22  1  0.333333  0.666667  0.499209  1
  Pd  Pd23  1  0.666667  0.333333  0.501366  1
