# generated using pymatgen
data_Tb3YGa20Pd11
_symmetry_space_group_name_H-M   'P 1'
_cell_length_a   4.18989158
_cell_length_b   11.01390738
_cell_length_c   13.67974046
_cell_angle_alpha   81.85337532
_cell_angle_beta   81.19092533
_cell_angle_gamma   79.03500825
_symmetry_Int_Tables_number   1
_chemical_formula_structural   Tb3YGa20Pd11
_chemical_formula_sum   'Tb3 Y1 Ga20 Pd11'
_cell_volume   608.30724569
_cell_formula_units_Z   1
loop_
 _symmetry_equiv_pos_site_id
 _symmetry_equiv_pos_as_xyz
  1  'x, y, z'
loop_
 _atom_site_type_symbol
 _atom_site_label
 _atom_site_symmetry_multiplicity
 _atom_site_fract_x
 _atom_site_fract_y
 _atom_site_fract_z
 _atom_site_occupancy
  Tb  Tb0  1  0.877260  0.910592  0.334887  1
  Tb  Tb1  1  0.122731  0.089466  0.665072  1
  Tb  Tb2  1  0.226539  0.366642  0.180277  1
  Y  Y3  1  0.773526  0.633377  0.819573  1
  Ga  Ga4  1  0.994407  0.924692  0.086491  1
  Ga  Ga5  1  0.005663  0.075199  0.913477  1
  Ga  Ga6  1  0.932691  0.328650  0.805968  1
  Ga  Ga7  1  0.067242  0.671351  0.194165  1
  Ga  Ga8  1  0.897629  0.660081  0.544660  1
  Ga  Ga9  1  0.102392  0.339928  0.455289  1
  Ga  Ga10  1  0.797237  0.397269  0.008257  1
  Ga  Ga11  1  0.202819  0.602710  0.991651  1
  Ga  Ga12  1  0.742653  0.215281  0.299414  1
  Ga  Ga13  1  0.257287  0.784757  0.700668  1
  Ga  Ga14  1  0.697723  0.101056  0.503497  1
  Ga  Ga15  1  0.302290  0.898930  0.496490  1
  Ga  Ga16  1  0.612675  0.473653  0.300996  1
  Ga  Ga17  1  0.387222  0.526357  0.699199  1
  Ga  Ga18  1  0.603677  0.794891  0.997755  1
  Ga  Ga19  1  0.396320  0.205167  0.002193  1
  Ga  Ga20  1  0.457470  0.713296  0.371765  1
  Ga  Ga21  1  0.542587  0.286718  0.628108  1
  Ga  Ga22  1  0.364852  0.063910  0.206384  1
  Ga  Ga23  1  0.635116  0.936142  0.793628  1
  Pd  Pd24  1  0.499889  0.500095  0.500128  1
  Pd  Pd25  1  0.971591  0.428373  0.628447  1
  Pd  Pd26  1  0.028385  0.571573  0.371656  1
  Pd  Pd27  1  0.863915  0.161695  0.110477  1
  Pd  Pd28  1  0.136276  0.837950  0.889497  1
  Pd  Pd29  1  0.759683  0.872996  0.607639  1
  Pd  Pd30  1  0.240302  0.127026  0.392369  1
  Pd  Pd31  1  0.653854  0.583487  0.108806  1
  Pd  Pd32  1  0.346122  0.416591  0.891163  1
  Pd  Pd33  1  0.495649  0.827332  0.181371  1
  Pd  Pd34  1  0.504325  0.172768  0.818581  1
