# generated using pymatgen
data_Tb2YSn3Ir2Pd
_symmetry_space_group_name_H-M   'P 1'
_cell_length_a   7.59570300
_cell_length_b   7.59549586
_cell_length_c   3.91450800
_cell_angle_alpha   90.00000000
_cell_angle_beta   90.00000000
_cell_angle_gamma   120.00300024
_symmetry_Int_Tables_number   1
_chemical_formula_structural   Tb2YSn3Ir2Pd
_chemical_formula_sum   'Tb2 Y1 Sn3 Ir2 Pd1'
_cell_volume   195.57745600
_cell_formula_units_Z   1
loop_
 _symmetry_equiv_pos_site_id
 _symmetry_equiv_pos_as_xyz
  1  'x, y, z'
loop_
 _atom_site_type_symbol
 _atom_site_label
 _atom_site_symmetry_multiplicity
 _atom_site_fract_x
 _atom_site_fract_y
 _atom_site_fract_z
 _atom_site_occupancy
  Tb  Tb0  1  0.988051  0.589613  0.000000  1
  Tb  Tb1  1  0.410308  0.398309  0.000000  1
  Y  Y2  1  0.601838  0.011944  0.000000  1
  Sn  Sn3  1  0.258402  0.998342  0.500000  1
  Sn  Sn4  1  0.001523  0.259877  0.500000  1
  Sn  Sn5  1  0.740000  0.741785  0.500000  1
  Ir  Ir6  1  0.666618  0.333528  0.500000  1
  Ir  Ir7  1  0.999991  0.999963  0.000000  1
  Pd  Pd8  1  0.333269  0.666638  0.500000  1
