# generated using pymatgen
data_La2CuSiSe
_symmetry_space_group_name_H-M   'P 1'
_cell_length_a   4.20505900
_cell_length_b   4.20505845
_cell_length_c   15.38394400
_cell_angle_alpha   90.00000000
_cell_angle_beta   90.00000000
_cell_angle_gamma   120.00001216
_symmetry_Int_Tables_number   1
_chemical_formula_structural   La2CuSiSe
_chemical_formula_sum   'La4 Cu2 Si2 Se2'
_cell_volume   235.58216020
_cell_formula_units_Z   2
loop_
 _symmetry_equiv_pos_site_id
 _symmetry_equiv_pos_as_xyz
  1  'x, y, z'
loop_
 _atom_site_type_symbol
 _atom_site_label
 _atom_site_symmetry_multiplicity
 _atom_site_fract_x
 _atom_site_fract_y
 _atom_site_fract_z
 _atom_site_occupancy
  La  La0  1  0.666667  0.333333  0.381404  1
  La  La1  1  0.333333  0.666667  0.881404  1
  La  La2  1  0.333333  0.666667  0.618596  1
  La  La3  1  0.666667  0.333333  0.118596  1
  Cu  Cu4  1  0.000000  0.000000  0.750000  1
  Cu  Cu5  1  0.000000  0.000000  0.250000  1
  Si  Si6  1  0.333333  0.666667  0.250000  1
  Si  Si7  1  0.666667  0.333333  0.750000  1
  Se  Se8  1  0.000000  0.000000  0.000000  1
  Se  Se9  1  0.000000  0.000000  0.500000  1
