# generated using pymatgen
data_Bi3Ir3RuO14
_symmetry_space_group_name_H-M   'P 1'
_cell_length_a   7.20510558
_cell_length_b   7.18449172
_cell_length_c   7.18449081
_cell_angle_alpha   61.53066022
_cell_angle_beta   61.49807756
_cell_angle_gamma   61.49808347
_symmetry_Int_Tables_number   1
_chemical_formula_structural   Bi3Ir3RuO14
_chemical_formula_sum   'Bi3 Ir3 Ru1 O14'
_cell_volume   271.88366734
_cell_formula_units_Z   1
loop_
 _symmetry_equiv_pos_site_id
 _symmetry_equiv_pos_as_xyz
  1  'x, y, z'
loop_
 _atom_site_type_symbol
 _atom_site_label
 _atom_site_symmetry_multiplicity
 _atom_site_fract_x
 _atom_site_fract_y
 _atom_site_fract_z
 _atom_site_occupancy
  Bi  Bi0  1  0.000000  0.500000  0.500000  1
  Bi  Bi1  1  0.500000  0.500000  0.000000  1
  Bi  Bi2  1  0.500000  0.000000  0.500000  1
  Ir  Ir3  1  0.000000  0.000000  0.000000  1
  Ir  Ir4  1  0.000000  0.000000  0.500000  1
  Ir  Ir5  1  0.000000  0.500000  0.000000  1
  Ru  Ru6  1  0.500000  0.000000  0.000000  1
  O  O7  1  0.938600  0.323776  0.323776  1
  O  O8  1  0.327573  0.918875  0.918875  1
  O  O9  1  0.320967  0.320446  0.942774  1
  O  O10  1  0.917444  0.917781  0.329124  1
  O  O11  1  0.917444  0.329124  0.917781  1
  O  O12  1  0.320967  0.942774  0.320446  1
  O  O13  1  0.061400  0.676224  0.676224  1
  O  O14  1  0.672427  0.081125  0.081125  1
  O  O15  1  0.679033  0.679554  0.057226  1
  O  O16  1  0.082556  0.082219  0.670876  1
  O  O17  1  0.082556  0.670876  0.082219  1
  O  O18  1  0.679033  0.057226  0.679554  1
  O  O19  1  0.372175  0.374213  0.374213  1
  O  O20  1  0.627825  0.625787  0.625787  1
