# generated using pymatgen
data_CsKPr4(CuSe4)2
_symmetry_space_group_name_H-M   'P 1'
_cell_length_a   7.69609914
_cell_length_b   7.69609918
_cell_length_c   14.77922200
_cell_angle_alpha   90.00000000
_cell_angle_beta   90.00000000
_cell_angle_gamma   147.72199242
_symmetry_Int_Tables_number   1
_chemical_formula_structural   CsKPr4(CuSe4)2
_chemical_formula_sum   'Cs1 K1 Pr4 Cu2 Se8'
_cell_volume   467.47328827
_cell_formula_units_Z   1
loop_
 _symmetry_equiv_pos_site_id
 _symmetry_equiv_pos_as_xyz
  1  'x, y, z'
loop_
 _atom_site_type_symbol
 _atom_site_label
 _atom_site_symmetry_multiplicity
 _atom_site_fract_x
 _atom_site_fract_y
 _atom_site_fract_z
 _atom_site_occupancy
  Cs  Cs0  1  0.107312  0.892688  0.250000  1
  K  K1  1  0.891273  0.108727  0.750000  1
  Pr  Pr2  1  0.635743  0.364257  0.935191  1
  Pr  Pr3  1  0.366216  0.633784  0.439364  1
  Pr  Pr4  1  0.635743  0.364257  0.564809  1
  Pr  Pr5  1  0.366216  0.633784  0.060636  1
  Cu  Cu6  1  0.159980  0.840020  0.750000  1
  Cu  Cu7  1  0.837632  0.162368  0.250000  1
  Se  Se8  1  0.001172  0.998828  0.500517  1
  Se  Se9  1  0.001172  0.998828  0.999483  1
  Se  Se10  1  0.739406  0.260594  0.111047  1
  Se  Se11  1  0.264040  0.735960  0.882452  1
  Se  Se12  1  0.566586  0.433414  0.750000  1
  Se  Se13  1  0.739406  0.260594  0.388953  1
  Se  Se14  1  0.424061  0.575939  0.250000  1
  Se  Se15  1  0.264040  0.735960  0.617548  1
