# generated using pymatgen
data_Hf3AlGa2IrPt2
_symmetry_space_group_name_H-M   'P 1'
_cell_length_a   7.13796539
_cell_length_b   7.18204150
_cell_length_c   7.06262200
_cell_angle_alpha   90.00000000
_cell_angle_beta   90.00000000
_cell_angle_gamma   119.75922586
_symmetry_Int_Tables_number   1
_chemical_formula_structural   Hf3AlGa2IrPt2
_chemical_formula_sum   'Hf6 Al2 Ga4 Ir2 Pt4'
_cell_volume   314.31674840
_cell_formula_units_Z   2
loop_
 _symmetry_equiv_pos_site_id
 _symmetry_equiv_pos_as_xyz
  1  'x, y, z'
loop_
 _atom_site_type_symbol
 _atom_site_label
 _atom_site_symmetry_multiplicity
 _atom_site_fract_x
 _atom_site_fract_y
 _atom_site_fract_z
 _atom_site_occupancy
  Hf  Hf0  1  0.411942  0.387327  0.250000  1
  Hf  Hf1  1  0.594488  0.988659  0.750000  1
  Hf  Hf2  1  0.396999  0.408833  0.750000  1
  Hf  Hf3  1  0.012619  0.601945  0.750000  1
  Hf  Hf4  1  0.974654  0.588425  0.250000  1
  Hf  Hf5  1  0.616625  0.024709  0.250000  1
  Al  Al6  1  0.263291  0.998612  0.999371  1
  Al  Al7  1  0.263291  0.998612  0.500629  1
  Ga  Ga8  1  0.003433  0.270053  0.500903  1
  Ga  Ga9  1  0.003433  0.270053  0.999097  1
  Ga  Ga10  1  0.731794  0.731397  0.999015  1
  Ga  Ga11  1  0.731794  0.731397  0.500985  1
  Ir  Ir12  1  0.660879  0.328524  0.522187  1
  Ir  Ir13  1  0.660879  0.328524  0.977813  1
  Pt  Pt14  1  0.004737  0.999495  0.750000  1
  Pt  Pt15  1  0.332184  0.671600  0.031852  1
  Pt  Pt16  1  0.332184  0.671600  0.468148  1
  Pt  Pt17  1  0.004775  0.000232  0.250000  1
