# generated using pymatgen
data_Tb3CeCdCo
_symmetry_space_group_name_H-M   'P 1'
_cell_length_a   9.53476947
_cell_length_b   9.53476859
_cell_length_c   9.53477000
_cell_angle_alpha   60.00000206
_cell_angle_beta   60.00000509
_cell_angle_gamma   60.00000037
_symmetry_Int_Tables_number   1
_chemical_formula_structural   Tb3CeCdCo
_chemical_formula_sum   'Tb12 Ce4 Cd4 Co4'
_cell_volume   612.93666714
_cell_formula_units_Z   4
loop_
 _symmetry_equiv_pos_site_id
 _symmetry_equiv_pos_as_xyz
  1  'x, y, z'
loop_
 _atom_site_type_symbol
 _atom_site_label
 _atom_site_symmetry_multiplicity
 _atom_site_fract_x
 _atom_site_fract_y
 _atom_site_fract_z
 _atom_site_occupancy
  Tb  Tb0  1  0.561951  0.561951  0.938049  1
  Tb  Tb1  1  0.938049  0.561951  0.938049  1
  Tb  Tb2  1  0.561951  0.938049  0.938049  1
  Tb  Tb3  1  0.938049  0.938049  0.561951  1
  Tb  Tb4  1  0.561951  0.938049  0.561951  1
  Tb  Tb5  1  0.938049  0.561951  0.561951  1
  Tb  Tb6  1  0.188010  0.188010  0.811990  1
  Tb  Tb7  1  0.811990  0.188010  0.811990  1
  Tb  Tb8  1  0.188009  0.811991  0.811990  1
  Tb  Tb9  1  0.811990  0.811991  0.188010  1
  Tb  Tb10  1  0.188009  0.811990  0.188009  1
  Tb  Tb11  1  0.811990  0.188010  0.188010  1
  Ce  Ce12  1  0.343963  0.343963  0.968111  1
  Ce  Ce13  1  0.343963  0.968111  0.343963  1
  Ce  Ce14  1  0.968111  0.343963  0.343963  1
  Ce  Ce15  1  0.343963  0.343963  0.343963  1
  Cd  Cd16  1  0.580693  0.580693  0.257920  1
  Cd  Cd17  1  0.580693  0.257920  0.580693  1
  Cd  Cd18  1  0.257920  0.580693  0.580693  1
  Cd  Cd19  1  0.580693  0.580693  0.580693  1
  Co  Co20  1  0.146377  0.146377  0.560869  1
  Co  Co21  1  0.146377  0.560869  0.146377  1
  Co  Co22  1  0.560869  0.146377  0.146377  1
  Co  Co23  1  0.146377  0.146377  0.146377  1
