# generated using pymatgen
data_Tb6Dy2Ti9Si16Mo3
_symmetry_space_group_name_H-M   'P 1'
_cell_length_a   7.02223032
_cell_length_b   7.02206157
_cell_length_c   12.90954304
_cell_angle_alpha   89.98842978
_cell_angle_beta   90.02168983
_cell_angle_gamma   89.98328488
_symmetry_Int_Tables_number   1
_chemical_formula_structural   Tb6Dy2Ti9Si16Mo3
_chemical_formula_sum   'Tb6 Dy2 Ti9 Si16 Mo3'
_cell_volume   636.57637057
_cell_formula_units_Z   1
loop_
 _symmetry_equiv_pos_site_id
 _symmetry_equiv_pos_as_xyz
  1  'x, y, z'
loop_
 _atom_site_type_symbol
 _atom_site_label
 _atom_site_symmetry_multiplicity
 _atom_site_fract_x
 _atom_site_fract_y
 _atom_site_fract_z
 _atom_site_occupancy
  Tb  Tb0  1  0.997830  0.660226  0.033429  1
  Tb  Tb1  1  0.000583  0.340186  0.533106  1
  Tb  Tb2  1  0.660165  0.997792  0.966466  1
  Tb  Tb3  1  0.158624  0.501457  0.781801  1
  Tb  Tb4  1  0.840868  0.499596  0.283321  1
  Tb  Tb5  1  0.501398  0.158548  0.218202  1
  Dy  Dy6  1  0.499841  0.841063  0.716611  1
  Dy  Dy7  1  0.340408  0.000260  0.466918  1
  Ti  Ti8  1  0.346983  0.509432  0.374429  1
  Ti  Ti9  1  0.847235  0.990803  0.376454  1
  Ti  Ti10  1  0.008646  0.152016  0.124813  1
  Ti  Ti11  1  0.990816  0.847219  0.623578  1
  Ti  Ti12  1  0.509344  0.347035  0.625618  1
  Ti  Ti13  1  0.152088  0.008559  0.875119  1
  Ti  Ti14  1  0.326848  0.326806  0.999945  1
  Ti  Ti15  1  0.491546  0.653973  0.127471  1
  Ti  Ti16  1  0.653855  0.491561  0.872440  1
  Si  Si17  1  0.047271  0.709058  0.435031  1
  Si  Si18  1  0.951776  0.291565  0.933973  1
  Si  Si19  1  0.708425  0.046866  0.565057  1
  Si  Si20  1  0.209411  0.453417  0.184919  1
  Si  Si21  1  0.790742  0.547764  0.684590  1
  Si  Si22  1  0.453468  0.209112  0.814992  1
  Si  Si23  1  0.547414  0.791106  0.315546  1
  Si  Si24  1  0.291618  0.951782  0.065956  1
  Si  Si25  1  0.798510  0.870932  0.184946  1
  Si  Si26  1  0.299437  0.630070  0.565255  1
  Si  Si27  1  0.701932  0.370317  0.064983  1
  Si  Si28  1  0.629431  0.299001  0.434911  1
  Si  Si29  1  0.370346  0.702001  0.934856  1
  Si  Si30  1  0.129399  0.200741  0.315016  1
  Si  Si31  1  0.201202  0.128987  0.685084  1
  Si  Si32  1  0.870664  0.798583  0.815014  1
  Mo  Mo33  1  0.672894  0.673193  0.500089  1
  Mo  Mo34  1  0.825855  0.172948  0.749253  1
  Mo  Mo35  1  0.173125  0.826026  0.250806  1
