# generated using pymatgen
data_Hf5Zr(Ti2Sn3)2
_symmetry_space_group_name_H-M   'P 1'
_cell_length_a   8.30709791
_cell_length_b   8.30709779
_cell_length_c   5.55289400
_cell_angle_alpha   90.00000000
_cell_angle_beta   90.00000000
_cell_angle_gamma   120.12452869
_symmetry_Int_Tables_number   1
_chemical_formula_structural   Hf5Zr(Ti2Sn3)2
_chemical_formula_sum   'Hf5 Zr1 Ti4 Sn6'
_cell_volume   331.43802369
_cell_formula_units_Z   1
loop_
 _symmetry_equiv_pos_site_id
 _symmetry_equiv_pos_as_xyz
  1  'x, y, z'
loop_
 _atom_site_type_symbol
 _atom_site_label
 _atom_site_symmetry_multiplicity
 _atom_site_fract_x
 _atom_site_fract_y
 _atom_site_fract_z
 _atom_site_occupancy
  Hf  Hf0  1  0.239877  0.000209  0.750000  1
  Hf  Hf1  1  0.000209  0.239877  0.750000  1
  Hf  Hf2  1  0.237449  0.237449  0.250000  1
  Hf  Hf3  1  0.760893  0.001018  0.250000  1
  Hf  Hf4  1  0.001018  0.760893  0.250000  1
  Zr  Zr5  1  0.761623  0.761623  0.750000  1
  Ti  Ti6  1  0.666689  0.333255  0.000203  1
  Ti  Ti7  1  0.333255  0.666689  0.000203  1
  Ti  Ti8  1  0.333255  0.666689  0.499797  1
  Ti  Ti9  1  0.666689  0.333255  0.499797  1
  Sn  Sn10  1  0.399457  0.399457  0.750000  1
  Sn  Sn11  1  0.599131  0.000678  0.750000  1
  Sn  Sn12  1  0.000678  0.599131  0.750000  1
  Sn  Sn13  1  0.599255  0.599255  0.250000  1
  Sn  Sn14  1  0.400551  0.999969  0.250000  1
  Sn  Sn15  1  0.999969  0.400551  0.250000  1
