# generated using pymatgen
data_Dy5Ho5Si5Sn
_symmetry_space_group_name_H-M   'P 1'
_cell_length_a   8.50325623
_cell_length_b   8.52852972
_cell_length_c   6.37917500
_cell_angle_alpha   90.00000000
_cell_angle_beta   90.00000000
_cell_angle_gamma   119.87551367
_symmetry_Int_Tables_number   1
_chemical_formula_structural   Dy5Ho5Si5Sn
_chemical_formula_sum   'Dy5 Ho5 Si5 Sn1'
_cell_volume   401.14187245
_cell_formula_units_Z   1
loop_
 _symmetry_equiv_pos_site_id
 _symmetry_equiv_pos_as_xyz
  1  'x, y, z'
loop_
 _atom_site_type_symbol
 _atom_site_label
 _atom_site_symmetry_multiplicity
 _atom_site_fract_x
 _atom_site_fract_y
 _atom_site_fract_z
 _atom_site_occupancy
  Dy  Dy0  1  0.989579  0.748946  0.750000  1
  Dy  Dy1  1  0.998875  0.242729  0.250000  1
  Dy  Dy2  1  0.755970  0.757153  0.250000  1
  Dy  Dy3  1  0.765089  0.000052  0.750000  1
  Dy  Dy4  1  0.241380  0.000075  0.250000  1
  Ho  Ho5  1  0.240655  0.251248  0.750000  1
  Ho  Ho6  1  0.331504  0.657894  0.496961  1
  Ho  Ho7  1  0.673494  0.342008  0.003066  1
  Ho  Ho8  1  0.673494  0.342008  0.496934  1
  Ho  Ho9  1  0.331504  0.657894  0.003039  1
  Si  Si10  1  0.393830  0.392512  0.250000  1
  Si  Si11  1  0.001342  0.607541  0.250000  1
  Si  Si12  1  0.998888  0.394414  0.750000  1
  Si  Si13  1  0.604007  0.605323  0.750000  1
  Si  Si14  1  0.605376  0.000015  0.250000  1
  Sn  Sn15  1  0.395012  0.000186  0.750000  1
