# generated using pymatgen
data_Nd5B4Rh13Au2
_symmetry_space_group_name_H-M   'P 1'
_cell_length_a   4.27248700
_cell_length_b   4.27248700
_cell_length_c   21.27547600
_cell_angle_alpha   90.00000000
_cell_angle_beta   90.00000000
_cell_angle_gamma   90.00000000
_symmetry_Int_Tables_number   1
_chemical_formula_structural   Nd5B4Rh13Au2
_chemical_formula_sum   'Nd5 B4 Rh13 Au2'
_cell_volume   388.36562736
_cell_formula_units_Z   1
loop_
 _symmetry_equiv_pos_site_id
 _symmetry_equiv_pos_as_xyz
  1  'x, y, z'
loop_
 _atom_site_type_symbol
 _atom_site_label
 _atom_site_symmetry_multiplicity
 _atom_site_fract_x
 _atom_site_fract_y
 _atom_site_fract_z
 _atom_site_occupancy
  Nd  Nd0  1  0.000000  0.000000  0.894932  1
  Nd  Nd1  1  0.000000  0.000000  0.105068  1
  Nd  Nd2  1  0.000000  0.000000  0.300373  1
  Nd  Nd3  1  0.000000  0.000000  0.500000  1
  Nd  Nd4  1  0.000000  0.000000  0.699627  1
  B  B5  1  0.500000  0.500000  0.194517  1
  B  B6  1  0.500000  0.500000  0.398665  1
  B  B7  1  0.500000  0.500000  0.601335  1
  B  B8  1  0.500000  0.500000  0.805483  1
  Rh  Rh9  1  0.500000  0.500000  0.902328  1
  Rh  Rh10  1  0.500000  0.500000  0.097672  1
  Rh  Rh11  1  0.500000  0.500000  0.298511  1
  Rh  Rh12  1  0.500000  0.500000  0.500000  1
  Rh  Rh13  1  0.500000  0.500000  0.701489  1
  Rh  Rh14  1  0.500000  0.000000  0.200605  1
  Rh  Rh15  1  0.500000  0.000000  0.399925  1
  Rh  Rh16  1  0.500000  0.000000  0.600075  1
  Rh  Rh17  1  0.500000  0.000000  0.799395  1
  Rh  Rh18  1  0.000000  0.500000  0.200605  1
  Rh  Rh19  1  0.000000  0.500000  0.399925  1
  Rh  Rh20  1  0.000000  0.500000  0.600075  1
  Rh  Rh21  1  0.000000  0.500000  0.799395  1
  Au  Au22  1  0.500000  0.000000  0.000000  1
  Au  Au23  1  0.000000  0.500000  0.000000  1
