# generated using pymatgen
data_Li3Hf(B4Ru5)2
_symmetry_space_group_name_H-M   'P 1'
_cell_length_a   2.97979300
_cell_length_b   8.21934845
_cell_length_c   9.91334153
_cell_angle_alpha   89.26961424
_cell_angle_beta   90.00000000
_cell_angle_gamma   90.00000000
_symmetry_Int_Tables_number   1
_chemical_formula_structural   Li3Hf(B4Ru5)2
_chemical_formula_sum   'Li3 Hf1 B8 Ru10'
_cell_volume   242.77740696
_cell_formula_units_Z   1
loop_
 _symmetry_equiv_pos_site_id
 _symmetry_equiv_pos_as_xyz
  1  'x, y, z'
loop_
 _atom_site_type_symbol
 _atom_site_label
 _atom_site_symmetry_multiplicity
 _atom_site_fract_x
 _atom_site_fract_y
 _atom_site_fract_z
 _atom_site_occupancy
  Li  Li0  1  0.500000  0.855276  0.144906  1
  Li  Li1  1  0.500000  0.119784  0.767341  1
  Li  Li2  1  0.500000  0.621086  0.720115  1
  Hf  Hf3  1  0.500000  0.352783  0.328579  1
  B  B4  1  0.500000  0.949226  0.587100  1
  B  B5  1  0.500000  0.038060  0.405841  1
  B  B6  1  0.500000  0.860351  0.895607  1
  B  B7  1  0.500000  0.147682  0.094891  1
  B  B8  1  0.500000  0.656165  0.407388  1
  B  B9  1  0.500000  0.355394  0.619025  1
  B  B10  1  0.500000  0.462344  0.917805  1
  B  B11  1  0.500000  0.552750  0.097748  1
  Ru  Ru12  1  0.000000  0.664232  0.956125  1
  Ru  Ru13  1  0.000000  0.353278  0.060784  1
  Ru  Ru14  1  0.000000  0.849078  0.451460  1
  Ru  Ru15  1  0.000000  0.161568  0.543825  1
  Ru  Ru16  1  0.000000  0.038271  0.968674  1
  Ru  Ru17  1  0.000000  0.362565  0.781114  1
  Ru  Ru18  1  0.000000  0.617243  0.246860  1
  Ru  Ru19  1  0.000000  0.512743  0.519849  1
  Ru  Ru20  1  0.000000  0.875975  0.732869  1
  Ru  Ru21  1  0.000000  0.094147  0.252095  1
