# generated using pymatgen
data_Yb12Y7LuSn16
_symmetry_space_group_name_H-M   'P 1'
_cell_length_a   7.84236232
_cell_length_b   8.43013952
_cell_length_c   16.05764710
_cell_angle_alpha   90.01058954
_cell_angle_beta   90.02305120
_cell_angle_gamma   90.09233111
_symmetry_Int_Tables_number   1
_chemical_formula_structural   Yb12Y7LuSn16
_chemical_formula_sum   'Yb12 Y7 Lu1 Sn16'
_cell_volume   1061.60503074
_cell_formula_units_Z   1
loop_
 _symmetry_equiv_pos_site_id
 _symmetry_equiv_pos_as_xyz
  1  'x, y, z'
loop_
 _atom_site_type_symbol
 _atom_site_label
 _atom_site_symmetry_multiplicity
 _atom_site_fract_x
 _atom_site_fract_y
 _atom_site_fract_z
 _atom_site_occupancy
  Yb  Yb0  1  0.177439  0.334498  0.620745  1
  Yb  Yb1  1  0.502167  0.687121  0.593498  1
  Yb  Yb2  1  0.002628  0.813749  0.908738  1
  Yb  Yb3  1  0.494393  0.311768  0.092363  1
  Yb  Yb4  1  0.997630  0.188823  0.407155  1
  Yb  Yb5  1  0.495184  0.312062  0.407878  1
  Yb  Yb6  1  0.996366  0.187604  0.092525  1
  Yb  Yb7  1  0.502257  0.687221  0.907192  1
  Yb  Yb8  1  0.004191  0.812756  0.591714  1
  Yb  Yb9  1  0.334491  0.990167  0.749284  1
  Yb  Yb10  1  0.163940  0.487999  0.249507  1
  Yb  Yb11  1  0.665274  0.011119  0.250506  1
  Y  Y12  1  0.673313  0.164069  0.622512  1
  Y  Y13  1  0.174019  0.333514  0.878660  1
  Y  Y14  1  0.326352  0.833909  0.121754  1
  Y  Y15  1  0.827518  0.664045  0.377895  1
  Y  Y16  1  0.326054  0.834510  0.377630  1
  Y  Y17  1  0.826240  0.664786  0.121193  1
  Y  Y18  1  0.672804  0.163984  0.878735  1
  Lu  Lu19  1  0.839179  0.509075  0.748430  1
  Sn  Sn20  1  0.674432  0.962840  0.459543  1
  Sn  Sn21  1  0.170240  0.535708  0.040273  1
  Sn  Sn22  1  0.328624  0.035648  0.959422  1
  Sn  Sn23  1  0.825816  0.467325  0.543638  1
  Sn  Sn24  1  0.334971  0.034283  0.540634  1
  Sn  Sn25  1  0.828054  0.466953  0.955390  1
  Sn  Sn26  1  0.671087  0.963744  0.041071  1
  Sn  Sn27  1  0.168083  0.537186  0.457576  1
  Sn  Sn28  1  0.477729  0.383724  0.753393  1
  Sn  Sn29  1  0.968620  0.127084  0.750656  1
  Sn  Sn30  1  0.528725  0.626689  0.249511  1
  Sn  Sn31  1  0.028615  0.873156  0.248472  1
  Sn  Sn32  1  0.720528  0.864254  0.751386  1
  Sn  Sn33  1  0.210337  0.628798  0.752739  1
  Sn  Sn34  1  0.282434  0.127387  0.249273  1
  Sn  Sn35  1  0.780264  0.372444  0.249110  1
