# generated using pymatgen
data_Tm4LuOsPt2
_symmetry_space_group_name_H-M   'P 1'
_cell_length_a   10.90120000
_cell_length_b   10.90120000
_cell_length_c   6.27344600
_cell_angle_alpha   90.00000000
_cell_angle_beta   90.00000000
_cell_angle_gamma   90.00000000
_symmetry_Int_Tables_number   1
_chemical_formula_structural   Tm4LuOsPt2
_chemical_formula_sum   'Tm16 Lu4 Os4 Pt8'
_cell_volume   745.51224164
_cell_formula_units_Z   4
loop_
 _symmetry_equiv_pos_site_id
 _symmetry_equiv_pos_as_xyz
  1  'x, y, z'
loop_
 _atom_site_type_symbol
 _atom_site_label
 _atom_site_symmetry_multiplicity
 _atom_site_fract_x
 _atom_site_fract_y
 _atom_site_fract_z
 _atom_site_occupancy
  Tm  Tm0  1  0.297096  0.085085  0.372244  1
  Tm  Tm1  1  0.297096  0.914915  0.872244  1
  Tm  Tm2  1  0.702904  0.085085  0.872244  1
  Tm  Tm3  1  0.702904  0.914915  0.372244  1
  Tm  Tm4  1  0.585085  0.797096  0.872244  1
  Tm  Tm5  1  0.585085  0.202904  0.372244  1
  Tm  Tm6  1  0.414915  0.797096  0.372244  1
  Tm  Tm7  1  0.414915  0.202904  0.872244  1
  Tm  Tm8  1  0.202904  0.414915  0.627756  1
  Tm  Tm9  1  0.202904  0.585085  0.127756  1
  Tm  Tm10  1  0.797096  0.414915  0.127756  1
  Tm  Tm11  1  0.797096  0.585085  0.627756  1
  Tm  Tm12  1  0.914915  0.702904  0.127756  1
  Tm  Tm13  1  0.914915  0.297096  0.627756  1
  Tm  Tm14  1  0.085085  0.702904  0.627756  1
  Tm  Tm15  1  0.085085  0.297096  0.127756  1
  Lu  Lu16  1  0.000000  0.000000  0.500000  1
  Lu  Lu17  1  0.000000  0.000000  0.000000  1
  Lu  Lu18  1  0.500000  0.500000  0.000000  1
  Lu  Lu19  1  0.500000  0.500000  0.500000  1
  Os  Os20  1  0.500000  0.000000  0.124581  1
  Os  Os21  1  0.500000  0.000000  0.624581  1
  Os  Os22  1  0.000000  0.500000  0.875419  1
  Os  Os23  1  0.000000  0.500000  0.375419  1
  Pt  Pt24  1  0.848226  0.151774  0.250000  1
  Pt  Pt25  1  0.848226  0.848226  0.750000  1
  Pt  Pt26  1  0.151774  0.151774  0.750000  1
  Pt  Pt27  1  0.151774  0.848226  0.250000  1
  Pt  Pt28  1  0.651774  0.348226  0.750000  1
  Pt  Pt29  1  0.651774  0.651774  0.250000  1
  Pt  Pt30  1  0.348226  0.348226  0.250000  1
  Pt  Pt31  1  0.348226  0.651774  0.750000  1
