# generated using pymatgen
data_TbDy19(Cd3Co)2
_symmetry_space_group_name_H-M   'P 1'
_cell_length_a   9.58662484
_cell_length_b   9.58662557
_cell_length_c   9.76553645
_cell_angle_alpha   90.02243372
_cell_angle_beta   89.97757142
_cell_angle_gamma   120.02599369
_symmetry_Int_Tables_number   1
_chemical_formula_structural   TbDy19(Cd3Co)2
_chemical_formula_sum   'Tb1 Dy19 Cd6 Co2'
_cell_volume   777.04179016
_cell_formula_units_Z   1
loop_
 _symmetry_equiv_pos_site_id
 _symmetry_equiv_pos_as_xyz
  1  'x, y, z'
loop_
 _atom_site_type_symbol
 _atom_site_label
 _atom_site_symmetry_multiplicity
 _atom_site_fract_x
 _atom_site_fract_y
 _atom_site_fract_z
 _atom_site_occupancy
  Tb  Tb0  1  0.212288  0.787712  0.435559  1
  Dy  Dy1  1  0.000038  0.999962  0.500033  1
  Dy  Dy2  1  0.999881  0.000119  0.000112  1
  Dy  Dy3  1  0.542951  0.457049  0.250119  1
  Dy  Dy4  1  0.542945  0.085825  0.249895  1
  Dy  Dy5  1  0.914175  0.457055  0.249895  1
  Dy  Dy6  1  0.457176  0.542824  0.750016  1
  Dy  Dy7  1  0.457270  0.914266  0.750075  1
  Dy  Dy8  1  0.085734  0.542730  0.750075  1
  Dy  Dy9  1  0.211801  0.423164  0.436342  1
  Dy  Dy10  1  0.576836  0.788199  0.436342  1
  Dy  Dy11  1  0.788014  0.211986  0.563987  1
  Dy  Dy12  1  0.788214  0.576262  0.563988  1
  Dy  Dy13  1  0.423738  0.211786  0.563988  1
  Dy  Dy14  1  0.788184  0.211816  0.936076  1
  Dy  Dy15  1  0.788061  0.576085  0.936056  1
  Dy  Dy16  1  0.423915  0.211939  0.936056  1
  Dy  Dy17  1  0.211560  0.788440  0.063289  1
  Dy  Dy18  1  0.211924  0.424068  0.063971  1
  Dy  Dy19  1  0.575932  0.788076  0.063971  1
  Cd  Cd20  1  0.884747  0.115253  0.250137  1
  Cd  Cd21  1  0.884603  0.769537  0.249845  1
  Cd  Cd22  1  0.230463  0.115397  0.249845  1
  Cd  Cd23  1  0.115213  0.884787  0.750242  1
  Cd  Cd24  1  0.115198  0.230477  0.750088  1
  Cd  Cd25  1  0.769523  0.884802  0.750088  1
  Co  Co26  1  0.332971  0.667029  0.249932  1
  Co  Co27  1  0.666645  0.333355  0.749982  1
