# generated using pymatgen
data_Ac3La3Pr4C4I15
_symmetry_space_group_name_H-M   'P 1'
_cell_length_a   10.03889259
_cell_length_b   10.85421239
_cell_length_c   12.10772389
_cell_angle_alpha   93.92614279
_cell_angle_beta   114.48634556
_cell_angle_gamma   108.98313584
_symmetry_Int_Tables_number   1
_chemical_formula_structural   Ac3La3Pr4C4I15
_chemical_formula_sum   'Ac3 La3 Pr4 C4 I15'
_cell_volume   1103.21761038
_cell_formula_units_Z   1
loop_
 _symmetry_equiv_pos_site_id
 _symmetry_equiv_pos_as_xyz
  1  'x, y, z'
loop_
 _atom_site_type_symbol
 _atom_site_label
 _atom_site_symmetry_multiplicity
 _atom_site_fract_x
 _atom_site_fract_y
 _atom_site_fract_z
 _atom_site_occupancy
  Ac  Ac0  1  0.601002  0.535865  0.347616  1
  Ac  Ac1  1  0.335382  0.746969  0.163401  1
  Ac  Ac2  1  0.786586  0.893349  0.261255  1
  La  La3  1  0.701492  0.564937  0.041138  1
  La  La4  1  0.295529  0.431374  0.953209  1
  La  La5  1  0.652512  0.251684  0.834014  1
  Pr  Pr6  1  0.525887  0.185244  0.096484  1
  Pr  Pr7  1  0.226987  0.119942  0.744522  1
  Pr  Pr8  1  0.403688  0.459584  0.664405  1
  Pr  Pr9  1  0.471415  0.809970  0.899418  1
  C  C10  1  0.482703  0.301799  0.937148  1
  C  C11  1  0.518603  0.698963  0.063074  1
  C  C12  1  0.454291  0.363518  0.836794  1
  C  C13  1  0.548214  0.637756  0.164956  1
  I  I14  1  0.210517  0.910088  0.932008  1
  I  I15  1  0.111140  0.192431  0.474306  1
  I  I16  1  0.156425  0.556461  0.705712  1
  I  I17  1  0.402190  0.968266  0.652537  1
  I  I18  1  0.708320  0.731227  0.822112  1
  I  I19  1  0.283714  0.260477  0.170764  1
  I  I20  1  0.847910  0.438001  0.287748  1
  I  I21  1  0.901700  0.816977  0.538116  1
  I  I22  1  0.357277  0.628880  0.417269  1
  I  I23  1  0.056410  0.830757  0.217589  1
  I  I24  1  0.785294  0.092513  0.055595  1
  I  I25  1  0.636132  0.368520  0.591346  1
  I  I26  1  0.952998  0.168871  0.780444  1
  I  I27  1  0.593063  0.041142  0.351346  1
  I  I28  1  0.992621  0.494436  0.995670  1
