# generated using pymatgen
data_TbHo4In4CoPt
_symmetry_space_group_name_H-M   'P 1'
_cell_length_a   3.57724700
_cell_length_b   8.09160253
_cell_length_c   18.13678503
_cell_angle_alpha   89.97587362
_cell_angle_beta   90.00000000
_cell_angle_gamma   90.00000000
_symmetry_Int_Tables_number   1
_chemical_formula_structural   TbHo4In4CoPt
_chemical_formula_sum   'Tb2 Ho8 In8 Co2 Pt2'
_cell_volume   524.98118244
_cell_formula_units_Z   2
loop_
 _symmetry_equiv_pos_site_id
 _symmetry_equiv_pos_as_xyz
  1  'x, y, z'
loop_
 _atom_site_type_symbol
 _atom_site_label
 _atom_site_symmetry_multiplicity
 _atom_site_fract_x
 _atom_site_fract_y
 _atom_site_fract_z
 _atom_site_occupancy
  Tb  Tb0  1  0.000000  0.000000  0.000000  1
  Tb  Tb1  1  0.000000  0.500000  0.500000  1
  Ho  Ho2  1  0.000000  0.113283  0.409694  1
  Ho  Ho3  1  0.000000  0.886717  0.590306  1
  Ho  Ho4  1  0.000000  0.381692  0.913391  1
  Ho  Ho5  1  0.000000  0.618308  0.086609  1
  Ho  Ho6  1  0.000000  0.233138  0.223991  1
  Ho  Ho7  1  0.000000  0.766862  0.776009  1
  Ho  Ho8  1  0.000000  0.243756  0.719745  1
  Ho  Ho9  1  0.000000  0.756244  0.280255  1
  In  In10  1  0.500000  0.423074  0.350980  1
  In  In11  1  0.500000  0.576926  0.649020  1
  In  In12  1  0.500000  0.070771  0.847475  1
  In  In13  1  0.500000  0.929229  0.152525  1
  In  In14  1  0.500000  0.293162  0.067823  1
  In  In15  1  0.500000  0.706838  0.932177  1
  In  In16  1  0.500000  0.203293  0.569128  1
  In  In17  1  0.500000  0.796707  0.430872  1
  Co  Co18  1  0.500000  0.018093  0.305441  1
  Co  Co19  1  0.500000  0.981907  0.694559  1
  Pt  Pt20  1  0.500000  0.478954  0.802275  1
  Pt  Pt21  1  0.500000  0.521046  0.197725  1
