# generated using pymatgen
data_TbHo(IrO4)2
_symmetry_space_group_name_H-M   'P 1'
_cell_length_a   5.35562719
_cell_length_b   7.62638674
_cell_length_c   7.40781079
_cell_angle_alpha   80.84304512
_cell_angle_beta   90.64161803
_cell_angle_gamma   92.58929606
_symmetry_Int_Tables_number   1
_chemical_formula_structural   TbHo(IrO4)2
_chemical_formula_sum   'Tb2 Ho2 Ir4 O16'
_cell_volume   298.40194770
_cell_formula_units_Z   2
loop_
 _symmetry_equiv_pos_site_id
 _symmetry_equiv_pos_as_xyz
  1  'x, y, z'
loop_
 _atom_site_type_symbol
 _atom_site_label
 _atom_site_symmetry_multiplicity
 _atom_site_fract_x
 _atom_site_fract_y
 _atom_site_fract_z
 _atom_site_occupancy
  Tb  Tb0  1  0.265789  0.131417  0.611882  1
  Tb  Tb1  1  0.734211  0.868583  0.388118  1
  Ho  Ho2  1  0.203173  0.164023  0.106412  1
  Ho  Ho3  1  0.796827  0.835977  0.893588  1
  Ir  Ir4  1  0.236139  0.660399  0.202016  1
  Ir  Ir5  1  0.763861  0.339601  0.797984  1
  Ir  Ir6  1  0.719278  0.337934  0.300741  1
  Ir  Ir7  1  0.280722  0.662066  0.699259  1
  O  O8  1  0.083325  0.443971  0.689782  1
  O  O9  1  0.916676  0.556029  0.310218  1
  O  O10  1  0.613697  0.327988  0.554289  1
  O  O11  1  0.386303  0.672012  0.445711  1
  O  O12  1  0.865216  0.333791  0.055786  1
  O  O13  1  0.134784  0.666209  0.944214  1
  O  O14  1  0.400018  0.437007  0.195129  1
  O  O15  1  0.599982  0.562993  0.804871  1
  O  O16  1  0.042020  0.887595  0.169869  1
  O  O17  1  0.957980  0.112405  0.830131  1
  O  O18  1  0.500292  0.109291  0.321969  1
  O  O19  1  0.499708  0.890709  0.678031  1
  O  O20  1  0.462856  0.199326  0.878004  1
  O  O21  1  0.537144  0.800674  0.121996  1
  O  O22  1  0.986679  0.171438  0.380597  1
  O  O23  1  0.013321  0.828562  0.619403  1
