# generated using pymatgen
data_CaTm(Co3Si2)2
_symmetry_space_group_name_H-M   'P 1'
_cell_length_a   6.27170320
_cell_length_b   6.27170158
_cell_length_c   6.27170346
_cell_angle_alpha   130.35159569
_cell_angle_beta   113.85071369
_cell_angle_gamma   87.02896327
_symmetry_Int_Tables_number   1
_chemical_formula_structural   CaTm(Co3Si2)2
_chemical_formula_sum   'Ca1 Tm1 Co6 Si4'
_cell_volume   163.95788819
_cell_formula_units_Z   1
loop_
 _symmetry_equiv_pos_site_id
 _symmetry_equiv_pos_as_xyz
  1  'x, y, z'
loop_
 _atom_site_type_symbol
 _atom_site_label
 _atom_site_symmetry_multiplicity
 _atom_site_fract_x
 _atom_site_fract_y
 _atom_site_fract_z
 _atom_site_occupancy
  Ca  Ca0  1  0.750000  0.471607  0.721607  1
  Tm  Tm1  1  0.250000  0.536266  0.286266  1
  Co  Co2  1  0.002340  0.997844  0.500185  1
  Co  Co3  1  0.497660  0.997844  0.995504  1
  Co  Co4  1  0.720281  0.997105  0.720075  1
  Co  Co5  1  0.222970  0.499793  0.720075  1
  Co  Co6  1  0.277030  0.997105  0.276824  1
  Co  Co7  1  0.779719  0.499793  0.276824  1
  Si  Si8  1  0.079634  0.876376  0.796743  1
  Si  Si9  1  0.919273  0.123851  0.204578  1
  Si  Si10  1  0.580727  0.785306  0.204578  1
  Si  Si11  1  0.420366  0.217108  0.796743  1
