# generated using pymatgen
data_Th14CoTc3Ni2
_symmetry_space_group_name_H-M   'P 1'
_cell_length_a   9.88466903
_cell_length_b   9.87574852
_cell_length_c   6.29401454
_cell_angle_alpha   90.22482033
_cell_angle_beta   89.85410456
_cell_angle_gamma   119.50917341
_symmetry_Int_Tables_number   1
_chemical_formula_structural   Th14CoTc3Ni2
_chemical_formula_sum   'Th14 Co1 Tc3 Ni2'
_cell_volume   534.70454279
_cell_formula_units_Z   1
loop_
 _symmetry_equiv_pos_site_id
 _symmetry_equiv_pos_as_xyz
  1  'x, y, z'
loop_
 _atom_site_type_symbol
 _atom_site_label
 _atom_site_symmetry_multiplicity
 _atom_site_fract_x
 _atom_site_fract_y
 _atom_site_fract_z
 _atom_site_occupancy
  Th  Th0  1  0.333062  0.673051  0.037978  1
  Th  Th1  1  0.667102  0.330120  0.537010  1
  Th  Th2  1  0.124702  0.875773  0.248205  1
  Th  Th3  1  0.247566  0.120256  0.754170  1
  Th  Th4  1  0.877213  0.744261  0.753255  1
  Th  Th5  1  0.128128  0.255592  0.253697  1
  Th  Th6  1  0.749829  0.875103  0.254220  1
  Th  Th7  1  0.874871  0.121467  0.752284  1
  Th  Th8  1  0.538060  0.457534  0.045455  1
  Th  Th9  1  0.084185  0.548659  0.546957  1
  Th  Th10  1  0.450855  0.917424  0.543221  1
  Th  Th11  1  0.542762  0.083096  0.040175  1
  Th  Th12  1  0.918739  0.454698  0.045422  1
  Th  Th13  1  0.460788  0.541661  0.548819  1
  Co  Co14  1  0.189936  0.818154  0.793230  1
  Tc  Tc15  1  0.183366  0.371912  0.800937  1
  Tc  Tc16  1  0.817449  0.631052  0.298038  1
  Tc  Tc17  1  0.371209  0.179566  0.294844  1
  Ni  Ni18  1  0.813022  0.182062  0.306707  1
  Ni  Ni19  1  0.627158  0.818558  0.805374  1
