# generated using pymatgen
data_La8Dy12Si15Au
_symmetry_space_group_name_H-M   'P 1'
_cell_length_a   7.87803244
_cell_length_b   7.85525229
_cell_length_c   14.68311500
_cell_angle_alpha   89.92649160
_cell_angle_beta   89.65788292
_cell_angle_gamma   90.16007628
_symmetry_Int_Tables_number   1
_chemical_formula_structural   La8Dy12Si15Au
_chemical_formula_sum   'La8 Dy12 Si15 Au1'
_cell_volume   908.62838387
_cell_formula_units_Z   1
loop_
 _symmetry_equiv_pos_site_id
 _symmetry_equiv_pos_as_xyz
  1  'x, y, z'
loop_
 _atom_site_type_symbol
 _atom_site_label
 _atom_site_symmetry_multiplicity
 _atom_site_fract_x
 _atom_site_fract_y
 _atom_site_fract_z
 _atom_site_occupancy
  La  La0  1  0.990885  0.634175  0.044412  1
  La  La1  1  0.012547  0.358133  0.543241  1
  La  La2  1  0.636303  0.988555  0.955761  1
  La  La3  1  0.138868  0.510985  0.793015  1
  La  La4  1  0.855459  0.484424  0.291043  1
  La  La5  1  0.507518  0.136114  0.204396  1
  La  La6  1  0.493206  0.863798  0.706227  1
  La  La7  1  0.368378  0.014419  0.458265  1
  Dy  Dy8  1  0.368184  0.488946  0.375921  1
  Dy  Dy9  1  0.857520  0.016294  0.370618  1
  Dy  Dy10  1  0.989527  0.136524  0.124737  1
  Dy  Dy11  1  0.015841  0.865766  0.626408  1
  Dy  Dy12  1  0.638084  0.511571  0.875248  1
  Dy  Dy13  1  0.493064  0.362149  0.626184  1
  Dy  Dy14  1  0.508537  0.633900  0.123647  1
  Dy  Dy15  1  0.134346  0.989611  0.875738  1
  Dy  Dy16  1  0.687276  0.691483  0.499804  1
  Dy  Dy17  1  0.815957  0.184756  0.749616  1
  Dy  Dy18  1  0.177225  0.810125  0.251016  1
  Dy  Dy19  1  0.312626  0.316240  0.999292  1
  Si  Si20  1  0.931133  0.286302  0.938187  1
  Si  Si21  1  0.713667  0.068506  0.562584  1
  Si  Si22  1  0.213029  0.430431  0.188840  1
  Si  Si23  1  0.788112  0.569287  0.688294  1
  Si  Si24  1  0.431647  0.213493  0.812593  1
  Si  Si25  1  0.565953  0.787145  0.309704  1
  Si  Si26  1  0.287050  0.931007  0.062099  1
  Si  Si27  1  0.843867  0.799572  0.806051  1
  Si  Si28  1  0.156954  0.201378  0.306953  1
  Si  Si29  1  0.793607  0.843544  0.191651  1
  Si  Si30  1  0.304701  0.653122  0.560506  1
  Si  Si31  1  0.700220  0.341546  0.054921  1
  Si  Si32  1  0.658090  0.300947  0.445561  1
  Si  Si33  1  0.342552  0.700590  0.944520  1
  Si  Si34  1  0.202596  0.158017  0.695700  1
  Au  Au35  1  0.065472  0.717145  0.437247  1
