# generated using pymatgen
data_Hf5ScNb4GaGe5
_symmetry_space_group_name_H-M   'P 1'
_cell_length_a   7.91777707
_cell_length_b   7.93354828
_cell_length_c   5.44136400
_cell_angle_alpha   90.00000000
_cell_angle_beta   90.00000000
_cell_angle_gamma   119.91916010
_symmetry_Int_Tables_number   1
_chemical_formula_structural   Hf5ScNb4GaGe5
_chemical_formula_sum   'Hf5 Sc1 Nb4 Ga1 Ge5'
_cell_volume   296.25272103
_cell_formula_units_Z   1
loop_
 _symmetry_equiv_pos_site_id
 _symmetry_equiv_pos_as_xyz
  1  'x, y, z'
loop_
 _atom_site_type_symbol
 _atom_site_label
 _atom_site_symmetry_multiplicity
 _atom_site_fract_x
 _atom_site_fract_y
 _atom_site_fract_z
 _atom_site_occupancy
  Hf  Hf0  1  0.746853  0.999967  0.750000  1
  Hf  Hf1  1  0.999483  0.254026  0.250000  1
  Hf  Hf2  1  0.254222  0.253488  0.750000  1
  Hf  Hf3  1  0.250943  0.000133  0.250000  1
  Hf  Hf4  1  0.000728  0.746339  0.750000  1
  Sc  Sc5  1  0.745552  0.746215  0.250000  1
  Nb  Nb6  1  0.667869  0.335075  0.000152  1
  Nb  Nb7  1  0.667869  0.335075  0.499848  1
  Nb  Nb8  1  0.332668  0.664706  0.499835  1
  Nb  Nb9  1  0.332668  0.664706  0.000165  1
  Ga  Ga10  1  0.394004  0.000063  0.750000  1
  Ge  Ge11  1  0.605556  0.999749  0.250000  1
  Ge  Ge12  1  0.609292  0.609249  0.750000  1
  Ge  Ge13  1  0.000118  0.390974  0.750000  1
  Ge  Ge14  1  0.000757  0.609788  0.250000  1
  Ge  Ge15  1  0.391420  0.390444  0.250000  1
