# generated using pymatgen
data_TbYBe25Ni
_symmetry_space_group_name_H-M   'P 1'
_cell_length_a   7.24541715
_cell_length_b   7.26277034
_cell_length_c   7.22650100
_cell_angle_alpha   60.00747362
_cell_angle_beta   59.87672437
_cell_angle_gamma   59.74589420
_symmetry_Int_Tables_number   1
_chemical_formula_structural   TbYBe25Ni
_chemical_formula_sum   'Tb1 Y1 Be25 Ni1'
_cell_volume   268.13745757
_cell_formula_units_Z   1
loop_
 _symmetry_equiv_pos_site_id
 _symmetry_equiv_pos_as_xyz
  1  'x, y, z'
loop_
 _atom_site_type_symbol
 _atom_site_label
 _atom_site_symmetry_multiplicity
 _atom_site_fract_x
 _atom_site_fract_y
 _atom_site_fract_z
 _atom_site_occupancy
  Tb  Tb0  1  0.249643  0.251793  0.250480  1
  Y  Y1  1  0.749508  0.751942  0.750327  1
  Be  Be2  1  0.501017  0.500585  0.498982  1
  Be  Be3  1  0.999584  0.001716  0.000408  1
  Be  Be4  1  0.204729  0.439336  0.795260  1
  Be  Be5  1  0.565563  0.789990  0.434451  1
  Be  Be6  1  0.435140  0.207380  0.564873  1
  Be  Be7  1  0.290585  0.935371  0.709416  1
  Be  Be8  1  0.708724  0.064299  0.291282  1
  Be  Be9  1  0.934905  0.289166  0.065091  1
  Be  Be10  1  0.066287  0.713628  0.933713  1
  Be  Be11  1  0.207509  0.794559  0.561639  1
  Be  Be12  1  0.791871  0.206013  0.438477  1
  Be  Be13  1  0.438363  0.563704  0.792497  1
  Be  Be14  1  0.561535  0.436373  0.208124  1
  Be  Be15  1  0.711052  0.286100  0.935732  1
  Be  Be16  1  0.287958  0.711609  0.064489  1
  Be  Be17  1  0.064262  0.932893  0.288954  1
  Be  Be18  1  0.935513  0.064053  0.712046  1
  Be  Be19  1  0.561476  0.209328  0.791716  1
  Be  Be20  1  0.436216  0.790568  0.208818  1
  Be  Be21  1  0.791171  0.435609  0.563785  1
  Be  Be22  1  0.208286  0.562534  0.438525  1
  Be  Be23  1  0.936964  0.710802  0.289148  1
  Be  Be24  1  0.064808  0.288981  0.710145  1
  Be  Be25  1  0.289869  0.063935  0.935177  1
  Be  Be26  1  0.710864  0.936905  0.063026  1
  Ni  Ni27  1  0.796598  0.560825  0.203417  1
