# generated using pymatgen
data_Pr6CoSnI6
_symmetry_space_group_name_H-M   'P 1'
_cell_length_a   10.87246288
_cell_length_b   10.87246369
_cell_length_c   11.22187393
_cell_angle_alpha   109.75954093
_cell_angle_beta   109.75953825
_cell_angle_gamma   107.58519537
_symmetry_Int_Tables_number   1
_chemical_formula_structural   Pr6CoSnI6
_chemical_formula_sum   'Pr12 Co2 Sn2 I12'
_cell_volume   1036.97346090
_cell_formula_units_Z   2
loop_
 _symmetry_equiv_pos_site_id
 _symmetry_equiv_pos_as_xyz
  1  'x, y, z'
loop_
 _atom_site_type_symbol
 _atom_site_label
 _atom_site_symmetry_multiplicity
 _atom_site_fract_x
 _atom_site_fract_y
 _atom_site_fract_z
 _atom_site_occupancy
  Pr  Pr0  1  0.471720  0.468388  0.241048  1
  Pr  Pr1  1  0.727342  0.230673  0.258952  1
  Pr  Pr2  1  0.713596  0.009009  0.461677  1
  Pr  Pr3  1  0.248081  0.452668  0.461677  1
  Pr  Pr4  1  0.269327  0.772658  0.241048  1
  Pr  Pr5  1  0.047332  0.251919  0.038323  1
  Pr  Pr6  1  0.031612  0.028280  0.258952  1
  Pr  Pr7  1  0.490991  0.786404  0.038323  1
  Pr  Pr8  1  0.475196  0.225196  0.450392  1
  Pr  Pr9  1  0.007514  0.492486  0.750000  1
  Pr  Pr10  1  0.274804  0.024804  0.049608  1
  Pr  Pr11  1  0.242486  0.257514  0.750000  1
  Co  Co12  1  0.254825  0.245175  0.250000  1
  Co  Co13  1  0.495175  0.004825  0.250000  1
  Sn  Sn14  1  0.998256  0.248256  0.496513  1
  Sn  Sn15  1  0.251744  0.501744  0.003487  1
  I  I16  1  0.248535  0.751832  0.744670  1
  I  I17  1  0.507163  0.503865  0.755330  1
  I  I18  1  0.979228  0.739599  0.987238  1
  I  I19  1  0.748168  0.251465  0.755330  1
  I  I20  1  0.996135  0.992837  0.744670  1
  I  I21  1  0.252361  0.991991  0.512762  1
  I  I22  1  0.760401  0.520772  0.512762  1
  I  I23  1  0.508009  0.247639  0.987238  1
  I  I24  1  0.752234  0.747766  0.250000  1
  I  I25  1  0.745769  0.995769  0.991539  1
  I  I26  1  0.997766  0.502234  0.250000  1
  I  I27  1  0.504231  0.754231  0.508461  1
