# generated using pymatgen
data_Er16Zr(ScIr4)3
_symmetry_space_group_name_H-M   'P 1'
_cell_length_a   10.71627500
_cell_length_b   10.71627500
_cell_length_c   6.23264600
_cell_angle_alpha   90.00000000
_cell_angle_beta   90.00000000
_cell_angle_gamma   90.00000000
_symmetry_Int_Tables_number   1
_chemical_formula_structural   Er16Zr(ScIr4)3
_chemical_formula_sum   'Er16 Zr1 Sc3 Ir12'
_cell_volume   715.74802853
_cell_formula_units_Z   1
loop_
 _symmetry_equiv_pos_site_id
 _symmetry_equiv_pos_as_xyz
  1  'x, y, z'
loop_
 _atom_site_type_symbol
 _atom_site_label
 _atom_site_symmetry_multiplicity
 _atom_site_fract_x
 _atom_site_fract_y
 _atom_site_fract_z
 _atom_site_occupancy
  Er  Er0  1  0.289444  0.086435  0.376826  1
  Er  Er1  1  0.288748  0.914083  0.876313  1
  Er  Er2  1  0.711252  0.085917  0.876313  1
  Er  Er3  1  0.710556  0.913565  0.376826  1
  Er  Er4  1  0.585947  0.788706  0.876799  1
  Er  Er5  1  0.586176  0.211532  0.376908  1
  Er  Er6  1  0.413824  0.788468  0.376908  1
  Er  Er7  1  0.414053  0.211294  0.876799  1
  Er  Er8  1  0.211532  0.413824  0.623092  1
  Er  Er9  1  0.211294  0.585947  0.123201  1
  Er  Er10  1  0.788706  0.414053  0.123201  1
  Er  Er11  1  0.788468  0.586176  0.623092  1
  Er  Er12  1  0.914083  0.711252  0.123687  1
  Er  Er13  1  0.913565  0.289444  0.623174  1
  Er  Er14  1  0.086435  0.710556  0.623174  1
  Er  Er15  1  0.085917  0.288748  0.123687  1
  Zr  Zr16  1  0.000000  0.000000  0.500000  1
  Sc  Sc17  1  0.000000  0.000000  0.000000  1
  Sc  Sc18  1  0.500000  0.500000  0.000000  1
  Sc  Sc19  1  0.500000  0.500000  0.500000  1
  Ir  Ir20  1  0.852271  0.147462  0.251987  1
  Ir  Ir21  1  0.852538  0.852271  0.748013  1
  Ir  Ir22  1  0.147462  0.147729  0.748013  1
  Ir  Ir23  1  0.147729  0.852538  0.251987  1
  Ir  Ir24  1  0.648275  0.351550  0.750387  1
  Ir  Ir25  1  0.648450  0.648275  0.249613  1
  Ir  Ir26  1  0.351550  0.351725  0.249613  1
  Ir  Ir27  1  0.351725  0.648450  0.750387  1
  Ir  Ir28  1  0.500000  0.000000  0.122455  1
  Ir  Ir29  1  0.500000  0.000000  0.622740  1
  Ir  Ir30  1  0.000000  0.500000  0.877545  1
  Ir  Ir31  1  0.000000  0.500000  0.377260  1
