# generated using pymatgen
data_Lu2PaCo2
_symmetry_space_group_name_H-M   'P 1'
_cell_length_a   3.56625145
_cell_length_b   6.03336192
_cell_length_c   5.85021658
_cell_angle_alpha   121.04108591
_cell_angle_beta   107.74591421
_cell_angle_gamma   89.99999530
_symmetry_Int_Tables_number   1
_chemical_formula_structural   Lu2PaCo2
_chemical_formula_sum   'Lu2 Pa1 Co2'
_cell_volume   100.79536852
_cell_formula_units_Z   1
loop_
 _symmetry_equiv_pos_site_id
 _symmetry_equiv_pos_as_xyz
  1  'x, y, z'
loop_
 _atom_site_type_symbol
 _atom_site_label
 _atom_site_symmetry_multiplicity
 _atom_site_fract_x
 _atom_site_fract_y
 _atom_site_fract_z
 _atom_site_occupancy
  Lu  Lu0  1  0.807776  0.307776  0.615553  1
  Lu  Lu1  1  0.192224  0.692224  0.384447  1
  Pa  Pa2  1  0.000000  0.000000  0.000000  1
  Co  Co3  1  0.500000  0.286039  0.000000  1
  Co  Co4  1  0.500000  0.713961  0.000000  1
