# generated using pymatgen
data_Dy3Zn4Ga5Ni6
_symmetry_space_group_name_H-M   'P 1'
_cell_length_a   8.98548597
_cell_length_b   8.88571259
_cell_length_c   4.07950300
_cell_angle_alpha   90.00000000
_cell_angle_beta   90.00000000
_cell_angle_gamma   119.63336042
_symmetry_Int_Tables_number   1
_chemical_formula_structural   Dy3Zn4Ga5Ni6
_chemical_formula_sum   'Dy3 Zn4 Ga5 Ni6'
_cell_volume   283.11598861
_cell_formula_units_Z   1
loop_
 _symmetry_equiv_pos_site_id
 _symmetry_equiv_pos_as_xyz
  1  'x, y, z'
loop_
 _atom_site_type_symbol
 _atom_site_label
 _atom_site_symmetry_multiplicity
 _atom_site_fract_x
 _atom_site_fract_y
 _atom_site_fract_z
 _atom_site_occupancy
  Dy  Dy0  1  0.331174  0.665587  0.000000  1
  Dy  Dy1  1  0.664229  0.332114  0.000000  1
  Dy  Dy2  1  0.005482  0.002741  0.500000  1
  Zn  Zn3  1  0.289550  0.999326  0.000000  1
  Zn  Zn4  1  0.289550  0.290224  0.000000  1
  Zn  Zn5  1  0.001713  0.707800  0.000000  1
  Zn  Zn6  1  0.001713  0.293913  0.000000  1
  Ga  Ga7  1  0.709987  0.707453  0.000000  1
  Ga  Ga8  1  0.709987  0.002534  0.000000  1
  Ga  Ga9  1  0.497601  0.998063  0.500000  1
  Ga  Ga10  1  0.497601  0.499538  0.500000  1
  Ga  Ga11  1  0.996403  0.498201  0.500000  1
  Ni  Ni12  1  0.185288  0.372059  0.500000  1
  Ni  Ni13  1  0.814083  0.182111  0.500000  1
  Ni  Ni14  1  0.371850  0.185925  0.500000  1
  Ni  Ni15  1  0.634421  0.817210  0.500000  1
  Ni  Ni16  1  0.185288  0.813229  0.500000  1
  Ni  Ni17  1  0.814083  0.631972  0.500000  1
