# generated using pymatgen
data_Sm8Nb12Si15Ge
_symmetry_space_group_name_H-M   'P 1'
_cell_length_a   6.95717468
_cell_length_b   7.16864054
_cell_length_c   13.55875213
_cell_angle_alpha   90.03712639
_cell_angle_beta   89.93314795
_cell_angle_gamma   90.02812251
_symmetry_Int_Tables_number   1
_chemical_formula_structural   Sm8Nb12Si15Ge
_chemical_formula_sum   'Sm8 Nb12 Si15 Ge1'
_cell_volume   676.22152986
_cell_formula_units_Z   1
loop_
 _symmetry_equiv_pos_site_id
 _symmetry_equiv_pos_as_xyz
  1  'x, y, z'
loop_
 _atom_site_type_symbol
 _atom_site_label
 _atom_site_symmetry_multiplicity
 _atom_site_fract_x
 _atom_site_fract_y
 _atom_site_fract_z
 _atom_site_occupancy
  Sm  Sm0  1  0.504312  0.330119  0.096062  1
  Sm  Sm1  1  0.003419  0.169698  0.403558  1
  Sm  Sm2  1  0.498502  0.671707  0.596759  1
  Sm  Sm3  1  0.995533  0.829936  0.904400  1
  Sm  Sm4  1  0.495522  0.669829  0.904256  1
  Sm  Sm5  1  0.995658  0.830398  0.596284  1
  Sm  Sm6  1  0.504644  0.328876  0.403149  1
  Sm  Sm7  1  0.004253  0.170349  0.095812  1
  Nb  Nb8  1  0.663493  0.010540  0.750182  1
  Nb  Nb9  1  0.163487  0.488549  0.751935  1
  Nb  Nb10  1  0.336154  0.989498  0.249750  1
  Nb  Nb11  1  0.836457  0.510954  0.249815  1
  Nb  Nb12  1  0.835855  0.323953  0.626364  1
  Nb  Nb13  1  0.337579  0.175387  0.874366  1
  Nb  Nb14  1  0.162230  0.675630  0.125686  1
  Nb  Nb15  1  0.661886  0.824997  0.373719  1
  Nb  Nb16  1  0.160861  0.677895  0.372574  1
  Nb  Nb17  1  0.661536  0.824335  0.125665  1
  Nb  Nb18  1  0.837717  0.324314  0.874352  1
  Nb  Nb19  1  0.340418  0.171925  0.627092  1
  Si  Si20  1  0.797470  0.619185  0.750276  1
  Si  Si21  1  0.296317  0.879552  0.750643  1
  Si  Si22  1  0.202992  0.380796  0.249686  1
  Si  Si23  1  0.703182  0.119406  0.249564  1
  Si  Si24  1  0.542513  0.372579  0.750405  1
  Si  Si25  1  0.042490  0.127453  0.750027  1
  Si  Si26  1  0.457157  0.627531  0.249845  1
  Si  Si27  1  0.956583  0.873168  0.249073  1
  Si  Si28  1  0.660635  0.039470  0.541130  1
  Si  Si29  1  0.159682  0.461050  0.958530  1
  Si  Si30  1  0.339868  0.961292  0.041517  1
  Si  Si31  1  0.836304  0.539952  0.457525  1
  Si  Si32  1  0.339704  0.960573  0.458607  1
  Si  Si33  1  0.840220  0.539029  0.041716  1
  Si  Si34  1  0.659678  0.039011  0.958499  1
  Ge  Ge35  1  0.165696  0.461067  0.541178  1
