# generated using pymatgen
data_LiEr3Ag2Sn3
_symmetry_space_group_name_H-M   'P 1'
_cell_length_a   7.31772200
_cell_length_b   7.31772421
_cell_length_c   4.53947200
_cell_angle_alpha   90.00000000
_cell_angle_beta   90.00000000
_cell_angle_gamma   120.08960406
_symmetry_Int_Tables_number   1
_chemical_formula_structural   LiEr3Ag2Sn3
_chemical_formula_sum   'Li1 Er3 Ag2 Sn3'
_cell_volume   210.32702585
_cell_formula_units_Z   1
loop_
 _symmetry_equiv_pos_site_id
 _symmetry_equiv_pos_as_xyz
  1  'x, y, z'
loop_
 _atom_site_type_symbol
 _atom_site_label
 _atom_site_symmetry_multiplicity
 _atom_site_fract_x
 _atom_site_fract_y
 _atom_site_fract_z
 _atom_site_occupancy
  Li  Li0  1  0.231154  0.231154  0.500000  1
  Er  Er1  1  0.998042  0.436044  0.000000  1
  Er  Er2  1  0.573920  0.573920  0.000000  1
  Er  Er3  1  0.436044  0.998042  0.000000  1
  Ag  Ag4  1  0.758313  0.001397  0.500000  1
  Ag  Ag5  1  0.001397  0.758313  0.500000  1
  Sn  Sn6  1  0.332351  0.657633  0.500000  1
  Sn  Sn7  1  0.011145  0.011145  0.000000  1
  Sn  Sn8  1  0.657633  0.332351  0.500000  1
