# generated using pymatgen
data_HoScBeB3Ru5
_symmetry_space_group_name_H-M   'P 1'
_cell_length_a   3.06395500
_cell_length_b   8.64739877
_cell_length_c   10.23405887
_cell_angle_alpha   90.63483086
_cell_angle_beta   90.00000000
_cell_angle_gamma   90.00000000
_symmetry_Int_Tables_number   1
_chemical_formula_structural   HoScBeB3Ru5
_chemical_formula_sum   'Ho2 Sc2 Be2 B6 Ru10'
_cell_volume   271.13720933
_cell_formula_units_Z   2
loop_
 _symmetry_equiv_pos_site_id
 _symmetry_equiv_pos_as_xyz
  1  'x, y, z'
loop_
 _atom_site_type_symbol
 _atom_site_label
 _atom_site_symmetry_multiplicity
 _atom_site_fract_x
 _atom_site_fract_y
 _atom_site_fract_z
 _atom_site_occupancy
  Ho  Ho0  1  0.500000  0.840804  0.184191  1
  Ho  Ho1  1  0.500000  0.159196  0.815809  1
  Sc  Sc2  1  0.500000  0.655895  0.678167  1
  Sc  Sc3  1  0.500000  0.344105  0.321833  1
  Be  Be4  1  0.500000  0.960532  0.592955  1
  Be  Be5  1  0.500000  0.039468  0.407045  1
  B  B6  1  0.500000  0.849791  0.897475  1
  B  B7  1  0.500000  0.150209  0.102525  1
  B  B8  1  0.500000  0.651000  0.404620  1
  B  B9  1  0.500000  0.349000  0.595380  1
  B  B10  1  0.500000  0.467349  0.910025  1
  B  B11  1  0.500000  0.532651  0.089975  1
  Ru  Ru12  1  0.000000  0.656314  0.957159  1
  Ru  Ru13  1  0.000000  0.343686  0.042841  1
  Ru  Ru14  1  0.000000  0.830881  0.450590  1
  Ru  Ru15  1  0.000000  0.169119  0.549410  1
  Ru  Ru16  1  0.000000  0.000000  0.000000  1
  Ru  Ru17  1  0.000000  0.414125  0.759644  1
  Ru  Ru18  1  0.000000  0.585875  0.240356  1
  Ru  Ru19  1  0.000000  0.500000  0.500000  1
  Ru  Ru20  1  0.000000  0.889986  0.747264  1
  Ru  Ru21  1  0.000000  0.110014  0.252736  1
