# generated using pymatgen
data_Hf6PI15
_symmetry_space_group_name_H-M   'P 1'
_cell_length_a   9.81641600
_cell_length_b   9.81641575
_cell_length_c   9.81641600
_cell_angle_alpha   109.47121702
_cell_angle_beta   109.47121650
_cell_angle_gamma   109.47122529
_symmetry_Int_Tables_number   1
_chemical_formula_structural   Hf6PI15
_chemical_formula_sum   'Hf6 P1 I15'
_cell_volume   728.17703623
_cell_formula_units_Z   1
loop_
 _symmetry_equiv_pos_site_id
 _symmetry_equiv_pos_as_xyz
  1  'x, y, z'
loop_
 _atom_site_type_symbol
 _atom_site_label
 _atom_site_symmetry_multiplicity
 _atom_site_fract_x
 _atom_site_fract_y
 _atom_site_fract_z
 _atom_site_occupancy
  Hf  Hf0  1  0.218261  0.000000  0.218261  1
  Hf  Hf1  1  0.218261  0.218261  0.000000  1
  Hf  Hf2  1  0.781739  0.000000  0.781739  1
  Hf  Hf3  1  0.000000  0.218261  0.218261  1
  Hf  Hf4  1  0.000000  0.781739  0.781739  1
  Hf  Hf5  1  0.781739  0.781739  0.000000  1
  P  P6  1  0.000000  0.000000  0.000000  1
  I  I7  1  0.000000  0.750103  0.249897  1
  I  I8  1  0.249897  0.750103  0.000000  1
  I  I9  1  0.500205  0.750103  0.750103  1
  I  I10  1  0.000000  0.249897  0.750103  1
  I  I11  1  0.750103  0.000000  0.249897  1
  I  I12  1  0.249897  0.499795  0.249897  1
  I  I13  1  0.750103  0.249897  0.000000  1
  I  I14  1  0.500000  0.500000  0.000000  1
  I  I15  1  0.249897  0.249897  0.499795  1
  I  I16  1  0.750103  0.500205  0.750103  1
  I  I17  1  0.750103  0.750103  0.500205  1
  I  I18  1  0.499795  0.249897  0.249897  1
  I  I19  1  0.249897  0.000000  0.750103  1
  I  I20  1  0.000000  0.500000  0.500000  1
  I  I21  1  0.500000  0.000000  0.500000  1
