# generated using pymatgen
data_Ca2TbEr5(B6Ru)4
_symmetry_space_group_name_H-M   'P 1'
_cell_length_a   3.64218500
_cell_length_b   9.12989715
_cell_length_c   11.53160900
_cell_angle_alpha   89.80830477
_cell_angle_beta   90.00000000
_cell_angle_gamma   90.00000000
_symmetry_Int_Tables_number   1
_chemical_formula_structural   Ca2TbEr5(B6Ru)4
_chemical_formula_sum   'Ca2 Tb1 Er5 B24 Ru4'
_cell_volume   383.45584694
_cell_formula_units_Z   1
loop_
 _symmetry_equiv_pos_site_id
 _symmetry_equiv_pos_as_xyz
  1  'x, y, z'
loop_
 _atom_site_type_symbol
 _atom_site_label
 _atom_site_symmetry_multiplicity
 _atom_site_fract_x
 _atom_site_fract_y
 _atom_site_fract_z
 _atom_site_occupancy
  Ca  Ca0  1  0.000000  0.324073  0.415090  1
  Ca  Ca1  1  0.000000  0.675906  0.584981  1
  Tb  Tb2  1  0.000000  0.822519  0.085976  1
  Er  Er3  1  0.000000  0.177662  0.913947  1
  Er  Er4  1  0.000000  0.942021  0.369496  1
  Er  Er5  1  0.000000  0.058118  0.630595  1
  Er  Er6  1  0.000000  0.442482  0.130607  1
  Er  Er7  1  0.000000  0.557144  0.869258  1
  B  B8  1  0.500000  0.554508  0.431886  1
  B  B9  1  0.500000  0.445352  0.568246  1
  B  B10  1  0.500000  0.054327  0.066399  1
  B  B11  1  0.500000  0.946531  0.933099  1
  B  B12  1  0.500000  0.748562  0.417088  1
  B  B13  1  0.500000  0.251442  0.583083  1
  B  B14  1  0.500000  0.248573  0.080640  1
  B  B15  1  0.500000  0.751480  0.918598  1
  B  B16  1  0.500000  0.791354  0.264399  1
  B  B17  1  0.500000  0.208314  0.736182  1
  B  B18  1  0.500000  0.289974  0.233595  1
  B  B19  1  0.500000  0.710078  0.766241  1
  B  B20  1  0.500000  0.631146  0.184813  1
  B  B21  1  0.500000  0.368294  0.815590  1
  B  B22  1  0.500000  0.130287  0.313450  1
  B  B23  1  0.500000  0.869922  0.686557  1
  B  B24  1  0.500000  0.983580  0.211395  1
  B  B25  1  0.500000  0.017274  0.788800  1
  B  B26  1  0.500000  0.484166  0.287485  1
  B  B27  1  0.500000  0.515600  0.712569  1
  B  B28  1  0.500000  0.602562  0.028094  1
  B  B29  1  0.500000  0.396480  0.971632  1
  B  B30  1  0.500000  0.098629  0.472819  1
  B  B31  1  0.500000  0.901452  0.527254  1
  Ru  Ru32  1  0.000000  0.640699  0.317896  1
  Ru  Ru33  1  0.000000  0.358889  0.682548  1
  Ru  Ru34  1  0.000000  0.137184  0.177632  1
  Ru  Ru35  1  0.000000  0.863416  0.822061  1
