# generated using pymatgen
data_Dy3Er2Ir2Rh
_symmetry_space_group_name_H-M   'P 1'
_cell_length_a   10.83104100
_cell_length_b   10.83013300
_cell_length_c   6.36517900
_cell_angle_alpha   90.00000000
_cell_angle_beta   90.00000000
_cell_angle_gamma   90.00000000
_symmetry_Int_Tables_number   1
_chemical_formula_structural   Dy3Er2Ir2Rh
_chemical_formula_sum   'Dy12 Er8 Ir8 Rh4'
_cell_volume   746.64577365
_cell_formula_units_Z   4
loop_
 _symmetry_equiv_pos_site_id
 _symmetry_equiv_pos_as_xyz
  1  'x, y, z'
loop_
 _atom_site_type_symbol
 _atom_site_label
 _atom_site_symmetry_multiplicity
 _atom_site_fract_x
 _atom_site_fract_y
 _atom_site_fract_z
 _atom_site_occupancy
  Dy  Dy0  1  0.290021  0.088754  0.378696  1
  Dy  Dy1  1  0.290021  0.911246  0.878696  1
  Dy  Dy2  1  0.709979  0.088754  0.878696  1
  Dy  Dy3  1  0.709979  0.911246  0.378696  1
  Dy  Dy4  1  0.588685  0.790132  0.878888  1
  Dy  Dy5  1  0.588685  0.209868  0.378888  1
  Dy  Dy6  1  0.411315  0.790132  0.378888  1
  Dy  Dy7  1  0.411315  0.209868  0.878888  1
  Dy  Dy8  1  0.209513  0.411438  0.621067  1
  Dy  Dy9  1  0.209513  0.588562  0.121067  1
  Dy  Dy10  1  0.790487  0.411438  0.121067  1
  Dy  Dy11  1  0.790487  0.588562  0.621067  1
  Er  Er12  1  0.911598  0.709625  0.120863  1
  Er  Er13  1  0.911598  0.290375  0.620863  1
  Er  Er14  1  0.088402  0.709625  0.620863  1
  Er  Er15  1  0.088402  0.290375  0.120863  1
  Er  Er16  1  0.000000  0.000000  0.500196  1
  Er  Er17  1  0.000000  0.000000  0.000196  1
  Er  Er18  1  0.500000  0.500000  0.000145  1
  Er  Er19  1  0.500000  0.500000  0.500145  1
  Ir  Ir20  1  0.846787  0.153871  0.250422  1
  Ir  Ir21  1  0.846787  0.846129  0.750422  1
  Ir  Ir22  1  0.153213  0.153871  0.750422  1
  Ir  Ir23  1  0.153213  0.846129  0.250422  1
  Ir  Ir24  1  0.653890  0.346306  0.749808  1
  Ir  Ir25  1  0.653890  0.653694  0.249808  1
  Ir  Ir26  1  0.346110  0.346306  0.249808  1
  Ir  Ir27  1  0.346110  0.653694  0.749808  1
  Rh  Rh28  1  0.500000  0.000000  0.122993  1
  Rh  Rh29  1  0.500000  0.000000  0.622993  1
  Rh  Rh30  1  0.000000  0.500000  0.877178  1
  Rh  Rh31  1  0.000000  0.500000  0.377178  1
