# generated using pymatgen
data_Ba12NaTl(Cu3Te14)2
_symmetry_space_group_name_H-M   'P 1'
_cell_length_a   9.12448300
_cell_length_b   14.39140980
_cell_length_c   14.39141000
_cell_angle_alpha   119.99999587
_cell_angle_beta   90.00000000
_cell_angle_gamma   90.00000000
_symmetry_Int_Tables_number   1
_chemical_formula_structural   Ba12NaTl(Cu3Te14)2
_chemical_formula_sum   'Ba12 Na1 Tl1 Cu6 Te28'
_cell_volume   1636.61151387
_cell_formula_units_Z   1
loop_
 _symmetry_equiv_pos_site_id
 _symmetry_equiv_pos_as_xyz
  1  'x, y, z'
loop_
 _atom_site_type_symbol
 _atom_site_label
 _atom_site_symmetry_multiplicity
 _atom_site_fract_x
 _atom_site_fract_y
 _atom_site_fract_z
 _atom_site_occupancy
  Ba  Ba0  1  0.250398  0.243991  0.792438  1
  Ba  Ba1  1  0.749602  0.451552  0.243991  1
  Ba  Ba2  1  0.749602  0.548448  0.792438  1
  Ba  Ba3  1  0.749602  0.792438  0.548448  1
  Ba  Ba4  1  0.250398  0.756009  0.548448  1
  Ba  Ba5  1  0.749602  0.243991  0.451552  1
  Ba  Ba6  1  0.250398  0.792438  0.243991  1
  Ba  Ba7  1  0.749602  0.756009  0.207562  1
  Ba  Ba8  1  0.250398  0.207562  0.451552  1
  Ba  Ba9  1  0.749602  0.207562  0.756009  1
  Ba  Ba10  1  0.250398  0.548448  0.756009  1
  Ba  Ba11  1  0.250398  0.451552  0.207562  1
  Na  Na12  1  0.000000  0.000000  0.000000  1
  Tl  Tl13  1  0.500000  0.000000  0.000000  1
  Cu  Cu14  1  0.247151  0.807556  0.000000  1
  Cu  Cu15  1  0.752849  0.807556  0.807556  1
  Cu  Cu16  1  0.247151  0.000000  0.807556  1
  Cu  Cu17  1  0.752849  0.192444  0.000000  1
  Cu  Cu18  1  0.247151  0.192444  0.192444  1
  Cu  Cu19  1  0.752849  0.000000  0.192444  1
  Te  Te20  1  0.237392  0.171631  0.000000  1
  Te  Te21  1  0.000000  0.333333  0.666667  1
  Te  Te22  1  0.527632  0.000000  0.314011  1
  Te  Te23  1  0.762608  0.828369  0.000000  1
  Te  Te24  1  0.978813  0.684947  0.684947  1
  Te  Te25  1  0.978813  0.315053  0.000000  1
  Te  Te26  1  0.237392  0.000000  0.171631  1
  Te  Te27  1  0.472368  0.000000  0.685989  1
  Te  Te28  1  0.021187  0.000000  0.684947  1
  Te  Te29  1  0.744044  0.000000  0.463188  1
  Te  Te30  1  0.021187  0.315053  0.315053  1
  Te  Te31  1  0.237392  0.828369  0.828369  1
  Te  Te32  1  0.744044  0.463188  0.000000  1
  Te  Te33  1  0.021187  0.684947  0.000000  1
  Te  Te34  1  0.500000  0.666667  0.333333  1
  Te  Te35  1  0.000000  0.666667  0.333333  1
  Te  Te36  1  0.472368  0.685989  0.000000  1
  Te  Te37  1  0.744044  0.536812  0.536812  1
  Te  Te38  1  0.255956  0.463188  0.463188  1
  Te  Te39  1  0.527632  0.314011  0.000000  1
  Te  Te40  1  0.527632  0.685989  0.685989  1
  Te  Te41  1  0.978813  0.000000  0.315053  1
  Te  Te42  1  0.500000  0.333333  0.666667  1
  Te  Te43  1  0.472368  0.314011  0.314011  1
  Te  Te44  1  0.255956  0.000000  0.536812  1
  Te  Te45  1  0.255956  0.536812  0.000000  1
  Te  Te46  1  0.762608  0.000000  0.828369  1
  Te  Te47  1  0.762608  0.171631  0.171631  1
