# generated using pymatgen
data_Lu2Si2Tc
_symmetry_space_group_name_H-M   'P 1'
_cell_length_a   5.45156521
_cell_length_b   5.45156522
_cell_length_c   5.45156468
_cell_angle_alpha   135.06471137
_cell_angle_beta   122.67974663
_cell_angle_gamma   75.64980708
_symmetry_Int_Tables_number   1
_chemical_formula_structural   Lu2Si2Tc
_chemical_formula_sum   'Lu2 Si2 Tc1'
_cell_volume   93.82690692
_cell_formula_units_Z   1
loop_
 _symmetry_equiv_pos_site_id
 _symmetry_equiv_pos_as_xyz
  1  'x, y, z'
loop_
 _atom_site_type_symbol
 _atom_site_label
 _atom_site_symmetry_multiplicity
 _atom_site_fract_x
 _atom_site_fract_y
 _atom_site_fract_z
 _atom_site_occupancy
  Lu  Lu0  1  0.700171  0.200171  0.500000  1
  Lu  Lu1  1  0.299829  0.799829  0.500000  1
  Si  Si2  1  0.261699  0.500000  0.761699  1
  Si  Si3  1  0.738301  0.500000  0.238301  1
  Tc  Tc4  1  0.000000  0.000000  0.000000  1
