# generated using pymatgen
data_Hf2Zr2P4OsRu3
_symmetry_space_group_name_H-M   'P 1'
_cell_length_a   3.88856700
_cell_length_b   6.43885467
_cell_length_c   7.35273401
_cell_angle_alpha   90.02298216
_cell_angle_beta   90.00000000
_cell_angle_gamma   90.00000000
_symmetry_Int_Tables_number   1
_chemical_formula_structural   Hf2Zr2P4OsRu3
_chemical_formula_sum   'Hf2 Zr2 P4 Os1 Ru3'
_cell_volume   184.09713481
_cell_formula_units_Z   1
loop_
 _symmetry_equiv_pos_site_id
 _symmetry_equiv_pos_as_xyz
  1  'x, y, z'
loop_
 _atom_site_type_symbol
 _atom_site_label
 _atom_site_symmetry_multiplicity
 _atom_site_fract_x
 _atom_site_fract_y
 _atom_site_fract_z
 _atom_site_occupancy
  Hf  Hf0  1  0.750000  0.522334  0.319655  1
  Hf  Hf1  1  0.750000  0.023701  0.181502  1
  Zr  Zr2  1  0.250000  0.977517  0.820005  1
  Zr  Zr3  1  0.250000  0.478344  0.678896  1
  P  P4  1  0.250000  0.724282  0.124139  1
  P  P5  1  0.250000  0.225110  0.377303  1
  P  P6  1  0.750000  0.275019  0.877784  1
  P  P7  1  0.750000  0.774035  0.621130  1
  Os  Os8  1  0.250000  0.345757  0.062538  1
  Ru  Ru9  1  0.250000  0.848427  0.435807  1
  Ru  Ru10  1  0.750000  0.152756  0.558011  1
  Ru  Ru11  1  0.750000  0.652718  0.943231  1
