# generated using pymatgen
data_Zr5Mn3Ni13(MoP4)3
_symmetry_space_group_name_H-M   'P 1'
_cell_length_a   12.04645600
_cell_length_b   12.04645643
_cell_length_c   3.68514600
_cell_angle_alpha   90.00000000
_cell_angle_beta   90.00000000
_cell_angle_gamma   119.99999332
_symmetry_Int_Tables_number   1
_chemical_formula_structural   Zr5Mn3Ni13(MoP4)3
_chemical_formula_sum   'Zr5 Mn3 Ni13 Mo3 P12'
_cell_volume   463.13112886
_cell_formula_units_Z   1
loop_
 _symmetry_equiv_pos_site_id
 _symmetry_equiv_pos_as_xyz
  1  'x, y, z'
loop_
 _atom_site_type_symbol
 _atom_site_label
 _atom_site_symmetry_multiplicity
 _atom_site_fract_x
 _atom_site_fract_y
 _atom_site_fract_z
 _atom_site_occupancy
  Zr  Zr0  1  0.666667  0.333333  0.000000  1
  Zr  Zr1  1  0.333333  0.666667  0.000000  1
  Zr  Zr2  1  0.822504  0.822504  0.500000  1
  Zr  Zr3  1  0.177496  0.000000  0.500000  1
  Zr  Zr4  1  0.000000  0.177496  0.500000  1
  Mn  Mn5  1  0.719797  0.000000  0.500000  1
  Mn  Mn6  1  0.000000  0.719797  0.500000  1
  Mn  Mn7  1  0.280203  0.280203  0.500000  1
  Ni  Ni8  1  0.193819  0.372788  0.000000  1
  Ni  Ni9  1  0.178969  0.806181  0.000000  1
  Ni  Ni10  1  0.821031  0.627212  0.000000  1
  Ni  Ni11  1  0.806181  0.178969  0.000000  1
  Ni  Ni12  1  0.372788  0.193819  0.000000  1
  Ni  Ni13  1  0.129681  0.479598  0.500000  1
  Ni  Ni14  1  0.349916  0.870319  0.500000  1
  Ni  Ni15  1  0.520402  0.650084  0.500000  1
  Ni  Ni16  1  0.650084  0.520402  0.500000  1
  Ni  Ni17  1  0.870319  0.349916  0.500000  1
  Ni  Ni18  1  0.479598  0.129681  0.500000  1
  Ni  Ni19  1  0.000000  0.000000  0.000000  1
  Ni  Ni20  1  0.627212  0.821031  0.000000  1
  Mo  Mo21  1  0.447232  0.447232  0.000000  1
  Mo  Mo22  1  0.552768  0.000000  0.000000  1
  Mo  Mo23  1  0.000000  0.552768  0.000000  1
  P  P24  1  0.643650  0.643650  0.000000  1
  P  P25  1  0.356350  0.000000  0.000000  1
  P  P26  1  0.000000  0.356350  0.000000  1
  P  P27  1  0.483498  0.319106  0.500000  1
  P  P28  1  0.680894  0.164391  0.500000  1
  P  P29  1  0.835609  0.516502  0.500000  1
  P  P30  1  0.516502  0.835609  0.500000  1
  P  P31  1  0.164391  0.680894  0.500000  1
  P  P32  1  0.822508  0.000000  0.000000  1
  P  P33  1  0.000000  0.822508  0.000000  1
  P  P34  1  0.319106  0.483498  0.500000  1
  P  P35  1  0.177492  0.177492  0.000000  1
