# generated using pymatgen
data_Lu5Ge6P6Ir19
_symmetry_space_group_name_H-M   'P 1'
_cell_length_a   12.93596400
_cell_length_b   12.93596385
_cell_length_c   3.95287100
_cell_angle_alpha   90.00000000
_cell_angle_beta   90.00000000
_cell_angle_gamma   119.99999834
_symmetry_Int_Tables_number   1
_chemical_formula_structural   Lu5Ge6P6Ir19
_chemical_formula_sum   'Lu5 Ge6 P6 Ir19'
_cell_volume   572.84993998
_cell_formula_units_Z   1
loop_
 _symmetry_equiv_pos_site_id
 _symmetry_equiv_pos_as_xyz
  1  'x, y, z'
loop_
 _atom_site_type_symbol
 _atom_site_label
 _atom_site_symmetry_multiplicity
 _atom_site_fract_x
 _atom_site_fract_y
 _atom_site_fract_z
 _atom_site_occupancy
  Lu  Lu0  1  0.333333  0.666667  0.500000  1
  Lu  Lu1  1  0.666667  0.333333  0.500000  1
  Lu  Lu2  1  0.003711  0.821539  0.000000  1
  Lu  Lu3  1  0.178461  0.182172  0.000000  1
  Lu  Lu4  1  0.817828  0.996289  0.000000  1
  Ge  Ge5  1  0.998458  0.639940  0.500000  1
  Ge  Ge6  1  0.360060  0.358519  0.500000  1
  Ge  Ge7  1  0.641481  0.001542  0.500000  1
  Ge  Ge8  1  0.518677  0.676494  0.000000  1
  Ge  Ge9  1  0.323506  0.842183  0.000000  1
  Ge  Ge10  1  0.157817  0.481323  0.000000  1
  P  P11  1  0.485177  0.179908  0.000000  1
  P  P12  1  0.694730  0.514823  0.000000  1
  P  P13  1  0.820092  0.305270  0.000000  1
  P  P14  1  0.992525  0.172790  0.500000  1
  P  P15  1  0.827210  0.819735  0.500000  1
  P  P16  1  0.180265  0.007475  0.500000  1
  Ir  Ir17  1  0.520764  0.867628  0.000000  1
  Ir  Ir18  1  0.132372  0.653137  0.000000  1
  Ir  Ir19  1  0.346863  0.479236  0.000000  1
  Ir  Ir20  1  0.500910  0.369752  0.000000  1
  Ir  Ir21  1  0.868842  0.499090  0.000000  1
  Ir  Ir22  1  0.630248  0.131158  0.000000  1
  Ir  Ir23  1  0.010402  0.455280  0.500000  1
  Ir  Ir24  1  0.544720  0.555123  0.500000  1
  Ir  Ir25  1  0.444877  0.989598  0.500000  1
  Ir  Ir26  1  0.988488  0.267762  0.000000  1
  Ir  Ir27  1  0.732238  0.720726  0.000000  1
  Ir  Ir28  1  0.279274  0.011512  0.000000  1
  Ir  Ir29  1  0.642499  0.811389  0.500000  1
  Ir  Ir30  1  0.188611  0.831109  0.500000  1
  Ir  Ir31  1  0.168891  0.357501  0.500000  1
  Ir  Ir32  1  0.388179  0.181106  0.500000  1
  Ir  Ir33  1  0.792928  0.611821  0.500000  1
  Ir  Ir34  1  0.818894  0.207072  0.500000  1
  Ir  Ir35  1  0.000000  0.000000  0.500000  1
