# generated using pymatgen
data_Nd16MgCd(Co2Hg)2
_symmetry_space_group_name_H-M   'P 1'
_cell_length_a   9.83273694
_cell_length_b   9.83711137
_cell_length_c   9.85607400
_cell_angle_alpha   59.93621292
_cell_angle_beta   59.92145731
_cell_angle_gamma   60.19552877
_symmetry_Int_Tables_number   1
_chemical_formula_structural   Nd16MgCd(Co2Hg)2
_chemical_formula_sum   'Nd16 Mg1 Cd1 Co4 Hg2'
_cell_volume   674.37152637
_cell_formula_units_Z   1
loop_
 _symmetry_equiv_pos_site_id
 _symmetry_equiv_pos_as_xyz
  1  'x, y, z'
loop_
 _atom_site_type_symbol
 _atom_site_label
 _atom_site_symmetry_multiplicity
 _atom_site_fract_x
 _atom_site_fract_y
 _atom_site_fract_z
 _atom_site_occupancy
  Nd  Nd0  1  0.596459  0.595948  0.594996  1
  Nd  Nd1  1  0.596459  0.595948  0.212598  1
  Nd  Nd2  1  0.597976  0.210666  0.595679  1
  Nd  Nd3  1  0.206728  0.598502  0.597384  1
  Nd  Nd4  1  0.189993  0.809328  0.812569  1
  Nd  Nd5  1  0.809077  0.190214  0.188366  1
  Nd  Nd6  1  0.809077  0.190214  0.812343  1
  Nd  Nd7  1  0.189993  0.809328  0.188110  1
  Nd  Nd8  1  0.810278  0.811025  0.189349  1
  Nd  Nd9  1  0.189560  0.188916  0.810762  1
  Nd  Nd10  1  0.058638  0.438641  0.441578  1
  Nd  Nd11  1  0.435670  0.061055  0.063389  1
  Nd  Nd12  1  0.435670  0.061055  0.439886  1
  Nd  Nd13  1  0.058638  0.438641  0.061142  1
  Nd  Nd14  1  0.437057  0.437207  0.062868  1
  Nd  Nd15  1  0.055460  0.056391  0.444074  1
  Mg  Mg16  1  0.530416  0.825450  0.822068  1
  Cd  Cd17  1  0.830572  0.510952  0.829239  1
  Co  Co18  1  0.391079  0.391703  0.389387  1
  Co  Co19  1  0.391079  0.391703  0.827832  1
  Co  Co20  1  0.391747  0.827499  0.390378  1
  Co  Co21  1  0.826848  0.392395  0.390379  1
  Hg  Hg22  1  0.830763  0.833611  0.836175  1
  Hg  Hg23  1  0.830763  0.833611  0.499451  1
