# generated using pymatgen
data_HfMg2Ta2NbN6
_symmetry_space_group_name_H-M   'P 1'
_cell_length_a   5.29328141
_cell_length_b   5.29328106
_cell_length_c   10.57896500
_cell_angle_alpha   90.00000000
_cell_angle_beta   90.00000000
_cell_angle_gamma   120.04513729
_symmetry_Int_Tables_number   1
_chemical_formula_structural   HfMg2Ta2NbN6
_chemical_formula_sum   'Hf2 Mg4 Ta4 Nb2 N12'
_cell_volume   256.58191267
_cell_formula_units_Z   2
loop_
 _symmetry_equiv_pos_site_id
 _symmetry_equiv_pos_as_xyz
  1  'x, y, z'
loop_
 _atom_site_type_symbol
 _atom_site_label
 _atom_site_symmetry_multiplicity
 _atom_site_fract_x
 _atom_site_fract_y
 _atom_site_fract_z
 _atom_site_occupancy
  Hf  Hf0  1  0.999050  0.000950  0.500000  1
  Hf  Hf1  1  0.999050  0.000950  0.000000  1
  Mg  Mg2  1  0.333318  0.666682  0.000000  1
  Mg  Mg3  1  0.333318  0.666682  0.500000  1
  Mg  Mg4  1  0.667059  0.332941  0.500000  1
  Mg  Mg5  1  0.667059  0.332941  0.000000  1
  Ta  Ta6  1  0.340647  0.340125  0.750000  1
  Ta  Ta7  1  0.659875  0.659353  0.250000  1
  Ta  Ta8  1  0.340027  0.999633  0.250000  1
  Ta  Ta9  1  0.000367  0.659973  0.750000  1
  Nb  Nb10  1  0.000180  0.339936  0.250000  1
  Nb  Nb11  1  0.660064  0.999820  0.750000  1
  N  N12  1  0.667926  0.663636  0.623901  1
  N  N13  1  0.667926  0.663636  0.876099  1
  N  N14  1  0.336364  0.332074  0.123901  1
  N  N15  1  0.336364  0.332074  0.376099  1
  N  N16  1  0.328285  0.999986  0.875811  1
  N  N17  1  0.328285  0.999986  0.624189  1
  N  N18  1  0.000014  0.671715  0.375811  1
  N  N19  1  0.000014  0.671715  0.124189  1
  N  N20  1  0.663130  0.995725  0.123728  1
  N  N21  1  0.663130  0.995725  0.376272  1
  N  N22  1  0.004275  0.336870  0.876272  1
  N  N23  1  0.004275  0.336870  0.623728  1
