# generated using pymatgen
data_Dy5W2C7
_symmetry_space_group_name_H-M   'P 1'
_cell_length_a   8.44254672
_cell_length_b   8.44254591
_cell_length_c   3.42407600
_cell_angle_alpha   90.00000000
_cell_angle_beta   90.00000000
_cell_angle_gamma   122.81194748
_symmetry_Int_Tables_number   1
_chemical_formula_structural   Dy5W2C7
_chemical_formula_sum   'Dy5 W2 C7'
_cell_volume   205.11813289
_cell_formula_units_Z   1
loop_
 _symmetry_equiv_pos_site_id
 _symmetry_equiv_pos_as_xyz
  1  'x, y, z'
loop_
 _atom_site_type_symbol
 _atom_site_label
 _atom_site_symmetry_multiplicity
 _atom_site_fract_x
 _atom_site_fract_y
 _atom_site_fract_z
 _atom_site_occupancy
  Dy  Dy0  1  0.500000  0.500000  0.000000  1
  Dy  Dy1  1  0.073604  0.331201  0.500000  1
  Dy  Dy2  1  0.926396  0.668799  0.500000  1
  Dy  Dy3  1  0.668799  0.926396  0.500000  1
  Dy  Dy4  1  0.331201  0.073604  0.500000  1
  W  W5  1  0.712803  0.287197  0.000000  1
  W  W6  1  0.287197  0.712803  0.000000  1
  C  C7  1  0.625705  0.374295  0.500000  1
  C  C8  1  0.374295  0.625705  0.500000  1
  C  C9  1  0.000000  0.000000  0.000000  1
  C  C10  1  0.167705  0.167705  0.000000  1
  C  C11  1  0.832295  0.832295  0.000000  1
  C  C12  1  0.000000  0.500000  0.000000  1
  C  C13  1  0.500000  0.000000  0.000000  1
