# generated using pymatgen
data_Ti3Nb3Al4(RhC)2
_symmetry_space_group_name_H-M   'P 1'
_cell_length_a   8.27247478
_cell_length_b   8.27260496
_cell_length_c   8.26693600
_cell_angle_alpha   60.02253116
_cell_angle_beta   60.02149626
_cell_angle_gamma   60.10636200
_symmetry_Int_Tables_number   1
_chemical_formula_structural   Ti3Nb3Al4(RhC)2
_chemical_formula_sum   'Ti6 Nb6 Al8 Rh4 C4'
_cell_volume   400.49754415
_cell_formula_units_Z   2
loop_
 _symmetry_equiv_pos_site_id
 _symmetry_equiv_pos_as_xyz
  1  'x, y, z'
loop_
 _atom_site_type_symbol
 _atom_site_label
 _atom_site_symmetry_multiplicity
 _atom_site_fract_x
 _atom_site_fract_y
 _atom_site_fract_z
 _atom_site_occupancy
  Ti  Ti0  1  0.563741  0.937315  0.562742  1
  Ti  Ti1  1  0.563708  0.937327  0.936224  1
  Ti  Ti2  1  0.937329  0.563727  0.562735  1
  Ti  Ti3  1  0.937324  0.563711  0.936216  1
  Ti  Ti4  1  0.312687  0.312691  0.687316  1
  Ti  Ti5  1  0.563650  0.563638  0.936350  1
  Nb  Nb6  1  0.935862  0.935874  0.564135  1
  Nb  Nb7  1  0.688202  0.312374  0.312206  1
  Nb  Nb8  1  0.312377  0.688206  0.687214  1
  Nb  Nb9  1  0.685754  0.685768  0.314235  1
  Nb  Nb10  1  0.688195  0.312373  0.687221  1
  Nb  Nb11  1  0.312379  0.688209  0.312202  1
  Al  Al12  1  0.915931  0.254771  0.914651  1
  Al  Al13  1  0.333972  0.333977  0.996388  1
  Al  Al14  1  0.998913  0.333865  0.333609  1
  Al  Al15  1  0.333979  0.333978  0.335655  1
  Al  Al16  1  0.254771  0.915926  0.914653  1
  Al  Al17  1  0.914712  0.914719  0.917824  1
  Al  Al18  1  0.914718  0.914720  0.252731  1
  Al  Al19  1  0.333862  0.998925  0.333612  1
  Rh  Rh20  1  0.125882  0.624389  0.124865  1
  Rh  Rh21  1  0.125425  0.125444  0.625782  1
  Rh  Rh22  1  0.624406  0.125871  0.124860  1
  Rh  Rh23  1  0.125425  0.125436  0.123353  1
  C  C24  1  0.617480  0.123564  0.629483  1
  C  C25  1  0.627869  0.627868  0.115960  1
  C  C26  1  0.123570  0.617473  0.629480  1
  C  C27  1  0.627874  0.627864  0.628297  1
