# generated using pymatgen
data_RbTbSiSe4
_symmetry_space_group_name_H-M   'P 1'
_cell_length_a   7.04034600
_cell_length_b   6.72899853
_cell_length_c   19.00442947
_cell_angle_alpha   71.37436627
_cell_angle_beta   90.00000000
_cell_angle_gamma   90.00000000
_symmetry_Int_Tables_number   1
_chemical_formula_structural   RbTbSiSe4
_chemical_formula_sum   'Rb4 Tb4 Si4 Se16'
_cell_volume   853.17095919
_cell_formula_units_Z   4
loop_
 _symmetry_equiv_pos_site_id
 _symmetry_equiv_pos_as_xyz
  1  'x, y, z'
loop_
 _atom_site_type_symbol
 _atom_site_label
 _atom_site_symmetry_multiplicity
 _atom_site_fract_x
 _atom_site_fract_y
 _atom_site_fract_z
 _atom_site_occupancy
  Rb  Rb0  1  0.751021  0.729596  0.032889  1
  Rb  Rb1  1  0.248979  0.270404  0.967111  1
  Rb  Rb2  1  0.748979  0.729596  0.532889  1
  Rb  Rb3  1  0.251021  0.270404  0.467111  1
  Tb  Tb4  1  0.230782  0.229992  0.226472  1
  Tb  Tb5  1  0.730782  0.770008  0.273528  1
  Tb  Tb6  1  0.769218  0.770008  0.773528  1
  Tb  Tb7  1  0.269218  0.229992  0.726472  1
  Si  Si8  1  0.732098  0.214138  0.834270  1
  Si  Si9  1  0.767902  0.214138  0.334270  1
  Si  Si10  1  0.232098  0.785862  0.665730  1
  Si  Si11  1  0.267902  0.785862  0.165730  1
  Se  Se12  1  0.502444  0.035463  0.142638  1
  Se  Se13  1  0.763438  0.413379  0.410733  1
  Se  Se14  1  0.001705  0.012896  0.847494  1
  Se  Se15  1  0.833399  0.426511  0.216430  1
  Se  Se16  1  0.997556  0.035463  0.642638  1
  Se  Se17  1  0.263438  0.586621  0.089267  1
  Se  Se18  1  0.736562  0.413379  0.910733  1
  Se  Se19  1  0.333399  0.573489  0.283570  1
  Se  Se20  1  0.236562  0.586621  0.589267  1
  Se  Se21  1  0.497556  0.964537  0.857362  1
  Se  Se22  1  0.666601  0.426511  0.716430  1
  Se  Se23  1  0.166601  0.573489  0.783570  1
  Se  Se24  1  0.002444  0.964537  0.357362  1
  Se  Se25  1  0.998295  0.987104  0.152506  1
  Se  Se26  1  0.498295  0.012896  0.347494  1
  Se  Se27  1  0.501705  0.987104  0.652506  1
