# generated using pymatgen
data_Bi2Te2MoO10
_symmetry_space_group_name_H-M   'P 1'
_cell_length_a   7.01382131
_cell_length_b   7.01382125
_cell_length_c   12.35636418
_cell_angle_alpha   89.42129871
_cell_angle_beta   89.42129923
_cell_angle_gamma   48.59178371
_symmetry_Int_Tables_number   1
_chemical_formula_structural   Bi2Te2MoO10
_chemical_formula_sum   'Bi4 Te4 Mo2 O20'
_cell_volume   455.87322354
_cell_formula_units_Z   2
loop_
 _symmetry_equiv_pos_site_id
 _symmetry_equiv_pos_as_xyz
  1  'x, y, z'
loop_
 _atom_site_type_symbol
 _atom_site_label
 _atom_site_symmetry_multiplicity
 _atom_site_fract_x
 _atom_site_fract_y
 _atom_site_fract_z
 _atom_site_occupancy
  Bi  Bi0  1  0.329085  0.850407  0.455422  1
  Bi  Bi1  1  0.850407  0.329085  0.955422  1
  Bi  Bi2  1  0.149593  0.670915  0.044578  1
  Bi  Bi3  1  0.670915  0.149593  0.544578  1
  Te  Te4  1  0.073032  0.545540  0.359297  1
  Te  Te5  1  0.926968  0.454460  0.640703  1
  Te  Te6  1  0.545540  0.073032  0.859297  1
  Te  Te7  1  0.454460  0.926968  0.140703  1
  Mo  Mo8  1  0.179612  0.820388  0.750000  1
  Mo  Mo9  1  0.820388  0.179612  0.250000  1
  O  O10  1  0.467993  0.682086  0.061662  1
  O  O11  1  0.682086  0.467993  0.561662  1
  O  O12  1  0.912437  0.089087  0.099379  1
  O  O13  1  0.998272  0.767114  0.242674  1
  O  O14  1  0.783235  0.783706  0.451368  1
  O  O15  1  0.001728  0.232886  0.757326  1
  O  O16  1  0.087563  0.910913  0.900621  1
  O  O17  1  0.089087  0.912437  0.599379  1
  O  O18  1  0.216765  0.216294  0.548632  1
  O  O19  1  0.767114  0.998272  0.742674  1
  O  O20  1  0.262643  0.520362  0.744008  1
  O  O21  1  0.737357  0.479638  0.255992  1
  O  O22  1  0.532007  0.317914  0.938338  1
  O  O23  1  0.783706  0.783235  0.951368  1
  O  O24  1  0.232886  0.001728  0.257326  1
  O  O25  1  0.479638  0.737357  0.755992  1
  O  O26  1  0.216294  0.216765  0.048632  1
  O  O27  1  0.910913  0.087563  0.400621  1
  O  O28  1  0.317914  0.532007  0.438338  1
  O  O29  1  0.520362  0.262643  0.244008  1
