# generated using pymatgen
data_CaHo3Ir8
_symmetry_space_group_name_H-M   'P 1'
_cell_length_a   5.35209500
_cell_length_b   5.35209505
_cell_length_c   8.71506800
_cell_angle_alpha   90.00000000
_cell_angle_beta   90.00000000
_cell_angle_gamma   120.00000589
_symmetry_Int_Tables_number   1
_chemical_formula_structural   CaHo3Ir8
_chemical_formula_sum   'Ca1 Ho3 Ir8'
_cell_volume   216.19667830
_cell_formula_units_Z   1
loop_
 _symmetry_equiv_pos_site_id
 _symmetry_equiv_pos_as_xyz
  1  'x, y, z'
loop_
 _atom_site_type_symbol
 _atom_site_label
 _atom_site_symmetry_multiplicity
 _atom_site_fract_x
 _atom_site_fract_y
 _atom_site_fract_z
 _atom_site_occupancy
  Ca  Ca0  1  0.666666  0.333334  0.934479  1
  Ho  Ho1  1  0.333334  0.666667  0.063665  1
  Ho  Ho2  1  0.333334  0.666667  0.431862  1
  Ho  Ho3  1  0.666666  0.333334  0.572302  1
  Ir  Ir4  1  0.000000  0.000000  0.999508  1
  Ir  Ir5  1  0.339911  0.169956  0.251427  1
  Ir  Ir6  1  0.830044  0.169956  0.251427  1
  Ir  Ir7  1  0.830044  0.660088  0.251427  1
  Ir  Ir8  1  0.000000  0.000000  0.499765  1
  Ir  Ir9  1  0.169987  0.339973  0.748046  1
  Ir  Ir10  1  0.169988  0.830012  0.748046  1
  Ir  Ir11  1  0.660025  0.830012  0.748046  1
