# generated using pymatgen
data_Er8Zr12Si15Pt
_symmetry_space_group_name_H-M   'P 1'
_cell_length_a   7.33987952
_cell_length_b   7.30803741
_cell_length_c   13.49046727
_cell_angle_alpha   89.89624509
_cell_angle_beta   89.94104102
_cell_angle_gamma   90.08443943
_symmetry_Int_Tables_number   1
_chemical_formula_structural   Er8Zr12Si15Pt
_chemical_formula_sum   'Er8 Zr12 Si15 Pt1'
_cell_volume   723.62784573
_cell_formula_units_Z   1
loop_
 _symmetry_equiv_pos_site_id
 _symmetry_equiv_pos_as_xyz
  1  'x, y, z'
loop_
 _atom_site_type_symbol
 _atom_site_label
 _atom_site_symmetry_multiplicity
 _atom_site_fract_x
 _atom_site_fract_y
 _atom_site_fract_z
 _atom_site_occupancy
  Er  Er0  1  0.347825  0.004486  0.461967  1
  Er  Er1  1  0.499078  0.843446  0.714496  1
  Er  Er2  1  0.502903  0.152360  0.213624  1
  Er  Er3  1  0.848914  0.494402  0.286255  1
  Er  Er4  1  0.149480  0.504817  0.787154  1
  Er  Er5  1  0.653472  0.994524  0.965603  1
  Er  Er6  1  0.005231  0.345716  0.537275  1
  Er  Er7  1  0.995790  0.652503  0.036512  1
  Zr  Zr8  1  0.322312  0.323292  0.001275  1
  Zr  Zr9  1  0.176346  0.822570  0.249761  1
  Zr  Zr10  1  0.819906  0.176928  0.750237  1
  Zr  Zr11  1  0.677481  0.674991  0.499720  1
  Zr  Zr12  1  0.147552  0.006554  0.874773  1
  Zr  Zr13  1  0.497292  0.645285  0.124613  1
  Zr  Zr14  1  0.496276  0.353433  0.625599  1
  Zr  Zr15  1  0.647528  0.501375  0.877194  1
  Zr  Zr16  1  0.355143  0.502880  0.373647  1
  Zr  Zr17  1  0.852904  0.997349  0.374199  1
  Zr  Zr18  1  0.002562  0.144717  0.126149  1
  Zr  Zr19  1  0.993952  0.855584  0.620174  1
  Si  Si20  1  0.356792  0.705055  0.933683  1
  Si  Si21  1  0.642249  0.294800  0.433173  1
  Si  Si22  1  0.705054  0.357618  0.068158  1
  Si  Si23  1  0.299704  0.645977  0.563628  1
  Si  Si24  1  0.793111  0.857453  0.181967  1
  Si  Si25  1  0.142235  0.204610  0.316301  1
  Si  Si26  1  0.856984  0.796599  0.817150  1
  Si  Si27  1  0.296059  0.948146  0.063503  1
  Si  Si28  1  0.552745  0.795752  0.312812  1
  Si  Si29  1  0.452640  0.207053  0.817482  1
  Si  Si30  1  0.794074  0.552597  0.687735  1
  Si  Si31  1  0.202991  0.447575  0.186762  1
  Si  Si32  1  0.703134  0.054355  0.561864  1
  Si  Si33  1  0.946489  0.296189  0.938736  1
  Si  Si34  1  0.053157  0.703456  0.435137  1
  Pt  Pt35  1  0.210634  0.135552  0.681684  1
