# generated using pymatgen
data_Ho6BCCl6
_symmetry_space_group_name_H-M   'P 1'
_cell_length_a   9.25596124
_cell_length_b   9.25595494
_cell_length_c   9.32589720
_cell_angle_alpha   109.49339610
_cell_angle_beta   109.49336778
_cell_angle_gamma   109.12080988
_symmetry_Int_Tables_number   1
_chemical_formula_structural   Ho6BCCl6
_chemical_formula_sum   'Ho12 B2 C2 Cl12'
_cell_volume   617.35743661
_cell_formula_units_Z   2
loop_
 _symmetry_equiv_pos_site_id
 _symmetry_equiv_pos_as_xyz
  1  'x, y, z'
loop_
 _atom_site_type_symbol
 _atom_site_label
 _atom_site_symmetry_multiplicity
 _atom_site_fract_x
 _atom_site_fract_y
 _atom_site_fract_z
 _atom_site_occupancy
  Ho  Ho0  1  0.467127  0.479068  0.235696  1
  Ho  Ho1  1  0.743372  0.231431  0.264304  1
  Ho  Ho2  1  0.744354  0.014952  0.479156  1
  Ho  Ho3  1  0.234800  0.464203  0.479155  1
  Ho  Ho4  1  0.268570  0.756628  0.235697  1
  Ho  Ho5  1  0.035797  0.265199  0.020844  1
  Ho  Ho6  1  0.020932  0.032874  0.264304  1
  Ho  Ho7  1  0.485047  0.755646  0.020845  1
  Ho  Ho8  1  0.480826  0.230826  0.461651  1
  Ho  Ho9  1  0.014527  0.485472  0.750000  1
  Ho  Ho10  1  0.269175  0.019175  0.038349  1
  Ho  Ho11  1  0.235473  0.264526  0.750000  1
  B  B12  1  0.999392  0.249391  0.498784  1
  B  B13  1  0.250609  0.500609  0.001216  1
  C  C14  1  0.249896  0.250104  0.250000  1
  C  C15  1  0.500104  0.999896  0.250000  1
  Cl  Cl16  1  0.251966  0.759465  0.745484  1
  Cl  Cl17  1  0.513983  0.506483  0.754517  1
  Cl  Cl18  1  0.987017  0.745381  0.993667  1
  Cl  Cl19  1  0.740533  0.248035  0.754517  1
  Cl  Cl20  1  0.993517  0.986015  0.745482  1
  Cl  Cl21  1  0.251713  0.993351  0.506332  1
  Cl  Cl22  1  0.754620  0.512984  0.506333  1
  Cl  Cl23  1  0.506651  0.248287  0.993668  1
  Cl  Cl24  1  0.756056  0.743943  0.249999  1
  Cl  Cl25  1  0.743384  0.993384  0.986769  1
  Cl  Cl26  1  0.993944  0.506057  0.250001  1
  Cl  Cl27  1  0.506616  0.756615  0.513231  1
