# generated using pymatgen
data_YTiBiO5
_symmetry_space_group_name_H-M   'P 1'
_cell_length_a   5.41100600
_cell_length_b   11.20022100
_cell_length_c   15.43082200
_cell_angle_alpha   90.00000000
_cell_angle_beta   90.00000000
_cell_angle_gamma   90.00000000
_symmetry_Int_Tables_number   1
_chemical_formula_structural   YTiBiO5
_chemical_formula_sum   'Y8 Ti8 Bi8 O40'
_cell_volume   935.17668146
_cell_formula_units_Z   8
loop_
 _symmetry_equiv_pos_site_id
 _symmetry_equiv_pos_as_xyz
  1  'x, y, z'
loop_
 _atom_site_type_symbol
 _atom_site_label
 _atom_site_symmetry_multiplicity
 _atom_site_fract_x
 _atom_site_fract_y
 _atom_site_fract_z
 _atom_site_occupancy
  Y  Y0  1  0.016839  0.641169  0.945315  1
  Y  Y1  1  0.983161  0.358831  0.054685  1
  Y  Y2  1  0.483161  0.141169  0.054685  1
  Y  Y3  1  0.983161  0.858831  0.445315  1
  Y  Y4  1  0.516839  0.858831  0.945315  1
  Y  Y5  1  0.016839  0.141169  0.554685  1
  Y  Y6  1  0.516839  0.358831  0.554685  1
  Y  Y7  1  0.483161  0.641169  0.445315  1
  Ti  Ti8  1  0.995734  0.598600  0.595103  1
  Ti  Ti9  1  0.004266  0.401400  0.404897  1
  Ti  Ti10  1  0.504266  0.098600  0.404897  1
  Ti  Ti11  1  0.004266  0.901400  0.095103  1
  Ti  Ti12  1  0.495734  0.901400  0.595103  1
  Ti  Ti13  1  0.995734  0.098600  0.904897  1
  Ti  Ti14  1  0.495734  0.401400  0.904897  1
  Ti  Ti15  1  0.504266  0.598600  0.095103  1
  Bi  Bi16  1  0.457519  0.648683  0.762280  1
  Bi  Bi17  1  0.542481  0.351317  0.237720  1
  Bi  Bi18  1  0.042481  0.148683  0.237720  1
  Bi  Bi19  1  0.542481  0.851317  0.262280  1
  Bi  Bi20  1  0.957519  0.851317  0.762280  1
  Bi  Bi21  1  0.457519  0.148683  0.737720  1
  Bi  Bi22  1  0.957519  0.351317  0.737720  1
  Bi  Bi23  1  0.042481  0.648683  0.262280  1
  O  O24  1  0.253695  0.767659  0.848706  1
  O  O25  1  0.746305  0.232341  0.151294  1
  O  O26  1  0.246305  0.267659  0.151294  1
  O  O27  1  0.746305  0.732341  0.348706  1
  O  O28  1  0.753695  0.732341  0.848706  1
  O  O29  1  0.253695  0.267659  0.651294  1
  O  O30  1  0.753695  0.232341  0.651294  1
  O  O31  1  0.246305  0.767659  0.348706  1
  O  O32  1  0.331776  0.800144  0.523249  1
  O  O33  1  0.668224  0.199856  0.476751  1
  O  O34  1  0.168224  0.300144  0.476751  1
  O  O35  1  0.668224  0.699856  0.023249  1
  O  O36  1  0.831776  0.699856  0.523249  1
  O  O37  1  0.331776  0.300144  0.976751  1
  O  O38  1  0.831776  0.199856  0.976751  1
  O  O39  1  0.168224  0.800144  0.023249  1
  O  O40  1  0.285796  0.535006  0.555211  1
  O  O41  1  0.714204  0.464994  0.444789  1
  O  O42  1  0.214204  0.035006  0.444789  1
  O  O43  1  0.714204  0.964994  0.055211  1
  O  O44  1  0.785796  0.964994  0.555211  1
  O  O45  1  0.285796  0.035006  0.944789  1
  O  O46  1  0.785796  0.464994  0.944789  1
  O  O47  1  0.214204  0.535006  0.055211  1
  O  O48  1  0.293148  0.522975  0.867094  1
  O  O49  1  0.706852  0.477025  0.132906  1
  O  O50  1  0.206852  0.022975  0.132906  1
  O  O51  1  0.706852  0.977025  0.367094  1
  O  O52  1  0.793148  0.977025  0.867094  1
  O  O53  1  0.293148  0.022975  0.632906  1
  O  O54  1  0.793148  0.477025  0.632906  1
  O  O55  1  0.206852  0.522975  0.367094  1
  O  O56  1  0.074100  0.673702  0.697794  1
  O  O57  1  0.925900  0.326298  0.302206  1
  O  O58  1  0.425900  0.173702  0.302206  1
  O  O59  1  0.925900  0.826298  0.197794  1
  O  O60  1  0.574100  0.826298  0.697794  1
  O  O61  1  0.074100  0.173702  0.802206  1
  O  O62  1  0.574100  0.326298  0.802206  1
  O  O63  1  0.425900  0.673702  0.197794  1
