# generated using pymatgen
data_MnB2Mo4P
_symmetry_space_group_name_H-M   'P 1'
_cell_length_a   5.83994045
_cell_length_b   5.83994005
_cell_length_c   6.99130465
_cell_angle_alpha   114.68677592
_cell_angle_beta   114.68677009
_cell_angle_gamma   90.00000126
_symmetry_Int_Tables_number   1
_chemical_formula_structural   MnB2Mo4P
_chemical_formula_sum   'Mn2 B4 Mo8 P2'
_cell_volume   192.40090990
_cell_formula_units_Z   2
loop_
 _symmetry_equiv_pos_site_id
 _symmetry_equiv_pos_as_xyz
  1  'x, y, z'
loop_
 _atom_site_type_symbol
 _atom_site_label
 _atom_site_symmetry_multiplicity
 _atom_site_fract_x
 _atom_site_fract_y
 _atom_site_fract_z
 _atom_site_occupancy
  Mn  Mn0  1  0.500000  0.500000  0.000000  1
  Mn  Mn1  1  0.000000  0.000000  0.000000  1
  B  B2  1  0.382093  0.882093  0.000000  1
  B  B3  1  0.617907  0.117907  0.000000  1
  B  B4  1  0.117907  0.382093  0.000000  1
  B  B5  1  0.882093  0.617907  0.000000  1
  Mo  Mo6  1  0.034833  0.534833  0.726306  1
  Mo  Mo7  1  0.691472  0.191472  0.726306  1
  Mo  Mo8  1  0.191472  0.034833  0.726306  1
  Mo  Mo9  1  0.534833  0.691472  0.726306  1
  Mo  Mo10  1  0.965167  0.465167  0.273694  1
  Mo  Mo11  1  0.308528  0.808528  0.273694  1
  Mo  Mo12  1  0.808528  0.965167  0.273694  1
  Mo  Mo13  1  0.465167  0.308528  0.273694  1
  P  P14  1  0.250000  0.250000  0.500000  1
  P  P15  1  0.750000  0.750000  0.500000  1
