# generated using pymatgen
data_NdErPa2(Al3Rh)6
_symmetry_space_group_name_H-M   'P 1'
_cell_length_a   7.60496501
_cell_length_b   7.60323678
_cell_length_c   9.40522300
_cell_angle_alpha   90.00000000
_cell_angle_beta   90.00000000
_cell_angle_gamma   119.57099755
_symmetry_Int_Tables_number   1
_chemical_formula_structural   NdErPa2(Al3Rh)6
_chemical_formula_sum   'Nd1 Er1 Pa2 Al18 Rh6'
_cell_volume   472.99515987
_cell_formula_units_Z   1
loop_
 _symmetry_equiv_pos_site_id
 _symmetry_equiv_pos_as_xyz
  1  'x, y, z'
loop_
 _atom_site_type_symbol
 _atom_site_label
 _atom_site_symmetry_multiplicity
 _atom_site_fract_x
 _atom_site_fract_y
 _atom_site_fract_z
 _atom_site_occupancy
  Nd  Nd0  1  0.330323  0.006897  0.250000  1
  Er  Er1  1  0.671474  0.993455  0.750000  1
  Pa  Pa2  1  0.998037  0.671809  0.750000  1
  Pa  Pa3  1  0.002677  0.328955  0.250000  1
  Al  Al4  1  0.129841  0.126502  0.750000  1
  Al  Al5  1  0.867039  0.873284  0.250000  1
  Al  Al6  1  0.999733  0.332124  0.578691  1
  Al  Al7  1  0.997431  0.666226  0.424593  1
  Al  Al8  1  0.997431  0.666226  0.075407  1
  Al  Al9  1  0.339091  0.002882  0.921517  1
  Al  Al10  1  0.999733  0.332124  0.921309  1
  Al  Al11  1  0.663921  0.997072  0.071833  1
  Al  Al12  1  0.663921  0.997072  0.428167  1
  Al  Al13  1  0.339091  0.002882  0.578483  1
  Al  Al14  1  0.334480  0.334463  0.047460  1
  Al  Al15  1  0.665399  0.666652  0.944638  1
  Al  Al16  1  0.665399  0.666652  0.555362  1
  Al  Al17  1  0.334480  0.334463  0.452540  1
  Al  Al18  1  0.339736  0.549201  0.750000  1
  Al  Al19  1  0.660937  0.453838  0.250000  1
  Al  Al20  1  0.551793  0.343126  0.750000  1
  Al  Al21  1  0.449763  0.656184  0.250000  1
  Rh  Rh22  1  0.675578  0.329718  0.501062  1
  Rh  Rh23  1  0.325026  0.670227  0.501868  1
  Rh  Rh24  1  0.325026  0.670227  0.998132  1
  Rh  Rh25  1  0.675578  0.329718  0.998938  1
  Rh  Rh26  1  0.998530  0.999013  0.502101  1
  Rh  Rh27  1  0.998530  0.999013  0.997899  1
