# generated using pymatgen
data_Pr4Nd2OsCl10
_symmetry_space_group_name_H-M   'P 1'
_cell_length_a   7.47987266
_cell_length_b   9.13537142
_cell_length_c   9.47021400
_cell_angle_alpha   109.45197791
_cell_angle_beta   96.59838646
_cell_angle_gamma   106.82771443
_symmetry_Int_Tables_number   1
_chemical_formula_structural   Pr4Nd2OsCl10
_chemical_formula_sum   'Pr4 Nd2 Os1 Cl10'
_cell_volume   567.81457669
_cell_formula_units_Z   1
loop_
 _symmetry_equiv_pos_site_id
 _symmetry_equiv_pos_as_xyz
  1  'x, y, z'
loop_
 _atom_site_type_symbol
 _atom_site_label
 _atom_site_symmetry_multiplicity
 _atom_site_fract_x
 _atom_site_fract_y
 _atom_site_fract_z
 _atom_site_occupancy
  Pr  Pr0  1  0.854703  0.937917  0.250409  1
  Pr  Pr1  1  0.031341  0.702161  0.904711  1
  Pr  Pr2  1  0.380195  0.155831  0.202261  1
  Pr  Pr3  1  0.967917  0.297454  0.094038  1
  Nd  Nd4  1  0.143442  0.060634  0.751030  1
  Nd  Nd5  1  0.621666  0.846746  0.800282  1
  Os  Os6  1  0.999953  0.999860  0.000299  1
  Cl  Cl7  1  0.204647  0.754446  0.657357  1
  Cl  Cl8  1  0.648547  0.541804  0.723200  1
  Cl  Cl9  1  0.236742  0.076921  0.446531  1
  Cl  Cl10  1  0.799282  0.248901  0.344507  1
  Cl  Cl11  1  0.551073  0.166847  0.926315  1
  Cl  Cl12  1  0.764195  0.921432  0.557176  1
  Cl  Cl13  1  0.908335  0.628524  0.159552  1
  Cl  Cl14  1  0.350946  0.461920  0.273808  1
  Cl  Cl15  1  0.089419  0.367395  0.837090  1
  Cl  Cl16  1  0.447594  0.831206  0.071433  1
