# generated using pymatgen
data_YbTmPtRhO7
_symmetry_space_group_name_H-M   'P 1'
_cell_length_a   7.20929059
_cell_length_b   7.18513864
_cell_length_c   7.20928929
_cell_angle_alpha   60.11075582
_cell_angle_beta   60.04045237
_cell_angle_gamma   60.11075887
_symmetry_Int_Tables_number   1
_chemical_formula_structural   YbTmPtRhO7
_chemical_formula_sum   'Yb2 Tm2 Pt2 Rh2 O14'
_cell_volume   264.58377242
_cell_formula_units_Z   2
loop_
 _symmetry_equiv_pos_site_id
 _symmetry_equiv_pos_as_xyz
  1  'x, y, z'
loop_
 _atom_site_type_symbol
 _atom_site_label
 _atom_site_symmetry_multiplicity
 _atom_site_fract_x
 _atom_site_fract_y
 _atom_site_fract_z
 _atom_site_occupancy
  Yb  Yb0  1  0.625000  0.625000  0.125000  1
  Yb  Yb1  1  0.125000  0.625000  0.625000  1
  Tm  Tm2  1  0.625000  0.625000  0.625000  1
  Tm  Tm3  1  0.625000  0.125000  0.625000  1
  Pt  Pt4  1  0.625000  0.125000  0.125000  1
  Pt  Pt5  1  0.125000  0.125000  0.625000  1
  Rh  Rh6  1  0.125000  0.125000  0.125000  1
  Rh  Rh7  1  0.125000  0.625000  0.125000  1
  O  O8  1  0.032245  0.459395  0.459789  1
  O  O9  1  0.790211  0.790605  0.217755  1
  O  O10  1  0.790211  0.201429  0.217755  1
  O  O11  1  0.464746  0.035254  0.464746  1
  O  O12  1  0.032245  0.048571  0.459789  1
  O  O13  1  0.047489  0.452511  0.047489  1
  O  O14  1  0.743498  0.756502  0.743498  1
  O  O15  1  0.506502  0.493498  0.506502  1
  O  O16  1  0.785254  0.214746  0.785254  1
  O  O17  1  0.202511  0.797489  0.202511  1
  O  O18  1  0.217755  0.201429  0.790211  1
  O  O19  1  0.459789  0.048571  0.032245  1
  O  O20  1  0.459789  0.459395  0.032245  1
  O  O21  1  0.217755  0.790605  0.790211  1
