# generated using pymatgen
data_Ti2ZnMo2C3
_symmetry_space_group_name_H-M   'P 1'
_cell_length_a   3.03006000
_cell_length_b   3.03005819
_cell_length_c   23.60833100
_cell_angle_alpha   90.00000000
_cell_angle_beta   90.00000000
_cell_angle_gamma   119.99997609
_symmetry_Int_Tables_number   1
_chemical_formula_structural   Ti2ZnMo2C3
_chemical_formula_sum   'Ti4 Zn2 Mo4 C6'
_cell_volume   187.71467209
_cell_formula_units_Z   2
loop_
 _symmetry_equiv_pos_site_id
 _symmetry_equiv_pos_as_xyz
  1  'x, y, z'
loop_
 _atom_site_type_symbol
 _atom_site_label
 _atom_site_symmetry_multiplicity
 _atom_site_fract_x
 _atom_site_fract_y
 _atom_site_fract_z
 _atom_site_occupancy
  Ti  Ti0  1  0.333333  0.666667  0.447039  1
  Ti  Ti1  1  0.666667  0.333333  0.552961  1
  Ti  Ti2  1  0.666667  0.333333  0.947039  1
  Ti  Ti3  1  0.333333  0.666667  0.052961  1
  Zn  Zn4  1  0.333333  0.666667  0.250000  1
  Zn  Zn5  1  0.666667  0.333333  0.750000  1
  Mo  Mo6  1  0.000000  0.000000  0.342528  1
  Mo  Mo7  1  0.000000  0.000000  0.657472  1
  Mo  Mo8  1  0.000000  0.000000  0.842528  1
  Mo  Mo9  1  0.000000  0.000000  0.157472  1
  C  C10  1  0.000000  0.000000  0.500000  1
  C  C11  1  0.000000  0.000000  0.000000  1
  C  C12  1  0.666667  0.333333  0.391980  1
  C  C13  1  0.333333  0.666667  0.608020  1
  C  C14  1  0.333333  0.666667  0.891980  1
  C  C15  1  0.666667  0.333333  0.108020  1
