# generated using pymatgen
data_Sc5Co2
_symmetry_space_group_name_H-M   'P 1'
_cell_length_a   7.91228680
_cell_length_b   7.91228691
_cell_length_c   6.46698966
_cell_angle_alpha   83.93454521
_cell_angle_beta   83.93454589
_cell_angle_gamma   43.83550231
_symmetry_Int_Tables_number   1
_chemical_formula_structural   Sc5Co2
_chemical_formula_sum   'Sc10 Co4'
_cell_volume   278.57826042
_cell_formula_units_Z   2
loop_
 _symmetry_equiv_pos_site_id
 _symmetry_equiv_pos_as_xyz
  1  'x, y, z'
loop_
 _atom_site_type_symbol
 _atom_site_label
 _atom_site_symmetry_multiplicity
 _atom_site_fract_x
 _atom_site_fract_y
 _atom_site_fract_z
 _atom_site_occupancy
  Sc  Sc0  1  0.021531  0.790844  0.914878  1
  Sc  Sc1  1  0.209156  0.978469  0.585122  1
  Sc  Sc2  1  0.978469  0.209156  0.085122  1
  Sc  Sc3  1  0.790844  0.021531  0.414878  1
  Sc  Sc4  1  0.351162  0.212226  0.814960  1
  Sc  Sc5  1  0.787774  0.648838  0.685040  1
  Sc  Sc6  1  0.648838  0.787774  0.185040  1
  Sc  Sc7  1  0.212226  0.351162  0.314960  1
  Sc  Sc8  1  0.572118  0.427882  0.750000  1
  Sc  Sc9  1  0.427882  0.572118  0.250000  1
  Co  Co10  1  0.173538  0.604078  0.571540  1
  Co  Co11  1  0.395922  0.826462  0.928460  1
  Co  Co12  1  0.826462  0.395922  0.428460  1
  Co  Co13  1  0.604078  0.173538  0.071540  1
