# generated using pymatgen
data_Dy9Lu3Co4RhPb
_symmetry_space_group_name_H-M   'P 1'
_cell_length_a   8.27935285
_cell_length_b   8.28747753
_cell_length_c   8.27935193
_cell_angle_alpha   111.00110382
_cell_angle_beta   110.52136199
_cell_angle_gamma   106.88315518
_symmetry_Int_Tables_number   1
_chemical_formula_structural   Dy9Lu3Co4RhPb
_chemical_formula_sum   'Dy9 Lu3 Co4 Rh1 Pb1'
_cell_volume   436.85565221
_cell_formula_units_Z   1
loop_
 _symmetry_equiv_pos_site_id
 _symmetry_equiv_pos_as_xyz
  1  'x, y, z'
loop_
 _atom_site_type_symbol
 _atom_site_label
 _atom_site_symmetry_multiplicity
 _atom_site_fract_x
 _atom_site_fract_y
 _atom_site_fract_z
 _atom_site_occupancy
  Dy  Dy0  1  0.409119  0.211496  0.196108  1
  Dy  Dy1  1  0.592756  0.788605  0.805345  1
  Dy  Dy2  1  0.015389  0.211496  0.802379  1
  Dy  Dy3  1  0.983260  0.788605  0.195849  1
  Dy  Dy4  1  0.185237  0.289303  0.476666  1
  Dy  Dy5  1  0.816022  0.710013  0.524218  1
  Dy  Dy6  1  0.185792  0.710013  0.893990  1
  Dy  Dy7  1  0.812637  0.289303  0.104065  1
  Dy  Dy8  1  0.313306  0.621192  0.307886  1
  Lu  Lu9  1  0.685498  0.375774  0.690275  1
  Lu  Lu10  1  0.314940  0.005200  0.690260  1
  Lu  Lu11  1  0.685685  0.995640  0.309955  1
  Co  Co12  1  0.380147  0.002430  0.380471  1
  Co  Co13  1  0.621958  0.002430  0.622283  1
  Co  Co14  1  0.110921  0.611680  0.500759  1
  Co  Co15  1  0.886446  0.385831  0.499385  1
  Rh  Rh16  1  0.000417  0.001692  0.001276  1
  Pb  Pb17  1  0.500469  0.499299  0.998829  1
