# generated using pymatgen
data_Lu5Mg2P12Ir17
_symmetry_space_group_name_H-M   'P 1'
_cell_length_a   12.62786100
_cell_length_b   12.81325159
_cell_length_c   3.94964600
_cell_angle_alpha   90.00000000
_cell_angle_beta   90.00000000
_cell_angle_gamma   119.52252625
_symmetry_Int_Tables_number   1
_chemical_formula_structural   Lu5Mg2P12Ir17
_chemical_formula_sum   'Lu5 Mg2 P12 Ir17'
_cell_volume   556.09302381
_cell_formula_units_Z   1
loop_
 _symmetry_equiv_pos_site_id
 _symmetry_equiv_pos_as_xyz
  1  'x, y, z'
loop_
 _atom_site_type_symbol
 _atom_site_label
 _atom_site_symmetry_multiplicity
 _atom_site_fract_x
 _atom_site_fract_y
 _atom_site_fract_z
 _atom_site_occupancy
  Lu  Lu0  1  0.332816  0.663608  0.500000  1
  Lu  Lu1  1  0.669208  0.336392  0.500000  1
  Lu  Lu2  1  0.002086  0.813640  0.000000  1
  Lu  Lu3  1  0.188447  0.186360  0.000000  1
  Lu  Lu4  1  0.810492  0.000000  0.000000  1
  Mg  Mg5  1  0.997157  0.443997  0.500000  1
  Mg  Mg6  1  0.553160  0.556003  0.500000  1
  P  P7  1  0.003721  0.645212  0.500000  1
  P  P8  1  0.358508  0.354788  0.500000  1
  P  P9  1  0.643499  0.000000  0.500000  1
  P  P10  1  0.513549  0.686200  0.000000  1
  P  P11  1  0.308248  0.823709  0.000000  1
  P  P12  1  0.169052  0.482111  0.000000  1
  P  P13  1  0.484539  0.176291  0.000000  1
  P  P14  1  0.686941  0.517889  0.000000  1
  P  P15  1  0.827349  0.313800  0.000000  1
  P  P16  1  0.998759  0.174770  0.500000  1
  P  P17  1  0.823989  0.825230  0.500000  1
  P  P18  1  0.178132  0.000000  0.500000  1
  Ir  Ir19  1  0.503689  0.864370  0.000000  1
  Ir  Ir20  1  0.128564  0.639579  0.000000  1
  Ir  Ir21  1  0.357945  0.494422  0.000000  1
  Ir  Ir22  1  0.488987  0.360421  0.000000  1
  Ir  Ir23  1  0.863524  0.505578  0.000000  1
  Ir  Ir24  1  0.639319  0.135630  0.000000  1
  Ir  Ir25  1  0.462348  0.000000  0.500000  1
  Ir  Ir26  1  0.996412  0.278306  0.000000  1
  Ir  Ir27  1  0.718105  0.721694  0.000000  1
  Ir  Ir28  1  0.286251  0.000000  0.000000  1
  Ir  Ir29  1  0.624789  0.809211  0.500000  1
  Ir  Ir30  1  0.199655  0.824416  0.500000  1
  Ir  Ir31  1  0.177349  0.365293  0.500000  1
  Ir  Ir32  1  0.375238  0.175584  0.500000  1
  Ir  Ir33  1  0.812056  0.634707  0.500000  1
  Ir  Ir34  1  0.815578  0.190789  0.500000  1
  Ir  Ir35  1  0.000536  0.000000  0.500000  1
