# generated using pymatgen
data_Li4Sm4BiPb3
_symmetry_space_group_name_H-M   'P 1'
_cell_length_a   9.74487833
_cell_length_b   9.74825342
_cell_length_c   7.45288800
_cell_angle_alpha   89.99995298
_cell_angle_beta   90.10489762
_cell_angle_gamma   120.01421347
_symmetry_Int_Tables_number   1
_chemical_formula_structural   Li4Sm4BiPb3
_chemical_formula_sum   'Li8 Sm8 Bi2 Pb6'
_cell_volume   613.04911366
_cell_formula_units_Z   2
loop_
 _symmetry_equiv_pos_site_id
 _symmetry_equiv_pos_as_xyz
  1  'x, y, z'
loop_
 _atom_site_type_symbol
 _atom_site_label
 _atom_site_symmetry_multiplicity
 _atom_site_fract_x
 _atom_site_fract_y
 _atom_site_fract_z
 _atom_site_occupancy
  Li  Li0  1  0.167600  0.333936  0.283172  1
  Li  Li1  1  0.167599  0.833601  0.283178  1
  Li  Li2  1  0.665463  0.832679  0.285760  1
  Li  Li3  1  0.830580  0.665182  0.786397  1
  Li  Li4  1  0.830592  0.165463  0.786402  1
  Li  Li5  1  0.336280  0.168189  0.790386  1
  Li  Li6  1  0.336138  0.668031  0.670602  1
  Li  Li7  1  0.665872  0.332914  0.174115  1
  Sm  Sm8  1  0.515159  0.024914  0.492109  1
  Sm  Sm9  1  0.515186  0.490277  0.492084  1
  Sm  Sm10  1  0.974284  0.487150  0.490600  1
  Sm  Sm11  1  0.491556  0.978326  0.995837  1
  Sm  Sm12  1  0.491557  0.513220  0.995810  1
  Sm  Sm13  1  0.018917  0.509455  0.996844  1
  Sm  Sm14  1  0.996696  0.998331  0.498072  1
  Sm  Sm15  1  0.996867  0.998456  0.003753  1
  Bi  Bi16  1  0.166373  0.333595  0.733904  1
  Bi  Bi17  1  0.166382  0.832770  0.733847  1
  Pb  Pb18  1  0.666627  0.833287  0.732218  1
  Pb  Pb19  1  0.833660  0.666580  0.232765  1
  Pb  Pb20  1  0.833639  0.167134  0.232735  1
  Pb  Pb21  1  0.333228  0.166652  0.232160  1
  Pb  Pb22  1  0.332233  0.666148  0.259539  1
  Pb  Pb23  1  0.667511  0.333709  0.759681  1
