# generated using pymatgen
data_ScNb3(BOs)4
_symmetry_space_group_name_H-M   'P 1'
_cell_length_a   3.14678800
_cell_length_b   9.11087472
_cell_length_c   15.84024424
_cell_angle_alpha   90.04542900
_cell_angle_beta   90.00000000
_cell_angle_gamma   90.00000000
_symmetry_Int_Tables_number   1
_chemical_formula_structural   ScNb3(BOs)4
_chemical_formula_sum   'Sc3 Nb9 B12 Os12'
_cell_volume   454.13952076
_cell_formula_units_Z   3
loop_
 _symmetry_equiv_pos_site_id
 _symmetry_equiv_pos_as_xyz
  1  'x, y, z'
loop_
 _atom_site_type_symbol
 _atom_site_label
 _atom_site_symmetry_multiplicity
 _atom_site_fract_x
 _atom_site_fract_y
 _atom_site_fract_z
 _atom_site_occupancy
  Sc  Sc0  1  0.000000  0.810728  0.491671  1
  Sc  Sc1  1  0.000000  0.189502  0.507965  1
  Sc  Sc2  1  0.000000  0.309842  0.007928  1
  Nb  Nb3  1  0.000000  0.698930  0.995356  1
  Nb  Nb4  1  0.000000  0.516180  0.594027  1
  Nb  Nb5  1  0.000000  0.483792  0.406062  1
  Nb  Nb6  1  0.000000  0.015662  0.905667  1
  Nb  Nb7  1  0.000000  0.983628  0.093799  1
  Nb  Nb8  1  0.000000  0.685320  0.205982  1
  Nb  Nb9  1  0.000000  0.313372  0.794119  1
  Nb  Nb10  1  0.000000  0.186831  0.294964  1
  Nb  Nb11  1  0.000000  0.813417  0.703959  1
  B  B12  1  0.500000  0.602386  0.496184  1
  B  B13  1  0.500000  0.397259  0.503637  1
  B  B14  1  0.500000  0.102389  0.003826  1
  B  B15  1  0.500000  0.894231  0.996699  1
  B  B16  1  0.000000  0.605839  0.834077  1
  B  B17  1  0.000000  0.389285  0.167130  1
  B  B18  1  0.000000  0.107854  0.665370  1
  B  B19  1  0.000000  0.891988  0.334146  1
  B  B20  1  0.500000  0.713923  0.599925  1
  B  B21  1  0.500000  0.285821  0.399768  1
  B  B22  1  0.500000  0.214753  0.899097  1
  B  B23  1  0.500000  0.784431  0.098857  1
  Os  Os24  1  0.500000  0.717849  0.354268  1
  Os  Os25  1  0.500000  0.281959  0.645579  1
  Os  Os26  1  0.500000  0.217956  0.144078  1
  Os  Os27  1  0.500000  0.781329  0.856854  1
  Os  Os28  1  0.500000  0.520806  0.097271  1
  Os  Os29  1  0.500000  0.482600  0.903397  1
  Os  Os30  1  0.500000  0.020887  0.399936  1
  Os  Os31  1  0.500000  0.978962  0.599371  1
  Os  Os32  1  0.500000  0.568070  0.733375  1
  Os  Os33  1  0.500000  0.433198  0.266078  1
  Os  Os34  1  0.500000  0.066352  0.767811  1
  Os  Os35  1  0.500000  0.932668  0.231767  1
