# generated using pymatgen
data_Lu7Th(MgNi)2
_symmetry_space_group_name_H-M   'P 1'
_cell_length_a   9.46033556
_cell_length_b   9.46033529
_cell_length_c   9.50545700
_cell_angle_alpha   59.84210167
_cell_angle_beta   59.84210260
_cell_angle_gamma   59.94701057
_symmetry_Int_Tables_number   1
_chemical_formula_structural   Lu7Th(MgNi)2
_chemical_formula_sum   'Lu14 Th2 Mg4 Ni4'
_cell_volume   599.86987723
_cell_formula_units_Z   2
loop_
 _symmetry_equiv_pos_site_id
 _symmetry_equiv_pos_as_xyz
  1  'x, y, z'
loop_
 _atom_site_type_symbol
 _atom_site_label
 _atom_site_symmetry_multiplicity
 _atom_site_fract_x
 _atom_site_fract_y
 _atom_site_fract_z
 _atom_site_occupancy
  Lu  Lu0  1  0.599483  0.205358  0.597580  1
  Lu  Lu1  1  0.205358  0.599483  0.597580  1
  Lu  Lu2  1  0.063250  0.438989  0.435599  1
  Lu  Lu3  1  0.438989  0.063250  0.062162  1
  Lu  Lu4  1  0.438989  0.063250  0.435599  1
  Lu  Lu5  1  0.063250  0.438989  0.062162  1
  Lu  Lu6  1  0.435134  0.435134  0.064866  1
  Lu  Lu7  1  0.063505  0.063505  0.436495  1
  Lu  Lu8  1  0.184479  0.817373  0.816498  1
  Lu  Lu9  1  0.817373  0.184479  0.181651  1
  Lu  Lu10  1  0.817373  0.184479  0.816498  1
  Lu  Lu11  1  0.184479  0.817373  0.181651  1
  Lu  Lu12  1  0.816021  0.816021  0.183979  1
  Lu  Lu13  1  0.187632  0.187632  0.812368  1
  Th  Th14  1  0.592485  0.592485  0.601813  1
  Th  Th15  1  0.592485  0.592485  0.213217  1
  Mg  Mg16  1  0.830785  0.830785  0.829251  1
  Mg  Mg17  1  0.830785  0.830785  0.509179  1
  Mg  Mg18  1  0.830638  0.509614  0.829874  1
  Mg  Mg19  1  0.509614  0.830638  0.829874  1
  Ni  Ni20  1  0.389391  0.389391  0.396111  1
  Ni  Ni21  1  0.389391  0.389391  0.825107  1
  Ni  Ni22  1  0.394321  0.824791  0.390444  1
  Ni  Ni23  1  0.824791  0.394321  0.390444  1
