# generated using pymatgen
data_Tb2Hf3Si7Pt9
_symmetry_space_group_name_H-M   'P 1'
_cell_length_a   10.02141700
_cell_length_b   10.02141701
_cell_length_c   3.99990300
_cell_angle_alpha   90.00000000
_cell_angle_beta   90.00000000
_cell_angle_gamma   119.99999668
_symmetry_Int_Tables_number   1
_chemical_formula_structural   Tb2Hf3Si7Pt9
_chemical_formula_sum   'Tb2 Hf3 Si7 Pt9'
_cell_volume   347.88713914
_cell_formula_units_Z   1
loop_
 _symmetry_equiv_pos_site_id
 _symmetry_equiv_pos_as_xyz
  1  'x, y, z'
loop_
 _atom_site_type_symbol
 _atom_site_label
 _atom_site_symmetry_multiplicity
 _atom_site_fract_x
 _atom_site_fract_y
 _atom_site_fract_z
 _atom_site_occupancy
  Tb  Tb0  1  0.000000  0.000000  0.000000  1
  Tb  Tb1  1  0.333333  0.666667  0.500000  1
  Hf  Hf2  1  0.892361  0.456038  0.500000  1
  Hf  Hf3  1  0.563678  0.107639  0.500000  1
  Hf  Hf4  1  0.543962  0.436322  0.500000  1
  Si  Si5  1  0.246673  0.197124  0.500000  1
  Si  Si6  1  0.802876  0.049551  0.500000  1
  Si  Si7  1  0.950449  0.753327  0.500000  1
  Si  Si8  1  0.558329  0.647553  0.000000  1
  Si  Si9  1  0.352447  0.910777  0.000000  1
  Si  Si10  1  0.089223  0.441671  0.000000  1
  Si  Si11  1  0.666667  0.333333  0.000000  1
  Pt  Pt12  1  0.219413  0.937533  0.500000  1
  Pt  Pt13  1  0.062467  0.281881  0.500000  1
  Pt  Pt14  1  0.718119  0.780587  0.500000  1
  Pt  Pt15  1  0.314992  0.413517  0.000000  1
  Pt  Pt16  1  0.586483  0.901476  0.000000  1
  Pt  Pt17  1  0.098524  0.685008  0.000000  1
  Pt  Pt18  1  0.387865  0.175788  0.000000  1
  Pt  Pt19  1  0.824212  0.212078  0.000000  1
  Pt  Pt20  1  0.787922  0.612135  0.000000  1
