# generated using pymatgen
data_Np(Ta2N3)2
_symmetry_space_group_name_H-M   'P 1'
_cell_length_a   5.26820900
_cell_length_b   5.26820803
_cell_length_c   10.83129400
_cell_angle_alpha   90.00000000
_cell_angle_beta   90.00000000
_cell_angle_gamma   119.99999978
_symmetry_Int_Tables_number   1
_chemical_formula_structural   Np(Ta2N3)2
_chemical_formula_sum   'Np2 Ta8 N12'
_cell_volume   260.33759540
_cell_formula_units_Z   2
loop_
 _symmetry_equiv_pos_site_id
 _symmetry_equiv_pos_as_xyz
  1  'x, y, z'
loop_
 _atom_site_type_symbol
 _atom_site_label
 _atom_site_symmetry_multiplicity
 _atom_site_fract_x
 _atom_site_fract_y
 _atom_site_fract_z
 _atom_site_occupancy
  Np  Np0  1  0.666667  0.333333  0.000000  1
  Np  Np1  1  0.333333  0.666667  0.000000  1
  Ta  Ta2  1  0.676602  0.676602  0.739174  1
  Ta  Ta3  1  0.323398  0.000000  0.739174  1
  Ta  Ta4  1  0.000000  0.323398  0.739174  1
  Ta  Ta5  1  0.323398  0.323398  0.260826  1
  Ta  Ta6  1  0.676602  0.000000  0.260826  1
  Ta  Ta7  1  0.000000  0.676602  0.260826  1
  Ta  Ta8  1  0.333333  0.666667  0.500000  1
  Ta  Ta9  1  0.666667  0.333333  0.500000  1
  N  N10  1  0.659203  0.659203  0.384881  1
  N  N11  1  0.340797  0.000000  0.384881  1
  N  N12  1  0.000000  0.340797  0.384881  1
  N  N13  1  0.340797  0.340797  0.615119  1
  N  N14  1  0.659203  0.000000  0.615119  1
  N  N15  1  0.000000  0.659203  0.615119  1
  N  N16  1  0.339538  0.339538  0.858805  1
  N  N17  1  0.660462  0.000000  0.858805  1
  N  N18  1  0.000000  0.660462  0.858805  1
  N  N19  1  0.660462  0.660462  0.141195  1
  N  N20  1  0.339538  0.000000  0.141195  1
  N  N21  1  0.000000  0.339538  0.141195  1
