# generated using pymatgen
data_TbHo5TcSb2
_symmetry_space_group_name_H-M   'P 1'
_cell_length_a   8.17858700
_cell_length_b   8.17690872
_cell_length_c   4.24269400
_cell_angle_alpha   90.00000000
_cell_angle_beta   90.00000000
_cell_angle_gamma   120.00677758
_symmetry_Int_Tables_number   1
_chemical_formula_structural   TbHo5TcSb2
_chemical_formula_sum   'Tb1 Ho5 Tc1 Sb2'
_cell_volume   245.70279951
_cell_formula_units_Z   1
loop_
 _symmetry_equiv_pos_site_id
 _symmetry_equiv_pos_as_xyz
  1  'x, y, z'
loop_
 _atom_site_type_symbol
 _atom_site_label
 _atom_site_symmetry_multiplicity
 _atom_site_fract_x
 _atom_site_fract_y
 _atom_site_fract_z
 _atom_site_occupancy
  Tb  Tb0  1  0.601888  0.000000  0.500000  1
  Ho  Ho1  1  0.236295  0.000000  0.000000  1
  Ho  Ho2  1  0.763748  0.763495  0.000000  1
  Ho  Ho3  1  0.000253  0.236505  0.000000  1
  Ho  Ho4  1  0.397602  0.397622  0.500000  1
  Ho  Ho5  1  0.999980  0.602378  0.500000  1
  Tc  Tc6  1  0.000583  0.000000  0.500000  1
  Sb  Sb7  1  0.332910  0.666169  0.000000  1
  Sb  Sb8  1  0.666742  0.333831  0.000000  1
