# generated using pymatgen
data_DyLuNi2Pb
_symmetry_space_group_name_H-M   'P 1'
_cell_length_a   7.40419948
_cell_length_b   7.40419965
_cell_length_c   3.75458700
_cell_angle_alpha   90.00000000
_cell_angle_beta   90.00000000
_cell_angle_gamma   149.95284159
_symmetry_Int_Tables_number   1
_chemical_formula_structural   DyLuNi2Pb
_chemical_formula_sum   'Dy1 Lu1 Ni2 Pb1'
_cell_volume   103.06398952
_cell_formula_units_Z   1
loop_
 _symmetry_equiv_pos_site_id
 _symmetry_equiv_pos_as_xyz
  1  'x, y, z'
loop_
 _atom_site_type_symbol
 _atom_site_label
 _atom_site_symmetry_multiplicity
 _atom_site_fract_x
 _atom_site_fract_y
 _atom_site_fract_z
 _atom_site_occupancy
  Dy  Dy0  1  0.359681  0.640322  0.500000  1
  Lu  Lu1  1  0.641898  0.358105  0.500000  1
  Ni  Ni2  1  0.798050  0.201952  0.000000  1
  Ni  Ni3  1  0.198646  0.801356  0.000000  1
  Pb  Pb4  1  0.001730  0.998270  0.000000  1
