# generated using pymatgen
data_Ce5Tm11Mn3Al4Co
_symmetry_space_group_name_H-M   'P 1'
_cell_length_a   9.39459869
_cell_length_b   9.32843786
_cell_length_c   9.32843751
_cell_angle_alpha   61.31040392
_cell_angle_beta   59.64146612
_cell_angle_gamma   59.64148480
_symmetry_Int_Tables_number   1
_chemical_formula_structural   Ce5Tm11Mn3Al4Co
_chemical_formula_sum   'Ce5 Tm11 Mn3 Al4 Co1'
_cell_volume   580.32962444
_cell_formula_units_Z   1
loop_
 _symmetry_equiv_pos_site_id
 _symmetry_equiv_pos_as_xyz
  1  'x, y, z'
loop_
 _atom_site_type_symbol
 _atom_site_label
 _atom_site_symmetry_multiplicity
 _atom_site_fract_x
 _atom_site_fract_y
 _atom_site_fract_z
 _atom_site_occupancy
  Ce  Ce0  1  0.359234  0.340344  0.340344  1
  Ce  Ce1  1  0.333582  0.370878  0.965193  1
  Ce  Ce2  1  0.333582  0.965193  0.370878  1
  Ce  Ce3  1  0.958745  0.336648  0.336648  1
  Ce  Ce4  1  0.817756  0.184298  0.184298  1
  Tm  Tm5  1  0.186342  0.813678  0.813678  1
  Tm  Tm6  1  0.197203  0.806517  0.192042  1
  Tm  Tm7  1  0.809815  0.193531  0.801332  1
  Tm  Tm8  1  0.197203  0.192042  0.806517  1
  Tm  Tm9  1  0.809815  0.801332  0.193531  1
  Tm  Tm10  1  0.940006  0.560105  0.560105  1
  Tm  Tm11  1  0.562124  0.942169  0.942169  1
  Tm  Tm12  1  0.563683  0.935364  0.567596  1
  Tm  Tm13  1  0.935179  0.565636  0.932933  1
  Tm  Tm14  1  0.563683  0.567596  0.935364  1
  Tm  Tm15  1  0.935179  0.932933  0.565636  1
  Mn  Mn16  1  0.065325  0.170805  0.170805  1
  Mn  Mn17  1  0.176481  0.116673  0.550172  1
  Mn  Mn18  1  0.176481  0.550172  0.116673  1
  Al  Al19  1  0.583677  0.575424  0.575424  1
  Al  Al20  1  0.571119  0.589469  0.266466  1
  Al  Al21  1  0.571119  0.266466  0.589469  1
  Al  Al22  1  0.265845  0.577004  0.577004  1
  Co  Co23  1  0.586825  0.145720  0.145720  1
