# generated using pymatgen
data_Lu5Sc3Re2(B12Rh)2
_symmetry_space_group_name_H-M   'P 1'
_cell_length_a   3.56896600
_cell_length_b   8.96320645
_cell_length_c   11.33735307
_cell_angle_alpha   90.22095604
_cell_angle_beta   90.00000000
_cell_angle_gamma   90.00000000
_symmetry_Int_Tables_number   1
_chemical_formula_structural   Lu5Sc3Re2(B12Rh)2
_chemical_formula_sum   'Lu5 Sc3 Re2 B24 Rh2'
_cell_volume   362.67218830
_cell_formula_units_Z   1
loop_
 _symmetry_equiv_pos_site_id
 _symmetry_equiv_pos_as_xyz
  1  'x, y, z'
loop_
 _atom_site_type_symbol
 _atom_site_label
 _atom_site_symmetry_multiplicity
 _atom_site_fract_x
 _atom_site_fract_y
 _atom_site_fract_z
 _atom_site_occupancy
  Lu  Lu0  1  0.000000  0.317166  0.411686  1
  Lu  Lu1  1  0.000000  0.682735  0.589638  1
  Lu  Lu2  1  0.000000  0.823309  0.082054  1
  Lu  Lu3  1  0.000000  0.177255  0.916666  1
  Lu  Lu4  1  0.000000  0.946582  0.373197  1
  Sc  Sc5  1  0.000000  0.052603  0.628888  1
  Sc  Sc6  1  0.000000  0.442564  0.124486  1
  Sc  Sc7  1  0.000000  0.557821  0.874584  1
  Re  Re8  1  0.000000  0.142359  0.179961  1
  Re  Re9  1  0.000000  0.859501  0.818771  1
  B  B10  1  0.500000  0.553320  0.434672  1
  B  B11  1  0.500000  0.444944  0.565937  1
  B  B12  1  0.500000  0.054285  0.065706  1
  B  B13  1  0.500000  0.946442  0.933360  1
  B  B14  1  0.500000  0.750502  0.421197  1
  B  B15  1  0.500000  0.246744  0.580198  1
  B  B16  1  0.500000  0.253261  0.079486  1
  B  B17  1  0.500000  0.747494  0.919726  1
  B  B18  1  0.500000  0.791701  0.263681  1
  B  B19  1  0.500000  0.206632  0.735890  1
  B  B20  1  0.500000  0.296182  0.234767  1
  B  B21  1  0.500000  0.704627  0.764656  1
  B  B22  1  0.500000  0.628934  0.180528  1
  B  B23  1  0.500000  0.370861  0.818962  1
  B  B24  1  0.500000  0.132077  0.316387  1
  B  B25  1  0.500000  0.870011  0.683234  1
  B  B26  1  0.500000  0.981725  0.212269  1
  B  B27  1  0.500000  0.019381  0.786459  1
  B  B28  1  0.500000  0.481169  0.285882  1
  B  B29  1  0.500000  0.518509  0.713810  1
  B  B30  1  0.500000  0.600476  0.027312  1
  B  B31  1  0.500000  0.399998  0.971947  1
  B  B32  1  0.500000  0.103801  0.474366  1
  B  B33  1  0.500000  0.897219  0.529278  1
  Rh  Rh34  1  0.000000  0.637323  0.319319  1
  Rh  Rh35  1  0.000000  0.360486  0.681044  1
