# generated using pymatgen
data_TbMgPaRh2
_symmetry_space_group_name_H-M   'P 1'
_cell_length_a   7.69791078
_cell_length_b   7.69791078
_cell_length_c   3.64990100
_cell_angle_alpha   90.00000000
_cell_angle_beta   90.00000000
_cell_angle_gamma   94.40819414
_symmetry_Int_Tables_number   1
_chemical_formula_structural   TbMgPaRh2
_chemical_formula_sum   'Tb2 Mg2 Pa2 Rh4'
_cell_volume   215.64539278
_cell_formula_units_Z   2
loop_
 _symmetry_equiv_pos_site_id
 _symmetry_equiv_pos_as_xyz
  1  'x, y, z'
loop_
 _atom_site_type_symbol
 _atom_site_label
 _atom_site_symmetry_multiplicity
 _atom_site_fract_x
 _atom_site_fract_y
 _atom_site_fract_z
 _atom_site_occupancy
  Tb  Tb0  1  0.164905  0.335095  0.500000  1
  Tb  Tb1  1  0.835095  0.664905  0.500000  1
  Mg  Mg2  1  0.000000  0.000000  0.000000  1
  Mg  Mg3  1  0.500000  0.500000  0.000000  1
  Pa  Pa4  1  0.665351  0.165351  0.500000  1
  Pa  Pa5  1  0.334649  0.834649  0.500000  1
  Rh  Rh6  1  0.150661  0.650661  0.000000  1
  Rh  Rh7  1  0.849339  0.349339  0.000000  1
  Rh  Rh8  1  0.626383  0.873617  0.000000  1
  Rh  Rh9  1  0.373617  0.126383  0.000000  1
