# generated using pymatgen
data_Pr3TcBO9
_symmetry_space_group_name_H-M   'P 1'
_cell_length_a   8.77734000
_cell_length_b   8.77734174
_cell_length_c   5.54769000
_cell_angle_alpha   90.00000000
_cell_angle_beta   90.00000000
_cell_angle_gamma   119.99999897
_symmetry_Int_Tables_number   1
_chemical_formula_structural   Pr3TcBO9
_chemical_formula_sum   'Pr6 Tc2 B2 O18'
_cell_volume   370.14232646
_cell_formula_units_Z   2
loop_
 _symmetry_equiv_pos_site_id
 _symmetry_equiv_pos_as_xyz
  1  'x, y, z'
loop_
 _atom_site_type_symbol
 _atom_site_label
 _atom_site_symmetry_multiplicity
 _atom_site_fract_x
 _atom_site_fract_y
 _atom_site_fract_z
 _atom_site_occupancy
  Pr  Pr0  1  0.368058  0.091782  0.215966  1
  Pr  Pr1  1  0.908219  0.276276  0.215966  1
  Pr  Pr2  1  0.723725  0.631943  0.215966  1
  Pr  Pr3  1  0.276276  0.368058  0.715965  1
  Pr  Pr4  1  0.091782  0.723725  0.715965  1
  Pr  Pr5  1  0.631943  0.908219  0.715965  1
  Tc  Tc6  1  0.333335  0.666667  0.240016  1
  Tc  Tc7  1  0.666665  0.333332  0.740017  1
  B  B8  1  0.000000  0.000000  0.369615  1
  B  B9  1  0.000000  0.000000  0.869614  1
  O  O10  1  0.172885  0.490454  0.020976  1
  O  O11  1  0.317567  0.827113  0.020976  1
  O  O12  1  0.509545  0.682433  0.020978  1
  O  O13  1  0.128632  0.176846  0.362825  1
  O  O14  1  0.048215  0.871369  0.362825  1
  O  O15  1  0.823154  0.951785  0.362825  1
  O  O16  1  0.145884  0.514905  0.466756  1
  O  O17  1  0.485094  0.630979  0.466756  1
  O  O18  1  0.369020  0.854116  0.466756  1
  O  O19  1  0.827113  0.509546  0.520975  1
  O  O20  1  0.682432  0.172888  0.520977  1
  O  O21  1  0.490454  0.317568  0.520977  1
  O  O22  1  0.176847  0.048216  0.862826  1
  O  O23  1  0.951784  0.128632  0.862826  1
  O  O24  1  0.871369  0.823153  0.862826  1
  O  O25  1  0.630980  0.145885  0.966755  1
  O  O26  1  0.514906  0.369020  0.966755  1
  O  O27  1  0.854116  0.485095  0.966756  1
