# generated using pymatgen
data_Sr8VCo3O16
_symmetry_space_group_name_H-M   'P 1'
_cell_length_a   7.31429791
_cell_length_b   5.95818869
_cell_length_c   11.13684012
_cell_angle_alpha   63.19612904
_cell_angle_beta   89.45453179
_cell_angle_gamma   89.78260858
_symmetry_Int_Tables_number   1
_chemical_formula_structural   Sr8VCo3O16
_chemical_formula_sum   'Sr8 V1 Co3 O16'
_cell_volume   433.17590700
_cell_formula_units_Z   1
loop_
 _symmetry_equiv_pos_site_id
 _symmetry_equiv_pos_as_xyz
  1  'x, y, z'
loop_
 _atom_site_type_symbol
 _atom_site_label
 _atom_site_symmetry_multiplicity
 _atom_site_fract_x
 _atom_site_fract_y
 _atom_site_fract_z
 _atom_site_occupancy
  Sr  Sr0  1  0.349489  0.302282  0.417831  1
  Sr  Sr1  1  0.855957  0.698324  0.081496  1
  Sr  Sr2  1  0.649344  0.704188  0.556282  1
  Sr  Sr3  1  0.157984  0.303566  0.937922  1
  Sr  Sr4  1  0.002807  0.015914  0.698057  1
  Sr  Sr5  1  0.483633  0.968747  0.804857  1
  Sr  Sr6  1  0.011115  0.978579  0.305310  1
  Sr  Sr7  1  0.492751  0.003948  0.199814  1
  V  V8  1  0.719446  0.354075  0.914191  1
  Co  Co9  1  0.781796  0.342073  0.421242  1
  Co  Co10  1  0.283569  0.656907  0.081628  1
  Co  Co11  1  0.219664  0.645993  0.585789  1
  O  O12  1  0.017377  0.265918  0.440300  1
  O  O13  1  0.527506  0.744111  0.059791  1
  O  O14  1  0.985162  0.729242  0.564171  1
  O  O15  1  0.491199  0.280200  0.935535  1
  O  O16  1  0.671998  0.260017  0.582564  1
  O  O17  1  0.155510  0.731741  0.919849  1
  O  O18  1  0.330216  0.716602  0.424849  1
  O  O19  1  0.821632  0.281425  0.069366  1
  O  O20  1  0.667177  0.144570  0.359207  1
  O  O21  1  0.155479  0.874734  0.132950  1
  O  O22  1  0.339689  0.862161  0.632224  1
  O  O23  1  0.831320  0.156020  0.860081  1
  O  O24  1  0.749773  0.676157  0.315626  1
  O  O25  1  0.254458  0.310920  0.193856  1
  O  O26  1  0.247713  0.319997  0.704245  1
  O  O27  1  0.746239  0.671586  0.800966  1
