# generated using pymatgen
data_Dy5Y5Si6O
_symmetry_space_group_name_H-M   'P 1'
_cell_length_a   8.42376416
_cell_length_b   8.42130485
_cell_length_c   6.30916512
_cell_angle_alpha   90.02212408
_cell_angle_beta   89.98893902
_cell_angle_gamma   119.99033934
_symmetry_Int_Tables_number   1
_chemical_formula_structural   Dy5Y5Si6O
_chemical_formula_sum   'Dy5 Y5 Si6 O1'
_cell_volume   387.64157590
_cell_formula_units_Z   1
loop_
 _symmetry_equiv_pos_site_id
 _symmetry_equiv_pos_as_xyz
  1  'x, y, z'
loop_
 _atom_site_type_symbol
 _atom_site_label
 _atom_site_symmetry_multiplicity
 _atom_site_fract_x
 _atom_site_fract_y
 _atom_site_fract_z
 _atom_site_occupancy
  Dy  Dy0  1  0.333297  0.666672  0.499986  1
  Dy  Dy1  1  0.666703  0.333374  0.499986  1
  Dy  Dy2  1  0.666689  0.333356  0.000003  1
  Dy  Dy3  1  0.333311  0.666668  0.000003  1
  Dy  Dy4  1  0.000000  0.763790  0.260071  1
  Y  Y5  1  0.236480  0.236475  0.259707  1
  Y  Y6  1  0.763520  0.999995  0.259707  1
  Y  Y7  1  0.000000  0.236545  0.740289  1
  Y  Y8  1  0.763506  0.763445  0.740309  1
  Y  Y9  1  0.236494  0.999939  0.740309  1
  Si  Si10  1  0.000000  0.396998  0.249737  1
  Si  Si11  1  0.603179  0.603131  0.249747  1
  Si  Si12  1  0.396821  0.999951  0.249747  1
  Si  Si13  1  0.000000  0.603190  0.750292  1
  Si  Si14  1  0.396862  0.396884  0.750247  1
  Si  Si15  1  0.603138  0.000023  0.750247  1
  O  O16  1  0.000000  0.999564  0.499611  1
