# generated using pymatgen
data_Pa4Cd2IrPt3
_symmetry_space_group_name_H-M   'P 1'
_cell_length_a   7.82962041
_cell_length_b   7.82962044
_cell_length_c   3.63388200
_cell_angle_alpha   90.00000000
_cell_angle_beta   90.00000000
_cell_angle_gamma   89.86137808
_symmetry_Int_Tables_number   1
_chemical_formula_structural   Pa4Cd2IrPt3
_chemical_formula_sum   'Pa4 Cd2 Ir1 Pt3'
_cell_volume   222.76705636
_cell_formula_units_Z   1
loop_
 _symmetry_equiv_pos_site_id
 _symmetry_equiv_pos_as_xyz
  1  'x, y, z'
loop_
 _atom_site_type_symbol
 _atom_site_label
 _atom_site_symmetry_multiplicity
 _atom_site_fract_x
 _atom_site_fract_y
 _atom_site_fract_z
 _atom_site_occupancy
  Pa  Pa0  1  0.168881  0.331119  0.500000  1
  Pa  Pa1  1  0.335985  0.827822  0.500000  1
  Pa  Pa2  1  0.823586  0.676414  0.500000  1
  Pa  Pa3  1  0.672178  0.164015  0.500000  1
  Cd  Cd4  1  0.500669  0.498522  0.000000  1
  Cd  Cd5  1  0.001478  0.999331  0.000000  1
  Ir  Ir6  1  0.632290  0.867710  0.000000  1
  Pt  Pt7  1  0.131729  0.632623  0.000000  1
  Pt  Pt8  1  0.867377  0.368271  0.000000  1
  Pt  Pt9  1  0.365826  0.134174  0.000000  1
