# generated using pymatgen
data_LiEr16In2AgRh4
_symmetry_space_group_name_H-M   'P 1'
_cell_length_a   9.56739923
_cell_length_b   9.56033332
_cell_length_c   9.51201806
_cell_angle_alpha   60.01866323
_cell_angle_beta   59.80721213
_cell_angle_gamma   59.97554712
_symmetry_Int_Tables_number   1
_chemical_formula_structural   LiEr16In2AgRh4
_chemical_formula_sum   'Li1 Er16 In2 Ag1 Rh4'
_cell_volume   614.28337955
_cell_formula_units_Z   1
loop_
 _symmetry_equiv_pos_site_id
 _symmetry_equiv_pos_as_xyz
  1  'x, y, z'
loop_
 _atom_site_type_symbol
 _atom_site_label
 _atom_site_symmetry_multiplicity
 _atom_site_fract_x
 _atom_site_fract_y
 _atom_site_fract_z
 _atom_site_occupancy
  Li  Li0  1  0.427394  0.709842  0.435370  1
  Er  Er1  1  0.188230  0.191273  0.809846  1
  Er  Er2  1  0.439277  0.063774  0.057672  1
  Er  Er3  1  0.436080  0.064704  0.435212  1
  Er  Er4  1  0.069821  0.436413  0.058088  1
  Er  Er5  1  0.649508  0.054946  0.646037  1
  Er  Er6  1  0.186093  0.814253  0.813561  1
  Er  Er7  1  0.064005  0.064704  0.435212  1
  Er  Er8  1  0.808507  0.192261  0.190725  1
  Er  Er9  1  0.812629  0.813074  0.187863  1
  Er  Er10  1  0.652713  0.646355  0.048219  1
  Er  Er11  1  0.654198  0.650566  0.651484  1
  Er  Er12  1  0.065205  0.436562  0.433029  1
  Er  Er13  1  0.043752  0.650566  0.651484  1
  Er  Er14  1  0.810652  0.191273  0.809846  1
  Er  Er15  1  0.435678  0.436413  0.058088  1
  Er  Er16  1  0.186434  0.813074  0.187863  1
  In  In17  1  0.744298  0.420587  0.420589  1
  In  In18  1  0.414526  0.420587  0.420589  1
  Ag  Ag19  1  0.414412  0.419633  0.751542  1
  Rh  Rh20  1  0.857760  0.426510  0.857969  1
  Rh  Rh21  1  0.856190  0.860392  0.427229  1
  Rh  Rh22  1  0.427754  0.861119  0.856241  1
  Rh  Rh23  1  0.854884  0.861119  0.856241  1
