# generated using pymatgen
data_Lu2SiB2Ir5
_symmetry_space_group_name_H-M   'P 1'
_cell_length_a   9.33866600
_cell_length_b   9.33866600
_cell_length_c   3.20154800
_cell_angle_alpha   90.00000000
_cell_angle_beta   90.00000000
_cell_angle_gamma   90.00000000
_symmetry_Int_Tables_number   1
_chemical_formula_structural   Lu2SiB2Ir5
_chemical_formula_sum   'Lu4 Si2 B4 Ir10'
_cell_volume   279.20918665
_cell_formula_units_Z   2
loop_
 _symmetry_equiv_pos_site_id
 _symmetry_equiv_pos_as_xyz
  1  'x, y, z'
loop_
 _atom_site_type_symbol
 _atom_site_label
 _atom_site_symmetry_multiplicity
 _atom_site_fract_x
 _atom_site_fract_y
 _atom_site_fract_z
 _atom_site_occupancy
  Lu  Lu0  1  0.175585  0.675585  0.000000  1
  Lu  Lu1  1  0.675585  0.824415  0.000000  1
  Lu  Lu2  1  0.324415  0.175585  0.000000  1
  Lu  Lu3  1  0.824415  0.324415  0.000000  1
  Si  Si4  1  0.000000  0.000000  0.000000  1
  Si  Si5  1  0.500000  0.500000  0.000000  1
  B  B6  1  0.377062  0.877062  0.000000  1
  B  B7  1  0.877062  0.622938  0.000000  1
  B  B8  1  0.122938  0.377062  0.000000  1
  B  B9  1  0.622938  0.122938  0.000000  1
  Ir  Ir10  1  0.000000  0.500000  0.500000  1
  Ir  Ir11  1  0.500000  0.000000  0.500000  1
  Ir  Ir12  1  0.286318  0.430862  0.500000  1
  Ir  Ir13  1  0.713683  0.569138  0.500000  1
  Ir  Ir14  1  0.569138  0.286318  0.500000  1
  Ir  Ir15  1  0.430862  0.713683  0.500000  1
  Ir  Ir16  1  0.930862  0.786317  0.500000  1
  Ir  Ir17  1  0.786317  0.069138  0.500000  1
  Ir  Ir18  1  0.213682  0.930862  0.500000  1
  Ir  Ir19  1  0.069138  0.213682  0.500000  1
