# generated using pymatgen
data_Ho4Hf3PdF28
_symmetry_space_group_name_H-M   'P 1'
_cell_length_a   5.65863245
_cell_length_b   8.96982473
_cell_length_c   12.05310713
_cell_angle_alpha   62.45580661
_cell_angle_beta   89.90283525
_cell_angle_gamma   90.01096437
_symmetry_Int_Tables_number   1
_chemical_formula_structural   Ho4Hf3PdF28
_chemical_formula_sum   'Ho4 Hf3 Pd1 F28'
_cell_volume   542.43530963
_cell_formula_units_Z   1
loop_
 _symmetry_equiv_pos_site_id
 _symmetry_equiv_pos_as_xyz
  1  'x, y, z'
loop_
 _atom_site_type_symbol
 _atom_site_label
 _atom_site_symmetry_multiplicity
 _atom_site_fract_x
 _atom_site_fract_y
 _atom_site_fract_z
 _atom_site_occupancy
  Ho  Ho0  1  0.757929  0.815855  0.765776  1
  Ho  Ho1  1  0.258890  0.184845  0.731373  1
  Ho  Ho2  1  0.241256  0.184219  0.239200  1
  Ho  Ho3  1  0.743481  0.813369  0.267849  1
  Hf  Hf4  1  0.756381  0.273237  0.956284  1
  Hf  Hf5  1  0.256268  0.725303  0.544503  1
  Hf  Hf6  1  0.244882  0.725171  0.045874  1
  Pd  Pd7  1  0.739955  0.272030  0.455129  1
  F  F8  1  0.463777  0.709353  0.921099  1
  F  F9  1  0.934074  0.295758  0.579731  1
  F  F10  1  0.533281  0.289011  0.079401  1
  F  F11  1  0.038859  0.710728  0.419732  1
  F  F12  1  0.448325  0.281148  0.540117  1
  F  F13  1  0.952479  0.722094  0.950840  1
  F  F14  1  0.550532  0.717841  0.452931  1
  F  F15  1  0.046308  0.277807  0.052042  1
  F  F16  1  0.772492  0.524180  0.859498  1
  F  F17  1  0.265844  0.473608  0.639042  1
  F  F18  1  0.226822  0.474397  0.143988  1
  F  F19  1  0.729783  0.516720  0.357283  1
  F  F20  1  0.758602  0.022882  0.058451  1
  F  F21  1  0.261041  0.975759  0.444713  1
  F  F22  1  0.243462  0.975453  0.941069  1
  F  F23  1  0.742395  0.027350  0.547770  1
  F  F24  1  0.981856  0.733114  0.647233  1
  F  F25  1  0.487299  0.267245  0.849905  1
  F  F26  1  0.023912  0.272583  0.363063  1
  F  F27  1  0.517427  0.732624  0.148816  1
  F  F28  1  0.037006  0.748352  0.172881  1
  F  F29  1  0.551462  0.257153  0.324217  1
  F  F30  1  0.969184  0.252414  0.828810  1
  F  F31  1  0.465716  0.745305  0.672840  1
  F  F32  1  0.424683  0.972489  0.236447  1
  F  F33  1  0.924225  0.027653  0.268560  1
  F  F34  1  0.574906  0.029089  0.763076  1
  F  F35  1  0.075202  0.973859  0.730455  1
