# generated using pymatgen
data_CeZn9Cu2
_symmetry_space_group_name_H-M   'P 1'
_cell_length_a   6.73953786
_cell_length_b   8.18768432
_cell_length_c   8.18768433
_cell_angle_alpha   99.75213563
_cell_angle_beta   114.30322291
_cell_angle_gamma   65.69678080
_symmetry_Int_Tables_number   1
_chemical_formula_structural   CeZn9Cu2
_chemical_formula_sum   'Ce2 Zn18 Cu4'
_cell_volume   375.27654317
_cell_formula_units_Z   2
loop_
 _symmetry_equiv_pos_site_id
 _symmetry_equiv_pos_as_xyz
  1  'x, y, z'
loop_
 _atom_site_type_symbol
 _atom_site_label
 _atom_site_symmetry_multiplicity
 _atom_site_fract_x
 _atom_site_fract_y
 _atom_site_fract_z
 _atom_site_occupancy
  Ce  Ce0  1  0.000000  0.000000  0.000000  1
  Ce  Ce1  1  0.250000  0.500000  0.500000  1
  Zn  Zn2  1  0.500001  0.000000  0.000000  1
  Zn  Zn3  1  0.897261  0.674440  0.082854  1
  Zn  Zn4  1  0.185593  0.325560  0.082854  1
  Zn  Zn5  1  0.352740  0.582854  0.174440  1
  Zn  Zn6  1  0.821699  0.417146  0.174440  1
  Zn  Zn7  1  0.428300  0.082854  0.325560  1
  Zn  Zn8  1  0.897261  0.917146  0.325560  1
  Zn  Zn9  1  0.064405  0.174440  0.417146  1
  Zn  Zn10  1  0.352740  0.825560  0.417146  1
  Zn  Zn11  1  0.749999  0.500000  0.500000  1
  Zn  Zn12  1  0.821699  0.825560  0.582854  1
  Zn  Zn13  1  0.761154  0.174440  0.582854  1
  Zn  Zn14  1  0.488846  0.082854  0.674440  1
  Zn  Zn15  1  0.185593  0.917146  0.674440  1
  Zn  Zn16  1  0.761154  0.417146  0.825560  1
  Zn  Zn17  1  0.064405  0.582854  0.825560  1
  Zn  Zn18  1  0.488846  0.325560  0.917146  1
  Zn  Zn19  1  0.428300  0.674440  0.917146  1
  Cu  Cu20  1  0.625001  0.250000  0.250000  1
  Cu  Cu21  1  0.624999  0.750000  0.250000  1
  Cu  Cu22  1  0.125000  0.250000  0.750000  1
  Cu  Cu23  1  0.625001  0.750000  0.750000  1
