# generated using pymatgen
data_Y3(Ho3Zn2)2
_symmetry_space_group_name_H-M   'P 1'
_cell_length_a   8.59204673
_cell_length_b   8.59207279
_cell_length_c   8.59105764
_cell_angle_alpha   94.93846451
_cell_angle_beta   94.95753260
_cell_angle_gamma   145.84375964
_symmetry_Int_Tables_number   1
_chemical_formula_structural   Y3(Ho3Zn2)2
_chemical_formula_sum   'Y3 Ho6 Zn4'
_cell_volume   340.38097862
_cell_formula_units_Z   1
loop_
 _symmetry_equiv_pos_site_id
 _symmetry_equiv_pos_as_xyz
  1  'x, y, z'
loop_
 _atom_site_type_symbol
 _atom_site_label
 _atom_site_symmetry_multiplicity
 _atom_site_fract_x
 _atom_site_fract_y
 _atom_site_fract_z
 _atom_site_occupancy
  Y  Y0  1  0.500760  0.500330  0.001090  1
  Y  Y1  1  0.887241  0.816904  0.704167  1
  Y  Y2  1  0.817433  0.113497  0.930893  1
  Ho  Ho3  1  0.183064  0.887108  0.070159  1
  Ho  Ho4  1  0.113626  0.182589  0.296221  1
  Ho  Ho5  1  0.883005  0.402794  0.285787  1
  Ho  Ho6  1  0.597140  0.882274  0.479416  1
  Ho  Ho7  1  0.402217  0.116178  0.518396  1
  Ho  Ho8  1  0.116891  0.597698  0.714596  1
  Zn  Zn9  1  0.393227  0.737001  0.130278  1
  Zn  Zn10  1  0.736116  0.606053  0.342212  1
  Zn  Zn11  1  0.263127  0.393683  0.656792  1
  Zn  Zn12  1  0.606144  0.263884  0.869992  1
