# generated using pymatgen
data_Tb5Y3(TlPd)2
_symmetry_space_group_name_H-M   'P 1'
_cell_length_a   9.79120812
_cell_length_b   9.79120804
_cell_length_c   9.79120800
_cell_angle_alpha   60.00000012
_cell_angle_beta   60.00000040
_cell_angle_gamma   60.00000194
_symmetry_Int_Tables_number   1
_chemical_formula_structural   Tb5Y3(TlPd)2
_chemical_formula_sum   'Tb10 Y6 Tl4 Pd4'
_cell_volume   663.73366666
_cell_formula_units_Z   2
loop_
 _symmetry_equiv_pos_site_id
 _symmetry_equiv_pos_as_xyz
  1  'x, y, z'
loop_
 _atom_site_type_symbol
 _atom_site_label
 _atom_site_symmetry_multiplicity
 _atom_site_fract_x
 _atom_site_fract_y
 _atom_site_fract_z
 _atom_site_occupancy
  Tb  Tb0  1  0.352434  0.352434  0.352434  1
  Tb  Tb1  1  0.352434  0.352434  0.942698  1
  Tb  Tb2  1  0.352434  0.942698  0.352434  1
  Tb  Tb3  1  0.942698  0.352434  0.352434  1
  Tb  Tb4  1  0.810695  0.189305  0.189305  1
  Tb  Tb5  1  0.189305  0.810695  0.810695  1
  Tb  Tb6  1  0.189305  0.810695  0.189305  1
  Tb  Tb7  1  0.810695  0.189305  0.810695  1
  Tb  Tb8  1  0.189305  0.189305  0.810695  1
  Tb  Tb9  1  0.810695  0.810695  0.189305  1
  Y  Y10  1  0.937566  0.562434  0.562434  1
  Y  Y11  1  0.562434  0.937566  0.937566  1
  Y  Y12  1  0.562434  0.937566  0.562434  1
  Y  Y13  1  0.937566  0.562434  0.937566  1
  Y  Y14  1  0.562434  0.562434  0.937566  1
  Y  Y15  1  0.937566  0.937566  0.562434  1
  Tl  Tl16  1  0.586325  0.586325  0.586325  1
  Tl  Tl17  1  0.586325  0.586325  0.241025  1
  Tl  Tl18  1  0.586325  0.241025  0.586325  1
  Tl  Tl19  1  0.241025  0.586325  0.586325  1
  Pd  Pd20  1  0.144209  0.144209  0.144209  1
  Pd  Pd21  1  0.144209  0.144209  0.567369  1
  Pd  Pd22  1  0.144209  0.567369  0.144209  1
  Pd  Pd23  1  0.567369  0.144209  0.144209  1
