# generated using pymatgen
data_CaYb(CoN)2
_symmetry_space_group_name_H-M   'P 1'
_cell_length_a   3.51591900
_cell_length_b   3.51591900
_cell_length_c   6.99534600
_cell_angle_alpha   90.00000000
_cell_angle_beta   90.00000000
_cell_angle_gamma   90.00000000
_symmetry_Int_Tables_number   1
_chemical_formula_structural   CaYb(CoN)2
_chemical_formula_sum   'Ca1 Yb1 Co2 N2'
_cell_volume   86.47427361
_cell_formula_units_Z   1
loop_
 _symmetry_equiv_pos_site_id
 _symmetry_equiv_pos_as_xyz
  1  'x, y, z'
loop_
 _atom_site_type_symbol
 _atom_site_label
 _atom_site_symmetry_multiplicity
 _atom_site_fract_x
 _atom_site_fract_y
 _atom_site_fract_z
 _atom_site_occupancy
  Ca  Ca0  1  0.000000  0.000000  0.250001  1
  Yb  Yb1  1  0.000000  0.000000  0.750001  1
  Co  Co2  1  0.500001  0.500001  0.993858  1
  Co  Co3  1  0.500001  0.500001  0.506142  1
  N  N4  1  0.500001  0.000000  0.994142  1
  N  N5  1  0.000000  0.500001  0.505858  1
