# generated using pymatgen
data_NdYHg2(Ir2O7)2
_symmetry_space_group_name_H-M   'P 1'
_cell_length_a   7.31746273
_cell_length_b   7.49599043
_cell_length_c   7.31746290
_cell_angle_alpha   59.24003131
_cell_angle_beta   59.11145486
_cell_angle_gamma   59.24002020
_symmetry_Int_Tables_number   1
_chemical_formula_structural   NdYHg2(Ir2O7)2
_chemical_formula_sum   'Nd1 Y1 Hg2 Ir4 O14'
_cell_volume   278.62240211
_cell_formula_units_Z   1
loop_
 _symmetry_equiv_pos_site_id
 _symmetry_equiv_pos_as_xyz
  1  'x, y, z'
loop_
 _atom_site_type_symbol
 _atom_site_label
 _atom_site_symmetry_multiplicity
 _atom_site_fract_x
 _atom_site_fract_y
 _atom_site_fract_z
 _atom_site_occupancy
  Nd  Nd0  1  0.125000  0.125000  0.125000  1
  Y  Y1  1  0.125000  0.625000  0.125000  1
  Hg  Hg2  1  0.625000  0.125000  0.125000  1
  Hg  Hg3  1  0.125000  0.125000  0.625000  1
  Ir  Ir4  1  0.125000  0.625000  0.625000  1
  Ir  Ir5  1  0.625000  0.125000  0.625000  1
  Ir  Ir6  1  0.625000  0.625000  0.125000  1
  Ir  Ir7  1  0.625000  0.625000  0.625000  1
  O  O8  1  0.714133  0.687832  0.297137  1
  O  O9  1  0.297131  0.302316  0.706582  1
  O  O10  1  0.695929  0.305246  0.695929  1
  O  O11  1  0.289473  0.706182  0.289473  1
  O  O12  1  0.297137  0.687832  0.714133  1
  O  O13  1  0.706582  0.302316  0.297131  1
  O  O14  1  0.535867  0.562168  0.952863  1
  O  O15  1  0.952869  0.947684  0.543418  1
  O  O16  1  0.554071  0.944754  0.554071  1
  O  O17  1  0.960527  0.543818  0.960527  1
  O  O18  1  0.952863  0.562168  0.535867  1
  O  O19  1  0.543418  0.947684  0.952869  1
  O  O20  1  0.254152  0.254334  0.254152  1
  O  O21  1  0.995848  0.995666  0.995848  1
