# generated using pymatgen
data_Dy2HoCdRu2
_symmetry_space_group_name_H-M   'P 1'
_cell_length_a   3.42775000
_cell_length_b   3.42775000
_cell_length_c   11.24706300
_cell_angle_alpha   90.00000000
_cell_angle_beta   90.00000000
_cell_angle_gamma   90.00000000
_symmetry_Int_Tables_number   1
_chemical_formula_structural   Dy2HoCdRu2
_chemical_formula_sum   'Dy2 Ho1 Cd1 Ru2'
_cell_volume   132.14703001
_cell_formula_units_Z   1
loop_
 _symmetry_equiv_pos_site_id
 _symmetry_equiv_pos_as_xyz
  1  'x, y, z'
loop_
 _atom_site_type_symbol
 _atom_site_label
 _atom_site_symmetry_multiplicity
 _atom_site_fract_x
 _atom_site_fract_y
 _atom_site_fract_z
 _atom_site_occupancy
  Dy  Dy0  1  0.000000  0.000000  0.298145  1
  Dy  Dy1  1  0.000000  0.000000  0.701855  1
  Ho  Ho2  1  0.000000  0.000000  0.000000  1
  Cd  Cd3  1  0.500001  0.500001  0.500000  1
  Ru  Ru4  1  0.500001  0.500001  0.156138  1
  Ru  Ru5  1  0.500001  0.500001  0.843862  1
