# generated using pymatgen
data_Tb8Hf12Si15P
_symmetry_space_group_name_H-M   'P 1'
_cell_length_a   7.27785581
_cell_length_b   7.27972712
_cell_length_c   13.38593259
_cell_angle_alpha   89.85188027
_cell_angle_beta   89.94714250
_cell_angle_gamma   89.98934703
_symmetry_Int_Tables_number   1
_chemical_formula_structural   Tb8Hf12Si15P
_chemical_formula_sum   'Tb8 Hf12 Si15 P1'
_cell_volume   709.19479121
_cell_formula_units_Z   1
loop_
 _symmetry_equiv_pos_site_id
 _symmetry_equiv_pos_as_xyz
  1  'x, y, z'
loop_
 _atom_site_type_symbol
 _atom_site_label
 _atom_site_symmetry_multiplicity
 _atom_site_fract_x
 _atom_site_fract_y
 _atom_site_fract_z
 _atom_site_occupancy
  Tb  Tb0  1  0.998440  0.344404  0.216137  1
  Tb  Tb1  1  0.004541  0.656314  0.714985  1
  Tb  Tb2  1  0.156735  0.494624  0.464027  1
  Tb  Tb3  1  0.505519  0.843631  0.035038  1
  Tb  Tb4  1  0.843730  0.504085  0.965322  1
  Tb  Tb5  1  0.495206  0.155592  0.534396  1
  Tb  Tb6  1  0.344291  0.995727  0.785047  1
  Tb  Tb7  1  0.653176  0.006519  0.284815  1
  Hf  Hf8  1  0.174721  0.175158  0.000627  1
  Hf  Hf9  1  0.826303  0.825672  0.499655  1
  Hf  Hf10  1  0.325060  0.674979  0.250507  1
  Hf  Hf11  1  0.674241  0.325785  0.749898  1
  Hf  Hf12  1  0.152552  0.998794  0.373206  1
  Hf  Hf13  1  0.850235  0.003843  0.874901  1
  Hf  Hf14  1  0.503479  0.649723  0.624467  1
  Hf  Hf15  1  0.350586  0.496453  0.875537  1
  Hf  Hf16  1  0.494713  0.348078  0.127433  1
  Hf  Hf17  1  0.648006  0.501532  0.374883  1
  Hf  Hf18  1  0.996828  0.150046  0.625249  1
  Hf  Hf19  1  0.002311  0.849059  0.125449  1
  Si  Si20  1  0.636858  0.705246  0.816606  1
  Si  Si21  1  0.204086  0.863046  0.566066  1
  Si  Si22  1  0.136791  0.795057  0.932975  1
  Si  Si23  1  0.794804  0.138108  0.067623  1
  Si  Si24  1  0.863051  0.204613  0.432689  1
  Si  Si25  1  0.295437  0.362460  0.682819  1
  Si  Si26  1  0.704228  0.636120  0.183718  1
  Si  Si27  1  0.293660  0.042346  0.182234  1
  Si  Si28  1  0.705145  0.951525  0.685436  1
  Si  Si29  1  0.452049  0.794696  0.435852  1
  Si  Si30  1  0.205138  0.548083  0.064461  1
  Si  Si31  1  0.548828  0.205226  0.936305  1
  Si  Si32  1  0.795128  0.451690  0.564012  1
  Si  Si33  1  0.048856  0.294932  0.814163  1
  Si  Si34  1  0.951488  0.705532  0.315089  1
  P  P35  1  0.363779  0.301302  0.318374  1
