# generated using pymatgen
data_PrNd2Th(CdPd2)2
_symmetry_space_group_name_H-M   'P 1'
_cell_length_a   7.91086110
_cell_length_b   7.90515310
_cell_length_c   3.89138700
_cell_angle_alpha   90.00000000
_cell_angle_beta   90.00000000
_cell_angle_gamma   91.25927984
_symmetry_Int_Tables_number   1
_chemical_formula_structural   PrNd2Th(CdPd2)2
_chemical_formula_sum   'Pr1 Nd2 Th1 Cd2 Pd4'
_cell_volume   243.29521380
_cell_formula_units_Z   1
loop_
 _symmetry_equiv_pos_site_id
 _symmetry_equiv_pos_as_xyz
  1  'x, y, z'
loop_
 _atom_site_type_symbol
 _atom_site_label
 _atom_site_symmetry_multiplicity
 _atom_site_fract_x
 _atom_site_fract_y
 _atom_site_fract_z
 _atom_site_occupancy
  Pr  Pr0  1  0.174812  0.326658  0.500000  1
  Nd  Nd1  1  0.325006  0.824512  0.500000  1
  Nd  Nd2  1  0.826607  0.675185  0.500000  1
  Th  Th3  1  0.671698  0.171308  0.500000  1
  Cd  Cd4  1  0.002460  0.997934  0.000000  1
  Cd  Cd5  1  0.499763  0.503303  0.000000  1
  Pd  Pd6  1  0.123128  0.625341  0.000000  1
  Pd  Pd7  1  0.862487  0.364727  0.000000  1
  Pd  Pd8  1  0.631994  0.880677  0.000000  1
  Pd  Pd9  1  0.382046  0.130355  0.000000  1
