# generated using pymatgen
data_Pr2Al2ZnCu7
_symmetry_space_group_name_H-M   'P 1'
_cell_length_a   4.25324000
_cell_length_b   5.21408172
_cell_length_c   8.97438889
_cell_angle_alpha   89.30810316
_cell_angle_beta   90.00000000
_cell_angle_gamma   90.00000000
_symmetry_Int_Tables_number   1
_chemical_formula_structural   Pr2Al2ZnCu7
_chemical_formula_sum   'Pr2 Al2 Zn1 Cu7'
_cell_volume   199.00818613
_cell_formula_units_Z   1
loop_
 _symmetry_equiv_pos_site_id
 _symmetry_equiv_pos_as_xyz
  1  'x, y, z'
loop_
 _atom_site_type_symbol
 _atom_site_label
 _atom_site_symmetry_multiplicity
 _atom_site_fract_x
 _atom_site_fract_y
 _atom_site_fract_z
 _atom_site_occupancy
  Pr  Pr0  1  0.000000  0.246112  0.748318  1
  Pr  Pr1  1  0.000000  0.753888  0.251682  1
  Al  Al2  1  0.500000  0.739606  0.745934  1
  Al  Al3  1  0.500000  0.260394  0.254066  1
  Zn  Zn4  1  0.500000  0.000000  0.000000  1
  Cu  Cu5  1  0.000000  0.258426  0.086379  1
  Cu  Cu6  1  0.000000  0.749235  0.584660  1
  Cu  Cu7  1  0.000000  0.741574  0.913621  1
  Cu  Cu8  1  0.000000  0.250765  0.415340  1
  Cu  Cu9  1  0.500000  0.500000  0.500000  1
  Cu  Cu10  1  0.500000  0.500000  0.000000  1
  Cu  Cu11  1  0.500000  0.000000  0.500000  1
