# generated using pymatgen
data_HoTh3(Rh2Pb)2
_symmetry_space_group_name_H-M   'P 1'
_cell_length_a   7.87000500
_cell_length_b   7.87000468
_cell_length_c   3.75988000
_cell_angle_alpha   90.00000000
_cell_angle_beta   90.00000000
_cell_angle_gamma   88.23480068
_symmetry_Int_Tables_number   1
_chemical_formula_structural   HoTh3(Rh2Pb)2
_chemical_formula_sum   'Ho1 Th3 Rh4 Pb2'
_cell_volume   232.76508780
_cell_formula_units_Z   1
loop_
 _symmetry_equiv_pos_site_id
 _symmetry_equiv_pos_as_xyz
  1  'x, y, z'
loop_
 _atom_site_type_symbol
 _atom_site_label
 _atom_site_symmetry_multiplicity
 _atom_site_fract_x
 _atom_site_fract_y
 _atom_site_fract_z
 _atom_site_occupancy
  Ho  Ho0  1  0.329975  0.829975  0.500000  1
  Th  Th1  1  0.667789  0.167789  0.500000  1
  Th  Th2  1  0.173194  0.331811  0.500000  1
  Th  Th3  1  0.831811  0.673194  0.500000  1
  Rh  Rh4  1  0.861630  0.361630  0.000000  1
  Rh  Rh5  1  0.372433  0.135948  0.000000  1
  Rh  Rh6  1  0.635948  0.872433  0.000000  1
  Rh  Rh7  1  0.120194  0.620194  0.000000  1
  Pb  Pb8  1  0.009504  0.997522  0.000000  1
  Pb  Pb9  1  0.497522  0.509504  0.000000  1
