# generated using pymatgen
data_Zr3Ti3CoAsSe
_symmetry_space_group_name_H-M   'P 1'
_cell_length_a   7.21876200
_cell_length_b   7.21876276
_cell_length_c   3.52139900
_cell_angle_alpha   90.00000000
_cell_angle_beta   90.00000000
_cell_angle_gamma   120.00001484
_symmetry_Int_Tables_number   1
_chemical_formula_structural   Zr3Ti3CoAsSe
_chemical_formula_sum   'Zr3 Ti3 Co1 As1 Se1'
_cell_volume   158.91734330
_cell_formula_units_Z   1
loop_
 _symmetry_equiv_pos_site_id
 _symmetry_equiv_pos_as_xyz
  1  'x, y, z'
loop_
 _atom_site_type_symbol
 _atom_site_label
 _atom_site_symmetry_multiplicity
 _atom_site_fract_x
 _atom_site_fract_y
 _atom_site_fract_z
 _atom_site_occupancy
  Zr  Zr0  1  0.997667  0.590003  0.500000  1
  Zr  Zr1  1  0.409997  0.407664  0.500000  1
  Zr  Zr2  1  0.592336  0.002333  0.500000  1
  Ti  Ti3  1  0.240561  0.002250  0.000000  1
  Ti  Ti4  1  0.761688  0.759439  0.000000  1
  Ti  Ti5  1  0.997750  0.238312  0.000000  1
  Co  Co6  1  0.000000  0.000000  0.500000  1
  As  As7  1  0.666667  0.333333  0.000000  1
  Se  Se8  1  0.333333  0.666667  0.000000  1
