# generated using pymatgen
data_BaCd3(BrO3)8
_symmetry_space_group_name_H-M   'P 1'
_cell_length_a   5.82721279
_cell_length_b   11.09894761
_cell_length_c   11.24577400
_cell_angle_alpha   119.41051191
_cell_angle_beta   90.02980216
_cell_angle_gamma   89.80002900
_symmetry_Int_Tables_number   1
_chemical_formula_structural   BaCd3(BrO3)8
_chemical_formula_sum   'Ba1 Cd3 Br8 O24'
_cell_volume   633.59074141
_cell_formula_units_Z   1
loop_
 _symmetry_equiv_pos_site_id
 _symmetry_equiv_pos_as_xyz
  1  'x, y, z'
loop_
 _atom_site_type_symbol
 _atom_site_label
 _atom_site_symmetry_multiplicity
 _atom_site_fract_x
 _atom_site_fract_y
 _atom_site_fract_z
 _atom_site_occupancy
  Ba  Ba0  1  0.116806  0.785012  0.510767  1
  Cd  Cd1  1  0.657721  0.220293  0.488525  1
  Cd  Cd2  1  0.164131  0.268691  0.009489  1
  Cd  Cd3  1  0.658912  0.733778  0.987107  1
  Br  Br4  1  0.282294  0.403816  0.345999  1
  Br  Br5  1  0.758322  0.564732  0.647390  1
  Br  Br6  1  0.270750  0.918084  0.869426  1
  Br  Br7  1  0.788374  0.083889  0.149179  1
  Br  Br8  1  0.756280  0.114091  0.724904  1
  Br  Br9  1  0.293665  0.932015  0.286047  1
  Br  Br10  1  0.283132  0.416052  0.810541  1
  Br  Br11  1  0.763440  0.566890  0.165217  1
  O  O12  1  0.431611  0.905670  0.987564  1
  O  O13  1  0.938471  0.116791  0.040780  1
  O  O14  1  0.369878  0.794553  0.718108  1
  O  O15  1  0.903513  0.187175  0.306129  1
  O  O16  1  0.392300  0.291579  0.189655  1
  O  O17  1  0.875786  0.684173  0.798104  1
  O  O18  1  0.912444  0.249668  0.838953  1
  O  O19  1  0.416971  0.781425  0.171141  1
  O  O20  1  0.867930  0.973205  0.721397  1
  O  O21  1  0.455968  0.064440  0.299009  1
  O  O22  1  0.364394  0.065929  0.873878  1
  O  O23  1  0.890533  0.924854  0.111385  1
  O  O24  1  0.407997  0.277565  0.678493  1
  O  O25  1  0.845703  0.715724  0.300088  1
  O  O26  1  0.372760  0.404533  0.949209  1
  O  O27  1  0.857873  0.580587  0.029326  1
  O  O28  1  0.418618  0.557481  0.827071  1
  O  O29  1  0.934104  0.445199  0.168477  1
  O  O30  1  0.375863  0.558142  0.372415  1
  O  O31  1  0.868768  0.413578  0.627100  1
  O  O32  1  0.433307  0.378545  0.459744  1
  O  O33  1  0.897613  0.588191  0.530696  1
  O  O34  1  0.839970  0.092001  0.569485  1
  O  O35  1  0.343397  0.941653  0.437198  1
