# generated using pymatgen
data_Li6TiZn5Pd12
_symmetry_space_group_name_H-M   'P 1'
_cell_length_a   4.29288900
_cell_length_b   6.09157700
_cell_length_c   12.91879701
_cell_angle_alpha   90.00000000
_cell_angle_beta   89.99608661
_cell_angle_gamma   90.00000000
_symmetry_Int_Tables_number   1
_chemical_formula_structural   Li6TiZn5Pd12
_chemical_formula_sum   'Li6 Ti1 Zn5 Pd12'
_cell_volume   337.83253413
_cell_formula_units_Z   1
loop_
 _symmetry_equiv_pos_site_id
 _symmetry_equiv_pos_as_xyz
  1  'x, y, z'
loop_
 _atom_site_type_symbol
 _atom_site_label
 _atom_site_symmetry_multiplicity
 _atom_site_fract_x
 _atom_site_fract_y
 _atom_site_fract_z
 _atom_site_occupancy
  Li  Li0  1  0.000000  0.000000  0.000000  1
  Li  Li1  1  0.499806  0.500000  0.169586  1
  Li  Li2  1  0.999777  0.000000  0.335639  1
  Li  Li3  1  0.500000  0.500000  0.500000  1
  Li  Li4  1  0.000222  0.000000  0.664361  1
  Li  Li5  1  0.500194  0.500000  0.830414  1
  Ti  Ti6  1  0.000000  0.500000  0.000000  1
  Zn  Zn7  1  0.499823  0.000000  0.168744  1
  Zn  Zn8  1  0.999792  0.500000  0.333073  1
  Zn  Zn9  1  0.500000  0.000000  0.500000  1
  Zn  Zn10  1  0.000208  0.500000  0.666927  1
  Zn  Zn11  1  0.500177  0.000000  0.831256  1
  Pd  Pd12  1  0.500000  0.249541  0.000000  1
  Pd  Pd13  1  0.500000  0.750458  0.000000  1
  Pd  Pd14  1  0.999805  0.250544  0.164174  1
  Pd  Pd15  1  0.999805  0.749455  0.164174  1
  Pd  Pd16  1  0.499783  0.249918  0.333461  1
  Pd  Pd17  1  0.499783  0.750080  0.333461  1
  Pd  Pd18  1  0.000000  0.250476  0.500000  1
  Pd  Pd19  1  0.000000  0.749525  0.500000  1
  Pd  Pd20  1  0.500217  0.249918  0.666539  1
  Pd  Pd21  1  0.500217  0.750080  0.666539  1
  Pd  Pd22  1  0.000195  0.250544  0.835826  1
  Pd  Pd23  1  0.000195  0.749455  0.835826  1
