# generated using pymatgen
data_Zr10Ga12Rh7
_symmetry_space_group_name_H-M   'P 1'
_cell_length_a   8.89196511
_cell_length_b   8.89196468
_cell_length_c   8.89196500
_cell_angle_alpha   60.00000252
_cell_angle_beta   60.00000414
_cell_angle_gamma   60.00000329
_symmetry_Int_Tables_number   1
_chemical_formula_structural   Zr10Ga12Rh7
_chemical_formula_sum   'Zr10 Ga12 Rh7'
_cell_volume   497.13948540
_cell_formula_units_Z   1
loop_
 _symmetry_equiv_pos_site_id
 _symmetry_equiv_pos_as_xyz
  1  'x, y, z'
loop_
 _atom_site_type_symbol
 _atom_site_label
 _atom_site_symmetry_multiplicity
 _atom_site_fract_x
 _atom_site_fract_y
 _atom_site_fract_z
 _atom_site_occupancy
  Zr  Zr0  1  0.689880  0.689880  0.310120  1
  Zr  Zr1  1  0.310120  0.689880  0.310120  1
  Zr  Zr2  1  0.689880  0.310120  0.310120  1
  Zr  Zr3  1  0.310120  0.310120  0.689880  1
  Zr  Zr4  1  0.689880  0.310120  0.689880  1
  Zr  Zr5  1  0.310120  0.689880  0.689880  1
  Zr  Zr6  1  0.878553  0.878553  0.364340  1
  Zr  Zr7  1  0.878553  0.364340  0.878553  1
  Zr  Zr8  1  0.364340  0.878553  0.878553  1
  Zr  Zr9  1  0.878553  0.878553  0.878553  1
  Ga  Ga10  1  0.121487  0.121487  0.635536  1
  Ga  Ga11  1  0.121487  0.635536  0.121487  1
  Ga  Ga12  1  0.635536  0.121487  0.121487  1
  Ga  Ga13  1  0.121487  0.121487  0.121487  1
  Ga  Ga14  1  0.656627  0.656627  0.030119  1
  Ga  Ga15  1  0.656627  0.030119  0.656627  1
  Ga  Ga16  1  0.030119  0.656627  0.656627  1
  Ga  Ga17  1  0.656627  0.656627  0.656627  1
  Ga  Ga18  1  0.340413  0.340413  0.978761  1
  Ga  Ga19  1  0.340413  0.978761  0.340413  1
  Ga  Ga20  1  0.978761  0.340413  0.340413  1
  Ga  Ga21  1  0.340413  0.340413  0.340413  1
  Rh  Rh22  1  0.000000  0.000000  0.000000  1
  Rh  Rh23  1  0.999382  0.999382  0.500618  1
  Rh  Rh24  1  0.500618  0.999382  0.500618  1
  Rh  Rh25  1  0.999382  0.500618  0.500618  1
  Rh  Rh26  1  0.500618  0.500618  0.999382  1
  Rh  Rh27  1  0.999382  0.500618  0.999382  1
  Rh  Rh28  1  0.500618  0.999382  0.999382  1
