# generated using pymatgen
data_Ho7Tm5InCo4Ni
_symmetry_space_group_name_H-M   'P 1'
_cell_length_a   8.21293271
_cell_length_b   8.21311840
_cell_length_c   8.22005872
_cell_angle_alpha   110.95162937
_cell_angle_beta   110.61487142
_cell_angle_gamma   106.84164324
_symmetry_Int_Tables_number   1
_chemical_formula_structural   Ho7Tm5InCo4Ni
_chemical_formula_sum   'Ho7 Tm5 In1 Co4 Ni1'
_cell_volume   426.36094679
_cell_formula_units_Z   1
loop_
 _symmetry_equiv_pos_site_id
 _symmetry_equiv_pos_as_xyz
  1  'x, y, z'
loop_
 _atom_site_type_symbol
 _atom_site_label
 _atom_site_symmetry_multiplicity
 _atom_site_fract_x
 _atom_site_fract_y
 _atom_site_fract_z
 _atom_site_occupancy
  Ho  Ho0  1  0.813411  0.707925  0.521331  1
  Ho  Ho1  1  0.186656  0.707157  0.893803  1
  Ho  Ho2  1  0.814549  0.291134  0.105688  1
  Ho  Ho3  1  0.406965  0.212017  0.195150  1
  Ho  Ho4  1  0.590440  0.785714  0.803691  1
  Ho  Ho5  1  0.017932  0.213360  0.803528  1
  Ho  Ho6  1  0.983099  0.788300  0.195004  1
  Tm  Tm7  1  0.315565  0.620350  0.305372  1
  Tm  Tm8  1  0.683491  0.378149  0.693831  1
  Tm  Tm9  1  0.315635  0.010270  0.693800  1
  Tm  Tm10  1  0.684980  0.989725  0.305342  1
  Tm  Tm11  1  0.186272  0.291381  0.477650  1
  In  In12  1  0.500062  0.499380  0.999924  1
  Co  Co13  1  0.114008  0.612467  0.500579  1
  Co  Co14  1  0.888007  0.386467  0.500589  1
  Co  Co15  1  0.378206  0.000164  0.378344  1
  Co  Co16  1  0.622966  0.999473  0.622415  1
  Ni  Ni17  1  0.997755  0.006568  0.003959  1
