# generated using pymatgen
data_YMnCdPt3
_symmetry_space_group_name_H-M   'P 1'
_cell_length_a   5.24408755
_cell_length_b   5.24408682
_cell_length_c   5.24408735
_cell_angle_alpha   63.28192707
_cell_angle_beta   63.28192516
_cell_angle_gamma   63.28193374
_symmetry_Int_Tables_number   1
_chemical_formula_structural   YMnCdPt3
_chemical_formula_sum   'Y1 Mn1 Cd1 Pt3'
_cell_volume   109.38885586
_cell_formula_units_Z   1
loop_
 _symmetry_equiv_pos_site_id
 _symmetry_equiv_pos_as_xyz
  1  'x, y, z'
loop_
 _atom_site_type_symbol
 _atom_site_label
 _atom_site_symmetry_multiplicity
 _atom_site_fract_x
 _atom_site_fract_y
 _atom_site_fract_z
 _atom_site_occupancy
  Y  Y0  1  0.752684  0.752684  0.752684  1
  Mn  Mn1  1  0.372826  0.372826  0.372826  1
  Cd  Cd2  1  0.003297  0.003297  0.003297  1
  Pt  Pt3  1  0.373240  0.874715  0.373240  1
  Pt  Pt4  1  0.373240  0.373240  0.874715  1
  Pt  Pt5  1  0.874715  0.373240  0.373240  1
