# generated using pymatgen
data_CaLaNd5OsI12
_symmetry_space_group_name_H-M   'P 1'
_cell_length_a   10.07023064
_cell_length_b   10.12523314
_cell_length_c   10.08103891
_cell_angle_alpha   106.97759310
_cell_angle_beta   106.85412488
_cell_angle_gamma   107.15358393
_symmetry_Int_Tables_number   1
_chemical_formula_structural   CaLaNd5OsI12
_chemical_formula_sum   'Ca1 La1 Nd5 Os1 I12'
_cell_volume   856.15255153
_cell_formula_units_Z   1
loop_
 _symmetry_equiv_pos_site_id
 _symmetry_equiv_pos_as_xyz
  1  'x, y, z'
loop_
 _atom_site_type_symbol
 _atom_site_label
 _atom_site_symmetry_multiplicity
 _atom_site_fract_x
 _atom_site_fract_y
 _atom_site_fract_z
 _atom_site_occupancy
  Ca  Ca0  1  0.501124  0.498566  0.498069  1
  La  La1  1  0.698673  0.902697  0.974449  1
  Nd  Nd2  1  0.295473  0.097275  0.025084  1
  Nd  Nd3  1  0.026463  0.311460  0.103319  1
  Nd  Nd4  1  0.098614  0.025160  0.299010  1
  Nd  Nd5  1  0.902530  0.975433  0.701584  1
  Nd  Nd6  1  0.971867  0.689059  0.897542  1
  Os  Os7  1  0.995686  0.999169  0.000205  1
  I  I8  1  0.683330  0.232516  0.075337  1
  I  I9  1  0.380862  0.458842  0.157870  1
  I  I10  1  0.073932  0.682679  0.225477  1
  I  I11  1  0.779093  0.930024  0.323079  1
  I  I12  1  0.459084  0.156993  0.378730  1
  I  I13  1  0.161128  0.380630  0.461284  1
  I  I14  1  0.842690  0.619767  0.540108  1
  I  I15  1  0.540481  0.839447  0.612781  1
  I  I16  1  0.225816  0.070972  0.684083  1
  I  I17  1  0.929354  0.319060  0.775861  1
  I  I18  1  0.617060  0.535303  0.837275  1
  I  I19  1  0.316745  0.774950  0.928857  1
