# generated using pymatgen
data_BaCd2(PN2)6
_symmetry_space_group_name_H-M   'P 1'
_cell_length_a   9.94479186
_cell_length_b   9.94479224
_cell_length_c   9.94479162
_cell_angle_alpha   90.04527196
_cell_angle_beta   90.04527088
_cell_angle_gamma   90.04526518
_symmetry_Int_Tables_number   1
_chemical_formula_structural   BaCd2(PN2)6
_chemical_formula_sum   'Ba4 Cd8 P24 N48'
_cell_volume   983.52791958
_cell_formula_units_Z   4
loop_
 _symmetry_equiv_pos_site_id
 _symmetry_equiv_pos_as_xyz
  1  'x, y, z'
loop_
 _atom_site_type_symbol
 _atom_site_label
 _atom_site_symmetry_multiplicity
 _atom_site_fract_x
 _atom_site_fract_y
 _atom_site_fract_z
 _atom_site_occupancy
  Ba  Ba0  1  0.999954  0.500300  0.500153  1
  Ba  Ba1  1  0.500300  0.500153  0.999954  1
  Ba  Ba2  1  0.500153  0.999954  0.500300  1
  Ba  Ba3  1  0.999916  0.999916  0.999916  1
  Cd  Cd4  1  0.386250  0.386250  0.386250  1
  Cd  Cd5  1  0.385821  0.115660  0.886972  1
  Cd  Cd6  1  0.115660  0.886972  0.385821  1
  Cd  Cd7  1  0.886972  0.385821  0.115660  1
  Cd  Cd8  1  0.614184  0.614184  0.614184  1
  Cd  Cd9  1  0.614252  0.886382  0.114388  1
  Cd  Cd10  1  0.886382  0.114388  0.614252  1
  Cd  Cd11  1  0.114388  0.614252  0.886382  1
  P  P12  1  0.694594  0.356711  0.369062  1
  P  P13  1  0.195049  0.143929  0.629934  1
  P  P14  1  0.304661  0.855767  0.131426  1
  P  P15  1  0.143929  0.629934  0.195049  1
  P  P16  1  0.131426  0.304661  0.855767  1
  P  P17  1  0.629934  0.195049  0.143929  1
  P  P18  1  0.356711  0.369062  0.694594  1
  P  P19  1  0.369062  0.694594  0.356711  1
  P  P20  1  0.855767  0.131426  0.304661  1
  P  P21  1  0.643827  0.869008  0.805394  1
  P  P22  1  0.869008  0.805394  0.643827  1
  P  P23  1  0.805394  0.643827  0.869008  1
  P  P24  1  0.304874  0.643815  0.631281  1
  P  P25  1  0.805335  0.856754  0.368962  1
  P  P26  1  0.694763  0.143853  0.869259  1
  P  P27  1  0.856754  0.368962  0.805335  1
  P  P28  1  0.869259  0.694763  0.143853  1
  P  P29  1  0.368962  0.805335  0.856754  1
  P  P30  1  0.643815  0.631281  0.304874  1
  P  P31  1  0.631281  0.304874  0.643815  1
  P  P32  1  0.143853  0.869259  0.694763  1
  P  P33  1  0.355595  0.130414  0.195016  1
  P  P34  1  0.130414  0.195016  0.355595  1
  P  P35  1  0.195016  0.355595  0.130414  1
  N  N36  1  0.711185  0.519050  0.406826  1
  N  N37  1  0.211478  0.981497  0.592931  1
  N  N38  1  0.287514  0.017876  0.093929  1
  N  N39  1  0.981497  0.592931  0.211478  1
  N  N40  1  0.093929  0.287514  0.017876  1
  N  N41  1  0.592931  0.211478  0.981497  1
  N  N42  1  0.519050  0.406826  0.711185  1
  N  N43  1  0.406826  0.711185  0.519050  1
  N  N44  1  0.017876  0.093929  0.287514  1
  N  N45  1  0.481562  0.906292  0.789008  1
  N  N46  1  0.906292  0.789008  0.481562  1
  N  N47  1  0.789008  0.481562  0.906292  1
  N  N48  1  0.288253  0.481504  0.593824  1
  N  N49  1  0.788535  0.019173  0.406488  1
  N  N50  1  0.711583  0.981632  0.906743  1
  N  N51  1  0.019173  0.406488  0.788535  1
  N  N52  1  0.906743  0.711583  0.981632  1
  N  N53  1  0.406488  0.788535  0.019173  1
  N  N54  1  0.481504  0.593824  0.288253  1
  N  N55  1  0.593824  0.288253  0.481504  1
  N  N56  1  0.157122  0.717636  0.629641  1
  N  N57  1  0.981632  0.906743  0.711583  1
  N  N58  1  0.093194  0.211470  0.517843  1
  N  N59  1  0.211470  0.517843  0.093194  1
  N  N60  1  0.842900  0.283690  0.368752  1
  N  N61  1  0.342905  0.217739  0.628935  1
  N  N62  1  0.156993  0.781527  0.130195  1
  N  N63  1  0.217739  0.628935  0.342905  1
  N  N64  1  0.130195  0.156993  0.781527  1
  N  N65  1  0.628935  0.342905  0.217739  1
  N  N66  1  0.283690  0.368752  0.842900  1
  N  N67  1  0.368752  0.842900  0.283690  1
  N  N68  1  0.781527  0.130195  0.156993  1
  N  N69  1  0.717160  0.869769  0.657285  1
  N  N70  1  0.869769  0.657285  0.717160  1
  N  N71  1  0.657285  0.717160  0.869769  1
  N  N72  1  0.342833  0.282022  0.130144  1
  N  N73  1  0.130144  0.342833  0.282022  1
  N  N74  1  0.282022  0.130144  0.342833  1
  N  N75  1  0.217420  0.870385  0.842816  1
  N  N76  1  0.629641  0.157122  0.717636  1
  N  N77  1  0.717636  0.629641  0.157122  1
  N  N78  1  0.368769  0.656959  0.783499  1
  N  N79  1  0.870385  0.842816  0.217420  1
  N  N80  1  0.783499  0.368769  0.656959  1
  N  N81  1  0.842816  0.217420  0.870385  1
  N  N82  1  0.656959  0.783499  0.368769  1
  N  N83  1  0.517843  0.093194  0.211470  1
