# generated using pymatgen
data_BaDyIn2Au3
_symmetry_space_group_name_H-M   'P 1'
_cell_length_a   4.72806900
_cell_length_b   7.98256800
_cell_length_c   9.58139600
_cell_angle_alpha   90.00000000
_cell_angle_beta   90.00000000
_cell_angle_gamma   90.00000000
_symmetry_Int_Tables_number   1
_chemical_formula_structural   BaDyIn2Au3
_chemical_formula_sum   'Ba2 Dy2 In4 Au6'
_cell_volume   361.62231546
_cell_formula_units_Z   2
loop_
 _symmetry_equiv_pos_site_id
 _symmetry_equiv_pos_as_xyz
  1  'x, y, z'
loop_
 _atom_site_type_symbol
 _atom_site_label
 _atom_site_symmetry_multiplicity
 _atom_site_fract_x
 _atom_site_fract_y
 _atom_site_fract_z
 _atom_site_occupancy
  Ba  Ba0  1  0.500000  0.000000  0.733309  1
  Ba  Ba1  1  0.000000  0.500000  0.266691  1
  Dy  Dy2  1  0.000000  0.000000  0.350603  1
  Dy  Dy3  1  0.500000  0.500000  0.649397  1
  In  In4  1  0.000000  0.307758  0.880388  1
  In  In5  1  0.500000  0.192242  0.119612  1
  In  In6  1  0.000000  0.692242  0.880388  1
  In  In7  1  0.500000  0.807758  0.119612  1
  Au  Au8  1  0.000000  0.725659  0.582841  1
  Au  Au9  1  0.500000  0.774341  0.417159  1
  Au  Au10  1  0.500000  0.500000  0.966446  1
  Au  Au11  1  0.000000  0.000000  0.033554  1
  Au  Au12  1  0.500000  0.225659  0.417159  1
  Au  Au13  1  0.000000  0.274341  0.582841  1
