# generated using pymatgen
data_Na2PPd3
_symmetry_space_group_name_H-M   'P 1'
_cell_length_a   4.95577671
_cell_length_b   4.95577646
_cell_length_c   4.95577564
_cell_angle_alpha   68.95597821
_cell_angle_beta   68.95597970
_cell_angle_gamma   68.95597403
_symmetry_Int_Tables_number   1
_chemical_formula_structural   Na2PPd3
_chemical_formula_sum   'Na2 P1 Pd3'
_cell_volume   102.25122326
_cell_formula_units_Z   1
loop_
 _symmetry_equiv_pos_site_id
 _symmetry_equiv_pos_as_xyz
  1  'x, y, z'
loop_
 _atom_site_type_symbol
 _atom_site_label
 _atom_site_symmetry_multiplicity
 _atom_site_fract_x
 _atom_site_fract_y
 _atom_site_fract_z
 _atom_site_occupancy
  Na  Na0  1  0.877463  0.877463  0.877463  1
  Na  Na1  1  0.122537  0.122537  0.122537  1
  P  P2  1  0.500000  0.500000  0.500000  1
  Pd  Pd3  1  0.500000  0.500000  0.000000  1
  Pd  Pd4  1  0.000000  0.500000  0.500000  1
  Pd  Pd5  1  0.500000  0.000000  0.500000  1
