# generated using pymatgen
data_Ga7CuIr8
_symmetry_space_group_name_H-M   'P 1'
_cell_length_a   6.07479200
_cell_length_b   6.07478102
_cell_length_c   6.08896300
_cell_angle_alpha   89.99829285
_cell_angle_beta   89.99941523
_cell_angle_gamma   89.99537843
_symmetry_Int_Tables_number   1
_chemical_formula_structural   Ga7CuIr8
_chemical_formula_sum   'Ga7 Cu1 Ir8'
_cell_volume   224.70119047
_cell_formula_units_Z   1
loop_
 _symmetry_equiv_pos_site_id
 _symmetry_equiv_pos_as_xyz
  1  'x, y, z'
loop_
 _atom_site_type_symbol
 _atom_site_label
 _atom_site_symmetry_multiplicity
 _atom_site_fract_x
 _atom_site_fract_y
 _atom_site_fract_z
 _atom_site_occupancy
  Ga  Ga0  1  0.750037  0.249991  0.999984  1
  Ga  Ga1  1  0.249959  0.750007  0.000007  1
  Ga  Ga2  1  0.250016  0.750006  0.500002  1
  Ga  Ga3  1  0.250016  0.249992  0.000006  1
  Ga  Ga4  1  0.749982  0.750004  0.999992  1
  Ga  Ga5  1  0.249962  0.249992  0.500006  1
  Ga  Ga6  1  0.750050  0.750005  0.499995  1
  Cu  Cu7  1  0.749999  0.250000  0.500015  1
  Ir  Ir8  1  0.499249  0.999234  0.249159  1
  Ir  Ir9  1  0.499249  0.500770  0.249157  1
  Ir  Ir10  1  0.000768  0.999237  0.249200  1
  Ir  Ir11  1  0.000773  0.500762  0.249195  1
  Ir  Ir12  1  0.000755  0.999239  0.750802  1
  Ir  Ir13  1  0.000755  0.500764  0.750800  1
  Ir  Ir14  1  0.499213  0.999227  0.750843  1
  Ir  Ir15  1  0.499216  0.500764  0.750840  1
