# generated using pymatgen
data_Er4Co9P12Ir5Rh6
_symmetry_space_group_name_H-M   'P 1'
_cell_length_a   3.80846700
_cell_length_b   10.55494621
_cell_length_c   12.19121102
_cell_angle_alpha   89.76024559
_cell_angle_beta   90.00000000
_cell_angle_gamma   90.00000000
_symmetry_Int_Tables_number   1
_chemical_formula_structural   Er4Co9P12Ir5Rh6
_chemical_formula_sum   'Er4 Co9 P12 Ir5 Rh6'
_cell_volume   490.06001368
_cell_formula_units_Z   1
loop_
 _symmetry_equiv_pos_site_id
 _symmetry_equiv_pos_as_xyz
  1  'x, y, z'
loop_
 _atom_site_type_symbol
 _atom_site_label
 _atom_site_symmetry_multiplicity
 _atom_site_fract_x
 _atom_site_fract_y
 _atom_site_fract_z
 _atom_site_occupancy
  Er  Er0  1  0.250000  0.583568  0.709213  1
  Er  Er1  1  0.250000  0.912617  0.214174  1
  Er  Er2  1  0.750000  0.420374  0.290395  1
  Er  Er3  1  0.750000  0.082798  0.790080  1
  Co  Co4  1  0.750000  0.723394  0.322857  1
  Co  Co5  1  0.250000  0.882673  0.695871  1
  Co  Co6  1  0.250000  0.621808  0.196837  1
  Co  Co7  1  0.750000  0.112527  0.303240  1
  Co  Co8  1  0.750000  0.383744  0.802234  1
  Co  Co9  1  0.250000  0.462383  0.932738  1
  Co  Co10  1  0.250000  0.036135  0.432200  1
  Co  Co11  1  0.750000  0.537809  0.068277  1
  Co  Co12  1  0.750000  0.964708  0.566235  1
  P  P13  1  0.250000  0.432210  0.111594  1
  P  P14  1  0.250000  0.069683  0.610216  1
  P  P15  1  0.750000  0.568197  0.889991  1
  P  P16  1  0.750000  0.922953  0.388578  1
  P  P17  1  0.250000  0.272036  0.870636  1
  P  P18  1  0.250000  0.226913  0.370646  1
  P  P19  1  0.750000  0.725469  0.139975  1
  P  P20  1  0.750000  0.774047  0.629065  1
  P  P21  1  0.250000  0.606194  0.375983  1
  P  P22  1  0.250000  0.899922  0.879471  1
  P  P23  1  0.750000  0.403204  0.619061  1
  P  P24  1  0.750000  0.096890  0.121596  1
  Ir  Ir25  1  0.750000  0.594225  0.519858  1
  Ir  Ir26  1  0.750000  0.905198  0.027102  1
  Ir  Ir27  1  0.250000  0.225921  0.180246  1
  Ir  Ir28  1  0.250000  0.274691  0.678927  1
  Ir  Ir29  1  0.750000  0.773755  0.820701  1
  Rh  Rh30  1  0.250000  0.716481  0.988513  1
  Rh  Rh31  1  0.250000  0.785562  0.485249  1
  Rh  Rh32  1  0.750000  0.279585  0.008945  1
  Rh  Rh33  1  0.750000  0.221802  0.506972  1
  Rh  Rh34  1  0.250000  0.412813  0.474783  1
  Rh  Rh35  1  0.250000  0.087711  0.977539  1
