# generated using pymatgen
data_TiBe3CoPd
_symmetry_space_group_name_H-M   'P 1'
_cell_length_a   4.54852578
_cell_length_b   4.54852583
_cell_length_c   4.38354400
_cell_angle_alpha   58.74697297
_cell_angle_beta   58.74697262
_cell_angle_gamma   59.99999906
_symmetry_Int_Tables_number   1
_chemical_formula_structural   TiBe3CoPd
_chemical_formula_sum   'Ti1 Be3 Co1 Pd1'
_cell_volume   62.88706337
_cell_formula_units_Z   1
loop_
 _symmetry_equiv_pos_site_id
 _symmetry_equiv_pos_as_xyz
  1  'x, y, z'
loop_
 _atom_site_type_symbol
 _atom_site_label
 _atom_site_symmetry_multiplicity
 _atom_site_fract_x
 _atom_site_fract_y
 _atom_site_fract_z
 _atom_site_occupancy
  Ti  Ti0  1  0.001434  0.001434  0.995696  1
  Be  Be1  1  0.623403  0.128896  0.624297  1
  Be  Be2  1  0.128896  0.623403  0.624297  1
  Be  Be3  1  0.623403  0.623403  0.624297  1
  Co  Co4  1  0.628344  0.628344  0.114969  1
  Pd  Pd5  1  0.244519  0.244519  0.266443  1
