# generated using pymatgen
data_Nd2Co7Ni2Mo3As7
_symmetry_space_group_name_H-M   'P 1'
_cell_length_a   9.47295789
_cell_length_b   9.47328806
_cell_length_c   3.90298700
_cell_angle_alpha   90.00000000
_cell_angle_beta   90.00000000
_cell_angle_gamma   119.83700721
_symmetry_Int_Tables_number   1
_chemical_formula_structural   Nd2Co7Ni2Mo3As7
_chemical_formula_sum   'Nd2 Co7 Ni2 Mo3 As7'
_cell_volume   303.82607379
_cell_formula_units_Z   1
loop_
 _symmetry_equiv_pos_site_id
 _symmetry_equiv_pos_as_xyz
  1  'x, y, z'
loop_
 _atom_site_type_symbol
 _atom_site_label
 _atom_site_symmetry_multiplicity
 _atom_site_fract_x
 _atom_site_fract_y
 _atom_site_fract_z
 _atom_site_occupancy
  Nd  Nd0  1  0.333800  0.667019  0.000000  1
  Nd  Nd1  1  0.999156  0.998799  0.500000  1
  Co  Co2  1  0.287615  0.386955  0.500000  1
  Co  Co3  1  0.615570  0.901029  0.500000  1
  Co  Co4  1  0.098083  0.714219  0.500000  1
  Co  Co5  1  0.514953  0.459958  0.000000  1
  Co  Co6  1  0.540860  0.051706  0.000000  1
  Co  Co7  1  0.946567  0.486792  0.000000  1
  Co  Co8  1  0.727985  0.761302  0.000000  1
  Ni  Ni9  1  0.238201  0.967118  0.000000  1
  Ni  Ni10  1  0.031173  0.270234  0.000000  1
  Mo  Mo11  1  0.766279  0.549497  0.500000  1
  Mo  Mo12  1  0.452137  0.220597  0.500000  1
  Mo  Mo13  1  0.781736  0.232415  0.500000  1
  As  As14  1  0.967511  0.741390  0.000000  1
  As  As15  1  0.258703  0.229130  0.000000  1
  As  As16  1  0.771114  0.026890  0.000000  1
  As  As17  1  0.667304  0.331975  0.000000  1
  As  As18  1  0.552575  0.626595  0.500000  1
  As  As19  1  0.374699  0.926336  0.500000  1
  As  As20  1  0.073979  0.450041  0.500000  1
