# generated using pymatgen
data_Ho4ErTm5Ru4
_symmetry_space_group_name_H-M   'P 1'
_cell_length_a   6.27451212
_cell_length_b   7.25813129
_cell_length_c   8.38586927
_cell_angle_alpha   96.83864364
_cell_angle_beta   111.99203503
_cell_angle_gamma   89.96752862
_symmetry_Int_Tables_number   1
_chemical_formula_structural   Ho4ErTm5Ru4
_chemical_formula_sum   'Ho4 Er1 Tm5 Ru4'
_cell_volume   351.19243407
_cell_formula_units_Z   1
loop_
 _symmetry_equiv_pos_site_id
 _symmetry_equiv_pos_as_xyz
  1  'x, y, z'
loop_
 _atom_site_type_symbol
 _atom_site_label
 _atom_site_symmetry_multiplicity
 _atom_site_fract_x
 _atom_site_fract_y
 _atom_site_fract_z
 _atom_site_occupancy
  Ho  Ho0  1  0.790397  0.083783  0.812884  1
  Ho  Ho1  1  0.977379  0.416161  0.187043  1
  Ho  Ho2  1  0.209718  0.916081  0.187105  1
  Ho  Ho3  1  0.022531  0.583929  0.812970  1
  Er  Er4  1  0.205639  0.184480  0.565387  1
  Tm  Tm5  1  0.640155  0.315636  0.434571  1
  Tm  Tm6  1  0.794272  0.815573  0.434477  1
  Tm  Tm7  1  0.359888  0.684396  0.565369  1
  Tm  Tm8  1  0.419243  0.249904  0.000059  1
  Tm  Tm9  1  0.580850  0.750134  0.000073  1
  Ru  Ru10  1  0.601605  0.424109  0.779469  1
  Ru  Ru11  1  0.821847  0.076207  0.220384  1
  Ru  Ru12  1  0.398573  0.576013  0.220643  1
  Ru  Ru13  1  0.177903  0.923593  0.779567  1
