# generated using pymatgen
data_Dy4ErAlCo5
_symmetry_space_group_name_H-M   'P 1'
_cell_length_a   5.47792705
_cell_length_b   5.47792632
_cell_length_c   20.58256800
_cell_angle_alpha   90.00000000
_cell_angle_beta   90.00000000
_cell_angle_gamma   137.16984118
_symmetry_Int_Tables_number   1
_chemical_formula_structural   Dy4ErAlCo5
_chemical_formula_sum   'Dy8 Er2 Al2 Co10'
_cell_volume   419.88529974
_cell_formula_units_Z   2
loop_
 _symmetry_equiv_pos_site_id
 _symmetry_equiv_pos_as_xyz
  1  'x, y, z'
loop_
 _atom_site_type_symbol
 _atom_site_label
 _atom_site_symmetry_multiplicity
 _atom_site_fract_x
 _atom_site_fract_y
 _atom_site_fract_z
 _atom_site_occupancy
  Dy  Dy0  1  0.291055  0.708945  0.066235  1
  Dy  Dy1  1  0.998107  0.001893  0.842332  1
  Dy  Dy2  1  0.708945  0.291055  0.566235  1
  Dy  Dy3  1  0.001893  0.998107  0.342332  1
  Dy  Dy4  1  0.998107  0.001893  0.657668  1
  Dy  Dy5  1  0.708945  0.291055  0.933765  1
  Dy  Dy6  1  0.001893  0.998107  0.157668  1
  Dy  Dy7  1  0.291055  0.708945  0.433765  1
  Er  Er8  1  0.287212  0.712788  0.250000  1
  Er  Er9  1  0.712788  0.287212  0.750000  1
  Al  Al10  1  0.000000  0.000000  0.500000  1
  Al  Al11  1  0.000000  0.000000  0.000000  1
  Co  Co12  1  0.295356  0.704644  0.654419  1
  Co  Co13  1  0.580883  0.419117  0.441635  1
  Co  Co14  1  0.413599  0.586401  0.750000  1
  Co  Co15  1  0.419117  0.580883  0.941635  1
  Co  Co16  1  0.586401  0.413599  0.250000  1
  Co  Co17  1  0.419117  0.580883  0.558365  1
  Co  Co18  1  0.704644  0.295356  0.345581  1
  Co  Co19  1  0.704644  0.295356  0.154419  1
  Co  Co20  1  0.580883  0.419117  0.058365  1
  Co  Co21  1  0.295356  0.704644  0.845581  1
