# generated using pymatgen
data_Ca12Ga7SiNi8
_symmetry_space_group_name_H-M   'P 1'
_cell_length_a   5.73483042
_cell_length_b   7.84507923
_cell_length_c   13.20177729
_cell_angle_alpha   89.98154766
_cell_angle_beta   90.01506225
_cell_angle_gamma   90.21769452
_symmetry_Int_Tables_number   1
_chemical_formula_structural   Ca12Ga7SiNi8
_chemical_formula_sum   'Ca12 Ga7 Si1 Ni8'
_cell_volume   593.94624893
_cell_formula_units_Z   1
loop_
 _symmetry_equiv_pos_site_id
 _symmetry_equiv_pos_as_xyz
  1  'x, y, z'
loop_
 _atom_site_type_symbol
 _atom_site_label
 _atom_site_symmetry_multiplicity
 _atom_site_fract_x
 _atom_site_fract_y
 _atom_site_fract_z
 _atom_site_occupancy
  Ca  Ca0  1  0.138525  0.894852  0.599991  1
  Ca  Ca1  1  0.857550  0.106115  0.098430  1
  Ca  Ca2  1  0.141525  0.605835  0.402055  1
  Ca  Ca3  1  0.856387  0.391684  0.899280  1
  Ca  Ca4  1  0.857610  0.106108  0.401460  1
  Ca  Ca5  1  0.138579  0.894852  0.900004  1
  Ca  Ca6  1  0.856493  0.391714  0.600730  1
  Ca  Ca7  1  0.141540  0.605813  0.097879  1
  Ca  Ca8  1  0.356023  0.238248  0.750062  1
  Ca  Ca9  1  0.641671  0.759465  0.249991  1
  Ca  Ca10  1  0.358036  0.260084  0.249985  1
  Ca  Ca11  1  0.646831  0.740660  0.750073  1
  Ga  Ga12  1  0.166678  0.911274  0.249984  1
  Ga  Ga13  1  0.834104  0.410684  0.249979  1
  Ga  Ga14  1  0.170824  0.588295  0.750034  1
  Ga  Ga15  1  0.381888  0.250125  0.500530  1
  Ga  Ga16  1  0.618884  0.750474  0.999410  1
  Ga  Ga17  1  0.618865  0.750481  0.500560  1
  Ga  Ga18  1  0.381840  0.250113  0.999421  1
  Si  Si19  1  0.826548  0.088048  0.750076  1
  Ni  Ni20  1  0.628907  0.029689  0.594485  1
  Ni  Ni21  1  0.376818  0.972476  0.087527  1
  Ni  Ni22  1  0.625162  0.471584  0.411056  1
  Ni  Ni23  1  0.374062  0.528799  0.910355  1
  Ni  Ni24  1  0.376825  0.972547  0.412452  1
  Ni  Ni25  1  0.628753  0.029695  0.905562  1
  Ni  Ni26  1  0.373998  0.528751  0.589733  1
  Ni  Ni27  1  0.625074  0.471535  0.088895  1
