# generated using pymatgen
data_Tb4Er3TmPt4
_symmetry_space_group_name_H-M   'P 1'
_cell_length_a   4.76223000
_cell_length_b   7.14932205
_cell_length_c   8.73841200
_cell_angle_alpha   89.93903631
_cell_angle_beta   90.00000000
_cell_angle_gamma   90.00000000
_symmetry_Int_Tables_number   1
_chemical_formula_structural   Tb4Er3TmPt4
_chemical_formula_sum   'Tb4 Er3 Tm1 Pt4'
_cell_volume   297.51406265
_cell_formula_units_Z   1
loop_
 _symmetry_equiv_pos_site_id
 _symmetry_equiv_pos_as_xyz
  1  'x, y, z'
loop_
 _atom_site_type_symbol
 _atom_site_label
 _atom_site_symmetry_multiplicity
 _atom_site_fract_x
 _atom_site_fract_y
 _atom_site_fract_z
 _atom_site_occupancy
  Tb  Tb0  1  0.250000  0.989406  0.330380  1
  Tb  Tb1  1  0.250000  0.490210  0.170236  1
  Tb  Tb2  1  0.750000  0.009537  0.669987  1
  Tb  Tb3  1  0.750000  0.510563  0.829434  1
  Er  Er4  1  0.250000  0.856246  0.921057  1
  Er  Er5  1  0.250000  0.356183  0.578611  1
  Er  Er6  1  0.750000  0.143956  0.079208  1
  Tm  Tm7  1  0.750000  0.643849  0.421036  1
  Pt  Pt8  1  0.250000  0.255459  0.907253  1
  Pt  Pt9  1  0.250000  0.754652  0.592356  1
  Pt  Pt10  1  0.750000  0.744588  0.093088  1
  Pt  Pt11  1  0.750000  0.245351  0.407355  1
