# generated using pymatgen
data_Zr3Pd(SeO3)8
_symmetry_space_group_name_H-M   'P 1'
_cell_length_a   8.57310393
_cell_length_b   8.57310370
_cell_length_c   8.57310413
_cell_angle_alpha   89.91329922
_cell_angle_beta   90.08670302
_cell_angle_gamma   90.08670579
_symmetry_Int_Tables_number   1
_chemical_formula_structural   Zr3Pd(SeO3)8
_chemical_formula_sum   'Zr3 Pd1 Se8 O24'
_cell_volume   630.10478031
_cell_formula_units_Z   1
loop_
 _symmetry_equiv_pos_site_id
 _symmetry_equiv_pos_as_xyz
  1  'x, y, z'
loop_
 _atom_site_type_symbol
 _atom_site_label
 _atom_site_symmetry_multiplicity
 _atom_site_fract_x
 _atom_site_fract_y
 _atom_site_fract_z
 _atom_site_occupancy
  Zr  Zr0  1  0.500000  0.000000  0.500000  1
  Zr  Zr1  1  0.000000  0.000000  0.000000  1
  Zr  Zr2  1  0.000000  0.500000  0.500000  1
  Pd  Pd3  1  0.500000  0.500000  0.000000  1
  Se  Se4  1  0.812935  0.187065  0.687065  1
  Se  Se5  1  0.187065  0.812935  0.312935  1
  Se  Se6  1  0.680199  0.671064  0.718616  1
  Se  Se7  1  0.218616  0.680199  0.828936  1
  Se  Se8  1  0.328936  0.218616  0.819801  1
  Se  Se9  1  0.781384  0.319801  0.171064  1
  Se  Se10  1  0.671064  0.781384  0.180199  1
  Se  Se11  1  0.319801  0.328936  0.281384  1
  O  O12  1  0.223433  0.438205  0.419077  1
  O  O13  1  0.919077  0.223433  0.061795  1
  O  O14  1  0.031664  0.725552  0.406413  1
  O  O15  1  0.466865  0.268214  0.965322  1
  O  O16  1  0.274448  0.906413  0.468336  1
  O  O17  1  0.534678  0.533135  0.768214  1
  O  O18  1  0.906413  0.031664  0.774448  1
  O  O19  1  0.533135  0.731786  0.034678  1
  O  O20  1  0.561795  0.919077  0.276567  1
  O  O21  1  0.438205  0.080923  0.723433  1
  O  O22  1  0.786619  0.901317  0.069847  1
  O  O23  1  0.268214  0.534678  0.966865  1
  O  O24  1  0.098683  0.569847  0.713381  1
  O  O25  1  0.093587  0.968336  0.225552  1
  O  O26  1  0.213381  0.098683  0.930153  1
  O  O27  1  0.465322  0.466865  0.231786  1
  O  O28  1  0.776567  0.561795  0.580923  1
  O  O29  1  0.901317  0.430153  0.286619  1
  O  O30  1  0.080923  0.776567  0.938205  1
  O  O31  1  0.430153  0.213381  0.401317  1
  O  O32  1  0.569847  0.786619  0.598683  1
  O  O33  1  0.968336  0.274448  0.593587  1
  O  O34  1  0.725552  0.093587  0.531664  1
  O  O35  1  0.731786  0.465322  0.033135  1
