# generated using pymatgen
data_Ba9SrBi2Pb4F2
_symmetry_space_group_name_H-M   'P 1'
_cell_length_a   10.65515415
_cell_length_b   10.65515430
_cell_length_c   10.65515374
_cell_angle_alpha   128.83711216
_cell_angle_beta   128.83711090
_cell_angle_gamma   75.27280395
_symmetry_Int_Tables_number   1
_chemical_formula_structural   Ba9SrBi2Pb4F2
_chemical_formula_sum   'Ba9 Sr1 Bi2 Pb4 F2'
_cell_volume   714.43556281
_cell_formula_units_Z   1
loop_
 _symmetry_equiv_pos_site_id
 _symmetry_equiv_pos_as_xyz
  1  'x, y, z'
loop_
 _atom_site_type_symbol
 _atom_site_label
 _atom_site_symmetry_multiplicity
 _atom_site_fract_x
 _atom_site_fract_y
 _atom_site_fract_z
 _atom_site_occupancy
  Ba  Ba0  1  0.000000  0.000000  0.000000  1
  Ba  Ba1  1  0.511961  0.014988  0.822599  1
  Ba  Ba2  1  0.192389  0.689362  0.177401  1
  Ba  Ba3  1  0.014988  0.192389  0.503027  1
  Ba  Ba4  1  0.689362  0.511961  0.496973  1
  Ba  Ba5  1  0.488039  0.985012  0.177401  1
  Ba  Ba6  1  0.807611  0.310638  0.822599  1
  Ba  Ba7  1  0.985012  0.807611  0.496973  1
  Ba  Ba8  1  0.310638  0.488039  0.503027  1
  Sr  Sr9  1  0.500000  0.500000  0.000000  1
  Bi  Bi10  1  0.250181  0.250181  0.000000  1
  Bi  Bi11  1  0.749819  0.749819  0.000000  1
  Pb  Pb12  1  0.871550  0.376940  0.248491  1
  Pb  Pb13  1  0.128450  0.623060  0.751510  1
  Pb  Pb14  1  0.376940  0.128450  0.505390  1
  Pb  Pb15  1  0.623060  0.871550  0.494610  1
  F  F16  1  0.250000  0.750000  0.500000  1
  F  F17  1  0.750000  0.250000  0.500000  1
