# generated using pymatgen
data_La3Pr13MgHg3Rh4
_symmetry_space_group_name_H-M   'P 1'
_cell_length_a   10.00594275
_cell_length_b   10.07272140
_cell_length_c   10.07128354
_cell_angle_alpha   59.92678450
_cell_angle_beta   59.87007195
_cell_angle_gamma   59.86734047
_symmetry_Int_Tables_number   1
_chemical_formula_structural   La3Pr13MgHg3Rh4
_chemical_formula_sum   'La3 Pr13 Mg1 Hg3 Rh4'
_cell_volume   715.92910573
_cell_formula_units_Z   1
loop_
 _symmetry_equiv_pos_site_id
 _symmetry_equiv_pos_as_xyz
  1  'x, y, z'
loop_
 _atom_site_type_symbol
 _atom_site_label
 _atom_site_symmetry_multiplicity
 _atom_site_fract_x
 _atom_site_fract_y
 _atom_site_fract_z
 _atom_site_occupancy
  La  La0  1  0.347509  0.347332  0.347295  1
  La  La1  1  0.348730  0.348445  0.955410  1
  La  La2  1  0.348702  0.955432  0.348484  1
  Pr  Pr3  1  0.943400  0.352522  0.352527  1
  Pr  Pr4  1  0.808494  0.191589  0.191641  1
  Pr  Pr5  1  0.186482  0.810768  0.810787  1
  Pr  Pr6  1  0.187726  0.811852  0.188580  1
  Pr  Pr7  1  0.807210  0.191379  0.807769  1
  Pr  Pr8  1  0.187767  0.188577  0.811814  1
  Pr  Pr9  1  0.807216  0.807798  0.191335  1
  Pr  Pr10  1  0.937733  0.563171  0.563145  1
  Pr  Pr11  1  0.560943  0.937834  0.937854  1
  Pr  Pr12  1  0.561664  0.937731  0.563572  1
  Pr  Pr13  1  0.937716  0.561988  0.936896  1
  Pr  Pr14  1  0.561678  0.563549  0.937767  1
  Pr  Pr15  1  0.937722  0.936866  0.561995  1
  Mg  Mg16  1  0.285616  0.571007  0.570990  1
  Hg  Hg17  1  0.580775  0.586097  0.586125  1
  Hg  Hg18  1  0.581183  0.586373  0.246781  1
  Hg  Hg19  1  0.581157  0.246793  0.586384  1
  Rh  Rh20  1  0.142858  0.142745  0.142711  1
  Rh  Rh21  1  0.143579  0.143648  0.572489  1
  Rh  Rh22  1  0.143549  0.572523  0.143645  1
  Rh  Rh23  1  0.570593  0.143982  0.144003  1
