# generated using pymatgen
data_Sr4YbU3O12
_symmetry_space_group_name_H-M   'P 1'
_cell_length_a   6.14659534
_cell_length_b   6.01271584
_cell_length_c   8.54557640
_cell_angle_alpha   89.51776425
_cell_angle_beta   90.09381744
_cell_angle_gamma   89.96297512
_symmetry_Int_Tables_number   1
_chemical_formula_structural   Sr4YbU3O12
_chemical_formula_sum   'Sr4 Yb1 U3 O12'
_cell_volume   315.81343630
_cell_formula_units_Z   1
loop_
 _symmetry_equiv_pos_site_id
 _symmetry_equiv_pos_as_xyz
  1  'x, y, z'
loop_
 _atom_site_type_symbol
 _atom_site_label
 _atom_site_symmetry_multiplicity
 _atom_site_fract_x
 _atom_site_fract_y
 _atom_site_fract_z
 _atom_site_occupancy
  Sr  Sr0  1  0.039405  0.985864  0.761159  1
  Sr  Sr1  1  0.451085  0.482421  0.236086  1
  Sr  Sr2  1  0.548915  0.517579  0.763914  1
  Sr  Sr3  1  0.960596  0.014136  0.238841  1
  Yb  Yb4  1  0.000000  0.500000  0.000000  1
  U  U5  1  0.000000  0.500000  0.500000  1
  U  U6  1  0.500000  0.000000  0.500000  1
  U  U7  1  0.500000  0.000000  0.000000  1
  O  O8  1  0.222323  0.197005  0.053807  1
  O  O9  1  0.538808  0.891562  0.254155  1
  O  O10  1  0.709623  0.283159  0.434621  1
  O  O11  1  0.698233  0.277887  0.048420  1
  O  O12  1  0.785051  0.791192  0.561403  1
  O  O13  1  0.039395  0.602715  0.266673  1
  O  O14  1  0.214949  0.208808  0.438597  1
  O  O15  1  0.301767  0.722113  0.951580  1
  O  O16  1  0.290377  0.716841  0.565379  1
  O  O17  1  0.461192  0.108438  0.745845  1
  O  O18  1  0.777677  0.802995  0.946193  1
  O  O19  1  0.960605  0.397285  0.733327  1
