# generated using pymatgen
data_CaPuZn22
_symmetry_space_group_name_H-M   'P 1'
_cell_length_a   6.87859784
_cell_length_b   8.26470335
_cell_length_c   8.25762866
_cell_angle_alpha   99.84329580
_cell_angle_beta   114.54898017
_cell_angle_gamma   65.34388419
_symmetry_Int_Tables_number   1
_chemical_formula_structural   CaPuZn22
_chemical_formula_sum   'Ca1 Pu1 Zn22'
_cell_volume   388.07526278
_cell_formula_units_Z   1
loop_
 _symmetry_equiv_pos_site_id
 _symmetry_equiv_pos_as_xyz
  1  'x, y, z'
loop_
 _atom_site_type_symbol
 _atom_site_label
 _atom_site_symmetry_multiplicity
 _atom_site_fract_x
 _atom_site_fract_y
 _atom_site_fract_z
 _atom_site_occupancy
  Ca  Ca0  1  0.999658  0.999951  0.999951  1
  Pu  Pu1  1  0.250998  0.500440  0.500440  1
  Zn  Zn2  1  0.500613  0.000045  0.000045  1
  Zn  Zn3  1  0.178347  0.329153  0.086287  1
  Zn  Zn4  1  0.907114  0.671270  0.085861  1
  Zn  Zn5  1  0.827549  0.417074  0.175753  1
  Zn  Zn6  1  0.347486  0.583597  0.175520  1
  Zn  Zn7  1  0.623862  0.248015  0.248015  1
  Zn  Zn8  1  0.623850  0.752158  0.247824  1
  Zn  Zn9  1  0.421212  0.086287  0.329153  1
  Zn  Zn10  1  0.907752  0.913455  0.328805  1
  Zn  Zn11  1  0.068872  0.175753  0.417074  1
  Zn  Zn12  1  0.348156  0.824278  0.416691  1
  Zn  Zn13  1  0.749839  0.499973  0.499973  1
  Zn  Zn14  1  0.827822  0.824258  0.582953  1
  Zn  Zn15  1  0.755565  0.175520  0.583597  1
  Zn  Zn16  1  0.492523  0.085861  0.671270  1
  Zn  Zn17  1  0.178225  0.913946  0.670882  1
  Zn  Zn18  1  0.128186  0.247824  0.752158  1
  Zn  Zn19  1  0.623805  0.751811  0.751811  1
  Zn  Zn20  1  0.755744  0.416691  0.824278  1
  Zn  Zn21  1  0.069127  0.582953  0.824258  1
  Zn  Zn22  1  0.492401  0.328805  0.913455  1
  Zn  Zn23  1  0.421287  0.670882  0.913946  1
