# generated using pymatgen
data_Mg2Ni2GeIr
_symmetry_space_group_name_H-M   'P 1'
_cell_length_a   4.80977259
_cell_length_b   4.80977204
_cell_length_c   4.92716290
_cell_angle_alpha   65.13510876
_cell_angle_beta   65.13511317
_cell_angle_gamma   62.54585593
_symmetry_Int_Tables_number   1
_chemical_formula_structural   Mg2Ni2GeIr
_chemical_formula_sum   'Mg2 Ni2 Ge1 Ir1'
_cell_volume   88.06093945
_cell_formula_units_Z   1
loop_
 _symmetry_equiv_pos_site_id
 _symmetry_equiv_pos_as_xyz
  1  'x, y, z'
loop_
 _atom_site_type_symbol
 _atom_site_label
 _atom_site_symmetry_multiplicity
 _atom_site_fract_x
 _atom_site_fract_y
 _atom_site_fract_z
 _atom_site_occupancy
  Mg  Mg0  1  0.127983  0.127983  0.117714  1
  Mg  Mg1  1  0.872017  0.872017  0.882286  1
  Ni  Ni2  1  0.000000  0.500000  0.500000  1
  Ni  Ni3  1  0.500000  0.000000  0.500000  1
  Ge  Ge4  1  0.500000  0.500000  0.500000  1
  Ir  Ir5  1  0.500000  0.500000  0.000000  1
