# generated using pymatgen
data_Ho16Lu4IrRu11
_symmetry_space_group_name_H-M   'P 1'
_cell_length_a   10.73694606
_cell_length_b   10.73694606
_cell_length_c   6.32784405
_cell_angle_alpha   89.99030379
_cell_angle_beta   89.99030379
_cell_angle_gamma   90.00737438
_symmetry_Int_Tables_number   1
_chemical_formula_structural   Ho16Lu4IrRu11
_chemical_formula_sum   'Ho16 Lu4 Ir1 Ru11'
_cell_volume   729.48655806
_cell_formula_units_Z   1
loop_
 _symmetry_equiv_pos_site_id
 _symmetry_equiv_pos_as_xyz
  1  'x, y, z'
loop_
 _atom_site_type_symbol
 _atom_site_label
 _atom_site_symmetry_multiplicity
 _atom_site_fract_x
 _atom_site_fract_y
 _atom_site_fract_z
 _atom_site_occupancy
  Ho  Ho0  1  0.291124  0.086552  0.377263  1
  Ho  Ho1  1  0.291235  0.914036  0.877530  1
  Ho  Ho2  1  0.709015  0.086656  0.877297  1
  Ho  Ho3  1  0.708883  0.913328  0.377316  1
  Ho  Ho4  1  0.587058  0.791508  0.877346  1
  Ho  Ho5  1  0.586736  0.208673  0.377146  1
  Ho  Ho6  1  0.413537  0.791932  0.376890  1
  Ho  Ho7  1  0.413274  0.208909  0.877261  1
  Ho  Ho8  1  0.208492  0.412942  0.622654  1
  Ho  Ho9  1  0.208068  0.586463  0.123110  1
  Ho  Ho10  1  0.791327  0.413264  0.122854  1
  Ho  Ho11  1  0.791091  0.586726  0.622739  1
  Ho  Ho12  1  0.913448  0.708876  0.122737  1
  Ho  Ho13  1  0.913344  0.290985  0.622703  1
  Ho  Ho14  1  0.085964  0.708765  0.622470  1
  Ho  Ho15  1  0.086672  0.291117  0.122684  1
  Lu  Lu16  1  0.000000  0.000079  0.500098  1
  Lu  Lu17  1  0.999921  0.000000  0.999902  1
  Lu  Lu18  1  0.500776  0.499536  0.000918  1
  Lu  Lu19  1  0.500464  0.499224  0.499082  1
  Ir  Ir20  1  0.348159  0.651841  0.750000  1
  Ru  Ru21  1  0.848263  0.151737  0.250000  1
  Ru  Ru22  1  0.848262  0.848178  0.749799  1
  Ru  Ru23  1  0.151822  0.151738  0.750201  1
  Ru  Ru24  1  0.152237  0.847763  0.250000  1
  Ru  Ru25  1  0.651326  0.348674  0.750000  1
  Ru  Ru26  1  0.651050  0.651699  0.250110  1
  Ru  Ru27  1  0.348301  0.348950  0.249890  1
  Ru  Ru28  1  0.499913  0.999619  0.123903  1
  Ru  Ru29  1  0.499896  0.000040  0.624227  1
  Ru  Ru30  1  0.999960  0.500104  0.875773  1
  Ru  Ru31  1  0.000381  0.500087  0.376097  1
