# generated using pymatgen
data_Hf18GaRe5Mo3Pd
_symmetry_space_group_name_H-M   'P 1'
_cell_length_a   8.56469100
_cell_length_b   8.68891508
_cell_length_c   8.69059238
_cell_angle_alpha   119.99332431
_cell_angle_beta   90.00000000
_cell_angle_gamma   90.00000000
_symmetry_Int_Tables_number   1
_chemical_formula_structural   Hf18GaRe5Mo3Pd
_chemical_formula_sum   'Hf18 Ga1 Re5 Mo3 Pd1'
_cell_volume   560.12695646
_cell_formula_units_Z   1
loop_
 _symmetry_equiv_pos_site_id
 _symmetry_equiv_pos_as_xyz
  1  'x, y, z'
loop_
 _atom_site_type_symbol
 _atom_site_label
 _atom_site_symmetry_multiplicity
 _atom_site_fract_x
 _atom_site_fract_y
 _atom_site_fract_z
 _atom_site_occupancy
  Hf  Hf0  1  0.546679  0.806304  0.612603  1
  Hf  Hf1  1  0.545342  0.805370  0.193886  1
  Hf  Hf2  1  0.545343  0.388512  0.193885  1
  Hf  Hf3  1  0.447993  0.196350  0.392708  1
  Hf  Hf4  1  0.448438  0.195883  0.803957  1
  Hf  Hf5  1  0.448434  0.608076  0.803961  1
  Hf  Hf6  1  0.052007  0.196350  0.392708  1
  Hf  Hf7  1  0.051562  0.195883  0.803957  1
  Hf  Hf8  1  0.051566  0.608076  0.803961  1
  Hf  Hf9  1  0.953321  0.806304  0.612603  1
  Hf  Hf10  1  0.954658  0.805370  0.193886  1
  Hf  Hf11  1  0.954657  0.388512  0.193885  1
  Hf  Hf12  1  0.750000  0.460310  0.920625  1
  Hf  Hf13  1  0.750000  0.461783  0.540195  1
  Hf  Hf14  1  0.750000  0.078407  0.540192  1
  Hf  Hf15  1  0.250000  0.541337  0.082671  1
  Hf  Hf16  1  0.250000  0.542169  0.458872  1
  Hf  Hf17  1  0.250000  0.916703  0.458872  1
  Ga  Ga18  1  0.750000  0.666765  0.333487  1
  Re  Re19  1  0.750000  0.111021  0.887381  1
  Re  Re20  1  0.750000  0.776343  0.887370  1
  Re  Re21  1  0.250000  0.889275  0.778547  1
  Re  Re22  1  0.250000  0.888885  0.110810  1
  Re  Re23  1  0.250000  0.221922  0.110808  1
  Mo  Mo24  1  0.750000  0.110269  0.220546  1
  Mo  Mo25  1  0.502574  0.000075  0.000146  1
  Mo  Mo26  1  0.997426  0.000075  0.000146  1
  Pd  Pd27  1  0.250000  0.333670  0.667333  1
