# generated using pymatgen
data_Er10Sn3Bi3Se2
_symmetry_space_group_name_H-M   'P 1'
_cell_length_a   9.12158500
_cell_length_b   9.12158496
_cell_length_c   6.61328600
_cell_angle_alpha   90.00000000
_cell_angle_beta   90.00000000
_cell_angle_gamma   120.00000377
_symmetry_Int_Tables_number   1
_chemical_formula_structural   Er10Sn3Bi3Se2
_chemical_formula_sum   'Er10 Sn3 Bi3 Se2'
_cell_volume   476.52812393
_cell_formula_units_Z   1
loop_
 _symmetry_equiv_pos_site_id
 _symmetry_equiv_pos_as_xyz
  1  'x, y, z'
loop_
 _atom_site_type_symbol
 _atom_site_label
 _atom_site_symmetry_multiplicity
 _atom_site_fract_x
 _atom_site_fract_y
 _atom_site_fract_z
 _atom_site_occupancy
  Er  Er0  1  0.666667  0.333333  0.004879  1
  Er  Er1  1  0.333333  0.666667  0.004879  1
  Er  Er2  1  0.333333  0.666667  0.495121  1
  Er  Er3  1  0.666667  0.333333  0.495121  1
  Er  Er4  1  0.746509  0.746509  0.750000  1
  Er  Er5  1  0.253491  0.000000  0.750000  1
  Er  Er6  1  0.000000  0.253491  0.750000  1
  Er  Er7  1  0.254269  0.254269  0.250000  1
  Er  Er8  1  0.745731  0.000000  0.250000  1
  Er  Er9  1  0.000000  0.745731  0.250000  1
  Sn  Sn10  1  0.605344  0.605344  0.250000  1
  Sn  Sn11  1  0.394656  0.000000  0.250000  1
  Sn  Sn12  1  0.000000  0.394656  0.250000  1
  Bi  Bi13  1  0.395798  0.395798  0.750000  1
  Bi  Bi14  1  0.604202  0.000000  0.750000  1
  Bi  Bi15  1  0.000000  0.604202  0.750000  1
  Se  Se16  1  0.000000  0.000000  0.999217  1
  Se  Se17  1  0.000000  0.000000  0.500783  1
