# generated using pymatgen
data_Ta6Co17Pt
_symmetry_space_group_name_H-M   'P 1'
_cell_length_a   5.21037700
_cell_length_b   5.18290935
_cell_length_c   12.62337727
_cell_angle_alpha   89.75108484
_cell_angle_beta   90.00000000
_cell_angle_gamma   120.17547308
_symmetry_Int_Tables_number   1
_chemical_formula_structural   Ta6Co17Pt
_chemical_formula_sum   'Ta6 Co17 Pt1'
_cell_volume   294.69504922
_cell_formula_units_Z   1
loop_
 _symmetry_equiv_pos_site_id
 _symmetry_equiv_pos_as_xyz
  1  'x, y, z'
loop_
 _atom_site_type_symbol
 _atom_site_label
 _atom_site_symmetry_multiplicity
 _atom_site_fract_x
 _atom_site_fract_y
 _atom_site_fract_z
 _atom_site_occupancy
  Ta  Ta0  1  0.001055  0.002109  0.250839  1
  Ta  Ta1  1  0.993355  0.986710  0.743994  1
  Ta  Ta2  1  0.332997  0.665997  0.411123  1
  Ta  Ta3  1  0.665934  0.331867  0.587288  1
  Ta  Ta4  1  0.666710  0.333420  0.909944  1
  Ta  Ta5  1  0.338725  0.677451  0.095311  1
  Co  Co6  1  0.512853  0.492149  0.251640  1
  Co  Co7  1  0.512863  0.025727  0.252296  1
  Co  Co8  1  0.979297  0.492149  0.251640  1
  Co  Co9  1  0.490112  0.508312  0.746341  1
  Co  Co10  1  0.489032  0.978064  0.748399  1
  Co  Co11  1  0.018200  0.508312  0.746341  1
  Co  Co12  1  0.666939  0.833651  0.918334  1
  Co  Co13  1  0.166712  0.833651  0.918334  1
  Co  Co14  1  0.834192  0.668383  0.083039  1
  Co  Co15  1  0.337291  0.167788  0.085611  1
  Co  Co16  1  0.830495  0.167788  0.085611  1
  Co  Co17  1  0.833790  0.667580  0.418078  1
  Co  Co18  1  0.332351  0.165897  0.418199  1
  Co  Co19  1  0.833545  0.165897  0.418199  1
  Co  Co20  1  0.165244  0.330486  0.580365  1
  Co  Co21  1  0.665186  0.831721  0.580075  1
  Co  Co22  1  0.166535  0.831721  0.580075  1
  Pt  Pt23  1  0.166585  0.333170  0.918925  1
