# generated using pymatgen
data_Er4Re2TcOs5
_symmetry_space_group_name_H-M   'P 1'
_cell_length_a   5.34833153
_cell_length_b   5.21302720
_cell_length_c   8.91736100
_cell_angle_alpha   90.00000000
_cell_angle_beta   90.00000000
_cell_angle_gamma   118.37820701
_symmetry_Int_Tables_number   1
_chemical_formula_structural   Er4Re2TcOs5
_chemical_formula_sum   'Er4 Re2 Tc1 Os5'
_cell_volume   218.74752013
_cell_formula_units_Z   1
loop_
 _symmetry_equiv_pos_site_id
 _symmetry_equiv_pos_as_xyz
  1  'x, y, z'
loop_
 _atom_site_type_symbol
 _atom_site_label
 _atom_site_symmetry_multiplicity
 _atom_site_fract_x
 _atom_site_fract_y
 _atom_site_fract_z
 _atom_site_occupancy
  Er  Er0  1  0.329492  0.663303  0.437236  1
  Er  Er1  1  0.670351  0.331311  0.564621  1
  Er  Er2  1  0.670351  0.331311  0.935379  1
  Er  Er3  1  0.329492  0.663303  0.062764  1
  Re  Re4  1  0.830348  0.665091  0.250000  1
  Re  Re5  1  0.169303  0.835308  0.750000  1
  Tc  Tc6  1  0.828241  0.178510  0.250000  1
  Os  Os7  1  0.999307  0.986688  0.500952  1
  Os  Os8  1  0.999307  0.986688  0.999048  1
  Os  Os9  1  0.344195  0.175728  0.250000  1
  Os  Os10  1  0.174778  0.352784  0.750000  1
  Os  Os11  1  0.654834  0.829976  0.750000  1
