# generated using pymatgen
data_Cd2GaB2Rh5
_symmetry_space_group_name_H-M   'P 1'
_cell_length_a   9.65764100
_cell_length_b   9.65764100
_cell_length_c   2.92306000
_cell_angle_alpha   90.00000000
_cell_angle_beta   90.00000000
_cell_angle_gamma   90.00000000
_symmetry_Int_Tables_number   1
_chemical_formula_structural   Cd2GaB2Rh5
_chemical_formula_sum   'Cd4 Ga2 B4 Rh10'
_cell_volume   272.63389297
_cell_formula_units_Z   2
loop_
 _symmetry_equiv_pos_site_id
 _symmetry_equiv_pos_as_xyz
  1  'x, y, z'
loop_
 _atom_site_type_symbol
 _atom_site_label
 _atom_site_symmetry_multiplicity
 _atom_site_fract_x
 _atom_site_fract_y
 _atom_site_fract_z
 _atom_site_occupancy
  Cd  Cd0  1  0.823381  0.323381  0.000000  1
  Cd  Cd1  1  0.323381  0.176619  0.000000  1
  Cd  Cd2  1  0.676619  0.823381  0.000000  1
  Cd  Cd3  1  0.176619  0.676619  0.000000  1
  Ga  Ga4  1  0.000000  0.000000  0.000000  1
  Ga  Ga5  1  0.500000  0.500000  0.000000  1
  B  B6  1  0.625434  0.125434  0.000000  1
  B  B7  1  0.125434  0.374566  0.000000  1
  B  B8  1  0.874566  0.625434  0.000000  1
  B  B9  1  0.374566  0.874566  0.000000  1
  Rh  Rh10  1  0.069514  0.217024  0.500000  1
  Rh  Rh11  1  0.217024  0.930486  0.500000  1
  Rh  Rh12  1  0.782976  0.069514  0.500000  1
  Rh  Rh13  1  0.930486  0.782976  0.500000  1
  Rh  Rh14  1  0.430486  0.717024  0.500000  1
  Rh  Rh15  1  0.569514  0.282976  0.500000  1
  Rh  Rh16  1  0.717024  0.569514  0.500000  1
  Rh  Rh17  1  0.282976  0.430486  0.500000  1
  Rh  Rh18  1  0.500000  0.000000  0.500000  1
  Rh  Rh19  1  0.000000  0.500000  0.500000  1
