# generated using pymatgen
data_Yb2Co3Si7Ir9
_symmetry_space_group_name_H-M   'P 1'
_cell_length_a   9.51257600
_cell_length_b   9.51257546
_cell_length_c   3.84107400
_cell_angle_alpha   90.00000000
_cell_angle_beta   90.00000000
_cell_angle_gamma   119.99998798
_symmetry_Int_Tables_number   1
_chemical_formula_structural   Yb2Co3Si7Ir9
_chemical_formula_sum   'Yb2 Co3 Si7 Ir9'
_cell_volume   301.00909138
_cell_formula_units_Z   1
loop_
 _symmetry_equiv_pos_site_id
 _symmetry_equiv_pos_as_xyz
  1  'x, y, z'
loop_
 _atom_site_type_symbol
 _atom_site_label
 _atom_site_symmetry_multiplicity
 _atom_site_fract_x
 _atom_site_fract_y
 _atom_site_fract_z
 _atom_site_occupancy
  Yb  Yb0  1  0.333333  0.666667  0.000000  1
  Yb  Yb1  1  0.666667  0.333333  0.500000  1
  Co  Co2  1  0.116530  0.843495  0.000000  1
  Co  Co3  1  0.726965  0.883470  0.000000  1
  Co  Co4  1  0.156505  0.273035  0.000000  1
  Si  Si5  1  0.888995  0.596509  0.000000  1
  Si  Si6  1  0.707515  0.111005  0.000000  1
  Si  Si7  1  0.403491  0.292485  0.000000  1
  Si  Si8  1  0.283327  0.884068  0.500000  1
  Si  Si9  1  0.600741  0.716673  0.500000  1
  Si  Si10  1  0.115932  0.399259  0.500000  1
  Si  Si11  1  0.000000  0.000000  0.000000  1
  Ir  Ir12  1  0.629527  0.571407  0.000000  1
  Ir  Ir13  1  0.941881  0.370473  0.000000  1
  Ir  Ir14  1  0.428593  0.058119  0.000000  1
  Ir  Ir15  1  0.053245  0.616372  0.500000  1
  Ir  Ir16  1  0.563127  0.946755  0.500000  1
  Ir  Ir17  1  0.383628  0.436873  0.500000  1
  Ir  Ir18  1  0.882154  0.790589  0.500000  1
  Ir  Ir19  1  0.908436  0.117846  0.500000  1
  Ir  Ir20  1  0.209411  0.091564  0.500000  1
