# generated using pymatgen
data_Li3YHo2InSi2
_symmetry_space_group_name_H-M   'P 1'
_cell_length_a   7.22184222
_cell_length_b   7.22184186
_cell_length_c   4.18642800
_cell_angle_alpha   90.00000000
_cell_angle_beta   90.00000000
_cell_angle_gamma   120.08989789
_symmetry_Int_Tables_number   1
_chemical_formula_structural   Li3YHo2InSi2
_chemical_formula_sum   'Li3 Y1 Ho2 In1 Si2'
_cell_volume   188.91920110
_cell_formula_units_Z   1
loop_
 _symmetry_equiv_pos_site_id
 _symmetry_equiv_pos_as_xyz
  1  'x, y, z'
loop_
 _atom_site_type_symbol
 _atom_site_label
 _atom_site_symmetry_multiplicity
 _atom_site_fract_x
 _atom_site_fract_y
 _atom_site_fract_z
 _atom_site_occupancy
  Li  Li0  1  0.254353  0.999939  0.500000  1
  Li  Li1  1  0.745784  0.745784  0.500000  1
  Li  Li2  1  0.999939  0.254353  0.500000  1
  Y  Y3  1  0.442125  0.442125  0.000000  1
  Ho  Ho4  1  0.000040  0.557944  0.000000  1
  Ho  Ho5  1  0.557944  0.000040  0.000000  1
  In  In6  1  0.999612  0.999612  0.000000  1
  Si  Si7  1  0.333080  0.667122  0.500000  1
  Si  Si8  1  0.667122  0.333080  0.500000  1
