# generated using pymatgen
data_TbSm3(Ga5Rh3)2
_symmetry_space_group_name_H-M   'P 1'
_cell_length_a   8.64005420
_cell_length_b   8.63833813
_cell_length_c   5.72477300
_cell_angle_alpha   70.60899773
_cell_angle_beta   70.61268333
_cell_angle_gamma   96.25551070
_symmetry_Int_Tables_number   1
_chemical_formula_structural   TbSm3(Ga5Rh3)2
_chemical_formula_sum   'Tb1 Sm3 Ga10 Rh6'
_cell_volume   368.46750843
_cell_formula_units_Z   1
loop_
 _symmetry_equiv_pos_site_id
 _symmetry_equiv_pos_as_xyz
  1  'x, y, z'
loop_
 _atom_site_type_symbol
 _atom_site_label
 _atom_site_symmetry_multiplicity
 _atom_site_fract_x
 _atom_site_fract_y
 _atom_site_fract_z
 _atom_site_occupancy
  Tb  Tb0  1  0.585879  0.867270  0.273612  1
  Sm  Sm1  1  0.867204  0.586109  0.773548  1
  Sm  Sm2  1  0.414053  0.132527  0.726517  1
  Sm  Sm3  1  0.132713  0.413915  0.226494  1
  Ga  Ga4  1  0.090034  0.263526  0.822864  1
  Ga  Ga5  1  0.736147  0.909776  0.677408  1
  Ga  Ga6  1  0.909448  0.736824  0.177128  1
  Ga  Ga7  1  0.263292  0.089896  0.323110  1
  Ga  Ga8  1  0.500752  0.499883  0.749496  1
  Ga  Ga9  1  0.499646  0.501002  0.249873  1
  Ga  Ga10  1  0.796261  0.202917  0.750815  1
  Ga  Ga11  1  0.797299  0.201884  0.249995  1
  Ga  Ga12  1  0.202695  0.797604  0.749817  1
  Ga  Ga13  1  0.203768  0.796592  0.249872  1
  Rh  Rh14  1  0.000224  0.999475  0.250088  1
  Rh  Rh15  1  0.439218  0.739004  0.909054  1
  Rh  Rh16  1  0.738596  0.438650  0.409615  1
  Rh  Rh17  1  0.561091  0.260976  0.090764  1
  Rh  Rh18  1  0.999424  0.000303  0.750203  1
  Rh  Rh19  1  0.262256  0.561866  0.589726  1
