# generated using pymatgen
data_Ca5YbPr2(Si3Pd)4
_symmetry_space_group_name_H-M   'P 1'
_cell_length_a   8.27429800
_cell_length_b   8.26774159
_cell_length_c   8.44491700
_cell_angle_alpha   90.00000000
_cell_angle_beta   90.00000000
_cell_angle_gamma   120.02624406
_symmetry_Int_Tables_number   1
_chemical_formula_structural   Ca5YbPr2(Si3Pd)4
_chemical_formula_sum   'Ca5 Yb1 Pr2 Si12 Pd4'
_cell_volume   500.18326659
_cell_formula_units_Z   1
loop_
 _symmetry_equiv_pos_site_id
 _symmetry_equiv_pos_as_xyz
  1  'x, y, z'
loop_
 _atom_site_type_symbol
 _atom_site_label
 _atom_site_symmetry_multiplicity
 _atom_site_fract_x
 _atom_site_fract_y
 _atom_site_fract_z
 _atom_site_occupancy
  Ca  Ca0  1  0.499620  0.500298  0.750000  1
  Ca  Ca1  1  0.500419  0.499667  0.250000  1
  Ca  Ca2  1  0.000678  0.500298  0.750000  1
  Ca  Ca3  1  0.999248  0.499667  0.250000  1
  Ca  Ca4  1  0.499675  0.999349  0.750000  1
  Yb  Yb5  1  0.500284  0.000569  0.250000  1
  Pr  Pr6  1  0.000042  0.000083  0.750000  1
  Pr  Pr7  1  0.999973  0.999946  0.250000  1
  Si  Si8  1  0.834408  0.165104  0.001491  1
  Si  Si9  1  0.165596  0.834896  0.001588  1
  Si  Si10  1  0.330696  0.165104  0.001491  1
  Si  Si11  1  0.165596  0.834896  0.498412  1
  Si  Si12  1  0.669300  0.834896  0.001588  1
  Si  Si13  1  0.834408  0.165104  0.498509  1
  Si  Si14  1  0.834253  0.668507  0.000102  1
  Si  Si15  1  0.669300  0.834896  0.498412  1
  Si  Si16  1  0.165755  0.331510  0.000412  1
  Si  Si17  1  0.330696  0.165104  0.498509  1
  Si  Si18  1  0.165755  0.331510  0.499588  1
  Si  Si19  1  0.834253  0.668507  0.499898  1
  Pd  Pd20  1  0.666035  0.332067  0.002496  1
  Pd  Pd21  1  0.333986  0.667974  0.004446  1
  Pd  Pd22  1  0.333986  0.667974  0.495554  1
  Pd  Pd23  1  0.666035  0.332067  0.497504  1
