# generated using pymatgen
data_LiNd3Mg2Ir2Pd
_symmetry_space_group_name_H-M   'P 1'
_cell_length_a   7.42557900
_cell_length_b   7.44913661
_cell_length_c   4.12552800
_cell_angle_alpha   90.00000000
_cell_angle_beta   90.00000000
_cell_angle_gamma   119.89543720
_symmetry_Int_Tables_number   1
_chemical_formula_structural   LiNd3Mg2Ir2Pd
_chemical_formula_sum   'Li1 Nd3 Mg2 Ir2 Pd1'
_cell_volume   197.83496961
_cell_formula_units_Z   1
loop_
 _symmetry_equiv_pos_site_id
 _symmetry_equiv_pos_as_xyz
  1  'x, y, z'
loop_
 _atom_site_type_symbol
 _atom_site_label
 _atom_site_symmetry_multiplicity
 _atom_site_fract_x
 _atom_site_fract_y
 _atom_site_fract_z
 _atom_site_occupancy
  Li  Li0  1  0.237751  0.000000  0.500000  1
  Nd  Nd1  1  0.571849  0.000000  0.000000  1
  Nd  Nd2  1  0.003351  0.584556  0.000000  1
  Nd  Nd3  1  0.418795  0.415444  0.000000  1
  Mg  Mg4  1  0.998729  0.240049  0.500000  1
  Mg  Mg5  1  0.758680  0.759951  0.500000  1
  Ir  Ir6  1  0.337383  0.661125  0.500000  1
  Ir  Ir7  1  0.676259  0.338875  0.500000  1
  Pd  Pd8  1  0.997203  0.000000  0.000000  1
