# generated using pymatgen
data_PrNdB4Ir3Os
_symmetry_space_group_name_H-M   'P 1'
_cell_length_a   7.04493849
_cell_length_b   6.11679413
_cell_length_c   5.62258404
_cell_angle_alpha   73.62014008
_cell_angle_beta   56.40962282
_cell_angle_gamma   49.63130809
_symmetry_Int_Tables_number   1
_chemical_formula_structural   PrNdB4Ir3Os
_chemical_formula_sum   'Pr1 Nd1 B4 Ir3 Os1'
_cell_volume   152.65760831
_cell_formula_units_Z   1
loop_
 _symmetry_equiv_pos_site_id
 _symmetry_equiv_pos_as_xyz
  1  'x, y, z'
loop_
 _atom_site_type_symbol
 _atom_site_label
 _atom_site_symmetry_multiplicity
 _atom_site_fract_x
 _atom_site_fract_y
 _atom_site_fract_z
 _atom_site_occupancy
  Pr  Pr0  1  0.500868  0.500868  0.499132  1
  Nd  Nd1  1  0.750206  0.750206  0.749794  1
  B  B2  1  0.162864  0.827740  0.190325  1
  B  B3  1  0.076310  0.430406  0.059664  1
  B  B4  1  0.827740  0.162864  0.819072  1
  B  B5  1  0.430406  0.076310  0.433620  1
  Ir  Ir6  1  0.131079  0.131079  0.868921  1
  Ir  Ir7  1  0.383166  0.383166  0.116834  1
  Ir  Ir8  1  0.120546  0.120546  0.379454  1
  Os  Os9  1  0.866816  0.866816  0.133184  1
