# generated using pymatgen
data_Sc22Co2IrRu5
_symmetry_space_group_name_H-M   'P 1'
_cell_length_a   9.43169957
_cell_length_b   9.38000293
_cell_length_c   9.43170005
_cell_angle_alpha   60.18116656
_cell_angle_beta   60.12535406
_cell_angle_gamma   60.18116318
_symmetry_Int_Tables_number   1
_chemical_formula_structural   Sc22Co2IrRu5
_chemical_formula_sum   'Sc22 Co2 Ir1 Ru5'
_cell_volume   592.19361889
_cell_formula_units_Z   1
loop_
 _symmetry_equiv_pos_site_id
 _symmetry_equiv_pos_as_xyz
  1  'x, y, z'
loop_
 _atom_site_type_symbol
 _atom_site_label
 _atom_site_symmetry_multiplicity
 _atom_site_fract_x
 _atom_site_fract_y
 _atom_site_fract_z
 _atom_site_occupancy
  Sc  Sc0  1  0.806161  0.805115  0.193839  1
  Sc  Sc1  1  0.194030  0.805970  0.194030  1
  Sc  Sc2  1  0.806161  0.194885  0.193839  1
  Sc  Sc3  1  0.193839  0.194885  0.806161  1
  Sc  Sc4  1  0.805970  0.194030  0.805970  1
  Sc  Sc5  1  0.193839  0.805115  0.806161  1
  Sc  Sc6  1  0.613668  0.615814  0.154702  1
  Sc  Sc7  1  0.614586  0.154049  0.614586  1
  Sc  Sc8  1  0.154702  0.615814  0.613668  1
  Sc  Sc9  1  0.614586  0.616780  0.614586  1
  Sc  Sc10  1  0.386332  0.384186  0.845298  1
  Sc  Sc11  1  0.385414  0.845951  0.385414  1
  Sc  Sc12  1  0.845298  0.384186  0.386332  1
  Sc  Sc13  1  0.385414  0.383220  0.385414  1
  Sc  Sc14  1  0.843218  0.842140  0.472500  1
  Sc  Sc15  1  0.841708  0.473424  0.841708  1
  Sc  Sc16  1  0.472500  0.842140  0.843218  1
  Sc  Sc17  1  0.841708  0.843160  0.841708  1
  Sc  Sc18  1  0.156782  0.157860  0.527500  1
  Sc  Sc19  1  0.158292  0.526576  0.158292  1
  Sc  Sc20  1  0.527500  0.157860  0.156782  1
  Sc  Sc21  1  0.158292  0.156840  0.158292  1
  Co  Co22  1  0.000000  0.000000  0.000000  1
  Co  Co23  1  0.500000  0.500000  0.500000  1
  Ir  Ir24  1  0.000000  0.500000  0.000000  1
  Ru  Ru25  1  0.000000  0.000000  0.500000  1
  Ru  Ru26  1  0.500000  0.000000  0.500000  1
  Ru  Ru27  1  0.000000  0.500000  0.500000  1
  Ru  Ru28  1  0.500000  0.500000  0.000000  1
  Ru  Ru29  1  0.500000  0.000000  0.000000  1
