# generated using pymatgen
data_Tb10Hg3Os
_symmetry_space_group_name_H-M   'P 1'
_cell_length_a   9.62473900
_cell_length_b   9.62473920
_cell_length_c   9.83323400
_cell_angle_alpha   90.00000000
_cell_angle_beta   90.00000000
_cell_angle_gamma   119.99999587
_symmetry_Int_Tables_number   1
_chemical_formula_structural   Tb10Hg3Os
_chemical_formula_sum   'Tb20 Hg6 Os2'
_cell_volume   788.86911910
_cell_formula_units_Z   2
loop_
 _symmetry_equiv_pos_site_id
 _symmetry_equiv_pos_as_xyz
  1  'x, y, z'
loop_
 _atom_site_type_symbol
 _atom_site_label
 _atom_site_symmetry_multiplicity
 _atom_site_fract_x
 _atom_site_fract_y
 _atom_site_fract_z
 _atom_site_occupancy
  Tb  Tb0  1  0.000000  0.000000  0.500000  1
  Tb  Tb1  1  0.000000  0.000000  0.000000  1
  Tb  Tb2  1  0.540084  0.459916  0.250000  1
  Tb  Tb3  1  0.540084  0.080169  0.250000  1
  Tb  Tb4  1  0.919831  0.459916  0.250000  1
  Tb  Tb5  1  0.459916  0.540084  0.750000  1
  Tb  Tb6  1  0.459916  0.919831  0.750000  1
  Tb  Tb7  1  0.080169  0.540084  0.750000  1
  Tb  Tb8  1  0.209347  0.790653  0.439747  1
  Tb  Tb9  1  0.209347  0.418696  0.439747  1
  Tb  Tb10  1  0.581304  0.790653  0.439747  1
  Tb  Tb11  1  0.790653  0.209347  0.560253  1
  Tb  Tb12  1  0.790653  0.581304  0.560253  1
  Tb  Tb13  1  0.418696  0.209347  0.560253  1
  Tb  Tb14  1  0.790653  0.209347  0.939747  1
  Tb  Tb15  1  0.790653  0.581304  0.939747  1
  Tb  Tb16  1  0.418696  0.209347  0.939747  1
  Tb  Tb17  1  0.209347  0.790653  0.060253  1
  Tb  Tb18  1  0.209347  0.418696  0.060253  1
  Tb  Tb19  1  0.581304  0.790653  0.060253  1
  Hg  Hg20  1  0.882138  0.117862  0.250000  1
  Hg  Hg21  1  0.882138  0.764275  0.250000  1
  Hg  Hg22  1  0.235725  0.117862  0.250000  1
  Hg  Hg23  1  0.117862  0.882138  0.750000  1
  Hg  Hg24  1  0.117862  0.235725  0.750000  1
  Hg  Hg25  1  0.764275  0.882138  0.750000  1
  Os  Os26  1  0.333333  0.666667  0.250000  1
  Os  Os27  1  0.666667  0.333333  0.750000  1
