# generated using pymatgen
data_TbCu4HgO8
_symmetry_space_group_name_H-M   'P 1'
_cell_length_a   6.28457635
_cell_length_b   6.28457545
_cell_length_c   6.28457555
_cell_angle_alpha   125.46620941
_cell_angle_beta   125.46621475
_cell_angle_gamma   80.76724356
_symmetry_Int_Tables_number   1
_chemical_formula_structural   TbCu4HgO8
_chemical_formula_sum   'Tb1 Cu4 Hg1 O8'
_cell_volume   158.73553629
_cell_formula_units_Z   1
loop_
 _symmetry_equiv_pos_site_id
 _symmetry_equiv_pos_as_xyz
  1  'x, y, z'
loop_
 _atom_site_type_symbol
 _atom_site_label
 _atom_site_symmetry_multiplicity
 _atom_site_fract_x
 _atom_site_fract_y
 _atom_site_fract_z
 _atom_site_occupancy
  Tb  Tb0  1  0.750000  0.250000  0.500000  1
  Cu  Cu1  1  0.872988  0.616494  0.240180  1
  Cu  Cu2  1  0.376314  0.632808  0.759820  1
  Cu  Cu3  1  0.367192  0.127012  0.743506  1
  Cu  Cu4  1  0.383506  0.623686  0.256494  1
  Hg  Hg5  1  0.000000  0.000000  0.000000  1
  O  O6  1  0.420136  0.835997  0.152692  1
  O  O7  1  0.683304  0.267444  0.847308  1
  O  O8  1  0.357123  0.425502  0.380292  1
  O  O9  1  0.045210  0.976830  0.619708  1
  O  O10  1  0.023170  0.642877  0.068380  1
  O  O11  1  0.574498  0.954790  0.931620  1
  O  O12  1  0.164003  0.316696  0.584139  1
  O  O13  1  0.732556  0.579864  0.415861  1
