# generated using pymatgen
data_Cs2LaY5(CBr6)2
_symmetry_space_group_name_H-M   'P 1'
_cell_length_a   8.92038501
_cell_length_b   8.96578738
_cell_length_c   9.53800992
_cell_angle_alpha   70.97733419
_cell_angle_beta   84.95768068
_cell_angle_gamma   89.26670915
_symmetry_Int_Tables_number   1
_chemical_formula_structural   Cs2LaY5(CBr6)2
_chemical_formula_sum   'Cs2 La1 Y5 C2 Br12'
_cell_volume   718.28235871
_cell_formula_units_Z   1
loop_
 _symmetry_equiv_pos_site_id
 _symmetry_equiv_pos_as_xyz
  1  'x, y, z'
loop_
 _atom_site_type_symbol
 _atom_site_label
 _atom_site_symmetry_multiplicity
 _atom_site_fract_x
 _atom_site_fract_y
 _atom_site_fract_z
 _atom_site_occupancy
  Cs  Cs0  1  0.466866  0.363760  0.331471  1
  Cs  Cs1  1  0.531763  0.636189  0.668134  1
  La  La2  1  0.913219  0.732525  0.004741  1
  Y  Y3  1  0.085754  0.256180  0.995128  1
  Y  Y4  1  0.745353  0.084261  0.000782  1
  Y  Y5  1  0.254877  0.914555  0.999054  1
  Y  Y6  1  0.973848  0.889875  0.322561  1
  Y  Y7  1  0.027075  0.115175  0.676717  1
  C  C8  1  0.007437  0.029276  0.920836  1
  C  C9  1  0.994704  0.976235  0.078055  1
  Br  Br10  1  0.075142  0.196078  0.328158  1
  Br  Br11  1  0.926321  0.810947  0.660669  1
  Br  Br12  1  0.220044  0.589526  0.000396  1
  Br  Br13  1  0.795623  0.399222  0.998856  1
  Br  Br14  1  0.401428  0.197562  0.002080  1
  Br  Br15  1  0.585637  0.807695  0.997891  1
  Br  Br16  1  0.669203  0.001958  0.322448  1
  Br  Br17  1  0.329619  0.999733  0.675888  1
  Br  Br18  1  0.276975  0.777411  0.320667  1
  Br  Br19  1  0.721844  0.221827  0.680299  1
  Br  Br20  1  0.849689  0.591300  0.339850  1
  Br  Br21  1  0.147574  0.408710  0.675319  1
