# generated using pymatgen
data_Gd5Mg2Rh3
_symmetry_space_group_name_H-M   'P 1'
_cell_length_a   8.62108477
_cell_length_b   8.62108411
_cell_length_c   8.62108400
_cell_angle_alpha   109.47121568
_cell_angle_beta   109.47121412
_cell_angle_gamma   109.47122539
_symmetry_Int_Tables_number   1
_chemical_formula_structural   Gd5Mg2Rh3
_chemical_formula_sum   'Gd10 Mg4 Rh6'
_cell_volume   493.24628146
_cell_formula_units_Z   2
loop_
 _symmetry_equiv_pos_site_id
 _symmetry_equiv_pos_as_xyz
  1  'x, y, z'
loop_
 _atom_site_type_symbol
 _atom_site_label
 _atom_site_symmetry_multiplicity
 _atom_site_fract_x
 _atom_site_fract_y
 _atom_site_fract_z
 _atom_site_occupancy
  Gd  Gd0  1  0.250000  0.679392  0.429392  1
  Gd  Gd1  1  0.750000  0.820608  0.070608  1
  Gd  Gd2  1  0.429392  0.250000  0.679392  1
  Gd  Gd3  1  0.679392  0.429392  0.250000  1
  Gd  Gd4  1  0.070608  0.750000  0.820608  1
  Gd  Gd5  1  0.820608  0.070608  0.750000  1
  Gd  Gd6  1  0.212174  0.212174  0.212174  1
  Gd  Gd7  1  0.500000  0.000000  0.287826  1
  Gd  Gd8  1  0.287826  0.500000  0.000000  1
  Gd  Gd9  1  0.000000  0.287826  0.500000  1
  Mg  Mg10  1  0.596417  0.596417  0.596417  1
  Mg  Mg11  1  0.500000  0.000000  0.903583  1
  Mg  Mg12  1  0.903583  0.500000  0.000000  1
  Mg  Mg13  1  0.000000  0.903583  0.500000  1
  Rh  Rh14  1  0.250000  0.136637  0.886637  1
  Rh  Rh15  1  0.750000  0.363363  0.613363  1
  Rh  Rh16  1  0.886636  0.250000  0.136637  1
  Rh  Rh17  1  0.136637  0.886636  0.250000  1
  Rh  Rh18  1  0.613363  0.750000  0.363363  1
  Rh  Rh19  1  0.363363  0.613363  0.750000  1
