# generated using pymatgen
data_TmPa3(CoP)4
_symmetry_space_group_name_H-M   'P 1'
_cell_length_a   3.87664900
_cell_length_b   7.58579484
_cell_length_c   6.70750272
_cell_angle_alpha   89.75167361
_cell_angle_beta   90.00000000
_cell_angle_gamma   90.00000000
_symmetry_Int_Tables_number   1
_chemical_formula_structural   TmPa3(CoP)4
_chemical_formula_sum   'Tm1 Pa3 Co4 P4'
_cell_volume   197.24879215
_cell_formula_units_Z   1
loop_
 _symmetry_equiv_pos_site_id
 _symmetry_equiv_pos_as_xyz
  1  'x, y, z'
loop_
 _atom_site_type_symbol
 _atom_site_label
 _atom_site_symmetry_multiplicity
 _atom_site_fract_x
 _atom_site_fract_y
 _atom_site_fract_z
 _atom_site_occupancy
  Tm  Tm0  1  0.250000  0.999967  0.750160  1
  Pa  Pa1  1  0.250000  0.499894  0.749996  1
  Pa  Pa2  1  0.750000  0.000080  0.249964  1
  Pa  Pa3  1  0.750000  0.500056  0.249877  1
  Co  Co4  1  0.250000  0.273625  0.414873  1
  Co  Co5  1  0.250000  0.726514  0.085129  1
  Co  Co6  1  0.750000  0.724735  0.581300  1
  Co  Co7  1  0.750000  0.275076  0.918675  1
  P  P8  1  0.250000  0.234053  0.080164  1
  P  P9  1  0.250000  0.766124  0.419858  1
  P  P10  1  0.750000  0.764548  0.914078  1
  P  P11  1  0.750000  0.235327  0.585927  1
