# generated using pymatgen
data_Sc22FeOs6Pt
_symmetry_space_group_name_H-M   'P 1'
_cell_length_a   9.45633004
_cell_length_b   9.45632961
_cell_length_c   9.41555000
_cell_angle_alpha   60.14255825
_cell_angle_beta   60.14255975
_cell_angle_gamma   60.09645843
_symmetry_Int_Tables_number   1
_chemical_formula_structural   Sc22FeOs6Pt
_chemical_formula_sum   'Sc22 Fe1 Os6 Pt1'
_cell_volume   597.07010590
_cell_formula_units_Z   1
loop_
 _symmetry_equiv_pos_site_id
 _symmetry_equiv_pos_as_xyz
  1  'x, y, z'
loop_
 _atom_site_type_symbol
 _atom_site_label
 _atom_site_symmetry_multiplicity
 _atom_site_fract_x
 _atom_site_fract_y
 _atom_site_fract_z
 _atom_site_occupancy
  Sc  Sc0  1  0.843114  0.843114  0.843077  1
  Sc  Sc1  1  0.529715  0.151891  0.159197  1
  Sc  Sc2  1  0.156886  0.156886  0.529304  1
  Sc  Sc3  1  0.151891  0.529715  0.159197  1
  Sc  Sc4  1  0.843114  0.843114  0.470696  1
  Sc  Sc5  1  0.848109  0.470285  0.840803  1
  Sc  Sc6  1  0.470285  0.848109  0.840803  1
  Sc  Sc7  1  0.156886  0.156886  0.156923  1
  Sc  Sc8  1  0.196893  0.803107  0.199645  1
  Sc  Sc9  1  0.196893  0.803107  0.800355  1
  Sc  Sc10  1  0.803107  0.196893  0.199645  1
  Sc  Sc11  1  0.801611  0.801611  0.198389  1
  Sc  Sc12  1  0.198389  0.198389  0.801611  1
  Sc  Sc13  1  0.803107  0.196893  0.800355  1
  Sc  Sc14  1  0.382644  0.382644  0.390053  1
  Sc  Sc15  1  0.154602  0.616132  0.614634  1
  Sc  Sc16  1  0.616132  0.154602  0.614634  1
  Sc  Sc17  1  0.617356  0.617356  0.155343  1
  Sc  Sc18  1  0.383868  0.845398  0.385366  1
  Sc  Sc19  1  0.382644  0.382644  0.844657  1
  Sc  Sc20  1  0.845398  0.383868  0.385366  1
  Sc  Sc21  1  0.617356  0.617356  0.609947  1
  Fe  Fe22  1  0.500000  0.500000  0.500000  1
  Os  Os23  1  0.000000  0.000000  0.500000  1
  Os  Os24  1  0.500000  0.000000  0.500000  1
  Os  Os25  1  0.000000  0.500000  0.500000  1
  Os  Os26  1  0.500000  0.000000  0.000000  1
  Os  Os27  1  0.000000  0.500000  0.000000  1
  Os  Os28  1  0.000000  0.000000  0.000000  1
  Pt  Pt29  1  0.500000  0.500000  0.000000  1
