# generated using pymatgen
data_Hf8Nb12Si15P
_symmetry_space_group_name_H-M   'P 1'
_cell_length_a   6.86091503
_cell_length_b   6.85498960
_cell_length_c   12.69349703
_cell_angle_alpha   89.90266264
_cell_angle_beta   89.96704752
_cell_angle_gamma   89.94770759
_symmetry_Int_Tables_number   1
_chemical_formula_structural   Hf8Nb12Si15P
_chemical_formula_sum   'Hf8 Nb12 Si15 P1'
_cell_volume   596.99301217
_cell_formula_units_Z   1
loop_
 _symmetry_equiv_pos_site_id
 _symmetry_equiv_pos_as_xyz
  1  'x, y, z'
loop_
 _atom_site_type_symbol
 _atom_site_label
 _atom_site_symmetry_multiplicity
 _atom_site_fract_x
 _atom_site_fract_y
 _atom_site_fract_z
 _atom_site_occupancy
  Hf  Hf0  1  0.001164  0.337976  0.219584  1
  Hf  Hf1  1  0.999549  0.660912  0.718782  1
  Hf  Hf2  1  0.160463  0.502322  0.469528  1
  Hf  Hf3  1  0.498182  0.839386  0.031760  1
  Hf  Hf4  1  0.838753  0.499327  0.969050  1
  Hf  Hf5  1  0.500364  0.161108  0.530739  1
  Hf  Hf6  1  0.338703  0.999826  0.780916  1
  Hf  Hf7  1  0.657816  0.000917  0.280113  1
  Nb  Nb8  1  0.170118  0.166630  0.001888  1
  Nb  Nb9  1  0.831484  0.832077  0.500110  1
  Nb  Nb10  1  0.331280  0.670434  0.249310  1
  Nb  Nb11  1  0.668856  0.331238  0.750068  1
  Nb  Nb12  1  0.156107  0.999546  0.372788  1
  Nb  Nb13  1  0.846278  0.002467  0.875791  1
  Nb  Nb14  1  0.502269  0.653261  0.626392  1
  Nb  Nb15  1  0.347037  0.496104  0.874047  1
  Nb  Nb16  1  0.494692  0.343171  0.127944  1
  Nb  Nb17  1  0.653976  0.503676  0.373446  1
  Nb  Nb18  1  0.997931  0.152980  0.622875  1
  Nb  Nb19  1  0.004530  0.848587  0.123623  1
  Si  Si20  1  0.700918  0.957456  0.686550  1
  Si  Si21  1  0.457616  0.800135  0.436667  1
  Si  Si22  1  0.199377  0.541801  0.063439  1
  Si  Si23  1  0.542863  0.199812  0.936723  1
  Si  Si24  1  0.799282  0.457320  0.563524  1
  Si  Si25  1  0.043233  0.298978  0.813924  1
  Si  Si26  1  0.957357  0.700897  0.313408  1
  Si  Si27  1  0.365823  0.295509  0.325476  1
  Si  Si28  1  0.634364  0.708748  0.823158  1
  Si  Si29  1  0.208551  0.865922  0.571658  1
  Si  Si30  1  0.134755  0.790930  0.926991  1
  Si  Si31  1  0.791094  0.134906  0.072271  1
  Si  Si32  1  0.865244  0.207766  0.426754  1
  Si  Si33  1  0.291260  0.364935  0.677716  1
  Si  Si34  1  0.709306  0.633523  0.176936  1
  P  P35  1  0.299404  0.039413  0.186052  1
