# generated using pymatgen
data_SrNdY2(AsPt)4
_symmetry_space_group_name_H-M   'P 1'
_cell_length_a   4.31174900
_cell_length_b   4.31174860
_cell_length_c   16.35779500
_cell_angle_alpha   90.00000000
_cell_angle_beta   90.00000000
_cell_angle_gamma   119.99999537
_symmetry_Int_Tables_number   1
_chemical_formula_structural   SrNdY2(AsPt)4
_chemical_formula_sum   'Sr1 Nd1 Y2 As4 Pt4'
_cell_volume   263.36758166
_cell_formula_units_Z   1
loop_
 _symmetry_equiv_pos_site_id
 _symmetry_equiv_pos_as_xyz
  1  'x, y, z'
loop_
 _atom_site_type_symbol
 _atom_site_label
 _atom_site_symmetry_multiplicity
 _atom_site_fract_x
 _atom_site_fract_y
 _atom_site_fract_z
 _atom_site_occupancy
  Sr  Sr0  1  0.000000  0.000000  0.000000  1
  Nd  Nd1  1  0.000000  0.000000  0.500000  1
  Y  Y2  1  0.000000  0.000000  0.256956  1
  Y  Y3  1  0.000000  0.000000  0.743044  1
  As  As4  1  0.333333  0.666667  0.867056  1
  As  As5  1  0.666667  0.333333  0.384431  1
  As  As6  1  0.666667  0.333333  0.132944  1
  As  As7  1  0.333333  0.666667  0.615569  1
  Pt  Pt8  1  0.333333  0.666667  0.367695  1
  Pt  Pt9  1  0.666667  0.333333  0.849832  1
  Pt  Pt10  1  0.666667  0.333333  0.632305  1
  Pt  Pt11  1  0.333333  0.666667  0.150168  1
