# generated using pymatgen
data_La5RhPb2
_symmetry_space_group_name_H-M   'P 1'
_cell_length_a   8.50239400
_cell_length_b   9.43710900
_cell_length_c   13.17304700
_cell_angle_alpha   90.00000000
_cell_angle_beta   90.00000000
_cell_angle_gamma   90.00000000
_symmetry_Int_Tables_number   1
_chemical_formula_structural   La5RhPb2
_chemical_formula_sum   'La20 Rh4 Pb8'
_cell_volume   1056.97919467
_cell_formula_units_Z   4
loop_
 _symmetry_equiv_pos_site_id
 _symmetry_equiv_pos_as_xyz
  1  'x, y, z'
loop_
 _atom_site_type_symbol
 _atom_site_label
 _atom_site_symmetry_multiplicity
 _atom_site_fract_x
 _atom_site_fract_y
 _atom_site_fract_z
 _atom_site_occupancy
  La  La0  1  0.673728  0.469588  0.069291  1
  La  La1  1  0.173728  0.530412  0.430709  1
  La  La2  1  0.326272  0.969588  0.930709  1
  La  La3  1  0.826272  0.030412  0.569291  1
  La  La4  1  0.326272  0.530412  0.930709  1
  La  La5  1  0.826272  0.469588  0.569291  1
  La  La6  1  0.673728  0.030412  0.069291  1
  La  La7  1  0.173728  0.969588  0.430709  1
  La  La8  1  0.951471  0.750000  0.001153  1
  La  La9  1  0.451471  0.250000  0.498847  1
  La  La10  1  0.048529  0.250000  0.998847  1
  La  La11  1  0.548529  0.750000  0.501153  1
  La  La12  1  0.362077  0.750000  0.199931  1
  La  La13  1  0.862077  0.250000  0.300069  1
  La  La14  1  0.637923  0.250000  0.800069  1
  La  La15  1  0.137923  0.750000  0.699931  1
  La  La16  1  0.837977  0.750000  0.291560  1
  La  La17  1  0.337977  0.250000  0.208440  1
  La  La18  1  0.162023  0.250000  0.708440  1
  La  La19  1  0.662023  0.750000  0.791560  1
  Rh  Rh20  1  0.575621  0.750000  0.012939  1
  Rh  Rh21  1  0.075621  0.250000  0.487061  1
  Rh  Rh22  1  0.424379  0.250000  0.987061  1
  Rh  Rh23  1  0.924379  0.750000  0.512939  1
  Pb  Pb24  1  0.562220  0.494474  0.328642  1
  Pb  Pb25  1  0.062220  0.505526  0.171358  1
  Pb  Pb26  1  0.437780  0.994474  0.671358  1
  Pb  Pb27  1  0.937780  0.005526  0.828642  1
  Pb  Pb28  1  0.437780  0.505526  0.671358  1
  Pb  Pb29  1  0.937780  0.494474  0.828642  1
  Pb  Pb30  1  0.562220  0.005526  0.328642  1
  Pb  Pb31  1  0.062220  0.994474  0.171358  1
