# generated using pymatgen
data_Ca3Tm(SiPt2)4
_symmetry_space_group_name_H-M   'P 1'
_cell_length_a   5.53235001
_cell_length_b   6.94602800
_cell_length_c   7.38554801
_cell_angle_alpha   90.00000000
_cell_angle_beta   89.99414953
_cell_angle_gamma   90.00000000
_symmetry_Int_Tables_number   1
_chemical_formula_structural   Ca3Tm(SiPt2)4
_chemical_formula_sum   'Ca3 Tm1 Si4 Pt8'
_cell_volume   283.81078910
_cell_formula_units_Z   1
loop_
 _symmetry_equiv_pos_site_id
 _symmetry_equiv_pos_as_xyz
  1  'x, y, z'
loop_
 _atom_site_type_symbol
 _atom_site_label
 _atom_site_symmetry_multiplicity
 _atom_site_fract_x
 _atom_site_fract_y
 _atom_site_fract_z
 _atom_site_occupancy
  Ca  Ca0  1  0.371786  0.750000  0.022438  1
  Ca  Ca1  1  0.128813  0.750000  0.523261  1
  Ca  Ca2  1  0.626602  0.250000  0.977497  1
  Tm  Tm3  1  0.867278  0.250000  0.476018  1
  Si  Si4  1  0.628261  0.750000  0.375656  1
  Si  Si5  1  0.871253  0.750000  0.877010  1
  Si  Si6  1  0.368500  0.250000  0.625533  1
  Si  Si7  1  0.128945  0.250000  0.124587  1
  Pt  Pt8  1  0.901049  0.550463  0.177838  1
  Pt  Pt9  1  0.609377  0.949509  0.668117  1
  Pt  Pt10  1  0.092723  0.053336  0.825024  1
  Pt  Pt11  1  0.401132  0.446914  0.328022  1
  Pt  Pt12  1  0.092723  0.446664  0.825024  1
  Pt  Pt13  1  0.401132  0.053086  0.328022  1
  Pt  Pt14  1  0.901049  0.949537  0.177838  1
  Pt  Pt15  1  0.609377  0.550491  0.668117  1
