# generated using pymatgen
data_TbHo2(Ni3As2)3
_symmetry_space_group_name_H-M   'P 1'
_cell_length_a   3.89356400
_cell_length_b   10.85064100
_cell_length_c   12.71190700
_cell_angle_alpha   90.00000000
_cell_angle_beta   90.00000000
_cell_angle_gamma   90.00000000
_symmetry_Int_Tables_number   1
_chemical_formula_structural   TbHo2(Ni3As2)3
_chemical_formula_sum   'Tb2 Ho4 Ni18 As12'
_cell_volume   537.04839067
_cell_formula_units_Z   2
loop_
 _symmetry_equiv_pos_site_id
 _symmetry_equiv_pos_as_xyz
  1  'x, y, z'
loop_
 _atom_site_type_symbol
 _atom_site_label
 _atom_site_symmetry_multiplicity
 _atom_site_fract_x
 _atom_site_fract_y
 _atom_site_fract_z
 _atom_site_occupancy
  Tb  Tb0  1  0.000000  0.500000  0.523922  1
  Tb  Tb1  1  0.500000  0.000000  0.476078  1
  Ho  Ho2  1  0.500000  0.816504  0.206298  1
  Ho  Ho3  1  0.500000  0.183496  0.206298  1
  Ho  Ho4  1  0.000000  0.683496  0.793702  1
  Ho  Ho5  1  0.000000  0.316504  0.793702  1
  Ni  Ni6  1  0.000000  0.500000  0.982402  1
  Ni  Ni7  1  0.500000  0.000000  0.017598  1
  Ni  Ni8  1  0.500000  0.303043  0.426035  1
  Ni  Ni9  1  0.500000  0.696957  0.426035  1
  Ni  Ni10  1  0.000000  0.196957  0.573965  1
  Ni  Ni11  1  0.000000  0.803043  0.573965  1
  Ni  Ni12  1  0.500000  0.879521  0.707579  1
  Ni  Ni13  1  0.500000  0.120479  0.707579  1
  Ni  Ni14  1  0.000000  0.620479  0.292421  1
  Ni  Ni15  1  0.000000  0.379521  0.292421  1
  Ni  Ni16  1  0.500000  0.332968  0.997950  1
  Ni  Ni17  1  0.500000  0.667032  0.997950  1
  Ni  Ni18  1  0.000000  0.167032  0.002050  1
  Ni  Ni19  1  0.000000  0.832968  0.002050  1
  Ni  Ni20  1  0.500000  0.500000  0.156555  1
  Ni  Ni21  1  0.000000  0.000000  0.843445  1
  Ni  Ni22  1  0.500000  0.500000  0.699779  1
  Ni  Ni23  1  0.000000  0.000000  0.300221  1
  As  As24  1  0.500000  0.314161  0.613878  1
  As  As25  1  0.500000  0.685839  0.613878  1
  As  As26  1  0.000000  0.185839  0.386122  1
  As  As27  1  0.000000  0.814161  0.386122  1
  As  As28  1  0.500000  0.500000  0.876681  1
  As  As29  1  0.000000  0.000000  0.123319  1
  As  As30  1  0.500000  0.846967  0.890373  1
  As  As31  1  0.500000  0.153033  0.890373  1
  As  As32  1  0.000000  0.653033  0.109627  1
  As  As33  1  0.000000  0.346967  0.109627  1
  As  As34  1  0.500000  0.500000  0.345019  1
  As  As35  1  0.000000  0.000000  0.654981  1
