# generated using pymatgen
data_Pr4PdSe7
_symmetry_space_group_name_H-M   'P 1'
_cell_length_a   4.08228410
_cell_length_b   8.42071865
_cell_length_c   8.74598500
_cell_angle_alpha   90.03559928
_cell_angle_beta   89.98739637
_cell_angle_gamma   89.99604102
_symmetry_Int_Tables_number   1
_chemical_formula_structural   Pr4PdSe7
_chemical_formula_sum   'Pr4 Pd1 Se7'
_cell_volume   300.64986626
_cell_formula_units_Z   1
loop_
 _symmetry_equiv_pos_site_id
 _symmetry_equiv_pos_as_xyz
  1  'x, y, z'
loop_
 _atom_site_type_symbol
 _atom_site_label
 _atom_site_symmetry_multiplicity
 _atom_site_fract_x
 _atom_site_fract_y
 _atom_site_fract_z
 _atom_site_occupancy
  Pr  Pr0  1  0.250339  0.125426  0.701584  1
  Pr  Pr1  1  0.250778  0.625644  0.750294  1
  Pr  Pr2  1  0.749960  0.866855  0.271802  1
  Pr  Pr3  1  0.749687  0.382433  0.272730  1
  Pd  Pd4  1  0.749110  0.125026  0.000776  1
  Se  Se5  1  0.249182  0.319125  0.998445  1
  Se  Se6  1  0.750589  0.623970  0.006370  1
  Se  Se7  1  0.750562  0.871986  0.632611  1
  Se  Se8  1  0.249955  0.624957  0.374975  1
  Se  Se9  1  0.249492  0.931093  0.997857  1
  Se  Se10  1  0.750416  0.378916  0.633006  1
  Se  Se11  1  0.249931  0.124571  0.359550  1
