# generated using pymatgen
data_BaUReF12
_symmetry_space_group_name_H-M   'P 1'
_cell_length_a   5.80252527
_cell_length_b   5.93720200
_cell_length_c   9.94948290
_cell_angle_alpha   98.12801089
_cell_angle_beta   97.58328069
_cell_angle_gamma   117.09280730
_symmetry_Int_Tables_number   1
_chemical_formula_structural   BaUReF12
_chemical_formula_sum   'Ba1 U1 Re1 F12'
_cell_volume   294.49683659
_cell_formula_units_Z   1
loop_
 _symmetry_equiv_pos_site_id
 _symmetry_equiv_pos_as_xyz
  1  'x, y, z'
loop_
 _atom_site_type_symbol
 _atom_site_label
 _atom_site_symmetry_multiplicity
 _atom_site_fract_x
 _atom_site_fract_y
 _atom_site_fract_z
 _atom_site_occupancy
  Ba  Ba0  1  0.008567  0.991189  0.940039  1
  U  U1  1  0.210539  0.496499  0.599539  1
  Re  Re2  1  0.383757  0.694540  0.124984  1
  F  F3  1  0.246676  0.906059  0.202292  1
  F  F4  1  0.579991  0.653165  0.744957  1
  F  F5  1  0.062360  0.549667  0.975159  1
  F  F6  1  0.187578  0.388242  0.194984  1
  F  F7  1  0.478452  0.471072  0.008678  1
  F  F8  1  0.291088  0.235198  0.491248  1
  F  F9  1  0.696788  0.824809  0.260219  1
  F  F10  1  0.145655  0.770437  0.727449  1
  F  F11  1  0.853769  0.361360  0.467928  1
  F  F12  1  0.038919  0.228874  0.725314  1
  F  F13  1  0.397472  0.766061  0.490165  1
  F  F14  1  0.566389  0.972829  0.025046  1
