# generated using pymatgen
data_ErLu2Mg3Ga2Hg
_symmetry_space_group_name_H-M   'P 1'
_cell_length_a   7.29963800
_cell_length_b   7.31605660
_cell_length_c   4.35142400
_cell_angle_alpha   90.00000000
_cell_angle_beta   90.00000000
_cell_angle_gamma   119.92578159
_symmetry_Int_Tables_number   1
_chemical_formula_structural   ErLu2Mg3Ga2Hg
_chemical_formula_sum   'Er1 Lu2 Mg3 Ga2 Hg1'
_cell_volume   201.40243933
_cell_formula_units_Z   1
loop_
 _symmetry_equiv_pos_site_id
 _symmetry_equiv_pos_as_xyz
  1  'x, y, z'
loop_
 _atom_site_type_symbol
 _atom_site_label
 _atom_site_symmetry_multiplicity
 _atom_site_fract_x
 _atom_site_fract_y
 _atom_site_fract_z
 _atom_site_occupancy
  Er  Er0  1  0.571137  0.000000  0.000000  1
  Lu  Lu1  1  0.999821  0.571236  0.000000  1
  Lu  Lu2  1  0.428585  0.428764  0.000000  1
  Mg  Mg3  1  0.000171  0.249440  0.500000  1
  Mg  Mg4  1  0.750732  0.750560  0.500000  1
  Mg  Mg5  1  0.249232  0.000000  0.500000  1
  Ga  Ga6  1  0.667005  0.334485  0.500000  1
  Ga  Ga7  1  0.332518  0.665515  0.500000  1
  Hg  Hg8  1  0.000800  0.000000  0.000000  1
