# generated using pymatgen
data_TbNi2AgPt2
_symmetry_space_group_name_H-M   'P 1'
_cell_length_a   5.01508384
_cell_length_b   5.14868906
_cell_length_c   5.14868795
_cell_angle_alpha   63.08930274
_cell_angle_beta   60.85474238
_cell_angle_gamma   60.85473999
_symmetry_Int_Tables_number   1
_chemical_formula_structural   TbNi2AgPt2
_chemical_formula_sum   'Tb1 Ni2 Ag1 Pt2'
_cell_volume   97.28372998
_cell_formula_units_Z   1
loop_
 _symmetry_equiv_pos_site_id
 _symmetry_equiv_pos_as_xyz
  1  'x, y, z'
loop_
 _atom_site_type_symbol
 _atom_site_label
 _atom_site_symmetry_multiplicity
 _atom_site_fract_x
 _atom_site_fract_y
 _atom_site_fract_z
 _atom_site_occupancy
  Tb  Tb0  1  0.999915  0.000085  0.000085  1
  Ni  Ni1  1  0.127879  0.621498  0.621498  1
  Ni  Ni2  1  0.629123  0.621498  0.621498  1
  Ag  Ag3  1  0.241119  0.258881  0.258881  1
  Pt  Pt4  1  0.625981  0.623746  0.124291  1
  Pt  Pt5  1  0.625981  0.124291  0.623746  1
