# generated using pymatgen
data_Yb5TlNi2
_symmetry_space_group_name_H-M   'P 1'
_cell_length_a   8.86692141
_cell_length_b   8.86692246
_cell_length_c   8.86488921
_cell_angle_alpha   129.19907165
_cell_angle_beta   129.19907506
_cell_angle_gamma   74.70815928
_symmetry_Int_Tables_number   1
_chemical_formula_structural   Yb5TlNi2
_chemical_formula_sum   'Yb10 Tl2 Ni4'
_cell_volume   407.74643861
_cell_formula_units_Z   2
loop_
 _symmetry_equiv_pos_site_id
 _symmetry_equiv_pos_as_xyz
  1  'x, y, z'
loop_
 _atom_site_type_symbol
 _atom_site_label
 _atom_site_symmetry_multiplicity
 _atom_site_fract_x
 _atom_site_fract_y
 _atom_site_fract_z
 _atom_site_occupancy
  Yb  Yb0  1  0.000000  0.000000  0.000000  1
  Yb  Yb1  1  0.500000  0.500000  0.000000  1
  Yb  Yb2  1  0.800101  0.300101  0.838261  1
  Yb  Yb3  1  0.199899  0.699899  0.161739  1
  Yb  Yb4  1  0.461840  0.961840  0.161737  1
  Yb  Yb5  1  0.300025  0.461925  0.500001  1
  Yb  Yb6  1  0.038075  0.199975  0.499999  1
  Yb  Yb7  1  0.538160  0.038160  0.838263  1
  Yb  Yb8  1  0.699975  0.538075  0.499999  1
  Yb  Yb9  1  0.961925  0.800025  0.500001  1
  Tl  Tl10  1  0.250005  0.249995  0.000000  1
  Tl  Tl11  1  0.749995  0.750005  0.000000  1
  Ni  Ni12  1  0.114035  0.614035  0.728068  1
  Ni  Ni13  1  0.885965  0.385965  0.271932  1
  Ni  Ni14  1  0.614074  0.885926  0.500000  1
  Ni  Ni15  1  0.385926  0.114074  0.500000  1
