# generated using pymatgen
data_YbSm4Er3(B6Os)4
_symmetry_space_group_name_H-M   'P 1'
_cell_length_a   3.67607600
_cell_length_b   9.17333202
_cell_length_c   11.58276302
_cell_angle_alpha   89.99279496
_cell_angle_beta   90.00000000
_cell_angle_gamma   90.00000000
_symmetry_Int_Tables_number   1
_chemical_formula_structural   YbSm4Er3(B6Os)4
_chemical_formula_sum   'Yb1 Sm4 Er3 B24 Os4'
_cell_volume   390.59237568
_cell_formula_units_Z   1
loop_
 _symmetry_equiv_pos_site_id
 _symmetry_equiv_pos_as_xyz
  1  'x, y, z'
loop_
 _atom_site_type_symbol
 _atom_site_label
 _atom_site_symmetry_multiplicity
 _atom_site_fract_x
 _atom_site_fract_y
 _atom_site_fract_z
 _atom_site_occupancy
  Yb  Yb0  1  0.000000  0.943585  0.371479  1
  Sm  Sm1  1  0.000000  0.321440  0.413206  1
  Sm  Sm2  1  0.000000  0.678417  0.583908  1
  Sm  Sm3  1  0.000000  0.823131  0.087785  1
  Sm  Sm4  1  0.000000  0.177473  0.915128  1
  Er  Er5  1  0.000000  0.055730  0.626822  1
  Er  Er6  1  0.000000  0.443763  0.128106  1
  Er  Er7  1  0.000000  0.556591  0.872081  1
  B  B8  1  0.500000  0.555089  0.430917  1
  B  B9  1  0.500000  0.444498  0.568657  1
  B  B10  1  0.500000  0.055232  0.069199  1
  B  B11  1  0.500000  0.944956  0.931578  1
  B  B12  1  0.500000  0.749424  0.417403  1
  B  B13  1  0.500000  0.250286  0.581664  1
  B  B14  1  0.500000  0.249430  0.082037  1
  B  B15  1  0.500000  0.750673  0.918263  1
  B  B16  1  0.500000  0.790980  0.267257  1
  B  B17  1  0.500000  0.208804  0.733242  1
  B  B18  1  0.500000  0.290255  0.233168  1
  B  B19  1  0.500000  0.709454  0.766485  1
  B  B20  1  0.500000  0.630708  0.186031  1
  B  B21  1  0.500000  0.369374  0.814652  1
  B  B22  1  0.500000  0.129985  0.314345  1
  B  B23  1  0.500000  0.869172  0.684869  1
  B  B24  1  0.500000  0.984778  0.214125  1
  B  B25  1  0.500000  0.015532  0.786098  1
  B  B26  1  0.500000  0.484064  0.286490  1
  B  B27  1  0.500000  0.515717  0.713571  1
  B  B28  1  0.500000  0.603791  0.028509  1
  B  B29  1  0.500000  0.396541  0.971492  1
  B  B30  1  0.500000  0.103185  0.471956  1
  B  B31  1  0.500000  0.897132  0.528703  1
  Os  Os32  1  0.000000  0.638195  0.319605  1
  Os  Os33  1  0.000000  0.361215  0.680697  1
  Os  Os34  1  0.000000  0.139472  0.179660  1
  Os  Os35  1  0.000000  0.861928  0.820812  1
