# generated using pymatgen
data_Nb6Ga4FeCoC2
_symmetry_space_group_name_H-M   'P 1'
_cell_length_a   8.22147192
_cell_length_b   8.22147243
_cell_length_c   8.21768200
_cell_angle_alpha   60.01524992
_cell_angle_beta   60.01524788
_cell_angle_gamma   60.06586238
_symmetry_Int_Tables_number   1
_chemical_formula_structural   Nb6Ga4FeCoC2
_chemical_formula_sum   'Nb12 Ga8 Fe2 Co2 C4'
_cell_volume   393.05143194
_cell_formula_units_Z   2
loop_
 _symmetry_equiv_pos_site_id
 _symmetry_equiv_pos_as_xyz
  1  'x, y, z'
loop_
 _atom_site_type_symbol
 _atom_site_label
 _atom_site_symmetry_multiplicity
 _atom_site_fract_x
 _atom_site_fract_y
 _atom_site_fract_z
 _atom_site_occupancy
  Nb  Nb0  1  0.698180  0.305015  0.690214  1
  Nb  Nb1  1  0.944985  0.551820  0.559786  1
  Nb  Nb2  1  0.551820  0.944985  0.943409  1
  Nb  Nb3  1  0.944985  0.551820  0.943409  1
  Nb  Nb4  1  0.558360  0.558360  0.941640  1
  Nb  Nb5  1  0.946713  0.946713  0.553287  1
  Nb  Nb6  1  0.691640  0.691640  0.308360  1
  Nb  Nb7  1  0.305015  0.698180  0.690214  1
  Nb  Nb8  1  0.698180  0.305015  0.306591  1
  Nb  Nb9  1  0.303287  0.303287  0.696713  1
  Nb  Nb10  1  0.551820  0.944985  0.559786  1
  Nb  Nb11  1  0.305015  0.698180  0.306591  1
  Ga  Ga12  1  0.335238  0.335238  0.332543  1
  Ga  Ga13  1  0.248908  0.915135  0.917978  1
  Ga  Ga14  1  0.915135  0.248908  0.917978  1
  Ga  Ga15  1  0.914762  0.914762  0.253017  1
  Ga  Ga16  1  0.334865  0.001092  0.332022  1
  Ga  Ga17  1  0.335238  0.335238  0.996983  1
  Ga  Ga18  1  0.001092  0.334865  0.332022  1
  Ga  Ga19  1  0.914762  0.914762  0.917457  1
  Fe  Fe20  1  0.125000  0.125000  0.125000  1
  Fe  Fe21  1  0.125000  0.125000  0.625000  1
  Co  Co22  1  0.625000  0.125000  0.125000  1
  Co  Co23  1  0.125000  0.625000  0.125000  1
  C  C24  1  0.625000  0.625000  0.625000  1
  C  C25  1  0.125000  0.625000  0.625000  1
  C  C26  1  0.625000  0.125000  0.625000  1
  C  C27  1  0.625000  0.625000  0.125000  1
