# generated using pymatgen
data_Sr3Th(Ni12P5)2
_symmetry_space_group_name_H-M   'P 1'
_cell_length_a   3.65238400
_cell_length_b   10.97680625
_cell_length_c   13.25921512
_cell_angle_alpha   71.98311619
_cell_angle_beta   90.00000000
_cell_angle_gamma   90.00000000
_symmetry_Int_Tables_number   1
_chemical_formula_structural   Sr3Th(Ni12P5)2
_chemical_formula_sum   'Sr3 Th1 Ni24 P10'
_cell_volume   505.51607371
_cell_formula_units_Z   1
loop_
 _symmetry_equiv_pos_site_id
 _symmetry_equiv_pos_as_xyz
  1  'x, y, z'
loop_
 _atom_site_type_symbol
 _atom_site_label
 _atom_site_symmetry_multiplicity
 _atom_site_fract_x
 _atom_site_fract_y
 _atom_site_fract_z
 _atom_site_occupancy
  Sr  Sr0  1  0.250000  0.749048  0.187217  1
  Sr  Sr1  1  0.750000  0.251320  0.813026  1
  Sr  Sr2  1  0.250000  0.780994  0.683027  1
  Th  Th3  1  0.750000  0.222277  0.316993  1
  Ni  Ni4  1  0.250000  0.571600  0.013579  1
  Ni  Ni5  1  0.250000  0.566194  0.448338  1
  Ni  Ni6  1  0.750000  0.507447  0.340930  1
  Ni  Ni7  1  0.250000  0.491648  0.658969  1
  Ni  Ni8  1  0.750000  0.511533  0.150148  1
  Ni  Ni9  1  0.250000  0.486965  0.850613  1
  Ni  Ni10  1  0.750000  0.433065  0.550902  1
  Ni  Ni11  1  0.250000  0.340187  0.139375  1
  Ni  Ni12  1  0.750000  0.651569  0.561200  1
  Ni  Ni13  1  0.250000  0.341897  0.436484  1
  Ni  Ni14  1  0.750000  0.905905  0.304407  1
  Ni  Ni15  1  0.250000  0.094979  0.693400  1
  Ni  Ni16  1  0.750000  0.917863  0.990567  1
  Ni  Ni17  1  0.250000  0.080596  0.010691  1
  Ni  Ni18  1  0.750000  0.927022  0.488056  1
  Ni  Ni19  1  0.250000  0.084038  0.505318  1
  Ni  Ni20  1  0.750000  0.944337  0.795835  1
  Ni  Ni21  1  0.250000  0.065399  0.205270  1
  Ni  Ni22  1  0.250000  0.787148  0.439635  1
  Ni  Ni23  1  0.750000  0.213562  0.559321  1
  Ni  Ni24  1  0.250000  0.798025  0.916814  1
  Ni  Ni25  1  0.750000  0.200954  0.085496  1
  Ni  Ni26  1  0.750000  0.647629  0.868033  1
  Ni  Ni27  1  0.750000  0.425616  0.987972  1
  P  P28  1  0.250000  0.006930  0.871891  1
  P  P29  1  0.750000  0.992782  0.128253  1
  P  P30  1  0.250000  0.298418  0.987066  1
  P  P31  1  0.750000  0.700766  0.013872  1
  P  P32  1  0.250000  0.451588  0.259318  1
  P  P33  1  0.750000  0.547998  0.740013  1
  P  P34  1  0.250000  0.992439  0.378573  1
  P  P35  1  0.750000  0.008744  0.620868  1
  P  P36  1  0.250000  0.311056  0.609781  1
  P  P37  1  0.750000  0.690464  0.388749  1
