# generated using pymatgen
data_K3RbCo2F12
_symmetry_space_group_name_H-M   'P 1'
_cell_length_a   5.90786900
_cell_length_b   8.30450100
_cell_length_c   5.90786900
_cell_angle_alpha   90.00000000
_cell_angle_beta   90.00000000
_cell_angle_gamma   90.00000000
_symmetry_Int_Tables_number   1
_chemical_formula_structural   K3RbCo2F12
_chemical_formula_sum   'K3 Rb1 Co2 F12'
_cell_volume   289.85130183
_cell_formula_units_Z   1
loop_
 _symmetry_equiv_pos_site_id
 _symmetry_equiv_pos_as_xyz
  1  'x, y, z'
loop_
 _atom_site_type_symbol
 _atom_site_label
 _atom_site_symmetry_multiplicity
 _atom_site_fract_x
 _atom_site_fract_y
 _atom_site_fract_z
 _atom_site_occupancy
  K  K0  1  0.000000  0.750000  0.500000  1
  K  K1  1  0.500000  0.750000  0.000000  1
  K  K2  1  0.000000  0.250000  0.500000  1
  Rb  Rb3  1  0.500000  0.250000  0.000000  1
  Co  Co4  1  0.000000  0.997936  0.000000  1
  Co  Co5  1  0.500000  0.502064  0.500000  1
  F  F6  1  0.000000  0.215500  0.000000  1
  F  F7  1  0.500000  0.718968  0.500000  1
  F  F8  1  0.282130  0.502457  0.283135  1
  F  F9  1  0.783135  0.997543  0.782130  1
  F  F10  1  0.282130  0.502457  0.716865  1
  F  F11  1  0.783135  0.997543  0.217870  1
  F  F12  1  0.000000  0.781032  0.000000  1
  F  F13  1  0.500000  0.284500  0.500000  1
  F  F14  1  0.717870  0.502457  0.716865  1
  F  F15  1  0.216865  0.997543  0.217870  1
  F  F16  1  0.717870  0.502457  0.283135  1
  F  F17  1  0.216865  0.997543  0.782130  1
