# generated using pymatgen
data_Hg2H9Cl2
_symmetry_space_group_name_H-M   'P 1'
_cell_length_a   5.13899287
_cell_length_b   7.86208421
_cell_length_c   9.29229664
_cell_angle_alpha   87.20858500
_cell_angle_beta   111.78593243
_cell_angle_gamma   93.37705269
_symmetry_Int_Tables_number   1
_chemical_formula_structural   Hg2H9Cl2
_chemical_formula_sum   'Hg2 H9 Cl2'
_cell_volume   347.87224761
_cell_formula_units_Z   1
loop_
 _symmetry_equiv_pos_site_id
 _symmetry_equiv_pos_as_xyz
  1  'x, y, z'
loop_
 _atom_site_type_symbol
 _atom_site_label
 _atom_site_symmetry_multiplicity
 _atom_site_fract_x
 _atom_site_fract_y
 _atom_site_fract_z
 _atom_site_occupancy
  Hg  Hg0  1  0.684151  0.995712  0.314385  1
  Hg  Hg1  1  0.930187  0.170535  0.643272  1
  H  H2  1  0.184098  0.763509  0.865631  1
  H  H3  1  0.742887  0.547142  0.314107  1
  H  H4  1  0.594571  0.511095  0.288295  1
  H  H5  1  0.825739  0.582258  0.010194  1
  H  H6  1  0.879233  0.663400  0.052845  1
  H  H7  1  0.578070  0.605835  0.496317  1
  H  H8  1  0.338921  0.777658  0.884780  1
  H  H9  1  0.216949  0.286985  0.081086  1
  H  H10  1  0.267552  0.367130  0.050437  1
  Cl  Cl11  1  0.520603  0.611543  0.619646  1
  Cl  Cl12  1  0.165817  0.980452  0.289480  1
