# generated using pymatgen
data_Tm3Ta2Bi3O14
_symmetry_space_group_name_H-M   'P 1'
_cell_length_a   6.42903064
_cell_length_b   6.71062578
_cell_length_c   7.62232500
_cell_angle_alpha   106.62803344
_cell_angle_beta   89.55416178
_cell_angle_gamma   98.20881064
_symmetry_Int_Tables_number   1
_chemical_formula_structural   Tm3Ta2Bi3O14
_chemical_formula_sum   'Tm3 Ta2 Bi3 O14'
_cell_volume   311.67888323
_cell_formula_units_Z   1
loop_
 _symmetry_equiv_pos_site_id
 _symmetry_equiv_pos_as_xyz
  1  'x, y, z'
loop_
 _atom_site_type_symbol
 _atom_site_label
 _atom_site_symmetry_multiplicity
 _atom_site_fract_x
 _atom_site_fract_y
 _atom_site_fract_z
 _atom_site_occupancy
  Tm  Tm0  1  0.546647  0.992979  0.755880  1
  Tm  Tm1  1  0.454400  0.004301  0.249202  1
  Tm  Tm2  1  0.254061  0.536411  0.883199  1
  Ta  Ta3  1  0.003917  0.009423  0.502791  1
  Ta  Ta4  1  0.006340  0.008024  0.999348  1
  Bi  Bi5  1  0.744987  0.488555  0.115296  1
  Bi  Bi6  1  0.723905  0.450521  0.612301  1
  Bi  Bi7  1  0.265502  0.543725  0.394867  1
  O  O8  1  0.443148  0.655801  0.164053  1
  O  O9  1  0.536684  0.337166  0.822338  1
  O  O10  1  0.296471  0.925768  0.949966  1
  O  O11  1  0.710853  0.039272  0.052673  1
  O  O12  1  0.291885  0.925725  0.517062  1
  O  O13  1  0.709780  0.078044  0.485713  1
  O  O14  1  0.521769  0.349214  0.347456  1
  O  O15  1  0.457896  0.647537  0.664070  1
  O  O16  1  0.940180  0.676920  0.953771  1
  O  O17  1  0.091255  0.304997  0.025080  1
  O  O18  1  0.095874  0.313236  0.626074  1
  O  O19  1  0.900859  0.705390  0.377754  1
  O  O20  1  0.906412  0.952557  0.737933  1
  O  O21  1  0.097172  0.054436  0.263175  1
