# generated using pymatgen
data_NdBeSiIr3
_symmetry_space_group_name_H-M   'P 1'
_cell_length_a   6.60682596
_cell_length_b   6.62366767
_cell_length_c   6.60682602
_cell_angle_alpha   130.24109147
_cell_angle_beta   115.05179838
_cell_angle_gamma   85.93382250
_symmetry_Int_Tables_number   1
_chemical_formula_structural   NdBeSiIr3
_chemical_formula_sum   'Nd2 Be2 Si2 Ir6'
_cell_volume   191.15955418
_cell_formula_units_Z   2
loop_
 _symmetry_equiv_pos_site_id
 _symmetry_equiv_pos_as_xyz
  1  'x, y, z'
loop_
 _atom_site_type_symbol
 _atom_site_label
 _atom_site_symmetry_multiplicity
 _atom_site_fract_x
 _atom_site_fract_y
 _atom_site_fract_z
 _atom_site_occupancy
  Nd  Nd0  1  0.239156  0.984563  0.745407  1
  Nd  Nd1  1  0.760844  0.015437  0.254593  1
  Be  Be2  1  0.091439  0.332043  0.240604  1
  Be  Be3  1  0.908561  0.667957  0.759396  1
  Si  Si4  1  0.422938  0.662151  0.239214  1
  Si  Si5  1  0.577062  0.337849  0.760786  1
  Ir  Ir6  1  0.500000  0.500000  0.500000  1
  Ir  Ir7  1  0.000000  0.500000  0.000000  1
  Ir  Ir8  1  0.245221  0.000000  0.245221  1
  Ir  Ir9  1  0.754779  0.000000  0.754779  1
  Ir  Ir10  1  0.232745  0.500000  0.732745  1
  Ir  Ir11  1  0.767255  0.500000  0.267255  1
