# generated using pymatgen
data_TbYGaCoIr
_symmetry_space_group_name_H-M   'P 1'
_cell_length_a   4.16082782
_cell_length_b   5.58945759
_cell_length_c   5.46418914
_cell_angle_alpha   120.76535034
_cell_angle_beta   112.37928200
_cell_angle_gamma   89.99999593
_symmetry_Int_Tables_number   1
_chemical_formula_structural   TbYGaCoIr
_chemical_formula_sum   'Tb1 Y1 Ga1 Co1 Ir1'
_cell_volume   97.89106358
_cell_formula_units_Z   1
loop_
 _symmetry_equiv_pos_site_id
 _symmetry_equiv_pos_as_xyz
  1  'x, y, z'
loop_
 _atom_site_type_symbol
 _atom_site_label
 _atom_site_symmetry_multiplicity
 _atom_site_fract_x
 _atom_site_fract_y
 _atom_site_fract_z
 _atom_site_occupancy
  Tb  Tb0  1  0.794865  0.292322  0.589730  1
  Y  Y1  1  0.205191  0.702657  0.410381  1
  Ga  Ga2  1  0.999995  0.985229  0.999991  1
  Co  Co3  1  0.499959  0.734494  0.999918  1
  Ir  Ir4  1  0.499990  0.285298  0.999980  1
