# generated using pymatgen
data_Lu20CdIn5Ni2
_symmetry_space_group_name_H-M   'P 1'
_cell_length_a   9.49372619
_cell_length_b   9.58668274
_cell_length_c   9.41023000
_cell_angle_alpha   90.00000000
_cell_angle_beta   90.00000000
_cell_angle_gamma   120.32442312
_symmetry_Int_Tables_number   1
_chemical_formula_structural   Lu20CdIn5Ni2
_chemical_formula_sum   'Lu20 Cd1 In5 Ni2'
_cell_volume   739.27644865
_cell_formula_units_Z   1
loop_
 _symmetry_equiv_pos_site_id
 _symmetry_equiv_pos_as_xyz
  1  'x, y, z'
loop_
 _atom_site_type_symbol
 _atom_site_label
 _atom_site_symmetry_multiplicity
 _atom_site_fract_x
 _atom_site_fract_y
 _atom_site_fract_z
 _atom_site_occupancy
  Lu  Lu0  1  0.996143  0.998072  0.502395  1
  Lu  Lu1  1  0.996143  0.998072  0.997605  1
  Lu  Lu2  1  0.544604  0.456483  0.250000  1
  Lu  Lu3  1  0.544604  0.088120  0.250000  1
  Lu  Lu4  1  0.917475  0.458737  0.250000  1
  Lu  Lu5  1  0.460006  0.546176  0.750000  1
  Lu  Lu6  1  0.460006  0.913832  0.750000  1
  Lu  Lu7  1  0.087151  0.543576  0.750000  1
  Lu  Lu8  1  0.212946  0.788107  0.439924  1
  Lu  Lu9  1  0.212946  0.424840  0.439924  1
  Lu  Lu10  1  0.574657  0.787329  0.437119  1
  Lu  Lu11  1  0.787914  0.213124  0.560401  1
  Lu  Lu12  1  0.787914  0.574789  0.560401  1
  Lu  Lu13  1  0.424137  0.212068  0.563052  1
  Lu  Lu14  1  0.787914  0.213124  0.939599  1
  Lu  Lu15  1  0.787914  0.574789  0.939599  1
  Lu  Lu16  1  0.424137  0.212068  0.936948  1
  Lu  Lu17  1  0.212946  0.788107  0.060076  1
  Lu  Lu18  1  0.212946  0.424840  0.060076  1
  Lu  Lu19  1  0.574657  0.787329  0.062881  1
  Cd  Cd20  1  0.765255  0.882627  0.750000  1
  In  In21  1  0.884315  0.121546  0.250000  1
  In  In22  1  0.884315  0.762769  0.250000  1
  In  In23  1  0.234410  0.117205  0.250000  1
  In  In24  1  0.115009  0.878285  0.750000  1
  In  In25  1  0.115009  0.236724  0.750000  1
  Ni  Ni26  1  0.327245  0.663623  0.250000  1
  Ni  Ni27  1  0.667279  0.333639  0.750000  1
