# generated using pymatgen
data_P2Au2Br7Cl
_symmetry_space_group_name_H-M   'P 1'
_cell_length_a   15.66588300
_cell_length_b   6.74083486
_cell_length_c   8.24155042
_cell_angle_alpha   83.93552841
_cell_angle_beta   90.00000000
_cell_angle_gamma   90.00000000
_symmetry_Int_Tables_number   1
_chemical_formula_structural   P2Au2Br7Cl
_chemical_formula_sum   'P4 Au4 Br14 Cl2'
_cell_volume   865.44643599
_cell_formula_units_Z   2
loop_
 _symmetry_equiv_pos_site_id
 _symmetry_equiv_pos_as_xyz
  1  'x, y, z'
loop_
 _atom_site_type_symbol
 _atom_site_label
 _atom_site_symmetry_multiplicity
 _atom_site_fract_x
 _atom_site_fract_y
 _atom_site_fract_z
 _atom_site_occupancy
  P  P0  1  0.869183  0.481989  0.751679  1
  P  P1  1  0.630404  0.977665  0.751752  1
  P  P2  1  0.130404  0.522335  0.248248  1
  P  P3  1  0.369183  0.018011  0.248321  1
  Au  Au4  1  0.730133  0.986670  0.554882  1
  Au  Au5  1  0.230133  0.513330  0.445118  1
  Au  Au6  1  0.269577  0.007937  0.445748  1
  Au  Au7  1  0.769577  0.492063  0.554252  1
  Br  Br8  1  0.515993  0.164140  0.694986  1
  Br  Br9  1  0.984179  0.668278  0.695657  1
  Br  Br10  1  0.484179  0.831722  0.304343  1
  Br  Br11  1  0.015993  0.335860  0.305014  1
  Br  Br12  1  0.660897  0.493574  0.342553  1
  Br  Br13  1  0.160897  0.006426  0.657447  1
  Br  Br14  1  0.338226  0.507224  0.658133  1
  Br  Br15  1  0.838226  0.992776  0.341867  1
  Br  Br16  1  0.821989  0.578207  0.983725  1
  Br  Br17  1  0.321989  0.921793  0.016275  1
  Br  Br18  1  0.176526  0.427935  0.015403  1
  Br  Br19  1  0.676526  0.072065  0.984597  1
  Br  Br20  1  0.922085  0.180952  0.822708  1
  Br  Br21  1  0.422085  0.319048  0.177292  1
  Cl  Cl22  1  0.080809  0.797619  0.181769  1
  Cl  Cl23  1  0.580809  0.702381  0.818231  1
