# generated using pymatgen
data_Dy11Y(TcPt)2
_symmetry_space_group_name_H-M   'P 1'
_cell_length_a   6.44527377
_cell_length_b   7.28191399
_cell_length_c   9.26656700
_cell_angle_alpha   90.00000000
_cell_angle_beta   90.00000000
_cell_angle_gamma   90.08480142
_symmetry_Int_Tables_number   1
_chemical_formula_structural   Dy11Y(TcPt)2
_chemical_formula_sum   'Dy11 Y1 Tc2 Pt2'
_cell_volume   434.91592336
_cell_formula_units_Z   1
loop_
 _symmetry_equiv_pos_site_id
 _symmetry_equiv_pos_as_xyz
  1  'x, y, z'
loop_
 _atom_site_type_symbol
 _atom_site_label
 _atom_site_symmetry_multiplicity
 _atom_site_fract_x
 _atom_site_fract_y
 _atom_site_fract_z
 _atom_site_occupancy
  Dy  Dy0  1  0.125077  0.038889  0.250000  1
  Dy  Dy1  1  0.625125  0.461056  0.750000  1
  Dy  Dy2  1  0.371151  0.534242  0.250000  1
  Dy  Dy3  1  0.673980  0.181448  0.058850  1
  Dy  Dy4  1  0.174157  0.318688  0.941337  1
  Dy  Dy5  1  0.826212  0.674510  0.435480  1
  Dy  Dy6  1  0.326302  0.825313  0.564409  1
  Dy  Dy7  1  0.326302  0.825313  0.935591  1
  Dy  Dy8  1  0.826212  0.674510  0.064520  1
  Dy  Dy9  1  0.174157  0.318688  0.558663  1
  Dy  Dy10  1  0.673980  0.181448  0.441150  1
  Y  Y11  1  0.871489  0.966225  0.750000  1
  Tc  Tc12  1  0.961323  0.389595  0.250000  1
  Tc  Tc13  1  0.460388  0.110718  0.750000  1
  Pt  Pt14  1  0.541877  0.889060  0.250000  1
  Pt  Pt15  1  0.042272  0.610296  0.750000  1
