# generated using pymatgen
data_Hf3Sc(AlRe3)2
_symmetry_space_group_name_H-M   'P 1'
_cell_length_a   5.26858000
_cell_length_b   5.26858076
_cell_length_c   8.57879400
_cell_angle_alpha   90.00000000
_cell_angle_beta   90.00000000
_cell_angle_gamma   119.99999523
_symmetry_Int_Tables_number   1
_chemical_formula_structural   Hf3Sc(AlRe3)2
_chemical_formula_sum   'Hf3 Sc1 Al2 Re6'
_cell_volume   206.22632969
_cell_formula_units_Z   1
loop_
 _symmetry_equiv_pos_site_id
 _symmetry_equiv_pos_as_xyz
  1  'x, y, z'
loop_
 _atom_site_type_symbol
 _atom_site_label
 _atom_site_symmetry_multiplicity
 _atom_site_fract_x
 _atom_site_fract_y
 _atom_site_fract_z
 _atom_site_occupancy
  Hf  Hf0  1  0.666667  0.333333  0.933902  1
  Hf  Hf1  1  0.666667  0.333333  0.565041  1
  Hf  Hf2  1  0.333333  0.666667  0.067897  1
  Sc  Sc3  1  0.333333  0.666667  0.435447  1
  Al  Al4  1  0.000000  0.000000  0.999642  1
  Al  Al5  1  0.000000  0.000000  0.499202  1
  Re  Re6  1  0.170747  0.341497  0.750814  1
  Re  Re7  1  0.829318  0.170682  0.248809  1
  Re  Re8  1  0.341365  0.170682  0.248809  1
  Re  Re9  1  0.658503  0.829253  0.750814  1
  Re  Re10  1  0.829318  0.658635  0.248809  1
  Re  Re11  1  0.170747  0.829253  0.750814  1
