# generated using pymatgen
data_Tb3NdY(In2Pt)2
_symmetry_space_group_name_H-M   'P 1'
_cell_length_a   3.66431100
_cell_length_b   8.22657703
_cell_length_c   18.46470106
_cell_angle_alpha   89.99098829
_cell_angle_beta   90.00000000
_cell_angle_gamma   90.00000000
_symmetry_Int_Tables_number   1
_chemical_formula_structural   Tb3NdY(In2Pt)2
_chemical_formula_sum   'Tb6 Nd2 Y2 In8 Pt4'
_cell_volume   556.61354448
_cell_formula_units_Z   2
loop_
 _symmetry_equiv_pos_site_id
 _symmetry_equiv_pos_as_xyz
  1  'x, y, z'
loop_
 _atom_site_type_symbol
 _atom_site_label
 _atom_site_symmetry_multiplicity
 _atom_site_fract_x
 _atom_site_fract_y
 _atom_site_fract_z
 _atom_site_occupancy
  Tb  Tb0  1  0.000000  0.118923  0.414351  1
  Tb  Tb1  1  0.000000  0.881077  0.585649  1
  Tb  Tb2  1  0.000000  0.381067  0.914349  1
  Tb  Tb3  1  0.000000  0.618933  0.085651  1
  Tb  Tb4  1  0.000000  0.242311  0.219742  1
  Tb  Tb5  1  0.000000  0.757689  0.780258  1
  Nd  Nd6  1  0.000000  0.000000  0.000000  1
  Nd  Nd7  1  0.000000  0.500000  0.500000  1
  Y  Y8  1  0.000000  0.257815  0.719702  1
  Y  Y9  1  0.000000  0.742185  0.280298  1
  In  In10  1  0.500000  0.422618  0.348529  1
  In  In11  1  0.500000  0.577382  0.651471  1
  In  In12  1  0.500000  0.077520  0.848496  1
  In  In13  1  0.500000  0.922480  0.151504  1
  In  In14  1  0.500000  0.297844  0.068112  1
  In  In15  1  0.500000  0.702156  0.931888  1
  In  In16  1  0.500000  0.202218  0.568159  1
  In  In17  1  0.500000  0.797782  0.431841  1
  Pt  Pt18  1  0.500000  0.024573  0.303512  1
  Pt  Pt19  1  0.500000  0.975427  0.696488  1
  Pt  Pt20  1  0.500000  0.475672  0.803541  1
  Pt  Pt21  1  0.500000  0.524328  0.196459  1
