# generated using pymatgen
data_LiTb2SmIn3Pt2
_symmetry_space_group_name_H-M   'P 1'
_cell_length_a   7.78920400
_cell_length_b   7.82325173
_cell_length_c   3.81133900
_cell_angle_alpha   90.00000000
_cell_angle_beta   90.00000000
_cell_angle_gamma   119.85613714
_symmetry_Int_Tables_number   1
_chemical_formula_structural   LiTb2SmIn3Pt2
_chemical_formula_sum   'Li1 Tb2 Sm1 In3 Pt2'
_cell_volume   201.42638036
_cell_formula_units_Z   1
loop_
 _symmetry_equiv_pos_site_id
 _symmetry_equiv_pos_as_xyz
  1  'x, y, z'
loop_
 _atom_site_type_symbol
 _atom_site_label
 _atom_site_symmetry_multiplicity
 _atom_site_fract_x
 _atom_site_fract_y
 _atom_site_fract_z
 _atom_site_occupancy
  Li  Li0  1  0.999919  0.000000  0.000000  1
  Tb  Tb1  1  0.000313  0.418302  0.000000  1
  Tb  Tb2  1  0.582012  0.581698  0.000000  1
  Sm  Sm3  1  0.416788  0.000000  0.000000  1
  In  In4  1  0.252244  0.254285  0.500000  1
  In  In5  1  0.997959  0.745715  0.500000  1
  In  In6  1  0.749328  0.000000  0.500000  1
  Pt  Pt7  1  0.669282  0.337126  0.500000  1
  Pt  Pt8  1  0.332155  0.662874  0.500000  1
