# generated using pymatgen
data_YTeRhO6
_symmetry_space_group_name_H-M   'P 1'
_cell_length_a   5.26341600
_cell_length_b   5.26269329
_cell_length_c   9.76276701
_cell_angle_alpha   89.99907169
_cell_angle_beta   90.00046548
_cell_angle_gamma   119.99545021
_symmetry_Int_Tables_number   1
_chemical_formula_structural   YTeRhO6
_chemical_formula_sum   'Y2 Te2 Rh2 O12'
_cell_volume   234.20664996
_cell_formula_units_Z   2
loop_
 _symmetry_equiv_pos_site_id
 _symmetry_equiv_pos_as_xyz
  1  'x, y, z'
loop_
 _atom_site_type_symbol
 _atom_site_label
 _atom_site_symmetry_multiplicity
 _atom_site_fract_x
 _atom_site_fract_y
 _atom_site_fract_z
 _atom_site_occupancy
  Y  Y0  1  0.000000  0.000000  0.000000  1
  Y  Y1  1  0.000000  0.000000  0.500000  1
  Te  Te2  1  0.333488  0.666744  0.750000  1
  Te  Te3  1  0.666512  0.333256  0.250000  1
  Rh  Rh4  1  0.333533  0.666767  0.250000  1
  Rh  Rh5  1  0.666467  0.333233  0.750000  1
  O  O6  1  0.362087  0.350895  0.138639  1
  O  O7  1  0.648862  0.011084  0.138669  1
  O  O8  1  0.988636  0.637705  0.138643  1
  O  O9  1  0.637913  0.649105  0.861361  1
  O  O10  1  0.351138  0.988916  0.861331  1
  O  O11  1  0.011364  0.362295  0.861357  1
  O  O12  1  0.648862  0.637778  0.361331  1
  O  O13  1  0.362087  0.011192  0.361361  1
  O  O14  1  0.988636  0.350932  0.361357  1
  O  O15  1  0.351138  0.362222  0.638669  1
  O  O16  1  0.637913  0.988808  0.638639  1
  O  O17  1  0.011364  0.649068  0.638643  1
