# generated using pymatgen
data_Gd3FeNi2Sn3
_symmetry_space_group_name_H-M   'P 1'
_cell_length_a   7.54550400
_cell_length_b   7.54550251
_cell_length_c   3.87351600
_cell_angle_alpha   90.00000000
_cell_angle_beta   90.00000000
_cell_angle_gamma   119.99999778
_symmetry_Int_Tables_number   1
_chemical_formula_structural   Gd3FeNi2Sn3
_chemical_formula_sum   'Gd3 Fe1 Ni2 Sn3'
_cell_volume   190.99078640
_cell_formula_units_Z   1
loop_
 _symmetry_equiv_pos_site_id
 _symmetry_equiv_pos_as_xyz
  1  'x, y, z'
loop_
 _atom_site_type_symbol
 _atom_site_label
 _atom_site_symmetry_multiplicity
 _atom_site_fract_x
 _atom_site_fract_y
 _atom_site_fract_z
 _atom_site_occupancy
  Gd  Gd0  1  0.404167  0.404167  0.500000  1
  Gd  Gd1  1  0.595833  0.000000  0.500000  1
  Gd  Gd2  1  0.000000  0.595833  0.500000  1
  Fe  Fe3  1  0.000000  0.000000  0.500000  1
  Ni  Ni4  1  0.666667  0.333333  0.000000  1
  Ni  Ni5  1  0.333333  0.666667  0.000000  1
  Sn  Sn6  1  0.741740  0.741740  0.000000  1
  Sn  Sn7  1  0.258260  0.000000  0.000000  1
  Sn  Sn8  1  0.000000  0.258260  0.000000  1
