# generated using pymatgen
data_Dy4TmCdAu4
_symmetry_space_group_name_H-M   'P 1'
_cell_length_a   8.01636400
_cell_length_b   8.01636400
_cell_length_c   3.81196700
_cell_angle_alpha   90.00000000
_cell_angle_beta   90.00000000
_cell_angle_gamma   90.00000000
_symmetry_Int_Tables_number   1
_chemical_formula_structural   Dy4TmCdAu4
_chemical_formula_sum   'Dy4 Tm1 Cd1 Au4'
_cell_volume   244.96497322
_cell_formula_units_Z   1
loop_
 _symmetry_equiv_pos_site_id
 _symmetry_equiv_pos_as_xyz
  1  'x, y, z'
loop_
 _atom_site_type_symbol
 _atom_site_label
 _atom_site_symmetry_multiplicity
 _atom_site_fract_x
 _atom_site_fract_y
 _atom_site_fract_z
 _atom_site_occupancy
  Dy  Dy0  1  0.313829  0.860371  0.500000  1
  Dy  Dy1  1  0.860371  0.686171  0.500000  1
  Dy  Dy2  1  0.686171  0.139629  0.500000  1
  Dy  Dy3  1  0.139629  0.313829  0.500000  1
  Tm  Tm4  1  0.500000  0.500000  0.000000  1
  Cd  Cd5  1  0.000000  0.000000  0.000000  1
  Au  Au6  1  0.147204  0.618871  0.000000  1
  Au  Au7  1  0.618871  0.852796  0.000000  1
  Au  Au8  1  0.381129  0.147204  0.000000  1
  Au  Au9  1  0.852796  0.381129  0.000000  1
