# generated using pymatgen
data_Y5SbPbO12
_symmetry_space_group_name_H-M   'P 1'
_cell_length_a   6.54473256
_cell_length_b   6.45088469
_cell_length_c   6.52923300
_cell_angle_alpha   99.13173190
_cell_angle_beta   99.23404263
_cell_angle_gamma   98.33968463
_symmetry_Int_Tables_number   1
_chemical_formula_structural   Y5SbPbO12
_chemical_formula_sum   'Y5 Sb1 Pb1 O12'
_cell_volume   264.49524332
_cell_formula_units_Z   1
loop_
 _symmetry_equiv_pos_site_id
 _symmetry_equiv_pos_as_xyz
  1  'x, y, z'
loop_
 _atom_site_type_symbol
 _atom_site_label
 _atom_site_symmetry_multiplicity
 _atom_site_fract_x
 _atom_site_fract_y
 _atom_site_fract_z
 _atom_site_occupancy
  Y  Y0  1  0.388351  0.690026  0.858155  1
  Y  Y1  1  0.862035  0.392683  0.700529  1
  Y  Y2  1  0.303664  0.143457  0.611570  1
  Y  Y3  1  0.607547  0.303791  0.131995  1
  Y  Y4  1  0.140603  0.610761  0.306553  1
  Sb  Sb5  1  0.001650  0.998883  0.003637  1
  Pb  Pb6  1  0.683328  0.856876  0.396072  1
  O  O7  1  0.432526  0.588571  0.178114  1
  O  O8  1  0.170476  0.435523  0.585921  1
  O  O9  1  0.600563  0.169258  0.429643  1
  O  O10  1  0.563808  0.406990  0.816262  1
  O  O11  1  0.816229  0.578178  0.411584  1
  O  O12  1  0.416757  0.822512  0.570046  1
  O  O13  1  0.929646  0.039025  0.695303  1
  O  O14  1  0.955564  0.305067  0.068840  1
  O  O15  1  0.301322  0.073551  0.956805  1
  O  O16  1  0.083915  0.963291  0.303796  1
  O  O17  1  0.043019  0.694915  0.931179  1
  O  O18  1  0.698995  0.926645  0.043994  1
