# generated using pymatgen
data_Dy4Lu16SnBi11
_symmetry_space_group_name_H-M   'P 1'
_cell_length_a   8.15399822
_cell_length_b   9.37546500
_cell_length_c   11.87873100
_cell_angle_alpha   90.00000000
_cell_angle_beta   90.16840940
_cell_angle_gamma   90.00000000
_symmetry_Int_Tables_number   1
_chemical_formula_structural   Dy4Lu16SnBi11
_chemical_formula_sum   'Dy4 Lu16 Sn1 Bi11'
_cell_volume   908.09566176
_cell_formula_units_Z   1
loop_
 _symmetry_equiv_pos_site_id
 _symmetry_equiv_pos_as_xyz
  1  'x, y, z'
loop_
 _atom_site_type_symbol
 _atom_site_label
 _atom_site_symmetry_multiplicity
 _atom_site_fract_x
 _atom_site_fract_y
 _atom_site_fract_z
 _atom_site_occupancy
  Dy  Dy0  1  0.313530  0.250000  0.218253  1
  Dy  Dy1  1  0.813141  0.250000  0.282298  1
  Dy  Dy2  1  0.683150  0.750000  0.784040  1
  Dy  Dy3  1  0.188269  0.750000  0.719987  1
  Lu  Lu4  1  0.352451  0.750000  0.214652  1
  Lu  Lu5  1  0.852796  0.750000  0.282175  1
  Lu  Lu6  1  0.648384  0.250000  0.781461  1
  Lu  Lu7  1  0.148413  0.250000  0.718184  1
  Lu  Lu8  1  0.688915  0.569550  0.059330  1
  Lu  Lu9  1  0.192201  0.932932  0.439216  1
  Lu  Lu10  1  0.307785  0.062356  0.939575  1
  Lu  Lu11  1  0.807718  0.432886  0.560372  1
  Lu  Lu12  1  0.307785  0.437644  0.939575  1
  Lu  Lu13  1  0.807718  0.067114  0.560372  1
  Lu  Lu14  1  0.688915  0.930450  0.059330  1
  Lu  Lu15  1  0.192201  0.567068  0.439216  1
  Lu  Lu16  1  0.477611  0.250000  0.489313  1
  Lu  Lu17  1  0.978017  0.250000  0.010758  1
  Lu  Lu18  1  0.522758  0.750000  0.510753  1
  Lu  Lu19  1  0.028449  0.750000  0.989318  1
  Sn  Sn20  1  0.404425  0.750000  0.960423  1
  Bi  Bi21  1  0.903651  0.750000  0.540754  1
  Bi  Bi22  1  0.596368  0.250000  0.040039  1
  Bi  Bi23  1  0.096907  0.250000  0.459898  1
  Bi  Bi24  1  0.565235  0.993850  0.326464  1
  Bi  Bi25  1  0.064680  0.505220  0.174108  1
  Bi  Bi26  1  0.434656  0.493942  0.673367  1
  Bi  Bi27  1  0.934648  0.005687  0.826414  1
  Bi  Bi28  1  0.434656  0.006058  0.673367  1
  Bi  Bi29  1  0.934648  0.494313  0.826414  1
  Bi  Bi30  1  0.565235  0.506150  0.326464  1
  Bi  Bi31  1  0.064680  0.994780  0.174108  1
