# generated using pymatgen
data_Hf3Zr6CuRe3W
_symmetry_space_group_name_H-M   'P 1'
_cell_length_a   8.75981400
_cell_length_b   8.75981360
_cell_length_c   8.49614700
_cell_angle_alpha   90.00000000
_cell_angle_beta   90.00000000
_cell_angle_gamma   120.00000149
_symmetry_Int_Tables_number   1
_chemical_formula_structural   Hf3Zr6CuRe3W
_chemical_formula_sum   'Hf6 Zr12 Cu2 Re6 W2'
_cell_volume   564.60197503
_cell_formula_units_Z   2
loop_
 _symmetry_equiv_pos_site_id
 _symmetry_equiv_pos_as_xyz
  1  'x, y, z'
loop_
 _atom_site_type_symbol
 _atom_site_label
 _atom_site_symmetry_multiplicity
 _atom_site_fract_x
 _atom_site_fract_y
 _atom_site_fract_z
 _atom_site_occupancy
  Hf  Hf0  1  0.805444  0.194556  0.945758  1
  Hf  Hf1  1  0.805444  0.610889  0.945758  1
  Hf  Hf2  1  0.389111  0.194556  0.945758  1
  Hf  Hf3  1  0.194556  0.805444  0.054242  1
  Hf  Hf4  1  0.194556  0.389111  0.054242  1
  Hf  Hf5  1  0.610889  0.805444  0.054242  1
  Zr  Zr6  1  0.196016  0.803984  0.445607  1
  Zr  Zr7  1  0.196016  0.392032  0.445607  1
  Zr  Zr8  1  0.607968  0.803984  0.445607  1
  Zr  Zr9  1  0.803984  0.196016  0.554393  1
  Zr  Zr10  1  0.803984  0.607968  0.554393  1
  Zr  Zr11  1  0.392032  0.196016  0.554393  1
  Zr  Zr12  1  0.541215  0.458785  0.246652  1
  Zr  Zr13  1  0.541215  0.082430  0.246652  1
  Zr  Zr14  1  0.917570  0.458785  0.246652  1
  Zr  Zr15  1  0.458785  0.541215  0.753348  1
  Zr  Zr16  1  0.458785  0.917570  0.753348  1
  Zr  Zr17  1  0.082430  0.541215  0.753348  1
  Cu  Cu18  1  0.333333  0.666667  0.244081  1
  Cu  Cu19  1  0.666667  0.333333  0.755919  1
  Re  Re20  1  0.890168  0.109832  0.248248  1
  Re  Re21  1  0.890168  0.780333  0.248248  1
  Re  Re22  1  0.219667  0.109832  0.248248  1
  Re  Re23  1  0.109832  0.890168  0.751752  1
  Re  Re24  1  0.109832  0.219667  0.751752  1
  Re  Re25  1  0.780333  0.890168  0.751752  1
  W  W26  1  0.000000  0.000000  0.500000  1
  W  W27  1  0.000000  0.000000  0.000000  1
