# generated using pymatgen
data_Li3Sm3CuSn4
_symmetry_space_group_name_H-M   'P 1'
_cell_length_a   4.61234997
_cell_length_b   7.15035596
_cell_length_c   8.76067589
_cell_angle_alpha   115.11145459
_cell_angle_beta   105.26250204
_cell_angle_gamma   90.00000101
_symmetry_Int_Tables_number   1
_chemical_formula_structural   Li3Sm3CuSn4
_chemical_formula_sum   'Li3 Sm3 Cu1 Sn4'
_cell_volume   250.31868029
_cell_formula_units_Z   1
loop_
 _symmetry_equiv_pos_site_id
 _symmetry_equiv_pos_as_xyz
  1  'x, y, z'
loop_
 _atom_site_type_symbol
 _atom_site_label
 _atom_site_symmetry_multiplicity
 _atom_site_fract_x
 _atom_site_fract_y
 _atom_site_fract_z
 _atom_site_occupancy
  Li  Li0  1  0.327991  0.640382  0.655982  1
  Li  Li1  1  0.669880  0.352717  0.339760  1
  Li  Li2  1  0.328353  0.016445  0.656706  1
  Sm  Sm3  1  0.869295  0.360884  0.738590  1
  Sm  Sm4  1  0.130287  0.641050  0.260574  1
  Sm  Sm5  1  0.000631  0.002373  0.001262  1
  Cu  Cu6  1  0.673558  0.983322  0.347116  1
  Sn  Sn7  1  0.213157  0.205970  0.426314  1
  Sn  Sn8  1  0.784509  0.790695  0.569018  1
  Sn  Sn9  1  0.502805  0.704473  0.005610  1
  Sn  Sn10  1  0.499534  0.301690  0.999069  1
