# generated using pymatgen
data_SrHoIr2O7
_symmetry_space_group_name_H-M   'P 1'
_cell_length_a   7.34916429
_cell_length_b   7.32569853
_cell_length_c   7.34916491
_cell_angle_alpha   60.10556393
_cell_angle_beta   59.84347634
_cell_angle_gamma   60.10555999
_symmetry_Int_Tables_number   1
_chemical_formula_structural   SrHoIr2O7
_chemical_formula_sum   'Sr2 Ho2 Ir4 O14'
_cell_volume   279.88724003
_cell_formula_units_Z   2
loop_
 _symmetry_equiv_pos_site_id
 _symmetry_equiv_pos_as_xyz
  1  'x, y, z'
loop_
 _atom_site_type_symbol
 _atom_site_label
 _atom_site_symmetry_multiplicity
 _atom_site_fract_x
 _atom_site_fract_y
 _atom_site_fract_z
 _atom_site_occupancy
  Sr  Sr0  1  0.625000  0.625000  0.125000  1
  Sr  Sr1  1  0.125000  0.625000  0.625000  1
  Ho  Ho2  1  0.625000  0.625000  0.625000  1
  Ho  Ho3  1  0.625000  0.125000  0.625000  1
  Ir  Ir4  1  0.125000  0.125000  0.125000  1
  Ir  Ir5  1  0.625000  0.125000  0.125000  1
  Ir  Ir6  1  0.125000  0.625000  0.125000  1
  Ir  Ir7  1  0.125000  0.125000  0.625000  1
  O  O8  1  0.032801  0.451802  0.454574  1
  O  O9  1  0.795426  0.798198  0.217199  1
  O  O10  1  0.795426  0.189177  0.217199  1
  O  O11  1  0.453170  0.046830  0.453170  1
  O  O12  1  0.732731  0.767269  0.732731  1
  O  O13  1  0.032801  0.060823  0.454574  1
  O  O14  1  0.052184  0.447816  0.052184  1
  O  O15  1  0.796830  0.203170  0.796830  1
  O  O16  1  0.197816  0.802184  0.197816  1
  O  O17  1  0.217199  0.189177  0.795426  1
  O  O18  1  0.517269  0.482731  0.517269  1
  O  O19  1  0.454574  0.060823  0.032801  1
  O  O20  1  0.454574  0.451802  0.032801  1
  O  O21  1  0.217199  0.798198  0.795426  1
