# generated using pymatgen
data_Tm4MnTc3B16
_symmetry_space_group_name_H-M   'P 1'
_cell_length_a   3.53338400
_cell_length_b   5.92562700
_cell_length_c   11.45607285
_cell_angle_alpha   89.90593292
_cell_angle_beta   90.00000000
_cell_angle_gamma   90.00000000
_symmetry_Int_Tables_number   1
_chemical_formula_structural   Tm4MnTc3B16
_chemical_formula_sum   'Tm4 Mn1 Tc3 B16'
_cell_volume   239.86138118
_cell_formula_units_Z   1
loop_
 _symmetry_equiv_pos_site_id
 _symmetry_equiv_pos_as_xyz
  1  'x, y, z'
loop_
 _atom_site_type_symbol
 _atom_site_label
 _atom_site_symmetry_multiplicity
 _atom_site_fract_x
 _atom_site_fract_y
 _atom_site_fract_z
 _atom_site_occupancy
  Tm  Tm0  1  0.500000  0.373882  0.148212  1
  Tm  Tm1  1  0.500000  0.627838  0.852210  1
  Tm  Tm2  1  0.500000  0.128070  0.651229  1
  Tm  Tm3  1  0.500000  0.871987  0.347111  1
  Mn  Mn4  1  0.500000  0.867083  0.086514  1
  Tc  Tc5  1  0.500000  0.366207  0.411548  1
  Tc  Tc6  1  0.500000  0.633822  0.587456  1
  Tc  Tc7  1  0.500000  0.130773  0.915426  1
  B  B8  1  0.000000  0.111652  0.048681  1
  B  B9  1  0.000000  0.885064  0.954336  1
  B  B10  1  0.000000  0.385874  0.547448  1
  B  B11  1  0.000000  0.614412  0.451559  1
  B  B12  1  0.000000  0.134349  0.468248  1
  B  B13  1  0.000000  0.865623  0.530958  1
  B  B14  1  0.000000  0.365357  0.969794  1
  B  B15  1  0.000000  0.637441  0.032760  1
  B  B16  1  0.000000  0.020536  0.191503  1
  B  B17  1  0.000000  0.976250  0.808131  1
  B  B18  1  0.000000  0.476612  0.693687  1
  B  B19  1  0.000000  0.524807  0.305375  1
  B  B20  1  0.000000  0.210971  0.313028  1
  B  B21  1  0.000000  0.788099  0.686351  1
  B  B22  1  0.000000  0.287677  0.815674  1
  B  B23  1  0.000000  0.715615  0.182760  1
