# generated using pymatgen
data_Dy7Y(Si3Rh4)2
_symmetry_space_group_name_H-M   'P 1'
_cell_length_a   10.71840925
_cell_length_b   10.72037028
_cell_length_c   7.72952159
_cell_angle_alpha   71.34878881
_cell_angle_beta   71.34345544
_cell_angle_gamma   29.78044056
_symmetry_Int_Tables_number   1
_chemical_formula_structural   Dy7Y(Si3Rh4)2
_chemical_formula_sum   'Dy7 Y1 Si6 Rh8'
_cell_volume   416.27013608
_cell_formula_units_Z   1
loop_
 _symmetry_equiv_pos_site_id
 _symmetry_equiv_pos_as_xyz
  1  'x, y, z'
loop_
 _atom_site_type_symbol
 _atom_site_label
 _atom_site_symmetry_multiplicity
 _atom_site_fract_x
 _atom_site_fract_y
 _atom_site_fract_z
 _atom_site_occupancy
  Dy  Dy0  1  0.449477  0.210830  0.899921  1
  Dy  Dy1  1  0.210950  0.449485  0.399850  1
  Dy  Dy2  1  0.550554  0.789075  0.100088  1
  Dy  Dy3  1  0.790820  0.073672  0.168450  1
  Dy  Dy4  1  0.926242  0.209187  0.331593  1
  Dy  Dy5  1  0.209296  0.926135  0.831586  1
  Dy  Dy6  1  0.073754  0.790758  0.668458  1
  Y  Y7  1  0.790141  0.549542  0.600022  1
  Si  Si8  1  0.952505  0.703325  0.055986  1
  Si  Si9  1  0.296892  0.047167  0.444048  1
  Si  Si10  1  0.047443  0.296641  0.944089  1
  Si  Si11  1  0.703449  0.952317  0.555979  1
  Si  Si12  1  0.632621  0.367475  0.749954  1
  Si  Si13  1  0.367453  0.632539  0.250046  1
  Rh  Rh14  1  0.577200  0.297287  0.520784  1
  Rh  Rh15  1  0.702413  0.422697  0.979873  1
  Rh  Rh16  1  0.422326  0.702742  0.479023  1
  Rh  Rh17  1  0.297426  0.577077  0.020798  1
  Rh  Rh18  1  0.629034  0.930030  0.308297  1
  Rh  Rh19  1  0.071106  0.370500  0.190954  1
  Rh  Rh20  1  0.369763  0.071870  0.691249  1
  Rh  Rh21  1  0.929135  0.629650  0.808951  1
