# generated using pymatgen
data_DyZr3(Al3Co)6
_symmetry_space_group_name_H-M   'P 1'
_cell_length_a   7.29944773
_cell_length_b   7.28999732
_cell_length_c   9.10935600
_cell_angle_alpha   90.00000000
_cell_angle_beta   90.00000000
_cell_angle_gamma   119.48590786
_symmetry_Int_Tables_number   1
_chemical_formula_structural   DyZr3(Al3Co)6
_chemical_formula_sum   'Dy1 Zr3 Al18 Co6'
_cell_volume   421.95121233
_cell_formula_units_Z   1
loop_
 _symmetry_equiv_pos_site_id
 _symmetry_equiv_pos_as_xyz
  1  'x, y, z'
loop_
 _atom_site_type_symbol
 _atom_site_label
 _atom_site_symmetry_multiplicity
 _atom_site_fract_x
 _atom_site_fract_y
 _atom_site_fract_z
 _atom_site_occupancy
  Dy  Dy0  1  0.329022  0.006934  0.250000  1
  Zr  Zr1  1  0.993768  0.671239  0.750000  1
  Zr  Zr2  1  0.005959  0.329297  0.250000  1
  Zr  Zr3  1  0.671442  0.993779  0.750000  1
  Al  Al4  1  0.116340  0.117363  0.750000  1
  Al  Al5  1  0.876734  0.880739  0.250000  1
  Al  Al6  1  0.994791  0.334302  0.572993  1
  Al  Al7  1  0.002183  0.663087  0.430398  1
  Al  Al8  1  0.002183  0.663087  0.069602  1
  Al  Al9  1  0.334904  0.995796  0.924302  1
  Al  Al10  1  0.994791  0.334302  0.927007  1
  Al  Al11  1  0.667973  0.004370  0.069708  1
  Al  Al12  1  0.667973  0.004370  0.430292  1
  Al  Al13  1  0.334904  0.995796  0.575698  1
  Al  Al14  1  0.330585  0.332736  0.045552  1
  Al  Al15  1  0.669874  0.669652  0.948110  1
  Al  Al16  1  0.669874  0.669652  0.551890  1
  Al  Al17  1  0.330585  0.332736  0.454448  1
  Al  Al18  1  0.337304  0.558852  0.750000  1
  Al  Al19  1  0.667245  0.446654  0.250000  1
  Al  Al20  1  0.560641  0.338738  0.750000  1
  Al  Al21  1  0.441030  0.656343  0.250000  1
  Co  Co22  1  0.672416  0.328907  0.501425  1
  Co  Co23  1  0.328664  0.672240  0.501979  1
  Co  Co24  1  0.328664  0.672240  0.998021  1
  Co  Co25  1  0.672416  0.328907  0.998575  1
  Co  Co26  1  0.998869  0.998940  0.501688  1
  Co  Co27  1  0.998869  0.998940  0.998312  1
