# generated using pymatgen
data_Th2Re17C3
_symmetry_space_group_name_H-M   'P 1'
_cell_length_a   7.05821969
_cell_length_b   7.05821947
_cell_length_c   7.05821924
_cell_angle_alpha   83.04247822
_cell_angle_beta   83.04248795
_cell_angle_gamma   83.04246882
_symmetry_Int_Tables_number   1
_chemical_formula_structural   Th2Re17C3
_chemical_formula_sum   'Th2 Re17 C3'
_cell_volume   344.44181302
_cell_formula_units_Z   1
loop_
 _symmetry_equiv_pos_site_id
 _symmetry_equiv_pos_as_xyz
  1  'x, y, z'
loop_
 _atom_site_type_symbol
 _atom_site_label
 _atom_site_symmetry_multiplicity
 _atom_site_fract_x
 _atom_site_fract_y
 _atom_site_fract_z
 _atom_site_occupancy
  Th  Th0  1  0.650571  0.650571  0.650571  1
  Th  Th1  1  0.349429  0.349429  0.349429  1
  Re  Re2  1  0.000000  0.000000  0.500000  1
  Re  Re3  1  0.500000  0.000000  0.000000  1
  Re  Re4  1  0.000000  0.500000  0.000000  1
  Re  Re5  1  0.721872  0.278128  0.000000  1
  Re  Re6  1  0.000000  0.721872  0.278128  1
  Re  Re7  1  0.278128  0.000000  0.721872  1
  Re  Re8  1  0.000000  0.278128  0.721872  1
  Re  Re9  1  0.721872  0.000000  0.278128  1
  Re  Re10  1  0.278128  0.721872  0.000000  1
  Re  Re11  1  0.348684  0.861221  0.348684  1
  Re  Re12  1  0.348684  0.348684  0.861221  1
  Re  Re13  1  0.861221  0.348684  0.348684  1
  Re  Re14  1  0.651316  0.138779  0.651316  1
  Re  Re15  1  0.651316  0.651316  0.138779  1
  Re  Re16  1  0.138779  0.651316  0.651316  1
  Re  Re17  1  0.901473  0.901473  0.901473  1
  Re  Re18  1  0.098527  0.098527  0.098527  1
  C  C19  1  0.500000  0.500000  0.000000  1
  C  C20  1  0.000000  0.500000  0.500000  1
  C  C21  1  0.500000  0.000000  0.500000  1
