# generated using pymatgen
data_CaAcNi7
_symmetry_space_group_name_H-M   'P 1'
_cell_length_a   5.10497675
_cell_length_b   5.10497671
_cell_length_c   12.50519198
_cell_angle_alpha   78.22233832
_cell_angle_beta   78.22233610
_cell_angle_gamma   59.99999842
_symmetry_Int_Tables_number   1
_chemical_formula_structural   CaAcNi7
_chemical_formula_sum   'Ca2 Ac2 Ni14'
_cell_volume   274.28240431
_cell_formula_units_Z   2
loop_
 _symmetry_equiv_pos_site_id
 _symmetry_equiv_pos_as_xyz
  1  'x, y, z'
loop_
 _atom_site_type_symbol
 _atom_site_label
 _atom_site_symmetry_multiplicity
 _atom_site_fract_x
 _atom_site_fract_y
 _atom_site_fract_z
 _atom_site_occupancy
  Ca  Ca0  1  0.850118  0.850118  0.449646  1
  Ca  Ca1  1  0.149882  0.149882  0.550354  1
  Ac  Ac2  1  0.946901  0.946901  0.159295  1
  Ac  Ac3  1  0.053099  0.053099  0.840705  1
  Ni  Ni4  1  0.500000  0.500000  0.500000  1
  Ni  Ni5  1  0.722111  0.722111  0.833667  1
  Ni  Ni6  1  0.277889  0.277889  0.166333  1
  Ni  Ni7  1  0.612062  0.612062  0.163814  1
  Ni  Ni8  1  0.387938  0.387938  0.836186  1
  Ni  Ni9  1  0.000000  0.500000  0.000000  1
  Ni  Ni10  1  0.500000  0.000000  0.000000  1
  Ni  Ni11  1  0.500000  0.500000  0.000000  1
  Ni  Ni12  1  0.391490  0.391490  0.329347  1
  Ni  Ni13  1  0.887673  0.391490  0.329347  1
  Ni  Ni14  1  0.391490  0.887673  0.329347  1
  Ni  Ni15  1  0.608510  0.608510  0.670653  1
  Ni  Ni16  1  0.112327  0.608510  0.670653  1
  Ni  Ni17  1  0.608510  0.112327  0.670653  1
