# generated using pymatgen
data_Tb6Ho10Tl5InOs2
_symmetry_space_group_name_H-M   'P 1'
_cell_length_a   10.33563196
_cell_length_b   10.33579732
_cell_length_c   7.22254000
_cell_angle_alpha   89.95622257
_cell_angle_beta   90.04360515
_cell_angle_gamma   119.97435544
_symmetry_Int_Tables_number   1
_chemical_formula_structural   Tb6Ho10Tl5InOs2
_chemical_formula_sum   'Tb6 Ho10 Tl5 In1 Os2'
_cell_volume   668.36486070
_cell_formula_units_Z   1
loop_
 _symmetry_equiv_pos_site_id
 _symmetry_equiv_pos_as_xyz
  1  'x, y, z'
loop_
 _atom_site_type_symbol
 _atom_site_label
 _atom_site_symmetry_multiplicity
 _atom_site_fract_x
 _atom_site_fract_y
 _atom_site_fract_z
 _atom_site_occupancy
  Tb  Tb0  1  0.534222  0.070477  0.506863  1
  Tb  Tb1  1  0.929524  0.465784  0.506850  1
  Tb  Tb2  1  0.535534  0.464469  0.508212  1
  Tb  Tb3  1  0.464544  0.928862  0.008148  1
  Tb  Tb4  1  0.071141  0.535456  0.008138  1
  Tb  Tb5  1  0.464164  0.535827  0.007870  1
  Ho  Ho6  1  0.176611  0.353635  0.708064  1
  Ho  Ho7  1  0.646365  0.823391  0.708075  1
  Ho  Ho8  1  0.176792  0.823214  0.709737  1
  Ho  Ho9  1  0.822395  0.645768  0.207946  1
  Ho  Ho10  1  0.354231  0.177596  0.207959  1
  Ho  Ho11  1  0.823209  0.176795  0.208729  1
  Ho  Ho12  1  0.666891  0.333115  0.888180  1
  Ho  Ho13  1  0.333147  0.666858  0.388603  1
  Ho  Ho14  1  0.000991  0.999018  0.488722  1
  Ho  Ho15  1  0.000660  0.999346  0.990124  1
  Tl  Tl16  1  0.836688  0.673412  0.759137  1
  Tl  Tl17  1  0.326594  0.163317  0.759149  1
  Tl  Tl18  1  0.836641  0.163367  0.758881  1
  Tl  Tl19  1  0.163314  0.326680  0.259501  1
  Tl  Tl20  1  0.673322  0.836690  0.259505  1
  In  In21  1  0.162865  0.837085  0.256849  1
  Os  Os22  1  0.666692  0.333300  0.276544  1
  Os  Os23  1  0.333463  0.666540  0.776259  1
