# generated using pymatgen
data_Tb3Er9(Si3Ir)4
_symmetry_space_group_name_H-M   'P 1'
_cell_length_a   4.22851500
_cell_length_b   10.57467397
_cell_length_c   12.22870475
_cell_angle_alpha   90.08345498
_cell_angle_beta   90.00000000
_cell_angle_gamma   90.00000000
_symmetry_Int_Tables_number   1
_chemical_formula_structural   Tb3Er9(Si3Ir)4
_chemical_formula_sum   'Tb3 Er9 Si12 Ir4'
_cell_volume   546.80800125
_cell_formula_units_Z   1
loop_
 _symmetry_equiv_pos_site_id
 _symmetry_equiv_pos_as_xyz
  1  'x, y, z'
loop_
 _atom_site_type_symbol
 _atom_site_label
 _atom_site_symmetry_multiplicity
 _atom_site_fract_x
 _atom_site_fract_y
 _atom_site_fract_z
 _atom_site_occupancy
  Tb  Tb0  1  0.250000  0.841683  0.300794  1
  Tb  Tb1  1  0.750000  0.340947  0.199395  1
  Tb  Tb2  1  0.750000  0.158735  0.699312  1
  Er  Er3  1  0.250000  0.879525  0.020074  1
  Er  Er4  1  0.250000  0.620261  0.520314  1
  Er  Er5  1  0.750000  0.120230  0.979828  1
  Er  Er6  1  0.750000  0.379874  0.480106  1
  Er  Er7  1  0.250000  0.918659  0.603656  1
  Er  Er8  1  0.250000  0.581038  0.103493  1
  Er  Er9  1  0.750000  0.081010  0.396506  1
  Er  Er10  1  0.750000  0.419541  0.896389  1
  Er  Er11  1  0.250000  0.659854  0.800104  1
  Si  Si12  1  0.250000  0.010230  0.821899  1
  Si  Si13  1  0.250000  0.489487  0.321542  1
  Si  Si14  1  0.750000  0.989767  0.178182  1
  Si  Si15  1  0.750000  0.511208  0.678927  1
  Si  Si16  1  0.250000  0.247741  0.841413  1
  Si  Si17  1  0.250000  0.252184  0.341679  1
  Si  Si18  1  0.750000  0.752287  0.158468  1
  Si  Si19  1  0.750000  0.746948  0.658972  1
  Si  Si20  1  0.250000  0.200039  0.543055  1
  Si  Si21  1  0.250000  0.299972  0.042838  1
  Si  Si22  1  0.750000  0.799729  0.457116  1
  Si  Si23  1  0.750000  0.699463  0.955841  1
  Ir  Ir24  1  0.250000  0.391130  0.680124  1
  Ir  Ir25  1  0.250000  0.109903  0.179873  1
  Ir  Ir26  1  0.750000  0.609465  0.320139  1
  Ir  Ir27  1  0.750000  0.889091  0.819961  1
