# generated using pymatgen
data_Pr2LuBiO7
_symmetry_space_group_name_H-M   'P 1'
_cell_length_a   7.76544035
_cell_length_b   7.76543991
_cell_length_c   7.72417200
_cell_angle_alpha   60.17563211
_cell_angle_beta   60.17563397
_cell_angle_gamma   60.64958839
_symmetry_Int_Tables_number   1
_chemical_formula_structural   Pr2LuBiO7
_chemical_formula_sum   'Pr4 Lu2 Bi2 O14'
_cell_volume   331.82958842
_cell_formula_units_Z   2
loop_
 _symmetry_equiv_pos_site_id
 _symmetry_equiv_pos_as_xyz
  1  'x, y, z'
loop_
 _atom_site_type_symbol
 _atom_site_label
 _atom_site_symmetry_multiplicity
 _atom_site_fract_x
 _atom_site_fract_y
 _atom_site_fract_z
 _atom_site_occupancy
  Pr  Pr0  1  0.625000  0.125000  0.125000  1
  Pr  Pr1  1  0.125000  0.125000  0.125000  1
  Pr  Pr2  1  0.125000  0.625000  0.125000  1
  Pr  Pr3  1  0.125000  0.125000  0.625000  1
  Lu  Lu4  1  0.625000  0.625000  0.125000  1
  Lu  Lu5  1  0.625000  0.625000  0.625000  1
  Bi  Bi6  1  0.625000  0.125000  0.625000  1
  Bi  Bi7  1  0.125000  0.625000  0.625000  1
  O  O8  1  0.721292  0.280938  0.292147  1
  O  O9  1  0.722254  0.722254  0.277746  1
  O  O10  1  0.280938  0.721292  0.292147  1
  O  O11  1  0.002397  0.002397  0.997603  1
  O  O12  1  0.721292  0.280938  0.705624  1
  O  O13  1  0.969062  0.528708  0.544376  1
  O  O14  1  0.280938  0.721292  0.705624  1
  O  O15  1  0.528708  0.969062  0.544376  1
  O  O16  1  0.247603  0.247603  0.252397  1
  O  O17  1  0.969062  0.528708  0.957853  1
  O  O18  1  0.527746  0.527746  0.972254  1
  O  O19  1  0.958320  0.958320  0.541680  1
  O  O20  1  0.528708  0.969062  0.957853  1
  O  O21  1  0.291680  0.291680  0.708320  1
