# generated using pymatgen
data_Ho5Er3Ti11Si16Rh
_symmetry_space_group_name_H-M   'P 1'
_cell_length_a   7.02640899
_cell_length_b   7.02590943
_cell_length_c   12.84471902
_cell_angle_alpha   90.10578759
_cell_angle_beta   89.89192807
_cell_angle_gamma   89.80525637
_symmetry_Int_Tables_number   1
_chemical_formula_structural   Ho5Er3Ti11Si16Rh
_chemical_formula_sum   'Ho5 Er3 Ti11 Si16 Rh1'
_cell_volume   634.09824959
_cell_formula_units_Z   1
loop_
 _symmetry_equiv_pos_site_id
 _symmetry_equiv_pos_as_xyz
  1  'x, y, z'
loop_
 _atom_site_type_symbol
 _atom_site_label
 _atom_site_symmetry_multiplicity
 _atom_site_fract_x
 _atom_site_fract_y
 _atom_site_fract_z
 _atom_site_occupancy
  Ho  Ho0  1  0.340508  0.003821  0.467234  1
  Ho  Ho1  1  0.496773  0.841864  0.717936  1
  Ho  Ho2  1  0.500912  0.158506  0.214732  1
  Ho  Ho3  1  0.841932  0.496745  0.282097  1
  Ho  Ho4  1  0.158464  0.500943  0.785244  1
  Er  Er5  1  0.657204  0.998711  0.968225  1
  Er  Er6  1  0.003402  0.340613  0.532756  1
  Er  Er7  1  0.998707  0.657204  0.031860  1
  Ti  Ti8  1  0.175444  0.826791  0.248364  1
  Ti  Ti9  1  0.826847  0.175507  0.751627  1
  Ti  Ti10  1  0.673529  0.673329  0.499983  1
  Ti  Ti11  1  0.148900  0.003198  0.875768  1
  Ti  Ti12  1  0.494134  0.655442  0.124478  1
  Ti  Ti13  1  0.506749  0.349601  0.627436  1
  Ti  Ti14  1  0.655460  0.494161  0.875467  1
  Ti  Ti15  1  0.349567  0.506622  0.372617  1
  Ti  Ti16  1  0.849391  0.994073  0.374600  1
  Ti  Ti17  1  0.003113  0.148940  0.124232  1
  Ti  Ti18  1  0.994071  0.849372  0.625431  1
  Si  Si19  1  0.202573  0.133419  0.684796  1
  Si  Si20  1  0.371633  0.704121  0.933621  1
  Si  Si21  1  0.631791  0.295165  0.433702  1
  Si  Si22  1  0.704083  0.371676  0.066390  1
  Si  Si23  1  0.294810  0.631177  0.566368  1
  Si  Si24  1  0.796212  0.867723  0.183195  1
  Si  Si25  1  0.133144  0.202920  0.315121  1
  Si  Si26  1  0.867771  0.796234  0.816821  1
  Si  Si27  1  0.286848  0.950536  0.063718  1
  Si  Si28  1  0.546995  0.792031  0.315376  1
  Si  Si29  1  0.449599  0.209788  0.817456  1
  Si  Si30  1  0.792274  0.546780  0.684476  1
  Si  Si31  1  0.209781  0.449652  0.182558  1
  Si  Si32  1  0.708694  0.047956  0.565434  1
  Si  Si33  1  0.950521  0.286863  0.936275  1
  Si  Si34  1  0.047658  0.708114  0.434656  1
  Rh  Rh35  1  0.330504  0.330400  0.999952  1
