# generated using pymatgen
data_Ta(S4F3)2
_symmetry_space_group_name_H-M   'P 1'
_cell_length_a   8.42871692
_cell_length_b   8.40117142
_cell_length_c   10.88462451
_cell_angle_alpha   103.33711654
_cell_angle_beta   105.76021827
_cell_angle_gamma   91.25788013
_symmetry_Int_Tables_number   1
_chemical_formula_structural   Ta(S4F3)2
_chemical_formula_sum   'Ta2 S16 F12'
_cell_volume   718.81919776
_cell_formula_units_Z   2
loop_
 _symmetry_equiv_pos_site_id
 _symmetry_equiv_pos_as_xyz
  1  'x, y, z'
loop_
 _atom_site_type_symbol
 _atom_site_label
 _atom_site_symmetry_multiplicity
 _atom_site_fract_x
 _atom_site_fract_y
 _atom_site_fract_z
 _atom_site_occupancy
  Ta  Ta0  1  0.695031  0.198370  0.882607  1
  Ta  Ta1  1  0.304969  0.801630  0.117393  1
  S  S2  1  0.427762  0.723097  0.674464  1
  S  S3  1  0.572238  0.276903  0.325536  1
  S  S4  1  0.252286  0.854479  0.583508  1
  S  S5  1  0.747714  0.145521  0.416492  1
  S  S6  1  0.087507  0.936223  0.686049  1
  S  S7  1  0.912493  0.063777  0.313951  1
  S  S8  1  0.880103  0.773863  0.636402  1
  S  S9  1  0.119897  0.226137  0.363598  1
  S  S10  1  0.897995  0.615750  0.754372  1
  S  S11  1  0.102005  0.384250  0.245628  1
  S  S12  1  0.988061  0.401194  0.678127  1
  S  S13  1  0.011939  0.598806  0.321873  1
  S  S14  1  0.239447  0.405470  0.751361  1
  S  S15  1  0.760553  0.594530  0.248639  1
  S  S16  1  0.641423  0.525302  0.369884  1
  S  S17  1  0.358577  0.474698  0.630116  1
  F  F18  1  0.726133  0.227451  0.068489  1
  F  F19  1  0.273867  0.772549  0.931511  1
  F  F20  1  0.665679  0.170923  0.695185  1
  F  F21  1  0.334321  0.829077  0.304815  1
  F  F22  1  0.461831  0.135469  0.844856  1
  F  F23  1  0.538169  0.864531  0.155144  1
  F  F24  1  0.647697  0.424351  0.895034  1
  F  F25  1  0.352303  0.575649  0.104966  1
  F  F26  1  0.926696  0.261693  0.915599  1
  F  F27  1  0.073304  0.738307  0.084401  1
  F  F28  1  0.738427  0.970923  0.863232  1
  F  F29  1  0.261573  0.029077  0.136768  1
