# generated using pymatgen
data_Pr2Al20Re2RuRh
_symmetry_space_group_name_H-M   'P 1'
_cell_length_a   6.93098919
_cell_length_b   6.93481531
_cell_length_c   9.26101725
_cell_angle_alpha   90.55940635
_cell_angle_beta   90.65756897
_cell_angle_gamma   96.78461236
_symmetry_Int_Tables_number   1
_chemical_formula_structural   Pr2Al20Re2RuRh
_chemical_formula_sum   'Pr2 Al20 Re2 Ru1 Rh1'
_cell_volume   441.95803593
_cell_formula_units_Z   1
loop_
 _symmetry_equiv_pos_site_id
 _symmetry_equiv_pos_as_xyz
  1  'x, y, z'
loop_
 _atom_site_type_symbol
 _atom_site_label
 _atom_site_symmetry_multiplicity
 _atom_site_fract_x
 _atom_site_fract_y
 _atom_site_fract_z
 _atom_site_occupancy
  Pr  Pr0  1  0.876087  0.126106  0.749877  1
  Pr  Pr1  1  0.123913  0.873894  0.250123  1
  Al  Al2  1  0.407260  0.139571  0.749749  1
  Al  Al3  1  0.138631  0.407517  0.251057  1
  Al  Al4  1  0.592740  0.860429  0.250251  1
  Al  Al5  1  0.861369  0.592483  0.748943  1
  Al  Al6  1  0.520508  0.778873  0.745375  1
  Al  Al7  1  0.780200  0.520074  0.247915  1
  Al  Al8  1  0.479492  0.221127  0.254625  1
  Al  Al9  1  0.219800  0.479926  0.752085  1
  Al  Al10  1  0.839346  0.158731  0.400226  1
  Al  Al11  1  0.160654  0.841269  0.599774  1
  Al  Al12  1  0.841467  0.161451  0.101650  1
  Al  Al13  1  0.158533  0.838549  0.898350  1
  Al  Al14  1  0.621754  0.377704  0.545632  1
  Al  Al15  1  0.378246  0.622296  0.454368  1
  Al  Al16  1  0.622836  0.381038  0.952899  1
  Al  Al17  1  0.377164  0.618962  0.047101  1
  Al  Al18  1  0.773873  0.773465  0.000328  1
  Al  Al19  1  0.775236  0.773536  0.498998  1
  Al  Al20  1  0.226127  0.226535  0.999672  1
  Al  Al21  1  0.224764  0.226464  0.501002  1
  Re  Re22  1  0.000000  0.500000  0.000000  1
  Re  Re23  1  0.500000  0.000000  0.500000  1
  Ru  Ru24  1  0.000000  0.500000  0.500000  1
  Rh  Rh25  1  0.500000  0.000000  0.000000  1
