# generated using pymatgen
data_YEr23Ru14
_symmetry_space_group_name_H-M   'P 1'
_cell_length_a   11.22182318
_cell_length_b   8.32123157
_cell_length_c   11.16096718
_cell_angle_alpha   56.42282989
_cell_angle_beta   89.99820324
_cell_angle_gamma   90.02274110
_symmetry_Int_Tables_number   1
_chemical_formula_structural   YEr23Ru14
_chemical_formula_sum   'Y1 Er23 Ru14'
_cell_volume   868.30372949
_cell_formula_units_Z   1
loop_
 _symmetry_equiv_pos_site_id
 _symmetry_equiv_pos_as_xyz
  1  'x, y, z'
loop_
 _atom_site_type_symbol
 _atom_site_label
 _atom_site_symmetry_multiplicity
 _atom_site_fract_x
 _atom_site_fract_y
 _atom_site_fract_z
 _atom_site_occupancy
  Y  Y0  1  0.705666  0.237966  0.533887  1
  Er  Er1  1  0.206545  0.761085  0.967182  1
  Er  Er2  1  0.844266  0.506112  0.655866  1
  Er  Er3  1  0.344099  0.494148  0.844202  1
  Er  Er4  1  0.155950  0.494111  0.344267  1
  Er  Er5  1  0.655831  0.506056  0.155409  1
  Er  Er6  1  0.006003  0.851188  0.361392  1
  Er  Er7  1  0.505953  0.148978  0.138532  1
  Er  Er8  1  0.994373  0.148958  0.638636  1
  Er  Er9  1  0.493954  0.850912  0.861536  1
  Er  Er10  1  0.793485  0.238930  0.032906  1
  Er  Er11  1  0.293462  0.761014  0.467241  1
  Er  Er12  1  0.931203  0.775745  0.090154  1
  Er  Er13  1  0.430603  0.224275  0.409581  1
  Er  Er14  1  0.068841  0.224238  0.909875  1
  Er  Er15  1  0.568815  0.775502  0.590186  1
  Er  Er16  1  0.301491  0.244500  0.674279  1
  Er  Er17  1  0.801630  0.755064  0.825960  1
  Er  Er18  1  0.698583  0.755876  0.325679  1
  Er  Er19  1  0.198512  0.244572  0.174189  1
  Er  Er20  1  0.926443  0.277552  0.294784  1
  Er  Er21  1  0.426354  0.722405  0.205102  1
  Er  Er22  1  0.073678  0.722420  0.705138  1
  Er  Er23  1  0.573506  0.277705  0.795213  1
  Ru  Ru24  1  0.499250  0.500936  0.499922  1
  Ru  Ru25  1  0.999987  0.500043  0.999998  1
  Ru  Ru26  1  0.650639  0.921285  0.032830  1
  Ru  Ru27  1  0.150546  0.078860  0.467019  1
  Ru  Ru28  1  0.349352  0.078742  0.967156  1
  Ru  Ru29  1  0.849737  0.920369  0.532849  1
  Ru  Ru30  1  0.398599  0.487065  0.102465  1
  Ru  Ru31  1  0.899469  0.514031  0.396923  1
  Ru  Ru32  1  0.601410  0.512990  0.897493  1
  Ru  Ru33  1  0.101394  0.487082  0.602471  1
  Ru  Ru34  1  0.821249  0.098391  0.847310  1
  Ru  Ru35  1  0.321149  0.901500  0.653186  1
  Ru  Ru36  1  0.178981  0.901447  0.153190  1
  Ru  Ru37  1  0.678990  0.097948  0.345990  1
