# generated using pymatgen
data_Tm3Zn3CuAu2
_symmetry_space_group_name_H-M   'P 1'
_cell_length_a   7.40005500
_cell_length_b   7.40005645
_cell_length_c   3.73934100
_cell_angle_alpha   90.00000000
_cell_angle_beta   90.00000000
_cell_angle_gamma   119.99999801
_symmetry_Int_Tables_number   1
_chemical_formula_structural   Tm3Zn3CuAu2
_chemical_formula_sum   'Tm3 Zn3 Cu1 Au2'
_cell_volume   177.33550328
_cell_formula_units_Z   1
loop_
 _symmetry_equiv_pos_site_id
 _symmetry_equiv_pos_as_xyz
  1  'x, y, z'
loop_
 _atom_site_type_symbol
 _atom_site_label
 _atom_site_symmetry_multiplicity
 _atom_site_fract_x
 _atom_site_fract_y
 _atom_site_fract_z
 _atom_site_occupancy
  Tm  Tm0  1  0.399689  0.399689  0.500000  1
  Tm  Tm1  1  0.600311  0.000000  0.500000  1
  Tm  Tm2  1  0.000000  0.600311  0.500000  1
  Zn  Zn3  1  0.754553  0.754553  0.000000  1
  Zn  Zn4  1  0.245447  0.000000  0.000000  1
  Zn  Zn5  1  0.000000  0.245447  0.000000  1
  Cu  Cu6  1  0.000000  0.000000  0.500000  1
  Au  Au7  1  0.666667  0.333333  0.000000  1
  Au  Au8  1  0.333333  0.666667  0.000000  1
