# generated using pymatgen
data_Er6Pa2Re3B24W
_symmetry_space_group_name_H-M   'P 1'
_cell_length_a   3.68683100
_cell_length_b   9.15631474
_cell_length_c   11.52343770
_cell_angle_alpha   90.26555836
_cell_angle_beta   90.00000000
_cell_angle_gamma   90.00000000
_symmetry_Int_Tables_number   1
_chemical_formula_structural   Er6Pa2Re3B24W
_chemical_formula_sum   'Er6 Pa2 Re3 B24 W1'
_cell_volume   389.00155416
_cell_formula_units_Z   1
loop_
 _symmetry_equiv_pos_site_id
 _symmetry_equiv_pos_as_xyz
  1  'x, y, z'
loop_
 _atom_site_type_symbol
 _atom_site_label
 _atom_site_symmetry_multiplicity
 _atom_site_fract_x
 _atom_site_fract_y
 _atom_site_fract_z
 _atom_site_occupancy
  Er  Er0  1  0.000000  0.823884  0.085962  1
  Er  Er1  1  0.000000  0.175834  0.914744  1
  Er  Er2  1  0.000000  0.945725  0.372681  1
  Er  Er3  1  0.000000  0.055618  0.627927  1
  Er  Er4  1  0.000000  0.443247  0.125829  1
  Er  Er5  1  0.000000  0.556447  0.872902  1
  Pa  Pa6  1  0.000000  0.320655  0.413217  1
  Pa  Pa7  1  0.000000  0.678934  0.586621  1
  Re  Re8  1  0.000000  0.363953  0.676291  1
  Re  Re9  1  0.000000  0.140365  0.181079  1
  Re  Re10  1  0.000000  0.859761  0.818697  1
  B  B11  1  0.500000  0.552165  0.434093  1
  B  B12  1  0.500000  0.446230  0.567756  1
  B  B13  1  0.500000  0.053330  0.066921  1
  B  B14  1  0.500000  0.946729  0.933180  1
  B  B15  1  0.500000  0.750060  0.420615  1
  B  B16  1  0.500000  0.251248  0.581038  1
  B  B17  1  0.500000  0.248269  0.079988  1
  B  B18  1  0.500000  0.751725  0.919935  1
  B  B19  1  0.500000  0.794121  0.264354  1
  B  B20  1  0.500000  0.207839  0.734758  1
  B  B21  1  0.500000  0.291707  0.233472  1
  B  B22  1  0.500000  0.708083  0.766388  1
  B  B23  1  0.500000  0.631593  0.183455  1
  B  B24  1  0.500000  0.368353  0.815010  1
  B  B25  1  0.500000  0.131710  0.313669  1
  B  B26  1  0.500000  0.868453  0.686225  1
  B  B27  1  0.500000  0.982323  0.211946  1
  B  B28  1  0.500000  0.018018  0.788192  1
  B  B29  1  0.500000  0.480149  0.286250  1
  B  B30  1  0.500000  0.516988  0.713434  1
  B  B31  1  0.500000  0.603610  0.028431  1
  B  B32  1  0.500000  0.396114  0.970593  1
  B  B33  1  0.500000  0.109624  0.469864  1
  B  B34  1  0.500000  0.891222  0.530867  1
  W  W35  1  0.000000  0.635913  0.323616  1
