# generated using pymatgen
data_Ti12AlSi7(PtN)4
_symmetry_space_group_name_H-M   'P 1'
_cell_length_a   8.06629665
_cell_length_b   8.05959303
_cell_length_c   8.06629600
_cell_angle_alpha   59.97248457
_cell_angle_beta   60.00000266
_cell_angle_gamma   59.97248605
_symmetry_Int_Tables_number   1
_chemical_formula_structural   Ti12AlSi7(PtN)4
_chemical_formula_sum   'Ti12 Al1 Si7 Pt4 N4'
_cell_volume   370.65146974
_cell_formula_units_Z   1
loop_
 _symmetry_equiv_pos_site_id
 _symmetry_equiv_pos_as_xyz
  1  'x, y, z'
loop_
 _atom_site_type_symbol
 _atom_site_label
 _atom_site_symmetry_multiplicity
 _atom_site_fract_x
 _atom_site_fract_y
 _atom_site_fract_z
 _atom_site_occupancy
  Ti  Ti0  1  0.817854  0.818359  0.181893  1
  Ti  Ti1  1  0.069015  0.431479  0.430491  1
  Ti  Ti2  1  0.431360  0.068495  0.068785  1
  Ti  Ti3  1  0.068785  0.068495  0.431360  1
  Ti  Ti4  1  0.069015  0.431479  0.069015  1
  Ti  Ti5  1  0.431360  0.068495  0.431360  1
  Ti  Ti6  1  0.181893  0.818359  0.181893  1
  Ti  Ti7  1  0.181893  0.818359  0.817854  1
  Ti  Ti8  1  0.819148  0.177582  0.184122  1
  Ti  Ti9  1  0.819148  0.177582  0.819148  1
  Ti  Ti10  1  0.430491  0.431479  0.069015  1
  Ti  Ti11  1  0.184122  0.177582  0.819148  1
  Al  Al12  1  0.835563  0.493313  0.835563  1
  Si  Si13  1  0.409530  0.771408  0.409530  1
  Si  Si14  1  0.839735  0.835664  0.484869  1
  Si  Si15  1  0.484869  0.835664  0.839735  1
  Si  Si16  1  0.839735  0.835664  0.839735  1
  Si  Si17  1  0.767784  0.410896  0.410659  1
  Si  Si18  1  0.410659  0.410896  0.410659  1
  Si  Si19  1  0.410659  0.410896  0.767784  1
  Pt  Pt20  1  0.624761  0.125716  0.624761  1
  Pt  Pt21  1  0.621614  0.626005  0.130766  1
  Pt  Pt22  1  0.130766  0.626005  0.621614  1
  Pt  Pt23  1  0.621614  0.626005  0.621614  1
  N  N24  1  0.124479  0.626562  0.124479  1
  N  N25  1  0.124504  0.125853  0.625140  1
  N  N26  1  0.625140  0.125853  0.124504  1
  N  N27  1  0.124504  0.125853  0.124504  1
