# generated using pymatgen
data_Yb6FeSi24Ru7
_symmetry_space_group_name_H-M   'P 1'
_cell_length_a   10.11831824
_cell_length_b   10.11831808
_cell_length_c   8.13461339
_cell_angle_alpha   89.98576800
_cell_angle_beta   89.98576753
_cell_angle_gamma   132.57304549
_symmetry_Int_Tables_number   1
_chemical_formula_structural   Yb6FeSi24Ru7
_chemical_formula_sum   'Yb6 Fe1 Si24 Ru7'
_cell_volume   613.30482499
_cell_formula_units_Z   1
loop_
 _symmetry_equiv_pos_site_id
 _symmetry_equiv_pos_as_xyz
  1  'x, y, z'
loop_
 _atom_site_type_symbol
 _atom_site_label
 _atom_site_symmetry_multiplicity
 _atom_site_fract_x
 _atom_site_fract_y
 _atom_site_fract_z
 _atom_site_occupancy
  Yb  Yb0  1  0.999746  0.000254  0.000000  1
  Yb  Yb1  1  0.499971  0.500029  0.500000  1
  Yb  Yb2  1  0.002537  0.501762  0.249347  1
  Yb  Yb3  1  0.997220  0.496360  0.750154  1
  Yb  Yb4  1  0.498238  0.997463  0.750653  1
  Yb  Yb5  1  0.503640  0.002780  0.249846  1
  Fe  Fe6  1  0.831026  0.168974  0.000000  1
  Si  Si7  1  0.709509  0.290491  0.000000  1
  Si  Si8  1  0.295168  0.704832  0.000000  1
  Si  Si9  1  0.795094  0.204906  0.500000  1
  Si  Si10  1  0.205346  0.794654  0.500000  1
  Si  Si11  1  0.333407  0.332953  0.167387  1
  Si  Si12  1  0.667047  0.666593  0.832613  1
  Si  Si13  1  0.166690  0.166847  0.667522  1
  Si  Si14  1  0.833153  0.833310  0.332478  1
  Si  Si15  1  0.847103  0.612642  0.007124  1
  Si  Si16  1  0.143605  0.379723  0.991256  1
  Si  Si17  1  0.652391  0.886202  0.509058  1
  Si  Si18  1  0.113798  0.347609  0.490942  1
  Si  Si19  1  0.347178  0.114189  0.491979  1
  Si  Si20  1  0.885811  0.652822  0.508021  1
  Si  Si21  1  0.387358  0.152897  0.992876  1
  Si  Si22  1  0.620277  0.856395  0.008744  1
  Si  Si23  1  0.892399  0.128117  0.261240  1
  Si  Si24  1  0.106801  0.874186  0.731376  1
  Si  Si25  1  0.608075  0.373861  0.770154  1
  Si  Si26  1  0.626139  0.391925  0.229846  1
  Si  Si27  1  0.394334  0.627694  0.230967  1
  Si  Si28  1  0.372306  0.605666  0.769033  1
  Si  Si29  1  0.871883  0.107601  0.738760  1
  Si  Si30  1  0.125814  0.893199  0.268624  1
  Ru  Ru31  1  0.169998  0.830002  0.000000  1
  Ru  Ru32  1  0.669809  0.330191  0.500000  1
  Ru  Ru33  1  0.330179  0.669821  0.500000  1
  Ru  Ru34  1  0.124882  0.126727  0.374423  1
  Ru  Ru35  1  0.873273  0.875118  0.625577  1
  Ru  Ru36  1  0.373106  0.374312  0.875258  1
  Ru  Ru37  1  0.625688  0.626894  0.124742  1
