# generated using pymatgen
data_Ir2RhO6
_symmetry_space_group_name_H-M   'P 1'
_cell_length_a   4.55259200
_cell_length_b   4.55259200
_cell_length_c   9.50031500
_cell_angle_alpha   90.00000000
_cell_angle_beta   90.00000000
_cell_angle_gamma   90.00000000
_symmetry_Int_Tables_number   1
_chemical_formula_structural   Ir2RhO6
_chemical_formula_sum   'Ir4 Rh2 O12'
_cell_volume   196.90442094
_cell_formula_units_Z   2
loop_
 _symmetry_equiv_pos_site_id
 _symmetry_equiv_pos_as_xyz
  1  'x, y, z'
loop_
 _atom_site_type_symbol
 _atom_site_label
 _atom_site_symmetry_multiplicity
 _atom_site_fract_x
 _atom_site_fract_y
 _atom_site_fract_z
 _atom_site_occupancy
  Ir  Ir0  1  0.500000  0.500000  0.166544  1
  Ir  Ir1  1  0.000000  0.000000  0.666544  1
  Ir  Ir2  1  0.500000  0.500000  0.500008  1
  Ir  Ir3  1  0.000000  0.000000  0.000008  1
  Rh  Rh4  1  0.500000  0.500000  0.833458  1
  Rh  Rh5  1  0.000000  0.000000  0.333458  1
  O  O6  1  0.194235  0.805765  0.501008  1
  O  O7  1  0.805765  0.194235  0.501008  1
  O  O8  1  0.305765  0.305765  0.001008  1
  O  O9  1  0.694235  0.694235  0.001008  1
  O  O10  1  0.194169  0.805831  0.165614  1
  O  O11  1  0.805831  0.194169  0.165614  1
  O  O12  1  0.305831  0.305831  0.665614  1
  O  O13  1  0.694169  0.694169  0.665614  1
  O  O14  1  0.810973  0.189027  0.833373  1
  O  O15  1  0.189027  0.810973  0.833373  1
  O  O16  1  0.689027  0.689027  0.333373  1
  O  O17  1  0.310973  0.310973  0.333373  1
