# generated using pymatgen
data_Lu3Th(Al3Rh)6
_symmetry_space_group_name_H-M   'P 1'
_cell_length_a   7.54724901
_cell_length_b   7.56998080
_cell_length_c   9.43061900
_cell_angle_alpha   90.00000000
_cell_angle_beta   90.00000000
_cell_angle_gamma   119.30647177
_symmetry_Int_Tables_number   1
_chemical_formula_structural   Lu3Th(Al3Rh)6
_chemical_formula_sum   'Lu3 Th1 Al18 Rh6'
_cell_volume   469.83688558
_cell_formula_units_Z   1
loop_
 _symmetry_equiv_pos_site_id
 _symmetry_equiv_pos_as_xyz
  1  'x, y, z'
loop_
 _atom_site_type_symbol
 _atom_site_label
 _atom_site_symmetry_multiplicity
 _atom_site_fract_x
 _atom_site_fract_y
 _atom_site_fract_z
 _atom_site_occupancy
  Lu  Lu0  1  0.003959  0.326737  0.750000  1
  Lu  Lu1  1  0.674088  0.994574  0.250000  1
  Lu  Lu2  1  0.326773  0.005083  0.750000  1
  Th  Th3  1  0.994492  0.672339  0.250000  1
  Al  Al4  1  0.131835  0.134259  0.250000  1
  Al  Al5  1  0.872519  0.875344  0.750000  1
  Al  Al6  1  0.000770  0.331005  0.072197  1
  Al  Al7  1  0.999983  0.663637  0.915607  1
  Al  Al8  1  0.999983  0.663637  0.584393  1
  Al  Al9  1  0.341698  0.005435  0.427598  1
  Al  Al10  1  0.000770  0.331005  0.427803  1
  Al  Al11  1  0.664147  0.001618  0.577553  1
  Al  Al12  1  0.664147  0.001618  0.922447  1
  Al  Al13  1  0.341698  0.005435  0.072402  1
  Al  Al14  1  0.331004  0.331211  0.556617  1
  Al  Al15  1  0.662854  0.666815  0.457585  1
  Al  Al16  1  0.662854  0.666815  0.042415  1
  Al  Al17  1  0.331004  0.331211  0.943383  1
  Al  Al18  1  0.346323  0.550725  0.250000  1
  Al  Al19  1  0.657254  0.445882  0.750000  1
  Al  Al20  1  0.545825  0.335749  0.250000  1
  Al  Al21  1  0.447119  0.660731  0.750000  1
  Rh  Rh22  1  0.673120  0.328660  0.999583  1
  Rh  Rh23  1  0.326371  0.672081  0.999983  1
  Rh  Rh24  1  0.326371  0.672081  0.500017  1
  Rh  Rh25  1  0.673120  0.328660  0.500417  1
  Rh  Rh26  1  0.999961  0.998826  0.000389  1
  Rh  Rh27  1  0.999961  0.998826  0.499611  1
