# generated using pymatgen
data_Sc8Ga5Si11Tc12
_symmetry_space_group_name_H-M   'P 1'
_cell_length_a   6.66135310
_cell_length_b   6.73435042
_cell_length_c   12.45578700
_cell_angle_alpha   90.00000000
_cell_angle_beta   90.00000000
_cell_angle_gamma   89.50791638
_symmetry_Int_Tables_number   1
_chemical_formula_structural   Sc8Ga5Si11Tc12
_chemical_formula_sum   'Sc8 Ga5 Si11 Tc12'
_cell_volume   558.74457741
_cell_formula_units_Z   1
loop_
 _symmetry_equiv_pos_site_id
 _symmetry_equiv_pos_as_xyz
  1  'x, y, z'
loop_
 _atom_site_type_symbol
 _atom_site_label
 _atom_site_symmetry_multiplicity
 _atom_site_fract_x
 _atom_site_fract_y
 _atom_site_fract_z
 _atom_site_occupancy
  Sc  Sc0  1  0.488786  0.328226  0.091617  1
  Sc  Sc1  1  0.993563  0.173698  0.409500  1
  Sc  Sc2  1  0.505702  0.669888  0.589640  1
  Sc  Sc3  1  0.012635  0.829338  0.911971  1
  Sc  Sc4  1  0.505702  0.669888  0.910360  1
  Sc  Sc5  1  0.012635  0.829338  0.588029  1
  Sc  Sc6  1  0.488786  0.328226  0.408383  1
  Sc  Sc7  1  0.993563  0.173698  0.090500  1
  Ga  Ga8  1  0.522068  0.364838  0.750000  1
  Ga  Ga9  1  0.016683  0.130656  0.750000  1
  Ga  Ga10  1  0.474695  0.642587  0.250000  1
  Ga  Ga11  1  0.991695  0.873203  0.250000  1
  Ga  Ga12  1  0.805027  0.647693  0.750000  1
  Si  Si13  1  0.660990  0.046346  0.549403  1
  Si  Si14  1  0.158969  0.450239  0.949274  1
  Si  Si15  1  0.343121  0.944713  0.053458  1
  Si  Si16  1  0.831544  0.545842  0.451667  1
  Si  Si17  1  0.343121  0.944713  0.446542  1
  Si  Si18  1  0.831544  0.545842  0.048333  1
  Si  Si19  1  0.660990  0.046346  0.950597  1
  Si  Si20  1  0.158969  0.450239  0.550726  1
  Si  Si21  1  0.302719  0.852610  0.750000  1
  Si  Si22  1  0.196223  0.364361  0.250000  1
  Si  Si23  1  0.700283  0.150140  0.250000  1
  Tc  Tc24  1  0.823309  0.346543  0.615072  1
  Tc  Tc25  1  0.319671  0.141232  0.882380  1
  Tc  Tc26  1  0.163357  0.642238  0.114775  1
  Tc  Tc27  1  0.691930  0.858215  0.379876  1
  Tc  Tc28  1  0.163357  0.642238  0.385225  1
  Tc  Tc29  1  0.691930  0.858215  0.120124  1
  Tc  Tc30  1  0.823309  0.346543  0.884928  1
  Tc  Tc31  1  0.319671  0.141232  0.617620  1
  Tc  Tc32  1  0.650750  0.992638  0.750000  1
  Tc  Tc33  1  0.168113  0.513163  0.750000  1
  Tc  Tc34  1  0.349302  0.026863  0.250000  1
  Tc  Tc35  1  0.835288  0.488212  0.250000  1
