# generated using pymatgen
data_VCo21SnB6
_symmetry_space_group_name_H-M   'P 1'
_cell_length_a   7.41321380
_cell_length_b   7.41251225
_cell_length_c   7.41231702
_cell_angle_alpha   60.00064644
_cell_angle_beta   59.99667654
_cell_angle_gamma   59.99896928
_symmetry_Int_Tables_number   1
_chemical_formula_structural   VCo21SnB6
_chemical_formula_sum   'V1 Co21 Sn1 B6'
_cell_volume   288.00416396
_cell_formula_units_Z   1
loop_
 _symmetry_equiv_pos_site_id
 _symmetry_equiv_pos_as_xyz
  1  'x, y, z'
loop_
 _atom_site_type_symbol
 _atom_site_label
 _atom_site_symmetry_multiplicity
 _atom_site_fract_x
 _atom_site_fract_y
 _atom_site_fract_z
 _atom_site_occupancy
  V  V0  1  0.750061  0.749938  0.750000  1
  Co  Co1  1  0.999988  0.999985  0.999999  1
  Co  Co2  1  0.835933  0.388040  0.388061  1
  Co  Co3  1  0.388020  0.835947  0.388016  1
  Co  Co4  1  0.388066  0.388039  0.835859  1
  Co  Co5  1  0.387995  0.388086  0.388064  1
  Co  Co6  1  0.133407  0.622190  0.622188  1
  Co  Co7  1  0.622208  0.133369  0.622200  1
  Co  Co8  1  0.622208  0.622177  0.133449  1
  Co  Co9  1  0.622207  0.622191  0.622163  1
  Co  Co10  1  0.666600  0.997057  0.996977  1
  Co  Co11  1  0.666541  0.997132  0.339363  1
  Co  Co12  1  0.666416  0.339339  0.997151  1
  Co  Co13  1  0.997043  0.666550  0.339420  1
  Co  Co14  1  0.997042  0.666536  0.996999  1
  Co  Co15  1  0.339423  0.666461  0.997048  1
  Co  Co16  1  0.997168  0.339264  0.666426  1
  Co  Co17  1  0.339258  0.997124  0.666455  1
  Co  Co18  1  0.997092  0.997054  0.666539  1
  Co  Co19  1  0.339235  0.997143  0.997118  1
  Co  Co20  1  0.997165  0.339248  0.997176  1
  Co  Co21  1  0.997055  0.997115  0.339304  1
  Sn  Sn22  1  0.249971  0.249981  0.249972  1
  B  B23  1  0.725578  0.274448  0.274518  1
  B  B24  1  0.725667  0.274353  0.725545  1
  B  B25  1  0.725631  0.725606  0.274367  1
  B  B26  1  0.274363  0.725580  0.725513  1
  B  B27  1  0.274336  0.725614  0.274499  1
  B  B28  1  0.274325  0.274431  0.725612  1
