# generated using pymatgen
data_Ho2Np(SnRu)3
_symmetry_space_group_name_H-M   'P 1'
_cell_length_a   7.75378200
_cell_length_b   7.22535576
_cell_length_c   3.99565300
_cell_angle_alpha   90.00000000
_cell_angle_beta   90.00000000
_cell_angle_gamma   122.45027726
_symmetry_Int_Tables_number   1
_chemical_formula_structural   Ho2Np(SnRu)3
_chemical_formula_sum   'Ho2 Np1 Sn3 Ru3'
_cell_volume   188.89899866
_cell_formula_units_Z   1
loop_
 _symmetry_equiv_pos_site_id
 _symmetry_equiv_pos_as_xyz
  1  'x, y, z'
loop_
 _atom_site_type_symbol
 _atom_site_label
 _atom_site_symmetry_multiplicity
 _atom_site_fract_x
 _atom_site_fract_y
 _atom_site_fract_z
 _atom_site_occupancy
  Ho  Ho0  1  0.005809  0.407939  0.500000  1
  Ho  Ho1  1  0.597871  0.592061  0.500000  1
  Np  Np2  1  0.411320  0.000000  0.500000  1
  Sn  Sn3  1  0.979078  0.719406  0.000000  1
  Sn  Sn4  1  0.259672  0.280594  0.000000  1
  Sn  Sn5  1  0.764264  0.000000  0.000000  1
  Ru  Ru6  1  0.345754  0.725859  0.000000  1
  Ru  Ru7  1  0.619896  0.274141  0.000000  1
  Ru  Ru8  1  0.016336  0.000000  0.500000  1
