# generated using pymatgen
data_Ho6Ge(P3Rh5)4
_symmetry_space_group_name_H-M   'P 1'
_cell_length_a   13.40395600
_cell_length_b   13.40395465
_cell_length_c   3.90258000
_cell_angle_alpha   90.00000000
_cell_angle_beta   90.00000000
_cell_angle_gamma   119.99999347
_symmetry_Int_Tables_number   1
_chemical_formula_structural   Ho6Ge(P3Rh5)4
_chemical_formula_sum   'Ho6 Ge1 P12 Rh20'
_cell_volume   607.22328658
_cell_formula_units_Z   1
loop_
 _symmetry_equiv_pos_site_id
 _symmetry_equiv_pos_as_xyz
  1  'x, y, z'
loop_
 _atom_site_type_symbol
 _atom_site_label
 _atom_site_symmetry_multiplicity
 _atom_site_fract_x
 _atom_site_fract_y
 _atom_site_fract_z
 _atom_site_occupancy
  Ho  Ho0  1  0.529881  0.717322  0.249251  1
  Ho  Ho1  1  0.282678  0.812559  0.249251  1
  Ho  Ho2  1  0.187441  0.470119  0.249251  1
  Ho  Ho3  1  0.470119  0.282678  0.750749  1
  Ho  Ho4  1  0.717322  0.187441  0.750749  1
  Ho  Ho5  1  0.812559  0.529881  0.750749  1
  Ge  Ge6  1  0.000000  0.000000  0.000000  1
  P  P7  1  0.527098  0.139201  0.250562  1
  P  P8  1  0.860799  0.387898  0.250562  1
  P  P9  1  0.612102  0.472902  0.250562  1
  P  P10  1  0.946064  0.715597  0.250898  1
  P  P11  1  0.284403  0.230467  0.250898  1
  P  P12  1  0.769533  0.053936  0.250898  1
  P  P13  1  0.387898  0.527098  0.749438  1
  P  P14  1  0.472902  0.860799  0.749438  1
  P  P15  1  0.139201  0.612102  0.749438  1
  P  P16  1  0.715597  0.769533  0.749102  1
  P  P17  1  0.230467  0.946064  0.749102  1
  P  P18  1  0.053936  0.284403  0.749102  1
  Rh  Rh19  1  0.333333  0.666667  0.752249  1
  Rh  Rh20  1  0.919393  0.251633  0.249631  1
  Rh  Rh21  1  0.748367  0.667760  0.249631  1
  Rh  Rh22  1  0.332240  0.080607  0.249631  1
  Rh  Rh23  1  0.440202  0.023627  0.750321  1
  Rh  Rh24  1  0.976373  0.416576  0.750321  1
  Rh  Rh25  1  0.583424  0.559798  0.750321  1
  Rh  Rh26  1  0.666667  0.333333  0.247751  1
  Rh  Rh27  1  0.096580  0.197662  0.254608  1
  Rh  Rh28  1  0.802338  0.898918  0.254608  1
  Rh  Rh29  1  0.101082  0.903420  0.254608  1
  Rh  Rh30  1  0.023627  0.583424  0.249679  1
  Rh  Rh31  1  0.416576  0.440202  0.249679  1
  Rh  Rh32  1  0.559798  0.976373  0.249679  1
  Rh  Rh33  1  0.667760  0.919393  0.750369  1
  Rh  Rh34  1  0.080607  0.748367  0.750369  1
  Rh  Rh35  1  0.251633  0.332240  0.750369  1
  Rh  Rh36  1  0.903420  0.802338  0.745392  1
  Rh  Rh37  1  0.197662  0.101082  0.745392  1
  Rh  Rh38  1  0.898918  0.096580  0.745392  1
