# generated using pymatgen
data_NdHo9Si16Ge
_symmetry_space_group_name_H-M   'P 1'
_cell_length_a   11.00738872
_cell_length_b   10.99694795
_cell_length_c   11.00842800
_cell_angle_alpha   144.76187579
_cell_angle_beta   135.88891388
_cell_angle_gamma   57.69367501
_symmetry_Int_Tables_number   1
_chemical_formula_structural   NdHo9Si16Ge
_chemical_formula_sum   'Nd1 Ho9 Si16 Ge1'
_cell_volume   530.65488198
_cell_formula_units_Z   1
loop_
 _symmetry_equiv_pos_site_id
 _symmetry_equiv_pos_as_xyz
  1  'x, y, z'
loop_
 _atom_site_type_symbol
 _atom_site_label
 _atom_site_symmetry_multiplicity
 _atom_site_fract_x
 _atom_site_fract_y
 _atom_site_fract_z
 _atom_site_occupancy
  Nd  Nd0  1  0.647619  0.165909  0.014486  1
  Ho  Ho1  1  0.755928  0.759378  0.515629  1
  Ho  Ho2  1  0.448752  0.964448  0.013950  1
  Ho  Ho3  1  0.848369  0.368232  0.017015  1
  Ho  Ho4  1  0.950189  0.963293  0.515701  1
  Ho  Ho5  1  0.151148  0.166212  0.518525  1
  Ho  Ho6  1  0.351820  0.368545  0.519206  1
  Ho  Ho7  1  0.244174  0.759863  0.003224  1
  Ho  Ho8  1  0.548908  0.561453  0.508852  1
  Ho  Ho9  1  0.051906  0.560219  0.012159  1
  Si  Si10  1  0.198838  0.573928  0.374008  1
  Si  Si11  1  0.003446  0.081268  0.082558  1
  Si  Si12  1  0.698125  0.290795  0.593629  1
  Si  Si13  1  0.803057  0.181694  0.387013  1
  Si  Si14  1  0.898463  0.502708  0.609866  1
  Si  Si15  1  0.413755  0.870035  0.447985  1
  Si  Si16  1  0.105532  0.714303  0.609951  1
  Si  Si17  1  0.296829  0.893778  0.590541  1
  Si  Si18  1  0.579381  0.038641  0.459020  1
  Si  Si19  1  0.002906  0.431625  0.433552  1
  Si  Si20  1  0.885820  0.839243  0.962146  1
  Si  Si21  1  0.395906  0.500455  0.096875  1
  Si  Si22  1  0.121947  0.087289  0.966431  1
  Si  Si23  1  0.283366  0.240887  0.954986  1
  Si  Si24  1  0.496619  0.391714  0.886770  1
  Si  Si25  1  0.598934  0.704745  0.104947  1
  Ge  Ge26  1  0.718262  0.680840  0.962476  1
