# generated using pymatgen
data_Li3Ca3SnPb2
_symmetry_space_group_name_H-M   'P 1'
_cell_length_a   4.96135900
_cell_length_b   4.96135844
_cell_length_c   10.90534000
_cell_angle_alpha   90.00000000
_cell_angle_beta   90.00000000
_cell_angle_gamma   120.00001038
_symmetry_Int_Tables_number   1
_chemical_formula_structural   Li3Ca3SnPb2
_chemical_formula_sum   'Li3 Ca3 Sn1 Pb2'
_cell_volume   232.47221554
_cell_formula_units_Z   1
loop_
 _symmetry_equiv_pos_site_id
 _symmetry_equiv_pos_as_xyz
  1  'x, y, z'
loop_
 _atom_site_type_symbol
 _atom_site_label
 _atom_site_symmetry_multiplicity
 _atom_site_fract_x
 _atom_site_fract_y
 _atom_site_fract_z
 _atom_site_occupancy
  Li  Li0  1  0.666667  0.333333  0.803519  1
  Li  Li1  1  0.333333  0.666667  0.500000  1
  Li  Li2  1  0.666667  0.333333  0.196481  1
  Ca  Ca3  1  0.000000  0.000000  0.335941  1
  Ca  Ca4  1  0.000000  0.000000  0.664059  1
  Ca  Ca5  1  0.000000  0.000000  0.000000  1
  Sn  Sn6  1  0.666667  0.333333  0.500000  1
  Pb  Pb7  1  0.333333  0.666667  0.155871  1
  Pb  Pb8  1  0.333333  0.666667  0.844129  1
