# generated using pymatgen
data_MnFe2Mo3N
_symmetry_space_group_name_H-M   'P 1'
_cell_length_a   7.81308033
_cell_length_b   7.81203699
_cell_length_c   7.80106523
_cell_angle_alpha   59.96542414
_cell_angle_beta   59.94140176
_cell_angle_gamma   60.00436662
_symmetry_Int_Tables_number   1
_chemical_formula_structural   MnFe2Mo3N
_chemical_formula_sum   'Mn4 Fe8 Mo12 N4'
_cell_volume   336.46011624
_cell_formula_units_Z   4
loop_
 _symmetry_equiv_pos_site_id
 _symmetry_equiv_pos_as_xyz
  1  'x, y, z'
loop_
 _atom_site_type_symbol
 _atom_site_label
 _atom_site_symmetry_multiplicity
 _atom_site_fract_x
 _atom_site_fract_y
 _atom_site_fract_z
 _atom_site_occupancy
  Mn  Mn0  1  0.500106  0.000121  0.499876  1
  Mn  Mn1  1  0.999831  0.499957  0.500146  1
  Mn  Mn2  1  0.500136  0.499984  0.999797  1
  Mn  Mn3  1  0.500088  0.499941  0.500066  1
  Fe  Fe4  1  0.392955  0.702447  0.702311  1
  Fe  Fe5  1  0.702386  0.392628  0.702559  1
  Fe  Fe6  1  0.702254  0.702632  0.392730  1
  Fe  Fe7  1  0.702305  0.702455  0.702410  1
  Fe  Fe8  1  0.297670  0.607291  0.297462  1
  Fe  Fe9  1  0.607145  0.297469  0.297672  1
  Fe  Fe10  1  0.297790  0.297285  0.607333  1
  Fe  Fe11  1  0.297763  0.297402  0.297601  1
  Mo  Mo12  1  0.077084  0.076855  0.672935  1
  Mo  Mo13  1  0.672985  0.076925  0.077122  1
  Mo  Mo14  1  0.673049  0.672993  0.077075  1
  Mo  Mo15  1  0.077038  0.673122  0.673001  1
  Mo  Mo16  1  0.076918  0.673068  0.076917  1
  Mo  Mo17  1  0.673092  0.077018  0.672848  1
  Mo  Mo18  1  0.922791  0.923247  0.327084  1
  Mo  Mo19  1  0.922993  0.326971  0.923063  1
  Mo  Mo20  1  0.326994  0.327029  0.922874  1
  Mo  Mo21  1  0.326876  0.923051  0.327157  1
  Mo  Mo22  1  0.326991  0.923185  0.922799  1
  Mo  Mo23  1  0.922842  0.326891  0.327108  1
  N  N24  1  0.999988  0.499991  0.000025  1
  N  N25  1  0.499976  0.000015  0.000008  1
  N  N26  1  0.999978  0.000008  0.500013  1
  N  N27  1  0.999977  0.000019  0.000006  1
