# generated using pymatgen
data_DyEr2Lu3FeBi2
_symmetry_space_group_name_H-M   'P 1'
_cell_length_a   8.22041246
_cell_length_b   8.22041321
_cell_length_c   4.15676000
_cell_angle_alpha   90.00000000
_cell_angle_beta   90.00000000
_cell_angle_gamma   119.96169695
_symmetry_Int_Tables_number   1
_chemical_formula_structural   DyEr2Lu3FeBi2
_chemical_formula_sum   'Dy1 Er2 Lu3 Fe1 Bi2'
_cell_volume   243.35503319
_cell_formula_units_Z   1
loop_
 _symmetry_equiv_pos_site_id
 _symmetry_equiv_pos_as_xyz
  1  'x, y, z'
loop_
 _atom_site_type_symbol
 _atom_site_label
 _atom_site_symmetry_multiplicity
 _atom_site_fract_x
 _atom_site_fract_y
 _atom_site_fract_z
 _atom_site_occupancy
  Dy  Dy0  1  0.389155  0.389155  0.000000  1
  Er  Er1  1  0.611411  0.000112  0.000000  1
  Er  Er2  1  0.000112  0.611411  0.000000  1
  Lu  Lu3  1  0.227460  0.999587  0.500000  1
  Lu  Lu4  1  0.999587  0.227460  0.500000  1
  Lu  Lu5  1  0.772316  0.772316  0.500000  1
  Fe  Fe6  1  0.999369  0.999369  0.000000  1
  Bi  Bi7  1  0.333312  0.667278  0.500000  1
  Bi  Bi8  1  0.667278  0.333312  0.500000  1
