# generated using pymatgen
data_TmLu9(SiBi2)2
_symmetry_space_group_name_H-M   'P 1'
_cell_length_a   7.91476200
_cell_length_b   9.04405700
_cell_length_c   11.76823900
_cell_angle_alpha   90.00000000
_cell_angle_beta   89.99949346
_cell_angle_gamma   90.00000000
_symmetry_Int_Tables_number   1
_chemical_formula_structural   TmLu9(SiBi2)2
_chemical_formula_sum   'Tm2 Lu18 Si4 Bi8'
_cell_volume   842.38889040
_cell_formula_units_Z   2
loop_
 _symmetry_equiv_pos_site_id
 _symmetry_equiv_pos_as_xyz
  1  'x, y, z'
loop_
 _atom_site_type_symbol
 _atom_site_label
 _atom_site_symmetry_multiplicity
 _atom_site_fract_x
 _atom_site_fract_y
 _atom_site_fract_z
 _atom_site_occupancy
  Tm  Tm0  1  0.137027  0.250000  0.794866  1
  Tm  Tm1  1  0.362967  0.250000  0.294873  1
  Lu  Lu2  1  0.678774  0.944430  0.438043  1
  Lu  Lu3  1  0.821226  0.555561  0.938036  1
  Lu  Lu4  1  0.321309  0.444537  0.561948  1
  Lu  Lu5  1  0.178707  0.055465  0.061959  1
  Lu  Lu6  1  0.321309  0.055463  0.561948  1
  Lu  Lu7  1  0.178707  0.444535  0.061959  1
  Lu  Lu8  1  0.678774  0.555570  0.438043  1
  Lu  Lu9  1  0.821226  0.944439  0.938036  1
  Lu  Lu10  1  0.331268  0.750000  0.287030  1
  Lu  Lu11  1  0.168727  0.750000  0.787044  1
  Lu  Lu12  1  0.668698  0.250000  0.712968  1
  Lu  Lu13  1  0.831292  0.250000  0.212985  1
  Lu  Lu14  1  0.037970  0.750000  0.497443  1
  Lu  Lu15  1  0.462012  0.750000  0.997453  1
  Lu  Lu16  1  0.961832  0.250000  0.502458  1
  Lu  Lu17  1  0.538159  0.250000  0.002468  1
  Lu  Lu18  1  0.862966  0.750000  0.205036  1
  Lu  Lu19  1  0.637038  0.750000  0.705026  1
  Si  Si20  1  0.090957  0.750000  0.021348  1
  Si  Si21  1  0.409042  0.750000  0.521344  1
  Si  Si22  1  0.908698  0.250000  0.979000  1
  Si  Si23  1  0.591303  0.250000  0.479001  1
  Bi  Bi24  1  0.566968  0.987943  0.174820  1
  Bi  Bi25  1  0.933033  0.512057  0.674827  1
  Bi  Bi26  1  0.433345  0.488302  0.825100  1
  Bi  Bi27  1  0.066661  0.011700  0.325095  1
  Bi  Bi28  1  0.433345  0.011698  0.825100  1
  Bi  Bi29  1  0.066661  0.488300  0.325095  1
  Bi  Bi30  1  0.566968  0.512057  0.174820  1
  Bi  Bi31  1  0.933033  0.987943  0.674827  1
