# generated using pymatgen
data_Li8TeW3O16
_symmetry_space_group_name_H-M   'P 1'
_cell_length_a   6.12848801
_cell_length_b   6.12033500
_cell_length_c   8.40664902
_cell_angle_alpha   90.00000000
_cell_angle_beta   90.00664098
_cell_angle_gamma   90.00000000
_symmetry_Int_Tables_number   1
_chemical_formula_structural   Li8TeW3O16
_chemical_formula_sum   'Li8 Te1 W3 O16'
_cell_volume   315.31994896
_cell_formula_units_Z   1
loop_
 _symmetry_equiv_pos_site_id
 _symmetry_equiv_pos_as_xyz
  1  'x, y, z'
loop_
 _atom_site_type_symbol
 _atom_site_label
 _atom_site_symmetry_multiplicity
 _atom_site_fract_x
 _atom_site_fract_y
 _atom_site_fract_z
 _atom_site_occupancy
  Li  Li0  1  0.761803  0.743705  0.878281  1
  Li  Li1  1  0.238197  0.743705  0.121719  1
  Li  Li2  1  0.755799  0.247911  0.628362  1
  Li  Li3  1  0.244201  0.247911  0.371638  1
  Li  Li4  1  0.723429  0.501321  0.239128  1
  Li  Li5  1  0.500000  0.292348  0.000000  1
  Li  Li6  1  0.500000  0.712613  0.500000  1
  Li  Li7  1  0.276571  0.501321  0.760872  1
  Te  Te8  1  0.000000  0.266584  0.000000  1
  W  W9  1  0.000000  0.717498  0.500000  1
  W  W10  1  0.280608  0.002656  0.744734  1
  W  W11  1  0.719392  0.002656  0.255266  1
  O  O12  1  0.228939  0.986083  0.518639  1
  O  O13  1  0.771061  0.986083  0.481361  1
  O  O14  1  0.018174  0.230860  0.767914  1
  O  O15  1  0.775994  0.019283  0.020026  1
  O  O16  1  0.232977  0.468435  0.001227  1
  O  O17  1  0.527679  0.230840  0.259432  1
  O  O18  1  0.468613  0.770883  0.760531  1
  O  O19  1  0.231982  0.529484  0.494156  1
  O  O20  1  0.767023  0.468435  0.998773  1
  O  O21  1  0.768018  0.529484  0.505844  1
  O  O22  1  0.472321  0.230840  0.740568  1
  O  O23  1  0.531387  0.770883  0.239469  1
  O  O24  1  0.981826  0.230860  0.232086  1
  O  O25  1  0.224006  0.019283  0.979974  1
  O  O26  1  0.983701  0.774016  0.272616  1
  O  O27  1  0.016299  0.774016  0.727384  1
