# generated using pymatgen
data_Er6Sc4In8Ir3Rh
_symmetry_space_group_name_H-M   'P 1'
_cell_length_a   3.52567900
_cell_length_b   7.88171798
_cell_length_c   17.90626324
_cell_angle_alpha   89.94275478
_cell_angle_beta   90.00000000
_cell_angle_gamma   90.00000000
_symmetry_Int_Tables_number   1
_chemical_formula_structural   Er6Sc4In8Ir3Rh
_chemical_formula_sum   'Er6 Sc4 In8 Ir3 Rh1'
_cell_volume   497.58629261
_cell_formula_units_Z   1
loop_
 _symmetry_equiv_pos_site_id
 _symmetry_equiv_pos_as_xyz
  1  'x, y, z'
loop_
 _atom_site_type_symbol
 _atom_site_label
 _atom_site_symmetry_multiplicity
 _atom_site_fract_x
 _atom_site_fract_y
 _atom_site_fract_z
 _atom_site_occupancy
  Er  Er0  1  0.000000  0.999743  0.999948  1
  Er  Er1  1  0.000000  0.499818  0.500153  1
  Er  Er2  1  0.000000  0.748839  0.781930  1
  Er  Er3  1  0.000000  0.250406  0.218210  1
  Er  Er4  1  0.000000  0.248780  0.718033  1
  Er  Er5  1  0.000000  0.752358  0.282250  1
  Sc  Sc6  1  0.000000  0.877539  0.588633  1
  Sc  Sc7  1  0.000000  0.122459  0.411377  1
  Sc  Sc8  1  0.000000  0.377387  0.911330  1
  Sc  Sc9  1  0.000000  0.622495  0.088669  1
  In  In10  1  0.500000  0.808561  0.438404  1
  In  In11  1  0.500000  0.191206  0.561451  1
  In  In12  1  0.500000  0.309015  0.061670  1
  In  In13  1  0.500000  0.691052  0.938599  1
  In  In14  1  0.500000  0.925537  0.149280  1
  In  In15  1  0.500000  0.074374  0.850711  1
  In  In16  1  0.500000  0.425849  0.350504  1
  In  In17  1  0.500000  0.574390  0.649265  1
  Ir  Ir18  1  0.500000  0.963307  0.693047  1
  Ir  Ir19  1  0.500000  0.036350  0.306716  1
  Ir  Ir20  1  0.500000  0.463524  0.807027  1
  Rh  Rh21  1  0.500000  0.537009  0.192792  1
