# generated using pymatgen
data_U4Ga4SiTc7As
_symmetry_space_group_name_H-M   'P 1'
_cell_length_a   7.20399403
_cell_length_b   7.20399440
_cell_length_c   7.21521366
_cell_angle_alpha   109.15181405
_cell_angle_beta   109.64911635
_cell_angle_gamma   109.55028373
_symmetry_Int_Tables_number   1
_chemical_formula_structural   U4Ga4SiTc7As
_chemical_formula_sum   'U4 Ga4 Si1 Tc7 As1'
_cell_volume   288.47049486
_cell_formula_units_Z   1
loop_
 _symmetry_equiv_pos_site_id
 _symmetry_equiv_pos_as_xyz
  1  'x, y, z'
loop_
 _atom_site_type_symbol
 _atom_site_label
 _atom_site_symmetry_multiplicity
 _atom_site_fract_x
 _atom_site_fract_y
 _atom_site_fract_z
 _atom_site_occupancy
  U  U0  1  0.482368  0.477717  0.480099  1
  U  U1  1  0.003046  0.505072  0.001209  1
  U  U2  1  0.496137  0.998164  0.001209  1
  U  U3  1  0.002382  0.997731  0.480099  1
  Ga  Ga4  1  0.707623  0.992391  0.700014  1
  Ga  Ga5  1  0.686167  0.686680  0.985385  1
  Ga  Ga6  1  0.298704  0.299217  0.985385  1
  Ga  Ga7  1  0.992159  0.708769  0.700927  1
  Si  Si8  1  0.324108  0.995197  0.319305  1
  Tc  Tc9  1  0.497378  0.748165  0.245543  1
  Tc  Tc10  1  0.747924  0.250926  0.500579  1
  Tc  Tc11  1  0.249653  0.752655  0.500579  1
  Tc  Tc12  1  0.244098  0.503332  0.747430  1
  Tc  Tc13  1  0.027541  0.019605  0.047146  1
  Tc  Tc14  1  0.500854  0.244894  0.745748  1
  Tc  Tc15  1  0.745757  0.501732  0.247488  1
  As  As16  1  0.994099  0.317752  0.311851  1
