# generated using pymatgen
data_Nd2MgCd3(Cu8Ni)2
_symmetry_space_group_name_H-M   'P 1'
_cell_length_a   5.05439600
_cell_length_b   5.05439744
_cell_length_c   16.05975600
_cell_angle_alpha   90.00000000
_cell_angle_beta   90.00000000
_cell_angle_gamma   119.99999057
_symmetry_Int_Tables_number   1
_chemical_formula_structural   Nd2MgCd3(Cu8Ni)2
_chemical_formula_sum   'Nd2 Mg1 Cd3 Cu16 Ni2'
_cell_volume   355.31068597
_cell_formula_units_Z   1
loop_
 _symmetry_equiv_pos_site_id
 _symmetry_equiv_pos_as_xyz
  1  'x, y, z'
loop_
 _atom_site_type_symbol
 _atom_site_label
 _atom_site_symmetry_multiplicity
 _atom_site_fract_x
 _atom_site_fract_y
 _atom_site_fract_z
 _atom_site_occupancy
  Nd  Nd0  1  0.666667  0.333333  0.250454  1
  Nd  Nd1  1  0.333333  0.666667  0.751725  1
  Mg  Mg2  1  0.333333  0.666667  0.530521  1
  Cd  Cd3  1  0.666667  0.333333  0.466652  1
  Cd  Cd4  1  0.333333  0.666667  0.966329  1
  Cd  Cd5  1  0.666667  0.333333  0.034511  1
  Cu  Cu6  1  0.169017  0.830983  0.377155  1
  Cu  Cu7  1  0.169017  0.338033  0.377155  1
  Cu  Cu8  1  0.000000  0.000000  0.749221  1
  Cu  Cu9  1  0.000000  0.000000  0.250558  1
  Cu  Cu10  1  0.000000  0.000000  0.000443  1
  Cu  Cu11  1  0.000000  0.000000  0.499783  1
  Cu  Cu12  1  0.168548  0.337094  0.124187  1
  Cu  Cu13  1  0.831271  0.168729  0.622284  1
  Cu  Cu14  1  0.337456  0.168729  0.622284  1
  Cu  Cu15  1  0.662906  0.831452  0.124187  1
  Cu  Cu16  1  0.168548  0.831452  0.124187  1
  Cu  Cu17  1  0.831416  0.662833  0.876368  1
  Cu  Cu18  1  0.831416  0.168584  0.876368  1
  Cu  Cu19  1  0.831271  0.662544  0.622284  1
  Cu  Cu20  1  0.337167  0.168584  0.876368  1
  Cu  Cu21  1  0.661967  0.830983  0.377155  1
  Ni  Ni22  1  0.333333  0.666667  0.250750  1
  Ni  Ni23  1  0.666667  0.333333  0.749070  1
