# generated using pymatgen
data_Ho2Lu4TcIr
_symmetry_space_group_name_H-M   'P 1'
_cell_length_a   6.23032400
_cell_length_b   7.26879300
_cell_length_c   8.96188100
_cell_angle_alpha   90.00000000
_cell_angle_beta   90.00000000
_cell_angle_gamma   90.00000000
_symmetry_Int_Tables_number   1
_chemical_formula_structural   Ho2Lu4TcIr
_chemical_formula_sum   'Ho4 Lu8 Tc2 Ir2'
_cell_volume   405.85612662
_cell_formula_units_Z   2
loop_
 _symmetry_equiv_pos_site_id
 _symmetry_equiv_pos_as_xyz
  1  'x, y, z'
loop_
 _atom_site_type_symbol
 _atom_site_label
 _atom_site_symmetry_multiplicity
 _atom_site_fract_x
 _atom_site_fract_y
 _atom_site_fract_z
 _atom_site_occupancy
  Ho  Ho0  1  0.875016  0.537982  0.250000  1
  Ho  Ho1  1  0.624984  0.037982  0.250000  1
  Ho  Ho2  1  0.132694  0.460509  0.750000  1
  Ho  Ho3  1  0.367306  0.960509  0.750000  1
  Lu  Lu4  1  0.329879  0.676578  0.065638  1
  Lu  Lu5  1  0.170121  0.176578  0.434362  1
  Lu  Lu6  1  0.667394  0.323778  0.560488  1
  Lu  Lu7  1  0.832606  0.823778  0.939512  1
  Lu  Lu8  1  0.667394  0.323778  0.939512  1
  Lu  Lu9  1  0.832606  0.823778  0.560488  1
  Lu  Lu10  1  0.329879  0.676578  0.434362  1
  Lu  Lu11  1  0.170121  0.176578  0.065638  1
  Tc  Tc12  1  0.036824  0.886114  0.250000  1
  Tc  Tc13  1  0.463176  0.386114  0.250000  1
  Ir  Ir14  1  0.953062  0.114683  0.750000  1
  Ir  Ir15  1  0.546938  0.614683  0.750000  1
