# generated using pymatgen
data_Zr4Al2Mo5Os
_symmetry_space_group_name_H-M   'P 1'
_cell_length_a   5.26472800
_cell_length_b   5.28178992
_cell_length_c   8.91473200
_cell_angle_alpha   90.00000000
_cell_angle_beta   90.00000000
_cell_angle_gamma   119.89319900
_symmetry_Int_Tables_number   1
_chemical_formula_structural   Zr4Al2Mo5Os
_chemical_formula_sum   'Zr4 Al2 Mo5 Os1'
_cell_volume   214.91284153
_cell_formula_units_Z   1
loop_
 _symmetry_equiv_pos_site_id
 _symmetry_equiv_pos_as_xyz
  1  'x, y, z'
loop_
 _atom_site_type_symbol
 _atom_site_label
 _atom_site_symmetry_multiplicity
 _atom_site_fract_x
 _atom_site_fract_y
 _atom_site_fract_z
 _atom_site_occupancy
  Zr  Zr0  1  0.332444  0.664888  0.439317  1
  Zr  Zr1  1  0.666609  0.333217  0.931160  1
  Zr  Zr2  1  0.666609  0.333217  0.568840  1
  Zr  Zr3  1  0.332444  0.664888  0.060683  1
  Al  Al4  1  0.001541  0.003082  0.997552  1
  Al  Al5  1  0.001541  0.003082  0.502448  1
  Mo  Mo6  1  0.830119  0.171125  0.250000  1
  Mo  Mo7  1  0.341006  0.171125  0.250000  1
  Mo  Mo8  1  0.657804  0.829270  0.750000  1
  Mo  Mo9  1  0.830678  0.661357  0.250000  1
  Mo  Mo10  1  0.171466  0.829270  0.750000  1
  Os  Os11  1  0.167740  0.335478  0.750000  1
