# generated using pymatgen
data_Er12Fe4NiBi
_symmetry_space_group_name_H-M   'P 1'
_cell_length_a   8.24862741
_cell_length_b   8.24863369
_cell_length_c   8.24862820
_cell_angle_alpha   111.26626686
_cell_angle_beta   110.80207648
_cell_angle_gamma   106.38892054
_symmetry_Int_Tables_number   1
_chemical_formula_structural   Er12Fe4NiBi
_chemical_formula_sum   'Er12 Fe4 Ni1 Bi1'
_cell_volume   431.10095346
_cell_formula_units_Z   1
loop_
 _symmetry_equiv_pos_site_id
 _symmetry_equiv_pos_as_xyz
  1  'x, y, z'
loop_
 _atom_site_type_symbol
 _atom_site_label
 _atom_site_symmetry_multiplicity
 _atom_site_fract_x
 _atom_site_fract_y
 _atom_site_fract_z
 _atom_site_occupancy
  Er  Er0  1  0.285240  0.184751  0.469990  1
  Er  Er1  1  0.714760  0.815249  0.530010  1
  Er  Er2  1  0.285239  0.815249  0.100489  1
  Er  Er3  1  0.714761  0.184751  0.899511  1
  Er  Er4  1  0.616068  0.309787  0.306282  1
  Er  Er5  1  0.383932  0.690213  0.693718  1
  Er  Er6  1  0.003506  0.309787  0.693719  1
  Er  Er7  1  0.996494  0.690213  0.306281  1
  Er  Er8  1  0.210269  0.408346  0.198076  1
  Er  Er9  1  0.789731  0.591654  0.801924  1
  Er  Er10  1  0.210268  0.012191  0.801925  1
  Er  Er11  1  0.789732  0.987809  0.198075  1
  Fe  Fe12  1  0.999998  0.383639  0.383641  1
  Fe  Fe13  1  0.000002  0.616361  0.616359  1
  Fe  Fe14  1  0.392851  0.892848  0.499998  1
  Fe  Fe15  1  0.607149  0.107152  0.500002  1
  Ni  Ni16  1  0.000000  0.000000  0.000000  1
  Bi  Bi17  1  0.500000  0.500000  0.000000  1
