# generated using pymatgen
data_Th2Ga(AsRh2)6
_symmetry_space_group_name_H-M   'P 1'
_cell_length_a   10.05184100
_cell_length_b   10.05184154
_cell_length_c   3.99556900
_cell_angle_alpha   90.00000000
_cell_angle_beta   90.00000000
_cell_angle_gamma   120.00000150
_symmetry_Int_Tables_number   1
_chemical_formula_structural   Th2Ga(AsRh2)6
_chemical_formula_sum   'Th2 Ga1 As6 Rh12'
_cell_volume   349.62340989
_cell_formula_units_Z   1
loop_
 _symmetry_equiv_pos_site_id
 _symmetry_equiv_pos_as_xyz
  1  'x, y, z'
loop_
 _atom_site_type_symbol
 _atom_site_label
 _atom_site_symmetry_multiplicity
 _atom_site_fract_x
 _atom_site_fract_y
 _atom_site_fract_z
 _atom_site_occupancy
  Th  Th0  1  0.333333  0.666667  0.752865  1
  Th  Th1  1  0.000000  0.000000  0.254837  1
  Ga  Ga2  1  0.666667  0.333333  0.527211  1
  As  As3  1  0.953280  0.221661  0.753563  1
  As  As4  1  0.778339  0.731619  0.753563  1
  As  As5  1  0.268381  0.046720  0.753563  1
  As  As6  1  0.379486  0.444153  0.254034  1
  As  As7  1  0.555847  0.935333  0.254034  1
  As  As8  1  0.064667  0.620514  0.254034  1
  Rh  Rh9  1  0.736091  0.951868  0.754594  1
  Rh  Rh10  1  0.048132  0.784223  0.754594  1
  Rh  Rh11  1  0.215777  0.263909  0.754594  1
  Rh  Rh12  1  0.597397  0.714861  0.252876  1
  Rh  Rh13  1  0.285139  0.882538  0.252876  1
  Rh  Rh14  1  0.117462  0.402603  0.252876  1
  Rh  Rh15  1  0.941648  0.457517  0.754482  1
  Rh  Rh16  1  0.542483  0.484132  0.754482  1
  Rh  Rh17  1  0.515868  0.058352  0.754482  1
  Rh  Rh18  1  0.395234  0.210213  0.253541  1
  Rh  Rh19  1  0.789787  0.185021  0.253541  1
  Rh  Rh20  1  0.814979  0.604766  0.253541  1
