# generated using pymatgen
data_Dy4Er(SnSb)2
_symmetry_space_group_name_H-M   'P 1'
_cell_length_a   8.71547738
_cell_length_b   8.71547816
_cell_length_c   8.13484500
_cell_angle_alpha   90.00000000
_cell_angle_beta   90.00000000
_cell_angle_gamma   124.72364420
_symmetry_Int_Tables_number   1
_chemical_formula_structural   Dy4Er(SnSb)2
_chemical_formula_sum   'Dy8 Er2 Sn4 Sb4'
_cell_volume   507.87337118
_cell_formula_units_Z   2
loop_
 _symmetry_equiv_pos_site_id
 _symmetry_equiv_pos_as_xyz
  1  'x, y, z'
loop_
 _atom_site_type_symbol
 _atom_site_label
 _atom_site_symmetry_multiplicity
 _atom_site_fract_x
 _atom_site_fract_y
 _atom_site_fract_z
 _atom_site_occupancy
  Dy  Dy0  1  0.030109  0.301833  0.335881  1
  Dy  Dy1  1  0.969891  0.698167  0.664119  1
  Dy  Dy2  1  0.469891  0.198167  0.835881  1
  Dy  Dy3  1  0.801833  0.530109  0.164119  1
  Dy  Dy4  1  0.530109  0.801833  0.164119  1
  Dy  Dy5  1  0.198167  0.469891  0.835881  1
  Dy  Dy6  1  0.698167  0.969891  0.664119  1
  Dy  Dy7  1  0.301833  0.030109  0.335881  1
  Er  Er8  1  0.000000  0.000000  0.000000  1
  Er  Er9  1  0.500000  0.500000  0.500000  1
  Sn  Sn10  1  0.363669  0.363669  0.136149  1
  Sn  Sn11  1  0.636331  0.636331  0.863851  1
  Sn  Sn12  1  0.136331  0.136331  0.636149  1
  Sn  Sn13  1  0.863669  0.863669  0.363851  1
  Sb  Sb14  1  0.797855  0.202145  0.000000  1
  Sb  Sb15  1  0.202145  0.797855  0.000000  1
  Sb  Sb16  1  0.702145  0.297855  0.500000  1
  Sb  Sb17  1  0.297855  0.702145  0.500000  1
