# generated using pymatgen
data_Tm4CuSi7Tc6
_symmetry_space_group_name_H-M   'P 1'
_cell_length_a   6.77217223
_cell_length_b   6.61782004
_cell_length_c   6.81724582
_cell_angle_alpha   70.81313895
_cell_angle_beta   90.84282413
_cell_angle_gamma   90.07738666
_symmetry_Int_Tables_number   1
_chemical_formula_structural   Tm4CuSi7Tc6
_chemical_formula_sum   'Tm4 Cu1 Si7 Tc6'
_cell_volume   288.52386324
_cell_formula_units_Z   1
loop_
 _symmetry_equiv_pos_site_id
 _symmetry_equiv_pos_as_xyz
  1  'x, y, z'
loop_
 _atom_site_type_symbol
 _atom_site_label
 _atom_site_symmetry_multiplicity
 _atom_site_fract_x
 _atom_site_fract_y
 _atom_site_fract_z
 _atom_site_occupancy
  Tm  Tm0  1  0.334579  0.559601  0.808818  1
  Tm  Tm1  1  0.831557  0.943975  0.190773  1
  Tm  Tm2  1  0.665654  0.443889  0.190536  1
  Tm  Tm3  1  0.174197  0.052315  0.810294  1
  Cu  Cu4  1  0.547872  0.867757  0.913056  1
  Si  Si5  1  0.045651  0.624385  0.096933  1
  Si  Si6  1  0.452468  0.117957  0.095154  1
  Si  Si7  1  0.954089  0.374970  0.898600  1
  Si  Si8  1  0.138989  0.870570  0.492740  1
  Si  Si9  1  0.637621  0.635854  0.508581  1
  Si  Si10  1  0.857273  0.133883  0.516315  1
  Si  Si11  1  0.360042  0.364994  0.492867  1
  Tc  Tc12  1  0.505869  0.007881  0.487132  1
  Tc  Tc13  1  0.996525  0.494459  0.499006  1
  Tc  Tc14  1  0.852100  0.755290  0.750943  1
  Tc  Tc15  1  0.333472  0.739801  0.255613  1
  Tc  Tc16  1  0.159041  0.245287  0.233473  1
  Tc  Tc17  1  0.652999  0.267132  0.759165  1
