# generated using pymatgen
data_Er16Al4Ni3Ir
_symmetry_space_group_name_H-M   'P 1'
_cell_length_a   9.36258885
_cell_length_b   9.37006118
_cell_length_c   9.36350100
_cell_angle_alpha   60.02520841
_cell_angle_beta   59.99874199
_cell_angle_gamma   60.02280963
_symmetry_Int_Tables_number   1
_chemical_formula_structural   Er16Al4Ni3Ir
_chemical_formula_sum   'Er16 Al4 Ni3 Ir1'
_cell_volume   581.05202379
_cell_formula_units_Z   1
loop_
 _symmetry_equiv_pos_site_id
 _symmetry_equiv_pos_as_xyz
  1  'x, y, z'
loop_
 _atom_site_type_symbol
 _atom_site_label
 _atom_site_symmetry_multiplicity
 _atom_site_fract_x
 _atom_site_fract_y
 _atom_site_fract_z
 _atom_site_occupancy
  Er  Er0  1  0.063757  0.065147  0.435551  1
  Er  Er1  1  0.649081  0.052311  0.649199  1
  Er  Er2  1  0.191536  0.807583  0.191319  1
  Er  Er3  1  0.435481  0.065200  0.435517  1
  Er  Er4  1  0.193622  0.189188  0.808616  1
  Er  Er5  1  0.646697  0.651852  0.646690  1
  Er  Er6  1  0.054852  0.651815  0.646543  1
  Er  Er7  1  0.435510  0.065156  0.063816  1
  Er  Er8  1  0.646493  0.651712  0.055063  1
  Er  Er9  1  0.191577  0.807576  0.809601  1
  Er  Er10  1  0.808556  0.189276  0.808576  1
  Er  Er11  1  0.808538  0.189325  0.193616  1
  Er  Er12  1  0.809564  0.807548  0.191517  1
  Er  Er13  1  0.062216  0.435886  0.439707  1
  Er  Er14  1  0.439684  0.435890  0.062225  1
  Er  Er15  1  0.062160  0.435942  0.062159  1
  Al  Al16  1  0.732873  0.421333  0.422957  1
  Al  Al17  1  0.422872  0.421332  0.732954  1
  Al  Al18  1  0.422049  0.733864  0.422099  1
  Al  Al19  1  0.422826  0.421315  0.422935  1
  Ni  Ni20  1  0.857473  0.857169  0.857522  1
  Ni  Ni21  1  0.427915  0.857055  0.857533  1
  Ni  Ni22  1  0.857671  0.857573  0.427171  1
  Ir  Ir23  1  0.856997  0.428945  0.857115  1
