# generated using pymatgen
data_PrB2IrRu
_symmetry_space_group_name_H-M   'P 1'
_cell_length_a   6.95882979
_cell_length_b   6.07371071
_cell_length_c   5.61706899
_cell_angle_alpha   72.94139074
_cell_angle_beta   56.55416772
_cell_angle_gamma   50.50443903
_symmetry_Int_Tables_number   1
_chemical_formula_structural   PrB2IrRu
_chemical_formula_sum   'Pr2 B4 Ir2 Ru2'
_cell_volume   152.26218038
_cell_formula_units_Z   2
loop_
 _symmetry_equiv_pos_site_id
 _symmetry_equiv_pos_as_xyz
  1  'x, y, z'
loop_
 _atom_site_type_symbol
 _atom_site_label
 _atom_site_symmetry_multiplicity
 _atom_site_fract_x
 _atom_site_fract_y
 _atom_site_fract_z
 _atom_site_occupancy
  Pr  Pr0  1  0.500000  0.500000  0.500000  1
  Pr  Pr1  1  0.750000  0.750000  0.750000  1
  B  B2  1  0.175664  0.824336  0.175664  1
  B  B3  1  0.068103  0.431897  0.068103  1
  B  B4  1  0.824336  0.175664  0.824336  1
  B  B5  1  0.431897  0.068103  0.431897  1
  Ir  Ir6  1  0.383892  0.383892  0.116108  1
  Ir  Ir7  1  0.116108  0.116108  0.383892  1
  Ru  Ru8  1  0.865434  0.865434  0.134566  1
  Ru  Ru9  1  0.134566  0.134566  0.865434  1
