# generated using pymatgen
data_Ac2Ho(MgIr)3
_symmetry_space_group_name_H-M   'P 1'
_cell_length_a   7.54105456
_cell_length_b   7.48480023
_cell_length_c   4.24363000
_cell_angle_alpha   90.00000000
_cell_angle_beta   90.00000000
_cell_angle_gamma   119.75351789
_symmetry_Int_Tables_number   1
_chemical_formula_structural   Ac2Ho(MgIr)3
_chemical_formula_sum   'Ac2 Ho1 Mg3 Ir3'
_cell_volume   207.94752431
_cell_formula_units_Z   1
loop_
 _symmetry_equiv_pos_site_id
 _symmetry_equiv_pos_as_xyz
  1  'x, y, z'
loop_
 _atom_site_type_symbol
 _atom_site_label
 _atom_site_symmetry_multiplicity
 _atom_site_fract_x
 _atom_site_fract_y
 _atom_site_fract_z
 _atom_site_occupancy
  Ac  Ac0  1  0.584020  0.583049  0.000000  1
  Ac  Ac1  1  0.415980  0.999029  0.000000  1
  Ho  Ho2  1  0.000000  0.406114  0.000000  1
  Mg  Mg3  1  0.000000  0.754373  0.500000  1
  Mg  Mg4  1  0.226199  0.239397  0.500000  1
  Mg  Mg5  1  0.773801  0.013198  0.500000  1
  Ir  Ir6  1  0.000000  0.010261  0.000000  1
  Ir  Ir7  1  0.688332  0.341454  0.500000  1
  Ir  Ir8  1  0.311668  0.653124  0.500000  1
