# generated using pymatgen
data_Pr2Th2Zn10SnGe
_symmetry_space_group_name_H-M   'P 1'
_cell_length_a   8.51319853
_cell_length_b   8.51319862
_cell_length_c   9.03005000
_cell_angle_alpha   90.00000000
_cell_angle_beta   90.00000000
_cell_angle_gamma   149.57969158
_symmetry_Int_Tables_number   1
_chemical_formula_structural   Pr2Th2Zn10SnGe
_chemical_formula_sum   'Pr2 Th2 Zn10 Sn1 Ge1'
_cell_volume   331.37325013
_cell_formula_units_Z   1
loop_
 _symmetry_equiv_pos_site_id
 _symmetry_equiv_pos_as_xyz
  1  'x, y, z'
loop_
 _atom_site_type_symbol
 _atom_site_label
 _atom_site_symmetry_multiplicity
 _atom_site_fract_x
 _atom_site_fract_y
 _atom_site_fract_z
 _atom_site_occupancy
  Pr  Pr0  1  0.000673  0.999327  0.487942  1
  Pr  Pr1  1  0.000673  0.999327  0.012058  1
  Th  Th2  1  0.202033  0.797967  0.250000  1
  Th  Th3  1  0.795516  0.204484  0.750000  1
  Zn  Zn4  1  0.814179  0.185821  0.390903  1
  Zn  Zn5  1  0.184915  0.815085  0.607359  1
  Zn  Zn6  1  0.814179  0.185821  0.109097  1
  Zn  Zn7  1  0.184915  0.815085  0.892641  1
  Zn  Zn8  1  0.654017  0.345983  0.477833  1
  Zn  Zn9  1  0.342590  0.657410  0.515878  1
  Zn  Zn10  1  0.654017  0.345983  0.022167  1
  Zn  Zn11  1  0.342590  0.657410  0.984122  1
  Zn  Zn12  1  0.401283  0.598717  0.250000  1
  Zn  Zn13  1  0.605487  0.394513  0.750000  1
  Sn  Sn14  1  0.445402  0.554598  0.750000  1
  Ge  Ge15  1  0.557529  0.442471  0.250000  1
