# generated using pymatgen
data_Tb3Fe(Co4P3)2
_symmetry_space_group_name_H-M   'P 1'
_cell_length_a   3.70192500
_cell_length_b   10.52855900
_cell_length_c   12.19522700
_cell_angle_alpha   90.00000000
_cell_angle_beta   90.00000000
_cell_angle_gamma   90.00000000
_symmetry_Int_Tables_number   1
_chemical_formula_structural   Tb3Fe(Co4P3)2
_chemical_formula_sum   'Tb6 Fe2 Co16 P12'
_cell_volume   475.32038433
_cell_formula_units_Z   2
loop_
 _symmetry_equiv_pos_site_id
 _symmetry_equiv_pos_as_xyz
  1  'x, y, z'
loop_
 _atom_site_type_symbol
 _atom_site_label
 _atom_site_symmetry_multiplicity
 _atom_site_fract_x
 _atom_site_fract_y
 _atom_site_fract_z
 _atom_site_occupancy
  Tb  Tb0  1  0.000000  0.500000  0.522055  1
  Tb  Tb1  1  0.500000  0.000000  0.477945  1
  Tb  Tb2  1  0.500000  0.817596  0.205073  1
  Tb  Tb3  1  0.500000  0.182404  0.205073  1
  Tb  Tb4  1  0.000000  0.682404  0.794927  1
  Tb  Tb5  1  0.000000  0.317596  0.794927  1
  Fe  Fe6  1  0.500000  0.500000  0.157322  1
  Fe  Fe7  1  0.000000  0.000000  0.842678  1
  Co  Co8  1  0.500000  0.500000  0.702432  1
  Co  Co9  1  0.000000  0.000000  0.297568  1
  Co  Co10  1  0.000000  0.500000  0.986488  1
  Co  Co11  1  0.500000  0.000000  0.013512  1
  Co  Co12  1  0.500000  0.333067  0.994518  1
  Co  Co13  1  0.500000  0.666933  0.994518  1
  Co  Co14  1  0.000000  0.166933  0.005482  1
  Co  Co15  1  0.000000  0.833067  0.005482  1
  Co  Co16  1  0.500000  0.296940  0.430653  1
  Co  Co17  1  0.500000  0.703060  0.430653  1
  Co  Co18  1  0.000000  0.203060  0.569347  1
  Co  Co19  1  0.000000  0.796940  0.569347  1
  Co  Co20  1  0.500000  0.879317  0.709179  1
  Co  Co21  1  0.500000  0.120683  0.709179  1
  Co  Co22  1  0.000000  0.620683  0.290821  1
  Co  Co23  1  0.000000  0.379317  0.290821  1
  P  P24  1  0.500000  0.500000  0.882919  1
  P  P25  1  0.000000  0.000000  0.117081  1
  P  P26  1  0.500000  0.500000  0.342595  1
  P  P27  1  0.000000  0.000000  0.657405  1
  P  P28  1  0.500000  0.309709  0.615824  1
  P  P29  1  0.500000  0.690291  0.615824  1
  P  P30  1  0.000000  0.190291  0.384176  1
  P  P31  1  0.000000  0.809709  0.384176  1
  P  P32  1  0.500000  0.847773  0.892982  1
  P  P33  1  0.500000  0.152227  0.892982  1
  P  P34  1  0.000000  0.652227  0.107018  1
  P  P35  1  0.000000  0.347773  0.107018  1
