# generated using pymatgen
data_Sc4Ga3Sb
_symmetry_space_group_name_H-M   'P 1'
_cell_length_a   5.93797700
_cell_length_b   8.79859875
_cell_length_c   9.35446275
_cell_angle_alpha   89.77680622
_cell_angle_beta   90.00000000
_cell_angle_gamma   90.00000000
_symmetry_Int_Tables_number   1
_chemical_formula_structural   Sc4Ga3Sb
_chemical_formula_sum   'Sc12 Ga9 Sb3'
_cell_volume   488.72840198
_cell_formula_units_Z   3
loop_
 _symmetry_equiv_pos_site_id
 _symmetry_equiv_pos_as_xyz
  1  'x, y, z'
loop_
 _atom_site_type_symbol
 _atom_site_label
 _atom_site_symmetry_multiplicity
 _atom_site_fract_x
 _atom_site_fract_y
 _atom_site_fract_z
 _atom_site_occupancy
  Sc  Sc0  1  0.003034  0.742693  0.124873  1
  Sc  Sc1  1  0.496912  0.254400  0.879350  1
  Sc  Sc2  1  0.003088  0.254400  0.879350  1
  Sc  Sc3  1  0.496966  0.742693  0.124873  1
  Sc  Sc4  1  0.750000  0.475094  0.607858  1
  Sc  Sc5  1  0.250000  0.522847  0.382100  1
  Sc  Sc6  1  0.750000  0.974776  0.396248  1
  Sc  Sc7  1  0.250000  0.026763  0.606278  1
  Sc  Sc8  1  0.750000  0.372986  0.201728  1
  Sc  Sc9  1  0.250000  0.624424  0.800999  1
  Sc  Sc10  1  0.750000  0.871570  0.796140  1
  Sc  Sc11  1  0.250000  0.136250  0.199291  1
  Ga  Ga12  1  0.004369  0.748167  0.561964  1
  Ga  Ga13  1  0.502291  0.251755  0.437291  1
  Ga  Ga14  1  0.997709  0.251755  0.437291  1
  Ga  Ga15  1  0.495631  0.748167  0.561964  1
  Ga  Ga16  1  0.250000  0.442830  0.087524  1
  Ga  Ga17  1  0.750000  0.141450  0.649720  1
  Ga  Ga18  1  0.250000  0.863399  0.352275  1
  Ga  Ga19  1  0.750000  0.640437  0.354792  1
  Ga  Ga20  1  0.250000  0.361544  0.645100  1
  Sb  Sb21  1  0.750000  0.054026  0.091269  1
  Sb  Sb22  1  0.250000  0.942826  0.909664  1
  Sb  Sb23  1  0.750000  0.554745  0.912055  1
