# generated using pymatgen
data_Ba4Dy7NpSe16
_symmetry_space_group_name_H-M   'P 1'
_cell_length_a   4.21153100
_cell_length_b   12.82806426
_cell_length_c   15.17887474
_cell_angle_alpha   89.75122014
_cell_angle_beta   90.00000000
_cell_angle_gamma   90.00000000
_symmetry_Int_Tables_number   1
_chemical_formula_structural   Ba4Dy7NpSe16
_chemical_formula_sum   'Ba4 Dy7 Np1 Se16'
_cell_volume   820.04297328
_cell_formula_units_Z   1
loop_
 _symmetry_equiv_pos_site_id
 _symmetry_equiv_pos_as_xyz
  1  'x, y, z'
loop_
 _atom_site_type_symbol
 _atom_site_label
 _atom_site_symmetry_multiplicity
 _atom_site_fract_x
 _atom_site_fract_y
 _atom_site_fract_z
 _atom_site_occupancy
  Ba  Ba0  1  0.250000  0.759306  0.336817  1
  Ba  Ba1  1  0.250000  0.256052  0.161757  1
  Ba  Ba2  1  0.750000  0.242600  0.663304  1
  Ba  Ba3  1  0.750000  0.743087  0.836395  1
  Dy  Dy4  1  0.250000  0.933835  0.109166  1
  Dy  Dy5  1  0.750000  0.566464  0.610628  1
  Dy  Dy6  1  0.750000  0.065954  0.890649  1
  Dy  Dy7  1  0.250000  0.420854  0.900001  1
  Dy  Dy8  1  0.250000  0.921408  0.600045  1
  Dy  Dy9  1  0.750000  0.579567  0.098648  1
  Dy  Dy10  1  0.750000  0.078065  0.400043  1
  Np  Np11  1  0.250000  0.432211  0.390960  1
  Se  Se12  1  0.250000  0.207191  0.835105  1
  Se  Se13  1  0.250000  0.707608  0.665179  1
  Se  Se14  1  0.750000  0.792534  0.165229  1
  Se  Se15  1  0.750000  0.290551  0.332673  1
  Se  Se16  1  0.250000  0.127010  0.523867  1
  Se  Se17  1  0.250000  0.626223  0.975109  1
  Se  Se18  1  0.750000  0.873406  0.475725  1
  Se  Se19  1  0.750000  0.374145  0.024560  1
  Se  Se20  1  0.250000  0.524557  0.215742  1
  Se  Se21  1  0.250000  0.023734  0.283149  1
  Se  Se22  1  0.750000  0.476321  0.783898  1
  Se  Se23  1  0.750000  0.976070  0.716558  1
  Se  Se24  1  0.250000  0.417748  0.580969  1
  Se  Se25  1  0.250000  0.916766  0.923020  1
  Se  Se26  1  0.750000  0.583942  0.423899  1
  Se  Se27  1  0.750000  0.082792  0.076902  1
