# generated using pymatgen
data_Y2Tm3IrPt2
_symmetry_space_group_name_H-M   'P 1'
_cell_length_a   10.98497900
_cell_length_b   10.98497900
_cell_length_c   6.34140400
_cell_angle_alpha   90.00000000
_cell_angle_beta   90.00000000
_cell_angle_gamma   90.00000000
_symmetry_Int_Tables_number   1
_chemical_formula_structural   Y2Tm3IrPt2
_chemical_formula_sum   'Y8 Tm12 Ir4 Pt8'
_cell_volume   765.21572177
_cell_formula_units_Z   4
loop_
 _symmetry_equiv_pos_site_id
 _symmetry_equiv_pos_as_xyz
  1  'x, y, z'
loop_
 _atom_site_type_symbol
 _atom_site_label
 _atom_site_symmetry_multiplicity
 _atom_site_fract_x
 _atom_site_fract_y
 _atom_site_fract_z
 _atom_site_occupancy
  Y  Y0  1  0.293544  0.088212  0.372784  1
  Y  Y1  1  0.293544  0.911788  0.872784  1
  Y  Y2  1  0.706456  0.088212  0.872784  1
  Y  Y3  1  0.706456  0.911788  0.372784  1
  Y  Y4  1  0.588212  0.793544  0.872784  1
  Y  Y5  1  0.588212  0.206456  0.372784  1
  Y  Y6  1  0.411788  0.793544  0.372784  1
  Y  Y7  1  0.411788  0.206456  0.872784  1
  Tm  Tm8  1  0.203385  0.414278  0.624707  1
  Tm  Tm9  1  0.203385  0.585722  0.124707  1
  Tm  Tm10  1  0.796615  0.414278  0.124707  1
  Tm  Tm11  1  0.796615  0.585722  0.624707  1
  Tm  Tm12  1  0.914278  0.703385  0.124707  1
  Tm  Tm13  1  0.914278  0.296615  0.624707  1
  Tm  Tm14  1  0.085722  0.703385  0.624707  1
  Tm  Tm15  1  0.085722  0.296615  0.124707  1
  Tm  Tm16  1  0.000000  0.000000  0.502456  1
  Tm  Tm17  1  0.000000  0.000000  0.002456  1
  Tm  Tm18  1  0.500000  0.500000  0.002456  1
  Tm  Tm19  1  0.500000  0.500000  0.502456  1
  Ir  Ir20  1  0.500000  0.000000  0.118826  1
  Ir  Ir21  1  0.500000  0.000000  0.618826  1
  Ir  Ir22  1  0.000000  0.500000  0.879764  1
  Ir  Ir23  1  0.000000  0.500000  0.379764  1
  Pt  Pt24  1  0.851122  0.156089  0.251633  1
  Pt  Pt25  1  0.851122  0.843911  0.751633  1
  Pt  Pt26  1  0.148878  0.156089  0.751633  1
  Pt  Pt27  1  0.148878  0.843911  0.251633  1
  Pt  Pt28  1  0.656089  0.351122  0.751633  1
  Pt  Pt29  1  0.656089  0.648878  0.251633  1
  Pt  Pt30  1  0.343911  0.351122  0.251633  1
  Pt  Pt31  1  0.343911  0.648878  0.751633  1
