# generated using pymatgen
data_BaHoIO6
_symmetry_space_group_name_H-M   'P 1'
_cell_length_a   5.66661300
_cell_length_b   5.66661428
_cell_length_c   5.63519100
_cell_angle_alpha   90.00000000
_cell_angle_beta   90.00000000
_cell_angle_gamma   119.99999837
_symmetry_Int_Tables_number   1
_chemical_formula_structural   BaHoIO6
_chemical_formula_sum   'Ba1 Ho1 I1 O6'
_cell_volume   156.70631018
_cell_formula_units_Z   1
loop_
 _symmetry_equiv_pos_site_id
 _symmetry_equiv_pos_as_xyz
  1  'x, y, z'
loop_
 _atom_site_type_symbol
 _atom_site_label
 _atom_site_symmetry_multiplicity
 _atom_site_fract_x
 _atom_site_fract_y
 _atom_site_fract_z
 _atom_site_occupancy
  Ba  Ba0  1  0.666667  0.333334  0.000000  1
  Ho  Ho1  1  0.333333  0.666666  0.499999  1
  I  I2  1  0.000000  0.000000  0.499999  1
  O  O3  1  0.023175  0.287721  0.305502  1
  O  O4  1  0.712278  0.735453  0.305502  1
  O  O5  1  0.264547  0.976826  0.305502  1
  O  O6  1  0.264546  0.287721  0.694498  1
  O  O7  1  0.023175  0.735453  0.694498  1
  O  O8  1  0.712279  0.976826  0.694498  1
