# generated using pymatgen
data_Ho3Sn2Hg3
_symmetry_space_group_name_H-M   'P 1'
_cell_length_a   6.29882353
_cell_length_b   6.29882366
_cell_length_c   10.38301100
_cell_angle_alpha   90.00000000
_cell_angle_beta   90.00000000
_cell_angle_gamma   100.37744119
_symmetry_Int_Tables_number   1
_chemical_formula_structural   Ho3Sn2Hg3
_chemical_formula_sum   'Ho6 Sn4 Hg6'
_cell_volume   405.20936822
_cell_formula_units_Z   2
loop_
 _symmetry_equiv_pos_site_id
 _symmetry_equiv_pos_as_xyz
  1  'x, y, z'
loop_
 _atom_site_type_symbol
 _atom_site_label
 _atom_site_symmetry_multiplicity
 _atom_site_fract_x
 _atom_site_fract_y
 _atom_site_fract_z
 _atom_site_occupancy
  Ho  Ho0  1  0.624957  0.624957  0.250000  1
  Ho  Ho1  1  0.375043  0.375043  0.750000  1
  Ho  Ho2  1  0.200153  0.799847  0.500000  1
  Ho  Ho3  1  0.200153  0.799847  0.000000  1
  Ho  Ho4  1  0.799847  0.200153  0.500000  1
  Ho  Ho5  1  0.799847  0.200153  0.000000  1
  Sn  Sn6  1  0.310948  0.310948  0.044304  1
  Sn  Sn7  1  0.689052  0.689052  0.955696  1
  Sn  Sn8  1  0.310948  0.310948  0.455696  1
  Sn  Sn9  1  0.689052  0.689052  0.544304  1
  Hg  Hg10  1  0.007993  0.007993  0.250000  1
  Hg  Hg11  1  0.992007  0.992007  0.750000  1
  Hg  Hg12  1  0.514397  0.074952  0.250000  1
  Hg  Hg13  1  0.925048  0.485603  0.750000  1
  Hg  Hg14  1  0.485603  0.925048  0.750000  1
  Hg  Hg15  1  0.074952  0.514397  0.250000  1
