# generated using pymatgen
data_Na2LiCrB28
_symmetry_space_group_name_H-M   'P 1'
_cell_length_a   7.21171826
_cell_length_b   7.21171900
_cell_length_c   7.21383911
_cell_angle_alpha   132.20297922
_cell_angle_beta   110.70448940
_cell_angle_gamma   88.53256307
_symmetry_Int_Tables_number   1
_chemical_formula_structural   Na2LiCrB28
_chemical_formula_sum   'Na2 Li1 Cr1 B28'
_cell_volume   247.52225905
_cell_formula_units_Z   1
loop_
 _symmetry_equiv_pos_site_id
 _symmetry_equiv_pos_as_xyz
  1  'x, y, z'
loop_
 _atom_site_type_symbol
 _atom_site_label
 _atom_site_symmetry_multiplicity
 _atom_site_fract_x
 _atom_site_fract_y
 _atom_site_fract_z
 _atom_site_occupancy
  Na  Na0  1  0.597498  0.249697  0.347195  1
  Na  Na1  1  0.402502  0.750303  0.652805  1
  Li  Li2  1  0.000000  0.500000  0.000000  1
  Cr  Cr3  1  0.000000  0.000000  0.500000  1
  B  B4  1  0.633424  0.663101  0.963812  1
  B  B5  1  0.366576  0.336899  0.036188  1
  B  B6  1  0.199289  0.169612  0.036188  1
  B  B7  1  0.800711  0.830388  0.963812  1
  B  B8  1  0.773336  0.148803  0.622996  1
  B  B9  1  0.226664  0.851197  0.377004  1
  B  B10  1  0.025808  0.650340  0.377004  1
  B  B11  1  0.974192  0.349660  0.622996  1
  B  B12  1  0.921436  0.087807  0.832531  1
  B  B13  1  0.078564  0.912193  0.167469  1
  B  B14  1  0.755277  0.588905  0.167469  1
  B  B15  1  0.244723  0.411095  0.832531  1
  B  B16  1  0.396376  0.399394  0.676377  1
  B  B17  1  0.603728  0.280446  0.004763  1
  B  B18  1  0.224317  0.901035  0.004763  1
  B  B19  1  0.776983  0.780002  0.676377  1
  B  B20  1  0.603624  0.600606  0.323623  1
  B  B21  1  0.396272  0.719554  0.995237  1
  B  B22  1  0.775683  0.098965  0.995237  1
  B  B23  1  0.223017  0.219998  0.323623  1
  B  B24  1  0.035413  0.836203  0.710649  1
  B  B25  1  0.962712  0.666366  0.792253  1
  B  B26  1  0.625887  0.329541  0.792253  1
  B  B27  1  0.374446  0.175236  0.710649  1
  B  B28  1  0.964587  0.163797  0.289351  1
  B  B29  1  0.037288  0.333634  0.207747  1
  B  B30  1  0.374113  0.670459  0.207747  1
  B  B31  1  0.625554  0.824764  0.289351  1
