# generated using pymatgen
data_MnBi(SeO3)3
_symmetry_space_group_name_H-M   'P 1'
_cell_length_a   7.74751800
_cell_length_b   8.88265200
_cell_length_c   12.93207900
_cell_angle_alpha   90.00000000
_cell_angle_beta   90.00000000
_cell_angle_gamma   90.00000000
_symmetry_Int_Tables_number   1
_chemical_formula_structural   MnBi(SeO3)3
_chemical_formula_sum   'Mn4 Bi4 Se12 O36'
_cell_volume   889.96635959
_cell_formula_units_Z   4
loop_
 _symmetry_equiv_pos_site_id
 _symmetry_equiv_pos_as_xyz
  1  'x, y, z'
loop_
 _atom_site_type_symbol
 _atom_site_label
 _atom_site_symmetry_multiplicity
 _atom_site_fract_x
 _atom_site_fract_y
 _atom_site_fract_z
 _atom_site_occupancy
  Mn  Mn0  1  0.751454  0.280430  0.328687  1
  Mn  Mn1  1  0.748546  0.719570  0.828687  1
  Mn  Mn2  1  0.251454  0.219570  0.671313  1
  Mn  Mn3  1  0.248546  0.780430  0.171313  1
  Bi  Bi4  1  0.781303  0.708288  0.529158  1
  Bi  Bi5  1  0.718697  0.291712  0.029158  1
  Bi  Bi6  1  0.281303  0.791712  0.470842  1
  Bi  Bi7  1  0.218697  0.208288  0.970842  1
  Se  Se8  1  0.432568  0.545236  0.670414  1
  Se  Se9  1  0.067432  0.454764  0.170414  1
  Se  Se10  1  0.932568  0.954764  0.329586  1
  Se  Se11  1  0.567432  0.045236  0.829586  1
  Se  Se12  1  0.576252  0.599865  0.275532  1
  Se  Se13  1  0.923748  0.400135  0.775532  1
  Se  Se14  1  0.076252  0.900135  0.724468  1
  Se  Se15  1  0.423748  0.099865  0.224468  1
  Se  Se16  1  0.581108  0.085550  0.540831  1
  Se  Se17  1  0.918892  0.914450  0.040831  1
  Se  Se18  1  0.081108  0.414450  0.459169  1
  Se  Se19  1  0.418892  0.585550  0.959169  1
  O  O20  1  0.454373  0.349590  0.667772  1
  O  O21  1  0.045627  0.650410  0.167772  1
  O  O22  1  0.954373  0.150410  0.332228  1
  O  O23  1  0.545627  0.849590  0.832228  1
  O  O24  1  0.643915  0.587952  0.701898  1
  O  O25  1  0.856085  0.412048  0.201898  1
  O  O26  1  0.143915  0.912048  0.298102  1
  O  O27  1  0.356085  0.087952  0.798102  1
  O  O28  1  0.448860  0.594947  0.539245  1
  O  O29  1  0.051140  0.405053  0.039245  1
  O  O30  1  0.948860  0.905053  0.460755  1
  O  O31  1  0.551140  0.094947  0.960755  1
  O  O32  1  0.687819  0.706345  0.364657  1
  O  O33  1  0.812181  0.293655  0.864657  1
  O  O34  1  0.187819  0.793655  0.635343  1
  O  O35  1  0.312181  0.206345  0.135343  1
  O  O36  1  0.364262  0.662903  0.299645  1
  O  O37  1  0.135738  0.337097  0.799645  1
  O  O38  1  0.864262  0.837097  0.700355  1
  O  O39  1  0.635738  0.162903  0.200355  1
  O  O40  1  0.558348  0.421088  0.331594  1
  O  O41  1  0.941652  0.578912  0.831594  1
  O  O42  1  0.058348  0.078912  0.668406  1
  O  O43  1  0.441652  0.921088  0.168406  1
  O  O44  1  0.572055  0.886693  0.543090  1
  O  O45  1  0.927945  0.113307  0.043090  1
  O  O46  1  0.072055  0.613307  0.456910  1
  O  O47  1  0.427945  0.386693  0.956910  1
  O  O48  1  0.358069  0.104239  0.551325  1
  O  O49  1  0.141931  0.895761  0.051325  1
  O  O50  1  0.858069  0.395761  0.448675  1
  O  O51  1  0.641931  0.604239  0.948675  1
  O  O52  1  0.611582  0.114023  0.412253  1
  O  O53  1  0.888418  0.885977  0.912253  1
  O  O54  1  0.111582  0.385977  0.587747  1
  O  O55  1  0.388418  0.614023  0.087747  1
