# generated using pymatgen
data_Er6Co14Ni3P12Ru
_symmetry_space_group_name_H-M   'P 1'
_cell_length_a   3.71573400
_cell_length_b   10.49692900
_cell_length_c   12.22401000
_cell_angle_alpha   90.00000000
_cell_angle_beta   90.00000000
_cell_angle_gamma   90.00000000
_symmetry_Int_Tables_number   1
_chemical_formula_structural   Er6Co14Ni3P12Ru
_chemical_formula_sum   'Er6 Co14 Ni3 P12 Ru1'
_cell_volume   476.78279211
_cell_formula_units_Z   1
loop_
 _symmetry_equiv_pos_site_id
 _symmetry_equiv_pos_as_xyz
  1  'x, y, z'
loop_
 _atom_site_type_symbol
 _atom_site_label
 _atom_site_symmetry_multiplicity
 _atom_site_fract_x
 _atom_site_fract_y
 _atom_site_fract_z
 _atom_site_occupancy
  Er  Er0  1  0.750000  0.250000  0.477026  1
  Er  Er1  1  0.250000  0.750000  0.521148  1
  Er  Er2  1  0.250000  0.934487  0.792711  1
  Er  Er3  1  0.250000  0.565513  0.792711  1
  Er  Er4  1  0.750000  0.065651  0.206559  1
  Er  Er5  1  0.750000  0.434349  0.206559  1
  Co  Co6  1  0.750000  0.250000  0.013274  1
  Co  Co7  1  0.250000  0.750000  0.983471  1
  Co  Co8  1  0.250000  0.417655  0.008390  1
  Co  Co9  1  0.250000  0.082345  0.008390  1
  Co  Co10  1  0.750000  0.584132  0.994919  1
  Co  Co11  1  0.750000  0.915868  0.994919  1
  Co  Co12  1  0.250000  0.450392  0.569888  1
  Co  Co13  1  0.250000  0.049608  0.569888  1
  Co  Co14  1  0.750000  0.548941  0.431038  1
  Co  Co15  1  0.750000  0.951059  0.431038  1
  Co  Co16  1  0.250000  0.870655  0.289637  1
  Co  Co17  1  0.250000  0.629345  0.289637  1
  Co  Co18  1  0.750000  0.128827  0.708948  1
  Co  Co19  1  0.750000  0.371173  0.708948  1
  Ni  Ni20  1  0.750000  0.750000  0.161624  1
  Ni  Ni21  1  0.250000  0.250000  0.297503  1
  Ni  Ni22  1  0.750000  0.750000  0.703026  1
  P  P23  1  0.250000  0.250000  0.118439  1
  P  P24  1  0.750000  0.750000  0.882234  1
  P  P25  1  0.250000  0.250000  0.649715  1
  P  P26  1  0.750000  0.750000  0.347223  1
  P  P27  1  0.250000  0.439644  0.384332  1
  P  P28  1  0.250000  0.060356  0.384332  1
  P  P29  1  0.750000  0.560834  0.615100  1
  P  P30  1  0.750000  0.939166  0.615100  1
  P  P31  1  0.250000  0.902299  0.106483  1
  P  P32  1  0.250000  0.597701  0.106483  1
  P  P33  1  0.750000  0.094343  0.894374  1
  P  P34  1  0.750000  0.405657  0.894374  1
  Ru  Ru35  1  0.250000  0.250000  0.840563  1
