# generated using pymatgen
data_LiYH6Os
_symmetry_space_group_name_H-M   'P 1'
_cell_length_a   4.87526036
_cell_length_b   4.87525751
_cell_length_c   4.87525300
_cell_angle_alpha   59.99999457
_cell_angle_beta   59.99996899
_cell_angle_gamma   59.99993679
_symmetry_Int_Tables_number   1
_chemical_formula_structural   LiYH6Os
_chemical_formula_sum   'Li1 Y1 H6 Os1'
_cell_volume   81.93646191
_cell_formula_units_Z   1
loop_
 _symmetry_equiv_pos_site_id
 _symmetry_equiv_pos_as_xyz
  1  'x, y, z'
loop_
 _atom_site_type_symbol
 _atom_site_label
 _atom_site_symmetry_multiplicity
 _atom_site_fract_x
 _atom_site_fract_y
 _atom_site_fract_z
 _atom_site_occupancy
  Li  Li0  1  0.750002  0.750001  0.750001  1
  Y  Y1  1  0.249999  0.250001  0.250000  1
  H  H2  1  0.751151  0.751151  0.248850  1
  H  H3  1  0.751150  0.248850  0.248848  1
  H  H4  1  0.248847  0.751152  0.248849  1
  H  H5  1  0.248848  0.751151  0.751151  1
  H  H6  1  0.248848  0.248849  0.751151  1
  H  H7  1  0.751151  0.248849  0.751151  1
  Os  Os8  1  0.000000  0.999999  0.999999  1
