# generated using pymatgen
data_Tb8SnHg3Pd8
_symmetry_space_group_name_H-M   'P 1'
_cell_length_a   7.76161000
_cell_length_b   7.76161000
_cell_length_c   7.40983600
_cell_angle_alpha   90.00000000
_cell_angle_beta   90.00000000
_cell_angle_gamma   90.00000000
_symmetry_Int_Tables_number   1
_chemical_formula_structural   Tb8SnHg3Pd8
_chemical_formula_sum   'Tb8 Sn1 Hg3 Pd8'
_cell_volume   446.38771057
_cell_formula_units_Z   1
loop_
 _symmetry_equiv_pos_site_id
 _symmetry_equiv_pos_as_xyz
  1  'x, y, z'
loop_
 _atom_site_type_symbol
 _atom_site_label
 _atom_site_symmetry_multiplicity
 _atom_site_fract_x
 _atom_site_fract_y
 _atom_site_fract_z
 _atom_site_occupancy
  Tb  Tb0  1  0.834297  0.173427  0.500081  1
  Tb  Tb1  1  0.165703  0.826573  0.500081  1
  Tb  Tb2  1  0.326573  0.334297  0.999919  1
  Tb  Tb3  1  0.673427  0.665703  0.999919  1
  Tb  Tb4  1  0.680203  0.673645  0.500243  1
  Tb  Tb5  1  0.319797  0.326355  0.500243  1
  Tb  Tb6  1  0.173645  0.819797  0.999757  1
  Tb  Tb7  1  0.826355  0.180203  0.999757  1
  Sn  Sn8  1  0.000000  0.500000  0.250000  1
  Hg  Hg9  1  0.500000  0.000000  0.250000  1
  Hg  Hg10  1  0.000000  0.500000  0.750000  1
  Hg  Hg11  1  0.500000  0.000000  0.750000  1
  Pd  Pd12  1  0.626918  0.372855  0.258119  1
  Pd  Pd13  1  0.373082  0.627145  0.258119  1
  Pd  Pd14  1  0.131389  0.123296  0.758137  1
  Pd  Pd15  1  0.868611  0.876704  0.758137  1
  Pd  Pd16  1  0.376704  0.631389  0.741863  1
  Pd  Pd17  1  0.623296  0.368611  0.741863  1
  Pd  Pd18  1  0.872855  0.873082  0.241881  1
  Pd  Pd19  1  0.127145  0.126918  0.241881  1
