# generated using pymatgen
data_CeY3MgOs
_symmetry_space_group_name_H-M   'P 1'
_cell_length_a   9.73661704
_cell_length_b   9.73661629
_cell_length_c   9.73661800
_cell_angle_alpha   60.00000097
_cell_angle_beta   60.00000352
_cell_angle_gamma   60.00000176
_symmetry_Int_Tables_number   1
_chemical_formula_structural   CeY3MgOs
_chemical_formula_sum   'Ce4 Y12 Mg4 Os4'
_cell_volume   652.69351516
_cell_formula_units_Z   4
loop_
 _symmetry_equiv_pos_site_id
 _symmetry_equiv_pos_as_xyz
  1  'x, y, z'
loop_
 _atom_site_type_symbol
 _atom_site_label
 _atom_site_symmetry_multiplicity
 _atom_site_fract_x
 _atom_site_fract_y
 _atom_site_fract_z
 _atom_site_occupancy
  Ce  Ce0  1  0.344035  0.344035  0.344035  1
  Ce  Ce1  1  0.344035  0.344035  0.967896  1
  Ce  Ce2  1  0.344035  0.967896  0.344035  1
  Ce  Ce3  1  0.967896  0.344035  0.344035  1
  Y  Y4  1  0.812184  0.187816  0.187816  1
  Y  Y5  1  0.187816  0.812184  0.812184  1
  Y  Y6  1  0.187816  0.812184  0.187816  1
  Y  Y7  1  0.812184  0.187816  0.812184  1
  Y  Y8  1  0.187816  0.187816  0.812184  1
  Y  Y9  1  0.812184  0.812184  0.187816  1
  Y  Y10  1  0.939527  0.560473  0.560473  1
  Y  Y11  1  0.560473  0.939527  0.939527  1
  Y  Y12  1  0.560473  0.939527  0.560473  1
  Y  Y13  1  0.939527  0.560473  0.939527  1
  Y  Y14  1  0.560473  0.560473  0.939527  1
  Y  Y15  1  0.939527  0.939527  0.560473  1
  Mg  Mg16  1  0.579567  0.579567  0.579567  1
  Mg  Mg17  1  0.579567  0.579567  0.261299  1
  Mg  Mg18  1  0.579567  0.261299  0.579567  1
  Mg  Mg19  1  0.261299  0.579567  0.579567  1
  Os  Os20  1  0.144067  0.144067  0.144067  1
  Os  Os21  1  0.144067  0.144067  0.567799  1
  Os  Os22  1  0.144067  0.567799  0.144067  1
  Os  Os23  1  0.567799  0.144067  0.144067  1
