# generated using pymatgen
data_Th3Mn2(CuSi2)2
_symmetry_space_group_name_H-M   'P 1'
_cell_length_a   4.06972233
_cell_length_b   4.05880559
_cell_length_c   12.58257413
_cell_angle_alpha   99.28158469
_cell_angle_beta   99.30678524
_cell_angle_gamma   90.00001423
_symmetry_Int_Tables_number   1
_chemical_formula_structural   Th3Mn2(CuSi2)2
_chemical_formula_sum   'Th3 Mn2 Cu2 Si4'
_cell_volume   202.34778062
_cell_formula_units_Z   1
loop_
 _symmetry_equiv_pos_site_id
 _symmetry_equiv_pos_as_xyz
  1  'x, y, z'
loop_
 _atom_site_type_symbol
 _atom_site_label
 _atom_site_symmetry_multiplicity
 _atom_site_fract_x
 _atom_site_fract_y
 _atom_site_fract_z
 _atom_site_occupancy
  Th  Th0  1  0.852235  0.352235  0.704472  1
  Th  Th1  1  0.147765  0.647765  0.295528  1
  Th  Th2  1  0.000000  0.000000  0.000000  1
  Mn  Mn3  1  0.249176  0.249176  0.498351  1
  Mn  Mn4  1  0.750824  0.750824  0.501649  1
  Cu  Cu5  1  0.596656  0.096656  0.193312  1
  Cu  Cu6  1  0.403344  0.903344  0.806688  1
  Si  Si7  1  0.450963  0.450963  0.901926  1
  Si  Si8  1  0.549037  0.549037  0.098074  1
  Si  Si9  1  0.696030  0.196030  0.392059  1
  Si  Si10  1  0.303970  0.803970  0.607941  1
