# generated using pymatgen
data_Tm16Ga6FePt
_symmetry_space_group_name_H-M   'P 1'
_cell_length_a   9.91914000
_cell_length_b   9.91913894
_cell_length_c   6.86488700
_cell_angle_alpha   90.00000000
_cell_angle_beta   90.00000000
_cell_angle_gamma   120.00000353
_symmetry_Int_Tables_number   1
_chemical_formula_structural   Tm16Ga6FePt
_chemical_formula_sum   'Tm16 Ga6 Fe1 Pt1'
_cell_volume   584.94091848
_cell_formula_units_Z   1
loop_
 _symmetry_equiv_pos_site_id
 _symmetry_equiv_pos_as_xyz
  1  'x, y, z'
loop_
 _atom_site_type_symbol
 _atom_site_label
 _atom_site_symmetry_multiplicity
 _atom_site_fract_x
 _atom_site_fract_y
 _atom_site_fract_z
 _atom_site_occupancy
  Tm  Tm0  1  0.172727  0.827273  0.991300  1
  Tm  Tm1  1  0.339911  0.169955  0.488302  1
  Tm  Tm2  1  0.830045  0.660089  0.488302  1
  Tm  Tm3  1  0.172727  0.345452  0.991300  1
  Tm  Tm4  1  0.654548  0.827273  0.991300  1
  Tm  Tm5  1  0.830045  0.169955  0.488302  1
  Tm  Tm6  1  0.333333  0.666667  0.670095  1
  Tm  Tm7  1  0.666667  0.333333  0.158758  1
  Tm  Tm8  1  0.462047  0.537953  0.292520  1
  Tm  Tm9  1  0.938153  0.469077  0.796820  1
  Tm  Tm10  1  0.530923  0.061847  0.796820  1
  Tm  Tm11  1  0.462047  0.924092  0.292520  1
  Tm  Tm12  1  0.075908  0.537953  0.292520  1
  Tm  Tm13  1  0.530923  0.469077  0.796820  1
  Tm  Tm14  1  0.000000  0.000000  0.264095  1
  Tm  Tm15  1  0.000000  0.000000  0.767123  1
  Ga  Ga16  1  0.163566  0.836434  0.541798  1
  Ga  Ga17  1  0.326918  0.163459  0.041035  1
  Ga  Ga18  1  0.836541  0.673082  0.041035  1
  Ga  Ga19  1  0.163566  0.327130  0.541798  1
  Ga  Ga20  1  0.672870  0.836434  0.541798  1
  Ga  Ga21  1  0.836541  0.163459  0.041035  1
  Fe  Fe22  1  0.333333  0.666667  0.052334  1
  Pt  Pt23  1  0.666667  0.333333  0.556275  1
