# generated using pymatgen
data_Ta12ReOs5W6
_symmetry_space_group_name_H-M   'P 1'
_cell_length_a   4.52320400
_cell_length_b   6.42582800
_cell_length_c   13.72774600
_cell_angle_alpha   90.00000000
_cell_angle_beta   89.99977748
_cell_angle_gamma   90.00000000
_symmetry_Int_Tables_number   1
_chemical_formula_structural   Ta12ReOs5W6
_chemical_formula_sum   'Ta12 Re1 Os5 W6'
_cell_volume   399.00148018
_cell_formula_units_Z   1
loop_
 _symmetry_equiv_pos_site_id
 _symmetry_equiv_pos_as_xyz
  1  'x, y, z'
loop_
 _atom_site_type_symbol
 _atom_site_label
 _atom_site_symmetry_multiplicity
 _atom_site_fract_x
 _atom_site_fract_y
 _atom_site_fract_z
 _atom_site_occupancy
  Ta  Ta0  1  0.500000  0.248789  0.000000  1
  Ta  Ta1  1  0.500000  0.751211  0.000000  1
  Ta  Ta2  1  0.999997  0.249694  0.166257  1
  Ta  Ta3  1  0.999997  0.750307  0.166257  1
  Ta  Ta4  1  0.499998  0.250213  0.333509  1
  Ta  Ta5  1  0.499998  0.749786  0.333509  1
  Ta  Ta6  1  0.000000  0.250208  0.500000  1
  Ta  Ta7  1  0.000000  0.749793  0.500000  1
  Ta  Ta8  1  0.500003  0.250213  0.666490  1
  Ta  Ta9  1  0.500003  0.749786  0.666490  1
  Ta  Ta10  1  0.000003  0.249694  0.833743  1
  Ta  Ta11  1  0.000003  0.750307  0.833743  1
  Re  Re12  1  0.000000  0.000000  0.000000  1
  Os  Os13  1  0.499998  0.500000  0.166867  1
  Os  Os14  1  0.999998  0.000000  0.333962  1
  Os  Os15  1  0.500000  0.500000  0.500000  1
  Os  Os16  1  0.000002  0.000000  0.666039  1
  Os  Os17  1  0.500003  0.500000  0.833133  1
  W  W18  1  0.000000  0.500000  0.000000  1
  W  W19  1  0.499995  0.000000  0.167530  1
  W  W20  1  0.999999  0.500000  0.333420  1
  W  W21  1  0.500000  0.000000  0.500000  1
  W  W22  1  0.000001  0.500000  0.666580  1
  W  W23  1  0.500003  0.000000  0.832470  1
