# generated using pymatgen
data_Ba4Sr(SnAs3)2
_symmetry_space_group_name_H-M   'P 1'
_cell_length_a   4.42041000
_cell_length_b   13.09450900
_cell_length_c   14.97802200
_cell_angle_alpha   90.00000000
_cell_angle_beta   90.00000000
_cell_angle_gamma   90.00000000
_symmetry_Int_Tables_number   1
_chemical_formula_structural   Ba4Sr(SnAs3)2
_chemical_formula_sum   'Ba8 Sr2 Sn4 As12'
_cell_volume   866.97432319
_cell_formula_units_Z   2
loop_
 _symmetry_equiv_pos_site_id
 _symmetry_equiv_pos_as_xyz
  1  'x, y, z'
loop_
 _atom_site_type_symbol
 _atom_site_label
 _atom_site_symmetry_multiplicity
 _atom_site_fract_x
 _atom_site_fract_y
 _atom_site_fract_z
 _atom_site_occupancy
  Ba  Ba0  1  0.000000  0.621307  0.257757  1
  Ba  Ba1  1  0.000000  0.378693  0.742243  1
  Ba  Ba2  1  0.000000  0.121307  0.242243  1
  Ba  Ba3  1  0.000000  0.878693  0.757757  1
  Ba  Ba4  1  0.000000  0.867757  0.433368  1
  Ba  Ba5  1  0.000000  0.132243  0.566632  1
  Ba  Ba6  1  0.000000  0.367757  0.066632  1
  Ba  Ba7  1  0.000000  0.632243  0.933368  1
  Sr  Sr8  1  0.000000  0.500000  0.500000  1
  Sr  Sr9  1  0.000000  0.000000  0.000000  1
  Sn  Sn10  1  0.500000  0.786366  0.101696  1
  Sn  Sn11  1  0.500000  0.213634  0.898304  1
  Sn  Sn12  1  0.500000  0.286366  0.398304  1
  Sn  Sn13  1  0.500000  0.713634  0.601696  1
  As  As14  1  0.500000  0.582524  0.099671  1
  As  As15  1  0.500000  0.417476  0.900329  1
  As  As16  1  0.500000  0.082524  0.400329  1
  As  As17  1  0.500000  0.917476  0.599671  1
  As  As18  1  0.500000  0.663982  0.429075  1
  As  As19  1  0.500000  0.336018  0.570925  1
  As  As20  1  0.500000  0.163982  0.070925  1
  As  As21  1  0.500000  0.836018  0.929075  1
  As  As22  1  0.000000  0.866381  0.186892  1
  As  As23  1  0.000000  0.133619  0.813108  1
  As  As24  1  0.000000  0.366381  0.313108  1
  As  As25  1  0.000000  0.633619  0.686892  1
