# generated using pymatgen
data_V12Ga6FeCoN4
_symmetry_space_group_name_H-M   'P 1'
_cell_length_a   6.56472895
_cell_length_b   6.54503492
_cell_length_c   6.54766968
_cell_angle_alpha   89.89064665
_cell_angle_beta   90.05317180
_cell_angle_gamma   90.19685550
_symmetry_Int_Tables_number   1
_chemical_formula_structural   V12Ga6FeCoN4
_chemical_formula_sum   'V12 Ga6 Fe1 Co1 N4'
_cell_volume   281.32737238
_cell_formula_units_Z   1
loop_
 _symmetry_equiv_pos_site_id
 _symmetry_equiv_pos_as_xyz
  1  'x, y, z'
loop_
 _atom_site_type_symbol
 _atom_site_label
 _atom_site_symmetry_multiplicity
 _atom_site_fract_x
 _atom_site_fract_y
 _atom_site_fract_z
 _atom_site_occupancy
  V  V0  1  0.794846  0.959366  0.372588  1
  V  V1  1  0.703587  0.040337  0.873127  1
  V  V2  1  0.211867  0.459890  0.122585  1
  V  V3  1  0.288692  0.538055  0.627628  1
  V  V4  1  0.965009  0.373022  0.790494  1
  V  V5  1  0.045723  0.881337  0.709304  1
  V  V6  1  0.455127  0.121998  0.205622  1
  V  V7  1  0.536823  0.625459  0.291723  1
  V  V8  1  0.372441  0.797006  0.962524  1
  V  V9  1  0.875920  0.709922  0.043599  1
  V  V10  1  0.129533  0.205062  0.464714  1
  V  V11  1  0.620171  0.287881  0.544276  1
  Ga  Ga12  1  0.820007  0.320530  0.179587  1
  Ga  Ga13  1  0.680777  0.679541  0.678138  1
  Ga  Ga14  1  0.559623  0.423611  0.927302  1
  Ga  Ga15  1  0.420190  0.930665  0.566228  1
  Ga  Ga16  1  0.943413  0.579380  0.426436  1
  Ga  Ga17  1  0.078277  0.065952  0.071568  1
  Fe  Fe18  1  0.320333  0.172966  0.820697  1
  Co  Co19  1  0.181009  0.824757  0.318930  1
  N  N20  1  0.874665  0.124517  0.624454  1
  N  N21  1  0.623756  0.876021  0.125703  1
  N  N22  1  0.125368  0.628600  0.876831  1
  N  N23  1  0.372844  0.374125  0.375940  1
