# generated using pymatgen
data_Yb5Ag5Au
_symmetry_space_group_name_H-M   'P 1'
_cell_length_a   15.89770900
_cell_length_b   15.89770862
_cell_length_c   4.19145000
_cell_angle_alpha   90.00000000
_cell_angle_beta   90.00000000
_cell_angle_gamma   164.13315737
_symmetry_Int_Tables_number   1
_chemical_formula_structural   Yb5Ag5Au
_chemical_formula_sum   'Yb5 Ag5 Au1'
_cell_volume   289.62498144
_cell_formula_units_Z   1
loop_
 _symmetry_equiv_pos_site_id
 _symmetry_equiv_pos_as_xyz
  1  'x, y, z'
loop_
 _atom_site_type_symbol
 _atom_site_label
 _atom_site_symmetry_multiplicity
 _atom_site_fract_x
 _atom_site_fract_y
 _atom_site_fract_z
 _atom_site_occupancy
  Yb  Yb0  1  0.999892  0.000108  0.000000  1
  Yb  Yb1  1  0.619615  0.380383  0.000000  1
  Yb  Yb2  1  0.382021  0.617977  0.000000  1
  Yb  Yb3  1  0.799590  0.200408  0.500001  1
  Yb  Yb4  1  0.198860  0.801138  0.500001  1
  Ag  Ag5  1  0.280830  0.719168  0.000000  1
  Ag  Ag6  1  0.901711  0.098288  0.500001  1
  Ag  Ag7  1  0.543621  0.456377  0.500001  1
  Ag  Ag8  1  0.457175  0.542823  0.500001  1
  Ag  Ag9  1  0.098542  0.901457  0.500001  1
  Au  Au10  1  0.718136  0.281862  0.000000  1
