# generated using pymatgen
data_SmDyHo4SbMoO14
_symmetry_space_group_name_H-M   'P 1'
_cell_length_a   6.46711090
_cell_length_b   6.46711013
_cell_length_c   7.53435900
_cell_angle_alpha   90.03015796
_cell_angle_beta   89.96984204
_cell_angle_gamma   109.30172271
_symmetry_Int_Tables_number   1
_chemical_formula_structural   SmDyHo4SbMoO14
_chemical_formula_sum   'Sm1 Dy1 Ho4 Sb1 Mo1 O14'
_cell_volume   297.40113534
_cell_formula_units_Z   1
loop_
 _symmetry_equiv_pos_site_id
 _symmetry_equiv_pos_as_xyz
  1  'x, y, z'
loop_
 _atom_site_type_symbol
 _atom_site_label
 _atom_site_symmetry_multiplicity
 _atom_site_fract_x
 _atom_site_fract_y
 _atom_site_fract_z
 _atom_site_occupancy
  Sm  Sm0  1  0.500000  0.500000  0.000000  1
  Dy  Dy1  1  0.500000  0.500000  0.500000  1
  Ho  Ho2  1  0.532724  0.001037  0.748288  1
  Ho  Ho3  1  0.001037  0.532724  0.251712  1
  Ho  Ho4  1  0.467276  0.998963  0.251712  1
  Ho  Ho5  1  0.998963  0.467276  0.748288  1
  Sb  Sb6  1  0.000000  0.000000  0.000000  1
  Mo  Mo7  1  0.000000  0.000000  0.500000  1
  O  O8  1  0.678974  0.926722  0.470395  1
  O  O9  1  0.926722  0.678974  0.529605  1
  O  O10  1  0.676629  0.928775  0.030582  1
  O  O11  1  0.928775  0.676629  0.969418  1
  O  O12  1  0.321026  0.073278  0.529605  1
  O  O13  1  0.073278  0.321026  0.470395  1
  O  O14  1  0.323371  0.071225  0.969418  1
  O  O15  1  0.071225  0.323371  0.030582  1
  O  O16  1  0.928432  0.071568  0.750970  1
  O  O17  1  0.071568  0.928432  0.249030  1
  O  O18  1  0.366920  0.633080  0.744314  1
  O  O19  1  0.633080  0.366920  0.255686  1
  O  O20  1  0.638978  0.361022  0.744310  1
  O  O21  1  0.361022  0.638978  0.255690  1
