# generated using pymatgen
data_Tb3Dy9ZnGaCo4
_symmetry_space_group_name_H-M   'P 1'
_cell_length_a   8.29195366
_cell_length_b   8.29195347
_cell_length_c   8.29536206
_cell_angle_alpha   106.86241650
_cell_angle_beta   109.45793567
_cell_angle_gamma   112.12041751
_symmetry_Int_Tables_number   1
_chemical_formula_structural   Tb3Dy9ZnGaCo4
_chemical_formula_sum   'Tb3 Dy9 Zn1 Ga1 Co4'
_cell_volume   438.22310778
_cell_formula_units_Z   1
loop_
 _symmetry_equiv_pos_site_id
 _symmetry_equiv_pos_as_xyz
  1  'x, y, z'
loop_
 _atom_site_type_symbol
 _atom_site_label
 _atom_site_symmetry_multiplicity
 _atom_site_fract_x
 _atom_site_fract_y
 _atom_site_fract_z
 _atom_site_occupancy
  Tb  Tb0  1  0.304982  0.263261  0.568240  1
  Tb  Tb1  1  0.695172  0.736702  0.431875  1
  Tb  Tb2  1  0.304850  0.736778  0.041628  1
  Dy  Dy3  1  0.695199  0.263353  0.958552  1
  Dy  Dy4  1  0.187588  0.514723  0.326795  1
  Dy  Dy5  1  0.188063  0.861029  0.673169  1
  Dy  Dy6  1  0.812140  0.485106  0.673169  1
  Dy  Dy7  1  0.812072  0.139207  0.326795  1
  Dy  Dy8  1  0.397806  0.218209  0.179437  1
  Dy  Dy9  1  0.038450  0.218118  0.820505  1
  Dy  Dy10  1  0.961229  0.781630  0.179437  1
  Dy  Dy11  1  0.602388  0.782055  0.820505  1
  Zn  Zn12  1  0.500180  0.499753  0.999932  1
  Ga  Ga13  1  0.500124  0.000118  0.500241  1
  Co  Co14  1  0.165834  0.499988  0.665822  1
  Co  Co15  1  0.834148  0.499881  0.334029  1
  Co  Co16  1  0.999734  0.115070  0.114804  1
  Co  Co17  1  0.000042  0.885021  0.885064  1
