# generated using pymatgen
data_Sr3MnZn2(TeO6)2
_symmetry_space_group_name_H-M   'P 1'
_cell_length_a   11.34563017
_cell_length_b   11.34339514
_cell_length_c   11.34509872
_cell_angle_alpha   109.49927176
_cell_angle_beta   109.50786915
_cell_angle_gamma   109.40466505
_symmetry_Int_Tables_number   1
_chemical_formula_structural   Sr3MnZn2(TeO6)2
_chemical_formula_sum   'Sr12 Mn4 Zn8 Te8 O48'
_cell_volume   1124.00357866
_cell_formula_units_Z   4
loop_
 _symmetry_equiv_pos_site_id
 _symmetry_equiv_pos_as_xyz
  1  'x, y, z'
loop_
 _atom_site_type_symbol
 _atom_site_label
 _atom_site_symmetry_multiplicity
 _atom_site_fract_x
 _atom_site_fract_y
 _atom_site_fract_z
 _atom_site_occupancy
  Sr  Sr0  1  0.375273  0.749820  0.125338  1
  Sr  Sr1  1  0.250066  0.375516  0.125339  1
  Sr  Sr2  1  0.874845  0.624843  0.249689  1
  Sr  Sr3  1  0.375087  0.125087  0.250172  1
  Sr  Sr4  1  0.126571  0.250712  0.376977  1
  Sr  Sr5  1  0.750407  0.126268  0.376977  1
  Sr  Sr6  1  0.875263  0.750167  0.625182  1
  Sr  Sr7  1  0.249918  0.875016  0.625184  1
  Sr  Sr8  1  0.125386  0.375384  0.750771  1
  Sr  Sr9  1  0.624627  0.874627  0.749255  1
  Sr  Sr10  1  0.622959  0.249345  0.872574  1
  Sr  Sr11  1  0.749613  0.623226  0.872571  1
  Mn  Mn12  1  0.750434  0.875246  0.124841  1
  Mn  Mn13  1  0.874405  0.249586  0.124844  1
  Mn  Mn14  1  0.625002  0.375392  0.250726  1
  Mn  Mn15  1  0.125721  0.875338  0.250724  1
  Zn  Zn16  1  0.624834  0.749344  0.375059  1
  Zn  Zn17  1  0.250225  0.625727  0.375048  1
  Zn  Zn18  1  0.374562  0.249133  0.624533  1
  Zn  Zn19  1  0.749977  0.375391  0.624547  1
  Zn  Zn20  1  0.875328  0.125622  0.750476  1
  Zn  Zn21  1  0.375151  0.624855  0.750479  1
  Zn  Zn22  1  0.124414  0.749231  0.874845  1
  Zn  Zn23  1  0.250436  0.125619  0.874849  1
  Te  Te24  1  0.002042  0.001023  0.997953  1
  Te  Te25  1  0.495916  0.996935  0.997952  1
  Te  Te26  1  0.998373  0.499345  0.997879  1
  Te  Te27  1  0.499507  0.498532  0.997881  1
  Te  Te28  1  0.000734  0.001445  0.503589  1
  Te  Te29  1  0.498325  0.500090  0.500532  1
  Te  Te30  1  0.502208  0.000446  0.500542  1
  Te  Te31  1  0.002854  0.502140  0.503582  1
  O  O32  1  0.327826  0.904537  0.016743  1
  O  O33  1  0.188916  0.112207  0.016743  1
  O  O34  1  0.685889  0.664908  0.072039  1
  O  O35  1  0.886159  0.407141  0.072046  1
  O  O36  1  0.978981  0.666439  0.090021  1
  O  O37  1  0.611039  0.423580  0.090019  1
  O  O38  1  0.589960  0.923849  0.110893  1
  O  O39  1  0.020933  0.187045  0.110894  1
  O  O40  1  0.185383  0.575196  0.168776  1
  O  O41  1  0.483399  0.593581  0.168783  1
  O  O42  1  0.572298  0.164810  0.184890  1
  O  O43  1  0.112591  0.020080  0.184889  1
  O  O44  1  0.335930  0.926543  0.314040  1
  O  O45  1  0.478109  0.387491  0.314039  1
  O  O46  1  0.909410  0.021250  0.336158  1
  O  O47  1  0.926744  0.314910  0.336157  1
  O  O48  1  0.577833  0.906458  0.389655  1
  O  O49  1  0.311818  0.483193  0.389653  1
  O  O50  1  0.835961  0.521584  0.409339  1
  O  O51  1  0.073382  0.887759  0.409341  1
  O  O52  1  0.830316  0.814248  0.425929  1
  O  O53  1  0.095623  0.611693  0.425941  1
  O  O54  1  0.595762  0.169961  0.483313  1
  O  O55  1  0.387540  0.313349  0.483313  1
  O  O56  1  0.611105  0.686163  0.517428  1
  O  O57  1  0.406324  0.831274  0.517437  1
  O  O58  1  0.170686  0.187266  0.577823  1
  O  O59  1  0.907128  0.390554  0.577813  1
  O  O60  1  0.925815  0.113702  0.596359  1
  O  O61  1  0.170544  0.482657  0.596354  1
  O  O62  1  0.685523  0.516872  0.610227  1
  O  O63  1  0.424710  0.093352  0.610233  1
  O  O64  1  0.093543  0.982495  0.671385  1
  O  O65  1  0.077841  0.688888  0.671383  1
  O  O66  1  0.518019  0.612496  0.687851  1
  O  O67  1  0.669830  0.075351  0.687848  1
  O  O68  1  0.889215  0.982874  0.811327  1
  O  O69  1  0.422114  0.828453  0.811328  1
  O  O70  1  0.516087  0.404850  0.828043  1
  O  O71  1  0.811958  0.423189  0.828045  1
  O  O72  1  0.983233  0.813297  0.887362  1
  O  O73  1  0.404128  0.074065  0.887360  1
  O  O74  1  0.017488  0.330877  0.906059  1
  O  O75  1  0.388570  0.575183  0.906056  1
  O  O76  1  0.111902  0.593867  0.924831  1
  O  O77  1  0.312927  0.330963  0.924830  1
  O  O78  1  0.663421  0.090142  0.979047  1
  O  O79  1  0.815624  0.888903  0.979044  1
