# generated using pymatgen
data_Li(NdB8)3
_symmetry_space_group_name_H-M   'P 1'
_cell_length_a   7.14637996
_cell_length_b   7.14638158
_cell_length_c   5.86800600
_cell_angle_alpha   90.00000000
_cell_angle_beta   90.00000000
_cell_angle_gamma   109.25810754
_symmetry_Int_Tables_number   1
_chemical_formula_structural   Li(NdB8)3
_chemical_formula_sum   'Li1 Nd3 B24'
_cell_volume   282.91393231
_cell_formula_units_Z   1
loop_
 _symmetry_equiv_pos_site_id
 _symmetry_equiv_pos_as_xyz
  1  'x, y, z'
loop_
 _atom_site_type_symbol
 _atom_site_label
 _atom_site_symmetry_multiplicity
 _atom_site_fract_x
 _atom_site_fract_y
 _atom_site_fract_z
 _atom_site_occupancy
  Li  Li0  1  0.000000  0.000000  0.000000  1
  Nd  Nd1  1  0.751708  0.248292  0.500000  1
  Nd  Nd2  1  0.500000  0.500000  0.000000  1
  Nd  Nd3  1  0.248292  0.751708  0.500000  1
  B  B4  1  0.175392  0.325116  0.649800  1
  B  B5  1  0.924473  0.575213  0.148845  1
  B  B6  1  0.674884  0.824608  0.649800  1
  B  B7  1  0.424787  0.075527  0.148845  1
  B  B8  1  0.175392  0.325116  0.350200  1
  B  B9  1  0.924473  0.575213  0.851155  1
  B  B10  1  0.674884  0.824608  0.350200  1
  B  B11  1  0.424787  0.075527  0.851155  1
  B  B12  1  0.399900  0.399900  0.500000  1
  B  B13  1  0.148568  0.650994  0.000000  1
  B  B14  1  0.899577  0.899577  0.500000  1
  B  B15  1  0.650994  0.148568  0.000000  1
  B  B16  1  0.325116  0.175392  0.649800  1
  B  B17  1  0.075527  0.424787  0.148845  1
  B  B18  1  0.824608  0.674884  0.649800  1
  B  B19  1  0.575213  0.924473  0.148845  1
  B  B20  1  0.100423  0.100423  0.500000  1
  B  B21  1  0.851432  0.349006  0.000000  1
  B  B22  1  0.600100  0.600100  0.500000  1
  B  B23  1  0.349006  0.851432  0.000000  1
  B  B24  1  0.325116  0.175392  0.350200  1
  B  B25  1  0.075527  0.424787  0.851155  1
  B  B26  1  0.824608  0.674884  0.350200  1
  B  B27  1  0.575213  0.924473  0.851155  1
