# generated using pymatgen
data_ErPa3(TaN2)4
_symmetry_space_group_name_H-M   'P 1'
_cell_length_a   3.30181000
_cell_length_b   5.70113092
_cell_length_c   10.96035224
_cell_angle_alpha   90.12667883
_cell_angle_beta   90.00000000
_cell_angle_gamma   90.00000000
_symmetry_Int_Tables_number   1
_chemical_formula_structural   ErPa3(TaN2)4
_chemical_formula_sum   'Er1 Pa3 Ta4 N8'
_cell_volume   206.31772640
_cell_formula_units_Z   1
loop_
 _symmetry_equiv_pos_site_id
 _symmetry_equiv_pos_as_xyz
  1  'x, y, z'
loop_
 _atom_site_type_symbol
 _atom_site_label
 _atom_site_symmetry_multiplicity
 _atom_site_fract_x
 _atom_site_fract_y
 _atom_site_fract_z
 _atom_site_occupancy
  Er  Er0  1  0.250000  0.577925  0.855428  1
  Pa  Pa1  1  0.750000  0.423895  0.138280  1
  Pa  Pa2  1  0.750000  0.921978  0.356858  1
  Pa  Pa3  1  0.250000  0.079728  0.646107  1
  Ta  Ta4  1  0.250000  0.921677  0.098809  1
  Ta  Ta5  1  0.750000  0.071377  0.902292  1
  Ta  Ta6  1  0.750000  0.577526  0.602557  1
  Ta  Ta7  1  0.250000  0.424506  0.399572  1
  N  N8  1  0.250000  0.661926  0.246233  1
  N  N9  1  0.750000  0.335382  0.753662  1
  N  N10  1  0.750000  0.841523  0.745892  1
  N  N11  1  0.250000  0.160444  0.253971  1
  N  N12  1  0.250000  0.759083  0.506919  1
  N  N13  1  0.750000  0.243577  0.495418  1
  N  N14  1  0.750000  0.737162  0.002978  1
  N  N15  1  0.250000  0.262295  0.995025  1
