# generated using pymatgen
data_La5Bi3C
_symmetry_space_group_name_H-M   'P 1'
_cell_length_a   9.65879700
_cell_length_b   9.65879812
_cell_length_c   6.85843300
_cell_angle_alpha   90.00000000
_cell_angle_beta   90.00000000
_cell_angle_gamma   120.00000644
_symmetry_Int_Tables_number   1
_chemical_formula_structural   La5Bi3C
_chemical_formula_sum   'La10 Bi6 C2'
_cell_volume   554.11720046
_cell_formula_units_Z   2
loop_
 _symmetry_equiv_pos_site_id
 _symmetry_equiv_pos_as_xyz
  1  'x, y, z'
loop_
 _atom_site_type_symbol
 _atom_site_label
 _atom_site_symmetry_multiplicity
 _atom_site_fract_x
 _atom_site_fract_y
 _atom_site_fract_z
 _atom_site_occupancy
  La  La0  1  0.666667  0.333333  0.500000  1
  La  La1  1  0.333333  0.666667  0.500000  1
  La  La2  1  0.333333  0.666667  0.000000  1
  La  La3  1  0.666667  0.333333  0.000000  1
  La  La4  1  0.788777  0.788777  0.250000  1
  La  La5  1  0.211223  0.000000  0.250000  1
  La  La6  1  0.000000  0.211223  0.250000  1
  La  La7  1  0.211223  0.211223  0.750000  1
  La  La8  1  0.788777  0.000000  0.750000  1
  La  La9  1  0.000000  0.788777  0.750000  1
  Bi  Bi10  1  0.402478  0.402478  0.250000  1
  Bi  Bi11  1  0.597522  0.000000  0.250000  1
  Bi  Bi12  1  0.000000  0.597522  0.250000  1
  Bi  Bi13  1  0.597522  0.597522  0.750000  1
  Bi  Bi14  1  0.402478  0.000000  0.750000  1
  Bi  Bi15  1  0.000000  0.402478  0.750000  1
  C  C16  1  0.000000  0.000000  0.500000  1
  C  C17  1  0.000000  0.000000  0.000000  1
