# generated using pymatgen
data_CsSi2P6W3O25
_symmetry_space_group_name_H-M   'P 1'
_cell_length_a   8.44980800
_cell_length_b   8.44980853
_cell_length_c   18.30801500
_cell_angle_alpha   90.00000000
_cell_angle_beta   90.00000000
_cell_angle_gamma   119.99999792
_symmetry_Int_Tables_number   1
_chemical_formula_structural   CsSi2P6W3O25
_chemical_formula_sum   'Cs2 Si4 P12 W6 O50'
_cell_volume   1132.05000107
_cell_formula_units_Z   2
loop_
 _symmetry_equiv_pos_site_id
 _symmetry_equiv_pos_as_xyz
  1  'x, y, z'
loop_
 _atom_site_type_symbol
 _atom_site_label
 _atom_site_symmetry_multiplicity
 _atom_site_fract_x
 _atom_site_fract_y
 _atom_site_fract_z
 _atom_site_occupancy
  Cs  Cs0  1  0.666667  0.333333  0.750000  1
  Cs  Cs1  1  0.333333  0.666667  0.250000  1
  Si  Si2  1  0.000000  0.000000  0.587397  1
  Si  Si3  1  0.000000  0.000000  0.412603  1
  Si  Si4  1  0.000000  0.000000  0.912603  1
  Si  Si5  1  0.000000  0.000000  0.087397  1
  P  P6  1  0.331191  0.377371  0.609680  1
  P  P7  1  0.668809  0.622629  0.390320  1
  P  P8  1  0.622629  0.953821  0.609680  1
  P  P9  1  0.331191  0.953821  0.890320  1
  P  P10  1  0.377371  0.046179  0.390320  1
  P  P11  1  0.668809  0.046179  0.109680  1
  P  P12  1  0.046179  0.668809  0.609680  1
  P  P13  1  0.622629  0.668809  0.890320  1
  P  P14  1  0.953821  0.331191  0.390320  1
  P  P15  1  0.377371  0.331191  0.109680  1
  P  P16  1  0.046179  0.377371  0.890320  1
  P  P17  1  0.953821  0.622629  0.109680  1
  W  W18  1  0.666667  0.333333  0.519296  1
  W  W19  1  0.333333  0.666667  0.480704  1
  W  W20  1  0.666667  0.333333  0.980704  1
  W  W21  1  0.333333  0.666667  0.019296  1
  W  W22  1  0.333333  0.666667  0.750000  1
  W  W23  1  0.666667  0.333333  0.250000  1
  O  O24  1  0.252448  0.442152  0.548141  1
  O  O25  1  0.747552  0.557848  0.451859  1
  O  O26  1  0.557848  0.810296  0.548141  1
  O  O27  1  0.252448  0.810296  0.951859  1
  O  O28  1  0.442152  0.189704  0.451859  1
  O  O29  1  0.747552  0.189704  0.048141  1
  O  O30  1  0.189704  0.747552  0.548141  1
  O  O31  1  0.557848  0.747552  0.951859  1
  O  O32  1  0.810296  0.252448  0.451859  1
  O  O33  1  0.442152  0.252448  0.048141  1
  O  O34  1  0.189704  0.442152  0.951859  1
  O  O35  1  0.810296  0.557848  0.048141  1
  O  O36  1  0.341847  0.460611  0.683614  1
  O  O37  1  0.658153  0.539389  0.316386  1
  O  O38  1  0.539389  0.881236  0.683614  1
  O  O39  1  0.341847  0.881236  0.816386  1
  O  O40  1  0.460611  0.118764  0.316386  1
  O  O41  1  0.658153  0.118764  0.183614  1
  O  O42  1  0.118764  0.658153  0.683614  1
  O  O43  1  0.539389  0.658153  0.816386  1
  O  O44  1  0.881236  0.341847  0.316386  1
  O  O45  1  0.460611  0.341847  0.183614  1
  O  O46  1  0.118764  0.460611  0.816386  1
  O  O47  1  0.881236  0.539389  0.183614  1
  O  O48  1  0.000000  0.000000  0.500000  1
  O  O49  1  0.000000  0.000000  0.000000  1
  O  O50  1  0.597063  0.116029  0.588896  1
  O  O51  1  0.402937  0.883971  0.411104  1
  O  O52  1  0.883971  0.481034  0.588896  1
  O  O53  1  0.597063  0.481034  0.911104  1
  O  O54  1  0.116029  0.518966  0.411104  1
  O  O55  1  0.402937  0.518966  0.088896  1
  O  O56  1  0.518966  0.402937  0.588896  1
  O  O57  1  0.883971  0.402937  0.911104  1
  O  O58  1  0.481034  0.597063  0.411104  1
  O  O59  1  0.116029  0.597063  0.088896  1
  O  O60  1  0.518966  0.116029  0.911104  1
  O  O61  1  0.481034  0.883971  0.088896  1
  O  O62  1  0.837558  0.032564  0.618553  1
  O  O63  1  0.162442  0.967436  0.381447  1
  O  O64  1  0.967436  0.804994  0.618553  1
  O  O65  1  0.837558  0.804994  0.881447  1
  O  O66  1  0.032564  0.195006  0.381447  1
  O  O67  1  0.162442  0.195006  0.118553  1
  O  O68  1  0.195006  0.162442  0.618553  1
  O  O69  1  0.967436  0.162442  0.881447  1
  O  O70  1  0.804994  0.837558  0.381447  1
  O  O71  1  0.032564  0.837558  0.118553  1
  O  O72  1  0.195006  0.032564  0.881447  1
  O  O73  1  0.804994  0.967436  0.118553  1
