# generated using pymatgen
data_Tm10Tl6Cl
_symmetry_space_group_name_H-M   'P 1'
_cell_length_a   8.91776400
_cell_length_b   8.91776609
_cell_length_c   6.66335500
_cell_angle_alpha   90.00000000
_cell_angle_beta   90.00000000
_cell_angle_gamma   119.99999968
_symmetry_Int_Tables_number   1
_chemical_formula_structural   Tm10Tl6Cl
_chemical_formula_sum   'Tm10 Tl6 Cl1'
_cell_volume   458.91857480
_cell_formula_units_Z   1
loop_
 _symmetry_equiv_pos_site_id
 _symmetry_equiv_pos_as_xyz
  1  'x, y, z'
loop_
 _atom_site_type_symbol
 _atom_site_label
 _atom_site_symmetry_multiplicity
 _atom_site_fract_x
 _atom_site_fract_y
 _atom_site_fract_z
 _atom_site_occupancy
  Tm  Tm0  1  0.666667  0.333333  0.500000  1
  Tm  Tm1  1  0.333333  0.666667  0.500000  1
  Tm  Tm2  1  0.333333  0.666667  0.000000  1
  Tm  Tm3  1  0.666667  0.333333  0.000000  1
  Tm  Tm4  1  0.751091  0.751091  0.241778  1
  Tm  Tm5  1  0.248909  0.000000  0.241778  1
  Tm  Tm6  1  0.000000  0.248909  0.241778  1
  Tm  Tm7  1  0.248909  0.248909  0.758222  1
  Tm  Tm8  1  0.751091  0.000000  0.758222  1
  Tm  Tm9  1  0.000000  0.751091  0.758222  1
  Tl  Tl10  1  0.397511  0.397511  0.251674  1
  Tl  Tl11  1  0.602489  0.000000  0.251674  1
  Tl  Tl12  1  0.000000  0.602489  0.251674  1
  Tl  Tl13  1  0.602489  0.602489  0.748326  1
  Tl  Tl14  1  0.397511  0.000000  0.748326  1
  Tl  Tl15  1  0.000000  0.397511  0.748326  1
  Cl  Cl16  1  0.000000  0.000000  0.500000  1
