# generated using pymatgen
data_DyTh3Co12(CuB3)2
_symmetry_space_group_name_H-M   'P 1'
_cell_length_a   5.07572100
_cell_length_b   5.07572133
_cell_length_c   12.96798500
_cell_angle_alpha   90.00000000
_cell_angle_beta   90.00000000
_cell_angle_gamma   119.99999132
_symmetry_Int_Tables_number   1
_chemical_formula_structural   DyTh3Co12(CuB3)2
_chemical_formula_sum   'Dy1 Th3 Co12 Cu2 B6'
_cell_volume   289.33347392
_cell_formula_units_Z   1
loop_
 _symmetry_equiv_pos_site_id
 _symmetry_equiv_pos_as_xyz
  1  'x, y, z'
loop_
 _atom_site_type_symbol
 _atom_site_label
 _atom_site_symmetry_multiplicity
 _atom_site_fract_x
 _atom_site_fract_y
 _atom_site_fract_z
 _atom_site_occupancy
  Dy  Dy0  1  0.000000  0.000000  0.500000  1
  Th  Th1  1  0.000000  0.000000  0.260515  1
  Th  Th2  1  0.000000  0.000000  0.000000  1
  Th  Th3  1  0.000000  0.000000  0.739485  1
  Co  Co4  1  0.500000  0.000000  0.614127  1
  Co  Co5  1  0.500000  0.000000  0.840935  1
  Co  Co6  1  0.500000  0.500000  0.840935  1
  Co  Co7  1  0.500000  0.500000  0.385873  1
  Co  Co8  1  0.000000  0.500000  0.614127  1
  Co  Co9  1  0.000000  0.500000  0.159065  1
  Co  Co10  1  0.000000  0.500000  0.840935  1
  Co  Co11  1  0.500000  0.500000  0.159065  1
  Co  Co12  1  0.500000  0.000000  0.385873  1
  Co  Co13  1  0.500000  0.000000  0.159065  1
  Co  Co14  1  0.500000  0.500000  0.614127  1
  Co  Co15  1  0.000000  0.500000  0.385873  1
  Cu  Cu16  1  0.333333  0.666667  0.000000  1
  Cu  Cu17  1  0.666667  0.333333  0.000000  1
  B  B18  1  0.666667  0.333333  0.731077  1
  B  B19  1  0.333333  0.666667  0.731077  1
  B  B20  1  0.333333  0.666667  0.268923  1
  B  B21  1  0.666667  0.333333  0.500000  1
  B  B22  1  0.666667  0.333333  0.268923  1
  B  B23  1  0.333333  0.666667  0.500000  1
