# generated using pymatgen
data_Li2Zn4B6Ir11
_symmetry_space_group_name_H-M   'P 1'
_cell_length_a   2.89185800
_cell_length_b   8.52821300
_cell_length_c   11.50487600
_cell_angle_alpha   90.00000000
_cell_angle_beta   90.00000000
_cell_angle_gamma   90.00000000
_symmetry_Int_Tables_number   1
_chemical_formula_structural   Li2Zn4B6Ir11
_chemical_formula_sum   'Li2 Zn4 B6 Ir11'
_cell_volume   283.73763515
_cell_formula_units_Z   1
loop_
 _symmetry_equiv_pos_site_id
 _symmetry_equiv_pos_as_xyz
  1  'x, y, z'
loop_
 _atom_site_type_symbol
 _atom_site_label
 _atom_site_symmetry_multiplicity
 _atom_site_fract_x
 _atom_site_fract_y
 _atom_site_fract_z
 _atom_site_occupancy
  Li  Li0  1  0.500000  0.000000  0.199001  1
  Li  Li1  1  0.500000  0.000000  0.800999  1
  Zn  Zn2  1  0.500000  0.000000  0.500000  1
  Zn  Zn3  1  0.500000  0.500000  0.000000  1
  Zn  Zn4  1  0.500000  0.648999  0.500000  1
  Zn  Zn5  1  0.500000  0.351001  0.500000  1
  B  B6  1  0.500000  0.810372  0.000000  1
  B  B7  1  0.500000  0.189628  0.000000  1
  B  B8  1  0.500000  0.689573  0.269177  1
  B  B9  1  0.500000  0.310427  0.269177  1
  B  B10  1  0.500000  0.310427  0.730823  1
  B  B11  1  0.500000  0.689573  0.730823  1
  Ir  Ir12  1  0.000000  0.000000  0.000000  1
  Ir  Ir13  1  0.000000  0.500000  0.315710  1
  Ir  Ir14  1  0.000000  0.500000  0.684290  1
  Ir  Ir15  1  0.000000  0.713577  0.123794  1
  Ir  Ir16  1  0.000000  0.286423  0.123794  1
  Ir  Ir17  1  0.000000  0.286423  0.876206  1
  Ir  Ir18  1  0.000000  0.713577  0.876206  1
  Ir  Ir19  1  0.000000  0.829199  0.356618  1
  Ir  Ir20  1  0.000000  0.170801  0.356618  1
  Ir  Ir21  1  0.000000  0.170801  0.643382  1
  Ir  Ir22  1  0.000000  0.829199  0.643382  1
