# generated using pymatgen
data_Dy6InNiOs
_symmetry_space_group_name_H-M   'P 1'
_cell_length_a   8.45234005
_cell_length_b   8.45234047
_cell_length_c   8.45233982
_cell_angle_alpha   113.24246867
_cell_angle_beta   110.17337360
_cell_angle_gamma   105.10061732
_symmetry_Int_Tables_number   1
_chemical_formula_structural   Dy6InNiOs
_chemical_formula_sum   'Dy12 In2 Ni2 Os2'
_cell_volume   462.47676389
_cell_formula_units_Z   2
loop_
 _symmetry_equiv_pos_site_id
 _symmetry_equiv_pos_as_xyz
  1  'x, y, z'
loop_
 _atom_site_type_symbol
 _atom_site_label
 _atom_site_symmetry_multiplicity
 _atom_site_fract_x
 _atom_site_fract_y
 _atom_site_fract_z
 _atom_site_occupancy
  Dy  Dy0  1  0.439702  0.240408  0.199295  1
  Dy  Dy1  1  0.560298  0.759592  0.800705  1
  Dy  Dy2  1  0.041113  0.240408  0.800705  1
  Dy  Dy3  1  0.958887  0.759592  0.199295  1
  Dy  Dy4  1  0.184273  0.281995  0.466269  1
  Dy  Dy5  1  0.815727  0.718005  0.533731  1
  Dy  Dy6  1  0.184273  0.718005  0.902277  1
  Dy  Dy7  1  0.815727  0.281995  0.097723  1
  Dy  Dy8  1  0.328489  0.642465  0.313977  1
  Dy  Dy9  1  0.671511  0.357535  0.686023  1
  Dy  Dy10  1  0.328489  0.014512  0.686023  1
  Dy  Dy11  1  0.671511  0.985488  0.313977  1
  In  In12  1  0.500000  0.500000  0.000000  1
  In  In13  1  0.000000  0.000000  0.000000  1
  Ni  Ni14  1  0.115357  0.615357  0.500000  1
  Ni  Ni15  1  0.884643  0.384643  0.500000  1
  Os  Os16  1  0.331192  0.000000  0.331192  1
  Os  Os17  1  0.668808  0.000000  0.668808  1
