# generated using pymatgen
data_Li3Hf3Co16(TcP6)2
_symmetry_space_group_name_H-M   'P 1'
_cell_length_a   11.83423371
_cell_length_b   11.76176577
_cell_length_c   3.59764900
_cell_angle_alpha   90.00000000
_cell_angle_beta   90.00000000
_cell_angle_gamma   119.79764948
_symmetry_Int_Tables_number   1
_chemical_formula_structural   Li3Hf3Co16(TcP6)2
_chemical_formula_sum   'Li3 Hf3 Co16 Tc2 P12'
_cell_volume   434.55426586
_cell_formula_units_Z   1
loop_
 _symmetry_equiv_pos_site_id
 _symmetry_equiv_pos_as_xyz
  1  'x, y, z'
loop_
 _atom_site_type_symbol
 _atom_site_label
 _atom_site_symmetry_multiplicity
 _atom_site_fract_x
 _atom_site_fract_y
 _atom_site_fract_z
 _atom_site_occupancy
  Li  Li0  1  0.332099  0.667431  0.000000  1
  Li  Li1  1  0.667901  0.335331  0.000000  1
  Li  Li2  1  0.000000  0.556865  0.000000  1
  Hf  Hf3  1  0.819482  0.820033  0.500000  1
  Hf  Hf4  1  0.000000  0.180156  0.500000  1
  Hf  Hf5  1  0.180518  0.000551  0.500000  1
  Co  Co6  1  0.629324  0.824471  0.000000  1
  Co  Co7  1  0.370676  0.195146  0.000000  1
  Co  Co8  1  0.000000  0.712111  0.500000  1
  Co  Co9  1  0.281773  0.280939  0.500000  1
  Co  Co10  1  0.872249  0.351106  0.500000  1
  Co  Co11  1  0.718227  0.999165  0.500000  1
  Co  Co12  1  0.821254  0.624705  0.000000  1
  Co  Co13  1  0.178746  0.803451  0.000000  1
  Co  Co14  1  0.353850  0.877519  0.500000  1
  Co  Co15  1  0.127751  0.478857  0.500000  1
  Co  Co16  1  0.646150  0.523669  0.500000  1
  Co  Co17  1  0.000000  0.995254  0.000000  1
  Co  Co18  1  0.518879  0.649368  0.500000  1
  Co  Co19  1  0.481121  0.130490  0.500000  1
  Co  Co20  1  0.193701  0.368894  0.000000  1
  Co  Co21  1  0.806299  0.175193  0.000000  1
  Tc  Tc22  1  0.445463  0.447724  0.000000  1
  Tc  Tc23  1  0.554537  0.002261  0.000000  1
  P  P24  1  0.000000  0.360693  0.000000  1
  P  P25  1  0.824905  0.509472  0.500000  1
  P  P26  1  0.683279  0.171215  0.500000  1
  P  P27  1  0.174676  0.173856  0.000000  1
  P  P28  1  0.641289  0.641921  0.000000  1
  P  P29  1  0.825324  0.999180  0.000000  1
  P  P30  1  0.511883  0.832055  0.500000  1
  P  P31  1  0.175095  0.684566  0.500000  1
  P  P32  1  0.358711  0.000632  0.000000  1
  P  P33  1  0.488117  0.320173  0.500000  1
  P  P34  1  0.000000  0.817612  0.000000  1
  P  P35  1  0.316721  0.487935  0.500000  1
