# generated using pymatgen
data_Li4CaNd(ErSi4)2
_symmetry_space_group_name_H-M   'P 1'
_cell_length_a   3.80181000
_cell_length_b   7.74222039
_cell_length_c   10.29639327
_cell_angle_alpha   89.51547516
_cell_angle_beta   90.00000000
_cell_angle_gamma   90.00000000
_symmetry_Int_Tables_number   1
_chemical_formula_structural   Li4CaNd(ErSi4)2
_chemical_formula_sum   'Li4 Ca1 Nd1 Er2 Si8'
_cell_volume   303.05784523
_cell_formula_units_Z   1
loop_
 _symmetry_equiv_pos_site_id
 _symmetry_equiv_pos_as_xyz
  1  'x, y, z'
loop_
 _atom_site_type_symbol
 _atom_site_label
 _atom_site_symmetry_multiplicity
 _atom_site_fract_x
 _atom_site_fract_y
 _atom_site_fract_z
 _atom_site_occupancy
  Li  Li0  1  0.250000  0.998203  0.390436  1
  Li  Li1  1  0.750000  0.006688  0.610088  1
  Li  Li2  1  0.250000  0.489580  0.110064  1
  Li  Li3  1  0.750000  0.507689  0.893079  1
  Ca  Ca4  1  0.750000  0.362278  0.364112  1
  Nd  Nd5  1  0.250000  0.636430  0.635530  1
  Er  Er6  1  0.250000  0.129567  0.865173  1
  Er  Er7  1  0.750000  0.869668  0.132669  1
  Si  Si8  1  0.750000  0.260930  0.061744  1
  Si  Si9  1  0.250000  0.735951  0.937715  1
  Si  Si10  1  0.750000  0.777805  0.425832  1
  Si  Si11  1  0.250000  0.229608  0.573457  1
  Si  Si12  1  0.750000  0.842502  0.823446  1
  Si  Si13  1  0.250000  0.153483  0.173002  1
  Si  Si14  1  0.750000  0.332535  0.686414  1
  Si  Si15  1  0.250000  0.667080  0.317242  1
