# generated using pymatgen
data_Sr4SnHg7
_symmetry_space_group_name_H-M   'P 1'
_cell_length_a   4.95819600
_cell_length_b   8.03252289
_cell_length_c   8.91860900
_cell_angle_alpha   89.86026489
_cell_angle_beta   90.00000000
_cell_angle_gamma   90.00000000
_symmetry_Int_Tables_number   1
_chemical_formula_structural   Sr4SnHg7
_chemical_formula_sum   'Sr4 Sn1 Hg7'
_cell_volume   355.19880441
_cell_formula_units_Z   1
loop_
 _symmetry_equiv_pos_site_id
 _symmetry_equiv_pos_as_xyz
  1  'x, y, z'
loop_
 _atom_site_type_symbol
 _atom_site_label
 _atom_site_symmetry_multiplicity
 _atom_site_fract_x
 _atom_site_fract_y
 _atom_site_fract_z
 _atom_site_occupancy
  Sr  Sr0  1  0.250000  0.997199  0.277462  1
  Sr  Sr1  1  0.250000  0.502596  0.224305  1
  Sr  Sr2  1  0.750000  0.995164  0.719073  1
  Sr  Sr3  1  0.750000  0.505966  0.776318  1
  Sn  Sn4  1  0.250000  0.205292  0.912733  1
  Hg  Hg5  1  0.250000  0.725216  0.586139  1
  Hg  Hg6  1  0.750000  0.778899  0.085615  1
  Hg  Hg7  1  0.750000  0.280388  0.414418  1
  Hg  Hg8  1  0.250000  0.286917  0.584963  1
  Hg  Hg9  1  0.250000  0.789748  0.918022  1
  Hg  Hg10  1  0.750000  0.718204  0.414907  1
  Hg  Hg11  1  0.750000  0.214410  0.086043  1
