# generated using pymatgen
data_Hf5ZrI24
_symmetry_space_group_name_H-M   'P 1'
_cell_length_a   9.05012691
_cell_length_b   9.17434166
_cell_length_c   18.30916229
_cell_angle_alpha   77.06553289
_cell_angle_beta   89.86653835
_cell_angle_gamma   90.02514262
_symmetry_Int_Tables_number   1
_chemical_formula_structural   Hf5ZrI24
_chemical_formula_sum   'Hf5 Zr1 I24'
_cell_volume   1481.61367338
_cell_formula_units_Z   1
loop_
 _symmetry_equiv_pos_site_id
 _symmetry_equiv_pos_as_xyz
  1  'x, y, z'
loop_
 _atom_site_type_symbol
 _atom_site_label
 _atom_site_symmetry_multiplicity
 _atom_site_fract_x
 _atom_site_fract_y
 _atom_site_fract_z
 _atom_site_occupancy
  Hf  Hf0  1  0.881608  0.818425  0.582241  1
  Hf  Hf1  1  0.118831  0.181733  0.418011  1
  Hf  Hf2  1  0.622783  0.000440  0.749775  1
  Hf  Hf3  1  0.881247  0.182632  0.917645  1
  Hf  Hf4  1  0.377618  0.000303  0.250118  1
  Zr  Zr5  1  0.118477  0.814920  0.081985  1
  I  I6  1  0.102123  0.385756  0.907461  1
  I  I7  1  0.571626  0.772181  0.259638  1
  I  I8  1  0.113329  0.061433  0.576941  1
  I  I9  1  0.348537  0.363442  0.430348  1
  I  I10  1  0.124577  0.786600  0.242965  1
  I  I11  1  0.123921  0.214132  0.258285  1
  I  I12  1  0.112310  0.940412  0.921798  1
  I  I13  1  0.427958  0.227618  0.740352  1
  I  I14  1  0.895819  0.610186  0.093631  1
  I  I15  1  0.875066  0.213970  0.757619  1
  I  I16  1  0.428454  0.772351  0.759833  1
  I  I17  1  0.898093  0.384596  0.407663  1
  I  I18  1  0.572573  0.227387  0.241659  1
  I  I19  1  0.669542  0.070549  0.590520  1
  I  I20  1  0.330536  0.930154  0.409836  1
  I  I21  1  0.876226  0.786679  0.741825  1
  I  I22  1  0.102013  0.615440  0.592428  1
  I  I23  1  0.650879  0.364172  0.928957  1
  I  I24  1  0.331996  0.071915  0.091038  1
  I  I25  1  0.884373  0.061876  0.076388  1
  I  I26  1  0.651170  0.637555  0.569931  1
  I  I27  1  0.669595  0.929829  0.909103  1
  I  I28  1  0.351637  0.634471  0.068676  1
  I  I29  1  0.887083  0.938842  0.423332  1
