# generated using pymatgen
data_Pr4Nd2Cd4IrPd12
_symmetry_space_group_name_H-M   'P 1'
_cell_length_a   8.56824854
_cell_length_b   8.56826195
_cell_length_c   8.56826205
_cell_angle_alpha   109.48343552
_cell_angle_beta   109.46517901
_cell_angle_gamma   109.46517797
_symmetry_Int_Tables_number   1
_chemical_formula_structural   Pr4Nd2Cd4IrPd12
_chemical_formula_sum   'Pr4 Nd2 Cd4 Ir1 Pd12'
_cell_volume   484.23360980
_cell_formula_units_Z   1
loop_
 _symmetry_equiv_pos_site_id
 _symmetry_equiv_pos_as_xyz
  1  'x, y, z'
loop_
 _atom_site_type_symbol
 _atom_site_label
 _atom_site_symmetry_multiplicity
 _atom_site_fract_x
 _atom_site_fract_y
 _atom_site_fract_z
 _atom_site_occupancy
  Pr  Pr0  1  0.296936  0.000000  0.296937  1
  Pr  Pr1  1  0.703064  0.703063  0.000000  1
  Pr  Pr2  1  0.703064  0.000000  0.703063  1
  Pr  Pr3  1  0.296936  0.296937  0.000000  1
  Nd  Nd4  1  0.000000  0.297731  0.297731  1
  Nd  Nd5  1  0.000000  0.702269  0.702269  1
  Cd  Cd6  1  0.000000  0.000000  0.500000  1
  Cd  Cd7  1  0.500000  0.000000  0.000000  1
  Cd  Cd8  1  0.000000  0.500000  0.000000  1
  Cd  Cd9  1  0.500000  0.500000  0.500000  1
  Ir  Ir10  1  0.000000  0.000000  0.000000  1
  Pd  Pd11  1  0.341359  0.658496  0.999855  1
  Pd  Pd12  1  0.000000  0.341916  0.658084  1
  Pd  Pd13  1  0.658641  0.000145  0.341504  1
  Pd  Pd14  1  0.316169  0.658085  0.658085  1
  Pd  Pd15  1  0.658642  0.317136  0.658496  1
  Pd  Pd16  1  0.683831  0.341915  0.341915  1
  Pd  Pd17  1  0.341358  0.682864  0.341504  1
  Pd  Pd18  1  0.341358  0.341504  0.682864  1
  Pd  Pd19  1  0.000000  0.658084  0.341916  1
  Pd  Pd20  1  0.658642  0.658496  0.317136  1
  Pd  Pd21  1  0.341359  0.999855  0.658496  1
  Pd  Pd22  1  0.658641  0.341504  0.000145  1
