# generated using pymatgen
data_Nd8Dy2Os3Ru
_symmetry_space_group_name_H-M   'P 1'
_cell_length_a   8.76859819
_cell_length_b   8.77479403
_cell_length_c   7.39678935
_cell_angle_alpha   83.76810938
_cell_angle_beta   83.79341146
_cell_angle_gamma   44.34299227
_symmetry_Int_Tables_number   1
_chemical_formula_structural   Nd8Dy2Os3Ru
_chemical_formula_sum   'Nd8 Dy2 Os3 Ru1'
_cell_volume   395.06222797
_cell_formula_units_Z   1
loop_
 _symmetry_equiv_pos_site_id
 _symmetry_equiv_pos_as_xyz
  1  'x, y, z'
loop_
 _atom_site_type_symbol
 _atom_site_label
 _atom_site_symmetry_multiplicity
 _atom_site_fract_x
 _atom_site_fract_y
 _atom_site_fract_z
 _atom_site_occupancy
  Nd  Nd0  1  0.205306  0.975807  0.583496  1
  Nd  Nd1  1  0.024340  0.795349  0.916377  1
  Nd  Nd2  1  0.206337  0.361240  0.314856  1
  Nd  Nd3  1  0.639418  0.791074  0.186781  1
  Nd  Nd4  1  0.792093  0.640301  0.685995  1
  Nd  Nd5  1  0.361813  0.207284  0.814200  1
  Nd  Nd6  1  0.976718  0.206326  0.082650  1
  Nd  Nd7  1  0.795189  0.024843  0.415262  1
  Dy  Dy8  1  0.569885  0.430719  0.748793  1
  Dy  Dy9  1  0.429477  0.570788  0.250557  1
  Os  Os10  1  0.183132  0.602806  0.572452  1
  Os  Os11  1  0.398093  0.815084  0.928555  1
  Os  Os12  1  0.815952  0.397387  0.427424  1
  Ru  Ru13  1  0.602249  0.180991  0.072602  1
