# generated using pymatgen
data_Y20Cd6OsRh
_symmetry_space_group_name_H-M   'P 1'
_cell_length_a   9.66538100
_cell_length_b   9.66538033
_cell_length_c   9.84386000
_cell_angle_alpha   90.00000000
_cell_angle_beta   90.00000000
_cell_angle_gamma   119.99999887
_symmetry_Int_Tables_number   1
_chemical_formula_structural   Y20Cd6OsRh
_chemical_formula_sum   'Y20 Cd6 Os1 Rh1'
_cell_volume   796.40502479
_cell_formula_units_Z   1
loop_
 _symmetry_equiv_pos_site_id
 _symmetry_equiv_pos_as_xyz
  1  'x, y, z'
loop_
 _atom_site_type_symbol
 _atom_site_label
 _atom_site_symmetry_multiplicity
 _atom_site_fract_x
 _atom_site_fract_y
 _atom_site_fract_z
 _atom_site_occupancy
  Y  Y0  1  0.000000  0.000000  0.499908  1
  Y  Y1  1  0.000000  0.000000  0.000092  1
  Y  Y2  1  0.209196  0.790804  0.440046  1
  Y  Y3  1  0.209196  0.418392  0.440046  1
  Y  Y4  1  0.581608  0.790804  0.440046  1
  Y  Y5  1  0.790475  0.209525  0.560043  1
  Y  Y6  1  0.790475  0.580947  0.560043  1
  Y  Y7  1  0.419053  0.209525  0.560043  1
  Y  Y8  1  0.790475  0.209525  0.939957  1
  Y  Y9  1  0.790475  0.580947  0.939957  1
  Y  Y10  1  0.419053  0.209525  0.939957  1
  Y  Y11  1  0.209196  0.790804  0.059954  1
  Y  Y12  1  0.209196  0.418392  0.059954  1
  Y  Y13  1  0.581608  0.790804  0.059954  1
  Y  Y14  1  0.542156  0.457844  0.250000  1
  Y  Y15  1  0.542156  0.084314  0.250000  1
  Y  Y16  1  0.915686  0.457844  0.250000  1
  Y  Y17  1  0.459502  0.540498  0.750000  1
  Y  Y18  1  0.459502  0.919006  0.750000  1
  Y  Y19  1  0.080994  0.540498  0.750000  1
  Cd  Cd20  1  0.885056  0.114944  0.250000  1
  Cd  Cd21  1  0.885056  0.770114  0.250000  1
  Cd  Cd22  1  0.229886  0.114944  0.250000  1
  Cd  Cd23  1  0.114811  0.885189  0.750000  1
  Cd  Cd24  1  0.114811  0.229619  0.750000  1
  Cd  Cd25  1  0.770381  0.885189  0.750000  1
  Os  Os26  1  0.666667  0.333333  0.750000  1
  Rh  Rh27  1  0.333333  0.666667  0.250000  1
