# generated using pymatgen
data_Tb5NdMg2(Co4P3)4
_symmetry_space_group_name_H-M   'P 1'
_cell_length_a   3.74836000
_cell_length_b   10.65730300
_cell_length_c   12.32347800
_cell_angle_alpha   90.00000000
_cell_angle_beta   90.00000000
_cell_angle_gamma   90.00000000
_symmetry_Int_Tables_number   1
_chemical_formula_structural   Tb5NdMg2(Co4P3)4
_chemical_formula_sum   'Tb5 Nd1 Mg2 Co16 P12'
_cell_volume   492.29100701
_cell_formula_units_Z   1
loop_
 _symmetry_equiv_pos_site_id
 _symmetry_equiv_pos_as_xyz
  1  'x, y, z'
loop_
 _atom_site_type_symbol
 _atom_site_label
 _atom_site_symmetry_multiplicity
 _atom_site_fract_x
 _atom_site_fract_y
 _atom_site_fract_z
 _atom_site_occupancy
  Tb  Tb0  1  0.500000  0.000000  0.474182  1
  Tb  Tb1  1  0.500000  0.822126  0.206158  1
  Tb  Tb2  1  0.500000  0.177874  0.206158  1
  Tb  Tb3  1  0.000000  0.678428  0.794297  1
  Tb  Tb4  1  0.000000  0.321572  0.794297  1
  Nd  Nd5  1  0.000000  0.500000  0.526635  1
  Mg  Mg6  1  0.500000  0.500000  0.154573  1
  Mg  Mg7  1  0.000000  0.000000  0.843876  1
  Co  Co8  1  0.500000  0.500000  0.707967  1
  Co  Co9  1  0.000000  0.000000  0.294302  1
  Co  Co10  1  0.000000  0.500000  0.989079  1
  Co  Co11  1  0.500000  0.000000  0.011270  1
  Co  Co12  1  0.500000  0.332222  0.996894  1
  Co  Co13  1  0.500000  0.667778  0.996894  1
  Co  Co14  1  0.000000  0.167235  0.003109  1
  Co  Co15  1  0.000000  0.832765  0.003109  1
  Co  Co16  1  0.500000  0.294303  0.431219  1
  Co  Co17  1  0.500000  0.705697  0.431219  1
  Co  Co18  1  0.000000  0.201684  0.568416  1
  Co  Co19  1  0.000000  0.798316  0.568416  1
  Co  Co20  1  0.500000  0.878972  0.706176  1
  Co  Co21  1  0.500000  0.121028  0.706176  1
  Co  Co22  1  0.000000  0.622290  0.293315  1
  Co  Co23  1  0.000000  0.377710  0.293315  1
  P  P24  1  0.500000  0.500000  0.886565  1
  P  P25  1  0.000000  0.000000  0.114255  1
  P  P26  1  0.500000  0.500000  0.351784  1
  P  P27  1  0.000000  0.000000  0.645188  1
  P  P28  1  0.500000  0.305591  0.615922  1
  P  P29  1  0.500000  0.694409  0.615922  1
  P  P30  1  0.000000  0.190821  0.384716  1
  P  P31  1  0.000000  0.809179  0.384716  1
  P  P32  1  0.500000  0.839374  0.893692  1
  P  P33  1  0.500000  0.160626  0.893692  1
  P  P34  1  0.000000  0.661223  0.106246  1
  P  P35  1  0.000000  0.338777  0.106246  1
