# generated using pymatgen
data_ErPa(Be2Co3)2
_symmetry_space_group_name_H-M   'P 1'
_cell_length_a   5.98821402
_cell_length_b   5.98821386
_cell_length_c   5.98821470
_cell_angle_alpha   131.03190313
_cell_angle_beta   111.86507908
_cell_angle_gamma   88.34384197
_symmetry_Int_Tables_number   1
_chemical_formula_structural   ErPa(Be2Co3)2
_chemical_formula_sum   'Er1 Pa1 Be4 Co6'
_cell_volume   143.02243882
_cell_formula_units_Z   1
loop_
 _symmetry_equiv_pos_site_id
 _symmetry_equiv_pos_as_xyz
  1  'x, y, z'
loop_
 _atom_site_type_symbol
 _atom_site_label
 _atom_site_symmetry_multiplicity
 _atom_site_fract_x
 _atom_site_fract_y
 _atom_site_fract_z
 _atom_site_occupancy
  Er  Er0  1  0.750000  0.464915  0.714915  1
  Pa  Pa1  1  0.250000  0.555226  0.305226  1
  Be  Be2  1  0.071317  0.870987  0.799670  1
  Be  Be3  1  0.908505  0.112432  0.203926  1
  Be  Be4  1  0.591495  0.795421  0.203926  1
  Be  Be5  1  0.428683  0.228352  0.799670  1
  Co  Co6  1  0.013327  0.005414  0.518741  1
  Co  Co7  1  0.486673  0.005414  0.992087  1
  Co  Co8  1  0.720818  0.984352  0.717385  1
  Co  Co9  1  0.233033  0.496567  0.717385  1
  Co  Co10  1  0.266967  0.984352  0.263534  1
  Co  Co11  1  0.779182  0.496567  0.263534  1
