# generated using pymatgen
data_ErTm(LuSb)3
_symmetry_space_group_name_H-M   'P 1'
_cell_length_a   8.03852800
_cell_length_b   9.12039800
_cell_length_c   11.67082600
_cell_angle_alpha   90.00000000
_cell_angle_beta   90.00000000
_cell_angle_gamma   90.00000000
_symmetry_Int_Tables_number   1
_chemical_formula_structural   ErTm(LuSb)3
_chemical_formula_sum   'Er4 Tm4 Lu12 Sb12'
_cell_volume   855.64164452
_cell_formula_units_Z   4
loop_
 _symmetry_equiv_pos_site_id
 _symmetry_equiv_pos_as_xyz
  1  'x, y, z'
loop_
 _atom_site_type_symbol
 _atom_site_label
 _atom_site_symmetry_multiplicity
 _atom_site_fract_x
 _atom_site_fract_y
 _atom_site_fract_z
 _atom_site_occupancy
  Er  Er0  1  0.175512  0.750000  0.229050  1
  Er  Er1  1  0.675512  0.250000  0.270950  1
  Er  Er2  1  0.824488  0.250000  0.770950  1
  Er  Er3  1  0.324488  0.750000  0.729050  1
  Tm  Tm4  1  0.658386  0.750000  0.290818  1
  Tm  Tm5  1  0.158386  0.250000  0.209182  1
  Tm  Tm6  1  0.341614  0.250000  0.709182  1
  Tm  Tm7  1  0.841614  0.750000  0.790818  1
  Lu  Lu8  1  0.808894  0.939022  0.065975  1
  Lu  Lu9  1  0.308894  0.060978  0.434025  1
  Lu  Lu10  1  0.191106  0.439022  0.934025  1
  Lu  Lu11  1  0.691106  0.560978  0.565975  1
  Lu  Lu12  1  0.191106  0.060978  0.934025  1
  Lu  Lu13  1  0.691106  0.939022  0.565975  1
  Lu  Lu14  1  0.808894  0.560978  0.065975  1
  Lu  Lu15  1  0.308894  0.439022  0.434025  1
  Lu  Lu16  1  0.524721  0.250000  0.995186  1
  Lu  Lu17  1  0.024721  0.750000  0.504814  1
  Lu  Lu18  1  0.475279  0.750000  0.004814  1
  Lu  Lu19  1  0.975279  0.250000  0.495186  1
  Sb  Sb20  1  0.936446  0.990957  0.326200  1
  Sb  Sb21  1  0.436446  0.009043  0.173800  1
  Sb  Sb22  1  0.063554  0.490957  0.673800  1
  Sb  Sb23  1  0.563554  0.509043  0.826200  1
  Sb  Sb24  1  0.063554  0.009043  0.673800  1
  Sb  Sb25  1  0.563554  0.990957  0.826200  1
  Sb  Sb26  1  0.936446  0.509043  0.326200  1
  Sb  Sb27  1  0.436446  0.490957  0.173800  1
  Sb  Sb28  1  0.902622  0.250000  0.025024  1
  Sb  Sb29  1  0.402622  0.750000  0.474976  1
  Sb  Sb30  1  0.097378  0.750000  0.974976  1
  Sb  Sb31  1  0.597378  0.250000  0.525024  1
