# generated using pymatgen
data_Ta12Fe5Co3(OsN)4
_symmetry_space_group_name_H-M   'P 1'
_cell_length_a   8.08068794
_cell_length_b   8.09221477
_cell_length_c   8.09221500
_cell_angle_alpha   60.00000317
_cell_angle_beta   59.95280480
_cell_angle_gamma   59.95280888
_symmetry_Int_Tables_number   1
_chemical_formula_structural   Ta12Fe5Co3(OsN)4
_chemical_formula_sum   'Ta12 Fe5 Co3 Os4 N4'
_cell_volume   373.90218266
_cell_formula_units_Z   1
loop_
 _symmetry_equiv_pos_site_id
 _symmetry_equiv_pos_as_xyz
  1  'x, y, z'
loop_
 _atom_site_type_symbol
 _atom_site_label
 _atom_site_symmetry_multiplicity
 _atom_site_fract_x
 _atom_site_fract_y
 _atom_site_fract_z
 _atom_site_occupancy
  Ta  Ta0  1  0.803935  0.804757  0.195654  1
  Ta  Ta1  1  0.194596  0.194178  0.805613  1
  Ta  Ta2  1  0.803935  0.195654  0.804757  1
  Ta  Ta3  1  0.194596  0.805613  0.194178  1
  Ta  Ta4  1  0.194596  0.805613  0.805613  1
  Ta  Ta5  1  0.803935  0.195654  0.195654  1
  Ta  Ta6  1  0.443757  0.444413  0.055915  1
  Ta  Ta7  1  0.054535  0.054963  0.445251  1
  Ta  Ta8  1  0.443757  0.055915  0.444413  1
  Ta  Ta9  1  0.054535  0.445251  0.054963  1
  Ta  Ta10  1  0.054535  0.445251  0.445251  1
  Ta  Ta11  1  0.443757  0.055915  0.055915  1
  Fe  Fe12  1  0.732554  0.422482  0.422482  1
  Fe  Fe13  1  0.422782  0.729896  0.423662  1
  Fe  Fe14  1  0.422782  0.423662  0.729896  1
  Fe  Fe15  1  0.422782  0.423662  0.423662  1
  Fe  Fe16  1  0.516312  0.827896  0.827896  1
  Co  Co17  1  0.833360  0.502357  0.832141  1
  Co  Co18  1  0.833360  0.832141  0.502357  1
  Co  Co19  1  0.833360  0.832141  0.832141  1
  Os  Os20  1  0.124326  0.625225  0.625225  1
  Os  Os21  1  0.623524  0.124089  0.626193  1
  Os  Os22  1  0.623524  0.626193  0.124089  1
  Os  Os23  1  0.623524  0.626193  0.626193  1
  N  N24  1  0.624754  0.125082  0.125082  1
  N  N25  1  0.124197  0.625034  0.125385  1
  N  N26  1  0.124197  0.125385  0.625034  1
  N  N27  1  0.124197  0.125385  0.125385  1
