# generated using pymatgen
data_Al5Tc3As
_symmetry_space_group_name_H-M   'P 1'
_cell_length_a   4.75965992
_cell_length_b   4.75966071
_cell_length_c   6.69249566
_cell_angle_alpha   90.30830800
_cell_angle_beta   90.30830961
_cell_angle_gamma   120.61888698
_symmetry_Int_Tables_number   1
_chemical_formula_structural   Al5Tc3As
_chemical_formula_sum   'Al5 Tc3 As1'
_cell_volume   130.46760741
_cell_formula_units_Z   1
loop_
 _symmetry_equiv_pos_site_id
 _symmetry_equiv_pos_as_xyz
  1  'x, y, z'
loop_
 _atom_site_type_symbol
 _atom_site_label
 _atom_site_symmetry_multiplicity
 _atom_site_fract_x
 _atom_site_fract_y
 _atom_site_fract_z
 _atom_site_occupancy
  Al  Al0  1  0.165215  0.337925  0.006109  1
  Al  Al1  1  0.830417  0.659334  0.005386  1
  Al  Al2  1  0.340665  0.169581  0.327947  1
  Al  Al3  1  0.662075  0.834785  0.327224  1
  Al  Al4  1  0.838037  0.161962  0.666667  1
  Tc  Tc5  1  0.499054  0.000209  0.990495  1
  Tc  Tc6  1  0.999791  0.500945  0.342838  1
  Tc  Tc7  1  0.501859  0.498142  0.666667  1
  As  As8  1  0.162882  0.837118  0.666667  1
