# generated using pymatgen
data_YEr3Al18(PdRh)3
_symmetry_space_group_name_H-M   'P 1'
_cell_length_a   7.59511617
_cell_length_b   7.59754080
_cell_length_c   9.42661602
_cell_angle_alpha   89.99276576
_cell_angle_beta   89.99223233
_cell_angle_gamma   119.57297382
_symmetry_Int_Tables_number   1
_chemical_formula_structural   YEr3Al18(PdRh)3
_chemical_formula_sum   'Y1 Er3 Al18 Pd3 Rh3'
_cell_volume   473.09311568
_cell_formula_units_Z   1
loop_
 _symmetry_equiv_pos_site_id
 _symmetry_equiv_pos_as_xyz
  1  'x, y, z'
loop_
 _atom_site_type_symbol
 _atom_site_label
 _atom_site_symmetry_multiplicity
 _atom_site_fract_x
 _atom_site_fract_y
 _atom_site_fract_z
 _atom_site_occupancy
  Y  Y0  1  0.995805  0.670109  0.750178  1
  Er  Er1  1  0.005434  0.330385  0.249874  1
  Er  Er2  1  0.669392  0.994510  0.750129  1
  Er  Er3  1  0.329683  0.004284  0.249701  1
  Al  Al4  1  0.125326  0.126677  0.750649  1
  Al  Al5  1  0.873870  0.874888  0.249349  1
  Al  Al6  1  0.999821  0.330607  0.576222  1
  Al  Al7  1  0.999658  0.669001  0.422106  1
  Al  Al8  1  0.996907  0.664821  0.076059  1
  Al  Al9  1  0.335708  0.003639  0.925029  1
  Al  Al10  1  0.995624  0.330344  0.925116  1
  Al  Al11  1  0.669006  0.004338  0.075429  1
  Al  Al12  1  0.668763  0.000201  0.423234  1
  Al  Al13  1  0.331635  0.000991  0.576744  1
  Al  Al14  1  0.332162  0.328979  0.053072  1
  Al  Al15  1  0.670584  0.667868  0.947588  1
  Al  Al16  1  0.669495  0.669990  0.555450  1
  Al  Al17  1  0.330104  0.330048  0.443855  1
  Al  Al18  1  0.340663  0.546328  0.750635  1
  Al  Al19  1  0.658996  0.450802  0.246836  1
  Al  Al20  1  0.548370  0.340199  0.753214  1
  Al  Al21  1  0.453509  0.659836  0.249359  1
  Pd  Pd22  1  0.672298  0.327652  0.499949  1
  Pd  Pd23  1  0.327374  0.672681  0.499944  1
  Pd  Pd24  1  0.327362  0.672696  0.000049  1
  Rh  Rh25  1  0.672043  0.327661  0.000193  1
  Rh  Rh26  1  0.999994  0.000360  0.499721  1
  Rh  Rh27  1  0.000416  0.000101  0.000315  1
