# generated using pymatgen
data_NdY2(Co3P2)3
_symmetry_space_group_name_H-M   'P 1'
_cell_length_a   3.73467900
_cell_length_b   10.59113800
_cell_length_c   12.25922100
_cell_angle_alpha   90.00000000
_cell_angle_beta   90.00000000
_cell_angle_gamma   90.00000000
_symmetry_Int_Tables_number   1
_chemical_formula_structural   NdY2(Co3P2)3
_chemical_formula_sum   'Nd2 Y4 Co18 P12'
_cell_volume   484.90736532
_cell_formula_units_Z   2
loop_
 _symmetry_equiv_pos_site_id
 _symmetry_equiv_pos_as_xyz
  1  'x, y, z'
loop_
 _atom_site_type_symbol
 _atom_site_label
 _atom_site_symmetry_multiplicity
 _atom_site_fract_x
 _atom_site_fract_y
 _atom_site_fract_z
 _atom_site_occupancy
  Nd  Nd0  1  0.000000  0.500000  0.522216  1
  Nd  Nd1  1  0.500000  0.000000  0.477784  1
  Y  Y2  1  0.500000  0.817398  0.204889  1
  Y  Y3  1  0.500000  0.182602  0.204889  1
  Y  Y4  1  0.000000  0.682602  0.795111  1
  Y  Y5  1  0.000000  0.317398  0.795111  1
  Co  Co6  1  0.500000  0.500000  0.156490  1
  Co  Co7  1  0.000000  0.000000  0.843510  1
  Co  Co8  1  0.500000  0.500000  0.706200  1
  Co  Co9  1  0.000000  0.000000  0.293800  1
  Co  Co10  1  0.000000  0.500000  0.986849  1
  Co  Co11  1  0.500000  0.000000  0.013151  1
  Co  Co12  1  0.500000  0.333344  0.995021  1
  Co  Co13  1  0.500000  0.666656  0.995021  1
  Co  Co14  1  0.000000  0.166656  0.004979  1
  Co  Co15  1  0.000000  0.833344  0.004979  1
  Co  Co16  1  0.500000  0.296730  0.429098  1
  Co  Co17  1  0.500000  0.703270  0.429098  1
  Co  Co18  1  0.000000  0.203270  0.570902  1
  Co  Co19  1  0.000000  0.796730  0.570902  1
  Co  Co20  1  0.500000  0.879841  0.712568  1
  Co  Co21  1  0.500000  0.120159  0.712568  1
  Co  Co22  1  0.000000  0.620159  0.287432  1
  Co  Co23  1  0.000000  0.379841  0.287432  1
  P  P24  1  0.500000  0.500000  0.884066  1
  P  P25  1  0.000000  0.000000  0.115934  1
  P  P26  1  0.500000  0.500000  0.339302  1
  P  P27  1  0.000000  0.000000  0.660698  1
  P  P28  1  0.500000  0.307255  0.617148  1
  P  P29  1  0.500000  0.692745  0.617148  1
  P  P30  1  0.000000  0.192745  0.382852  1
  P  P31  1  0.000000  0.807255  0.382852  1
  P  P32  1  0.500000  0.846966  0.894447  1
  P  P33  1  0.500000  0.153034  0.894447  1
  P  P34  1  0.000000  0.653034  0.105553  1
  P  P35  1  0.000000  0.346966  0.105553  1
