# generated using pymatgen
data_Nd7Sm(Tm3Si4)4
_symmetry_space_group_name_H-M   'P 1'
_cell_length_a   7.71164641
_cell_length_b   7.71265815
_cell_length_c   14.18861650
_cell_angle_alpha   90.00557501
_cell_angle_beta   89.97001996
_cell_angle_gamma   90.02209542
_symmetry_Int_Tables_number   1
_chemical_formula_structural   Nd7Sm(Tm3Si4)4
_chemical_formula_sum   'Nd7 Sm1 Tm12 Si16'
_cell_volume   843.90031208
_cell_formula_units_Z   1
loop_
 _symmetry_equiv_pos_site_id
 _symmetry_equiv_pos_as_xyz
  1  'x, y, z'
loop_
 _atom_site_type_symbol
 _atom_site_label
 _atom_site_symmetry_multiplicity
 _atom_site_fract_x
 _atom_site_fract_y
 _atom_site_fract_z
 _atom_site_occupancy
  Nd  Nd0  1  0.357533  0.007239  0.959139  1
  Nd  Nd1  1  0.992690  0.642584  0.540785  1
  Nd  Nd2  1  0.492802  0.857665  0.209280  1
  Nd  Nd3  1  0.507268  0.142338  0.708968  1
  Nd  Nd4  1  0.857546  0.492683  0.790781  1
  Nd  Nd5  1  0.142443  0.507276  0.290996  1
  Nd  Nd6  1  0.007262  0.357544  0.040892  1
  Sm  Sm7  1  0.641812  0.993115  0.458904  1
  Tm  Tm8  1  0.493322  0.359685  0.124216  1
  Tm  Tm9  1  0.993209  0.140041  0.625670  1
  Tm  Tm10  1  0.859744  0.006789  0.874171  1
  Tm  Tm11  1  0.140040  0.993313  0.374334  1
  Tm  Tm12  1  0.506866  0.640310  0.624085  1
  Tm  Tm13  1  0.359805  0.493343  0.875745  1
  Tm  Tm14  1  0.640307  0.506962  0.375924  1
  Tm  Tm15  1  0.006573  0.859806  0.125831  1
  Tm  Tm16  1  0.318572  0.317975  0.499990  1
  Tm  Tm17  1  0.181731  0.818331  0.749970  1
  Tm  Tm18  1  0.818076  0.181537  0.250119  1
  Tm  Tm19  1  0.681702  0.681671  0.999978  1
  Si  Si20  1  0.289988  0.938071  0.561526  1
  Si  Si21  1  0.710751  0.062230  0.061748  1
  Si  Si22  1  0.937264  0.288764  0.438230  1
  Si  Si23  1  0.438304  0.210341  0.312061  1
  Si  Si24  1  0.562232  0.789210  0.811756  1
  Si  Si25  1  0.210804  0.437761  0.688233  1
  Si  Si26  1  0.789164  0.562291  0.188265  1
  Si  Si27  1  0.062279  0.710806  0.938241  1
  Si  Si28  1  0.795676  0.849053  0.687562  1
  Si  Si29  1  0.204325  0.150878  0.187596  1
  Si  Si30  1  0.848548  0.796383  0.312878  1
  Si  Si31  1  0.349704  0.704735  0.437614  1
  Si  Si32  1  0.650958  0.295683  0.937635  1
  Si  Si33  1  0.704063  0.348322  0.562145  1
  Si  Si34  1  0.295702  0.650952  0.062376  1
  Si  Si35  1  0.150934  0.204315  0.812355  1
