# generated using pymatgen
data_Nb6Ga3AuN2
_symmetry_space_group_name_H-M   'P 1'
_cell_length_a   7.08169412
_cell_length_b   7.09052226
_cell_length_c   7.10507700
_cell_angle_alpha   90.00000000
_cell_angle_beta   90.00000000
_cell_angle_gamma   90.42713469
_symmetry_Int_Tables_number   1
_chemical_formula_structural   Nb6Ga3AuN2
_chemical_formula_sum   'Nb12 Ga6 Au2 N4'
_cell_volume   356.75667682
_cell_formula_units_Z   2
loop_
 _symmetry_equiv_pos_site_id
 _symmetry_equiv_pos_as_xyz
  1  'x, y, z'
loop_
 _atom_site_type_symbol
 _atom_site_label
 _atom_site_symmetry_multiplicity
 _atom_site_fract_x
 _atom_site_fract_y
 _atom_site_fract_z
 _atom_site_occupancy
  Nb  Nb0  1  0.788661  0.958386  0.376845  1
  Nb  Nb1  1  0.711339  0.041614  0.876845  1
  Nb  Nb2  1  0.205002  0.451699  0.125859  1
  Nb  Nb3  1  0.294998  0.548301  0.625859  1
  Nb  Nb4  1  0.953171  0.382092  0.789815  1
  Nb  Nb5  1  0.040879  0.869004  0.709548  1
  Nb  Nb6  1  0.459121  0.130996  0.209548  1
  Nb  Nb7  1  0.546829  0.617908  0.289815  1
  Nb  Nb8  1  0.381118  0.787528  0.953174  1
  Nb  Nb9  1  0.872633  0.706878  0.043107  1
  Nb  Nb10  1  0.118882  0.212472  0.453174  1
  Nb  Nb11  1  0.627367  0.293122  0.543107  1
  Ga  Ga12  1  0.822636  0.320151  0.176949  1
  Ga  Ga13  1  0.677364  0.679849  0.676949  1
  Ga  Ga14  1  0.568492  0.427558  0.930385  1
  Ga  Ga15  1  0.428460  0.932886  0.569685  1
  Ga  Ga16  1  0.931508  0.572442  0.430385  1
  Ga  Ga17  1  0.071540  0.067114  0.069685  1
  Au  Au18  1  0.184338  0.819951  0.315976  1
  Au  Au19  1  0.315662  0.180049  0.815976  1
  N  N20  1  0.878114  0.123945  0.629000  1
  N  N21  1  0.621886  0.876055  0.129000  1
  N  N22  1  0.128048  0.624183  0.879657  1
  N  N23  1  0.371952  0.375817  0.379657  1
