# generated using pymatgen
data_KTlSe12
_symmetry_space_group_name_H-M   'P 1'
_cell_length_a   11.33202365
_cell_length_b   11.33202476
_cell_length_c   11.33202423
_cell_angle_alpha   131.39630678
_cell_angle_beta   120.42622335
_cell_angle_gamma   80.34634086
_symmetry_Int_Tables_number   1
_chemical_formula_structural   KTlSe12
_chemical_formula_sum   'K2 Tl2 Se24'
_cell_volume   909.30104096
_cell_formula_units_Z   2
loop_
 _symmetry_equiv_pos_site_id
 _symmetry_equiv_pos_as_xyz
  1  'x, y, z'
loop_
 _atom_site_type_symbol
 _atom_site_label
 _atom_site_symmetry_multiplicity
 _atom_site_fract_x
 _atom_site_fract_y
 _atom_site_fract_z
 _atom_site_occupancy
  K  K0  1  0.500000  0.500000  0.000000  1
  K  K1  1  0.000000  0.000000  0.000000  1
  Tl  Tl2  1  0.750000  0.250000  0.500000  1
  Tl  Tl3  1  0.250000  0.750000  0.500000  1
  Se  Se4  1  0.646382  0.750000  0.896382  1
  Se  Se5  1  0.853618  0.750000  0.103618  1
  Se  Se6  1  0.353618  0.250000  0.103618  1
  Se  Se7  1  0.146382  0.250000  0.896382  1
  Se  Se8  1  0.248237  0.139355  0.678057  1
  Se  Se9  1  0.251763  0.929819  0.891117  1
  Se  Se10  1  0.038703  0.360645  0.108883  1
  Se  Se11  1  0.461297  0.570181  0.321943  1
  Se  Se12  1  0.751763  0.860645  0.321943  1
  Se  Se13  1  0.748237  0.070181  0.108883  1
  Se  Se14  1  0.961297  0.639355  0.891117  1
  Se  Se15  1  0.538703  0.429819  0.678057  1
  Se  Se16  1  0.919230  0.820380  0.520645  1
  Se  Se17  1  0.580770  0.101416  0.901150  1
  Se  Se18  1  0.200266  0.679620  0.098850  1
  Se  Se19  1  0.299734  0.398584  0.479355  1
  Se  Se20  1  0.080770  0.179620  0.479355  1
  Se  Se21  1  0.419230  0.898584  0.098850  1
  Se  Se22  1  0.799735  0.320380  0.901150  1
  Se  Se23  1  0.700266  0.601416  0.520645  1
  Se  Se24  1  0.673949  0.056556  0.730505  1
  Se  Se25  1  0.826051  0.556556  0.382608  1
  Se  Se26  1  0.173949  0.443444  0.617392  1
  Se  Se27  1  0.326051  0.943444  0.269495  1
