# generated using pymatgen
data_Dy10AlInSb4
_symmetry_space_group_name_H-M   'P 1'
_cell_length_a   6.46097300
_cell_length_b   8.95217513
_cell_length_c   8.93435200
_cell_angle_alpha   120.06602399
_cell_angle_beta   90.00001774
_cell_angle_gamma   89.99997193
_symmetry_Int_Tables_number   1
_chemical_formula_structural   Dy10AlInSb4
_chemical_formula_sum   'Dy10 Al1 In1 Sb4'
_cell_volume   447.22993501
_cell_formula_units_Z   1
loop_
 _symmetry_equiv_pos_site_id
 _symmetry_equiv_pos_as_xyz
  1  'x, y, z'
loop_
 _atom_site_type_symbol
 _atom_site_label
 _atom_site_symmetry_multiplicity
 _atom_site_fract_x
 _atom_site_fract_y
 _atom_site_fract_z
 _atom_site_occupancy
  Dy  Dy0  1  0.497608  0.335532  0.674153  1
  Dy  Dy1  1  0.497608  0.661379  0.325847  1
  Dy  Dy2  1  0.002391  0.661380  0.325847  1
  Dy  Dy3  1  0.002391  0.335533  0.674153  1
  Dy  Dy4  1  0.750001  0.238854  0.000000  1
  Dy  Dy5  1  0.750001  0.755591  0.760653  1
  Dy  Dy6  1  0.750001  0.994938  0.239347  1
  Dy  Dy7  1  0.249999  0.757658  0.000000  1
  Dy  Dy8  1  0.250001  0.245834  0.234410  1
  Dy  Dy9  1  0.250001  0.011424  0.765590  1
  Al  Al10  1  0.250000  0.400143  0.000000  1
  In  In11  1  0.749999  0.601627  0.000000  1
  Sb  Sb12  1  0.750001  0.389246  0.392986  1
  Sb  Sb13  1  0.750001  0.996259  0.607014  1
  Sb  Sb14  1  0.250000  0.611644  0.608689  1
  Sb  Sb15  1  0.250000  0.002956  0.391311  1
