# generated using pymatgen
data_Pa4Al2Ge4Os7
_symmetry_space_group_name_H-M   'P 1'
_cell_length_a   7.28664453
_cell_length_b   7.29577886
_cell_length_c   7.29577989
_cell_angle_alpha   109.25583116
_cell_angle_beta   109.60457708
_cell_angle_gamma   109.60456389
_symmetry_Int_Tables_number   1
_chemical_formula_structural   Pa4Al2Ge4Os7
_chemical_formula_sum   'Pa4 Al2 Ge4 Os7'
_cell_volume   298.38002324
_cell_formula_units_Z   1
loop_
 _symmetry_equiv_pos_site_id
 _symmetry_equiv_pos_as_xyz
  1  'x, y, z'
loop_
 _atom_site_type_symbol
 _atom_site_label
 _atom_site_symmetry_multiplicity
 _atom_site_fract_x
 _atom_site_fract_y
 _atom_site_fract_z
 _atom_site_occupancy
  Pa  Pa0  1  0.000000  0.000029  0.507557  1
  Pa  Pa1  1  0.000000  0.492443  0.999971  1
  Pa  Pa2  1  0.500000  0.999856  0.000144  1
  Pa  Pa3  1  0.500000  0.499856  0.500144  1
  Al  Al4  1  0.694051  0.691242  0.002809  1
  Al  Al5  1  0.305949  0.997191  0.308758  1
  Ge  Ge6  1  0.000000  0.305533  0.311250  1
  Ge  Ge7  1  0.319553  0.316981  0.002571  1
  Ge  Ge8  1  0.680447  0.997429  0.683019  1
  Ge  Ge9  1  0.000000  0.688750  0.694467  1
  Os  Os10  1  0.747236  0.249384  0.497852  1
  Os  Os11  1  0.754109  0.502036  0.252073  1
  Os  Os12  1  0.500000  0.251966  0.748034  1
  Os  Os13  1  0.252764  0.502148  0.750616  1
  Os  Os14  1  0.245891  0.747927  0.497964  1
  Os  Os15  1  0.500000  0.751966  0.248034  1
  Os  Os16  1  0.000000  0.005264  0.994736  1
