# generated using pymatgen
data_Ba6SbRh4O15
_symmetry_space_group_name_H-M   'P 1'
_cell_length_a   7.37944308
_cell_length_b   7.37944332
_cell_length_c   7.37944400
_cell_angle_alpha   85.78060014
_cell_angle_beta   85.78060000
_cell_angle_gamma   85.78061628
_symmetry_Int_Tables_number   1
_chemical_formula_structural   Ba6SbRh4O15
_chemical_formula_sum   'Ba6 Sb1 Rh4 O15'
_cell_volume   398.74121748
_cell_formula_units_Z   1
loop_
 _symmetry_equiv_pos_site_id
 _symmetry_equiv_pos_as_xyz
  1  'x, y, z'
loop_
 _atom_site_type_symbol
 _atom_site_label
 _atom_site_symmetry_multiplicity
 _atom_site_fract_x
 _atom_site_fract_y
 _atom_site_fract_z
 _atom_site_occupancy
  Ba  Ba0  1  0.326946  0.673054  0.000000  1
  Ba  Ba1  1  0.673054  0.000000  0.326946  1
  Ba  Ba2  1  0.000000  0.326946  0.673054  1
  Ba  Ba3  1  0.133182  0.866818  0.500000  1
  Ba  Ba4  1  0.866818  0.500000  0.133182  1
  Ba  Ba5  1  0.500000  0.133182  0.866818  1
  Sb  Sb6  1  0.500000  0.500000  0.500000  1
  Rh  Rh7  1  0.905550  0.905550  0.905550  1
  Rh  Rh8  1  0.094450  0.094450  0.094450  1
  Rh  Rh9  1  0.707099  0.707099  0.707099  1
  Rh  Rh10  1  0.292901  0.292901  0.292901  1
  O  O11  1  0.255400  0.551633  0.380966  1
  O  O12  1  0.380966  0.255400  0.551633  1
  O  O13  1  0.551633  0.380966  0.255400  1
  O  O14  1  0.744600  0.619034  0.448367  1
  O  O15  1  0.448367  0.744600  0.619034  1
  O  O16  1  0.619034  0.448367  0.744600  1
  O  O17  1  0.000000  0.839399  0.160601  1
  O  O18  1  0.160601  0.000000  0.839399  1
  O  O19  1  0.839399  0.160601  0.000000  1
  O  O20  1  0.341262  0.027702  0.203570  1
  O  O21  1  0.203570  0.341262  0.027702  1
  O  O22  1  0.796430  0.972298  0.658738  1
  O  O23  1  0.972298  0.658738  0.796430  1
  O  O24  1  0.658738  0.796430  0.972298  1
  O  O25  1  0.027702  0.203570  0.341262  1
