# generated using pymatgen
data_CeYTm(BO3)3
_symmetry_space_group_name_H-M   'P 1'
_cell_length_a   6.64432017
_cell_length_b   6.64431903
_cell_length_c   8.97399900
_cell_angle_alpha   90.00637143
_cell_angle_beta   90.00636258
_cell_angle_gamma   119.90281928
_symmetry_Int_Tables_number   1
_chemical_formula_structural   CeYTm(BO3)3
_chemical_formula_sum   'Ce2 Y2 Tm2 B6 O18'
_cell_volume   343.43307683
_cell_formula_units_Z   2
loop_
 _symmetry_equiv_pos_site_id
 _symmetry_equiv_pos_as_xyz
  1  'x, y, z'
loop_
 _atom_site_type_symbol
 _atom_site_label
 _atom_site_symmetry_multiplicity
 _atom_site_fract_x
 _atom_site_fract_y
 _atom_site_fract_z
 _atom_site_occupancy
  Ce  Ce0  1  0.328922  0.671078  0.500000  1
  Ce  Ce1  1  0.998499  0.001501  0.500000  1
  Y  Y2  1  0.668939  0.331061  0.500000  1
  Y  Y3  1  0.672554  0.327446  0.000000  1
  Tm  Tm4  1  0.327718  0.672282  0.000000  1
  Tm  Tm5  1  0.000399  0.999601  0.000000  1
  B  B6  1  0.336518  0.097582  0.756652  1
  B  B7  1  0.094771  0.334929  0.758554  1
  B  B8  1  0.574819  0.573569  0.757991  1
  B  B9  1  0.426431  0.425181  0.242009  1
  B  B10  1  0.665071  0.905229  0.241446  1
  B  B11  1  0.902418  0.663482  0.243348  1
  O  O12  1  0.450685  0.665801  0.238964  1
  O  O13  1  0.665394  0.448200  0.242430  1
  O  O14  1  0.878592  0.878534  0.240251  1
  O  O15  1  0.121466  0.121408  0.759749  1
  O  O16  1  0.551800  0.334606  0.757570  1
  O  O17  1  0.334199  0.549315  0.761036  1
  O  O18  1  0.020623  0.668693  0.106132  1
  O  O19  1  0.003836  0.658291  0.387083  1
  O  O20  1  0.666030  0.013215  0.101626  1
  O  O21  1  0.665865  0.019500  0.381883  1
  O  O22  1  0.311674  0.312725  0.103463  1
  O  O23  1  0.325096  0.319898  0.386761  1
  O  O24  1  0.680102  0.674904  0.613239  1
  O  O25  1  0.687275  0.688326  0.896537  1
  O  O26  1  0.980500  0.334135  0.618117  1
  O  O27  1  0.986785  0.333970  0.898374  1
  O  O28  1  0.341709  0.996164  0.612917  1
  O  O29  1  0.331307  0.979377  0.893868  1
