# generated using pymatgen
data_Pr2SmThSe6
_symmetry_space_group_name_H-M   'P 1'
_cell_length_a   4.19174100
_cell_length_b   11.15241492
_cell_length_c   11.46395258
_cell_angle_alpha   90.68346159
_cell_angle_beta   90.00000000
_cell_angle_gamma   90.00000000
_symmetry_Int_Tables_number   1
_chemical_formula_structural   Pr2SmThSe6
_chemical_formula_sum   'Pr4 Sm2 Th2 Se12'
_cell_volume   535.87912692
_cell_formula_units_Z   2
loop_
 _symmetry_equiv_pos_site_id
 _symmetry_equiv_pos_as_xyz
  1  'x, y, z'
loop_
 _atom_site_type_symbol
 _atom_site_label
 _atom_site_symmetry_multiplicity
 _atom_site_fract_x
 _atom_site_fract_y
 _atom_site_fract_z
 _atom_site_occupancy
  Pr  Pr0  1  0.250000  0.001508  0.696161  1
  Pr  Pr1  1  0.750000  0.998492  0.303839  1
  Pr  Pr2  1  0.750000  0.494009  0.807869  1
  Pr  Pr3  1  0.250000  0.505991  0.192131  1
  Sm  Sm4  1  0.750000  0.812893  0.984932  1
  Sm  Sm5  1  0.250000  0.187107  0.015068  1
  Th  Th6  1  0.250000  0.312438  0.513008  1
  Th  Th7  1  0.750000  0.687562  0.486992  1
  Se  Se8  1  0.750000  0.054191  0.884133  1
  Se  Se9  1  0.250000  0.945809  0.115867  1
  Se  Se10  1  0.250000  0.556449  0.620484  1
  Se  Se11  1  0.750000  0.443551  0.379516  1
  Se  Se12  1  0.250000  0.872486  0.453689  1
  Se  Se13  1  0.750000  0.127514  0.546311  1
  Se  Se14  1  0.750000  0.370270  0.046818  1
  Se  Se15  1  0.250000  0.629730  0.953182  1
  Se  Se16  1  0.250000  0.294000  0.770319  1
  Se  Se17  1  0.750000  0.706000  0.229681  1
  Se  Se18  1  0.750000  0.798534  0.724488  1
  Se  Se19  1  0.250000  0.201466  0.275512  1
