# generated using pymatgen
data_K4BaAu6
_symmetry_space_group_name_H-M   'P 1'
_cell_length_a   16.05085000
_cell_length_b   16.05084906
_cell_length_c   4.63138300
_cell_angle_alpha   90.00000000
_cell_angle_beta   90.00000000
_cell_angle_gamma   162.52645794
_symmetry_Int_Tables_number   1
_chemical_formula_structural   K4BaAu6
_chemical_formula_sum   'K4 Ba1 Au6'
_cell_volume   358.27126695
_cell_formula_units_Z   1
loop_
 _symmetry_equiv_pos_site_id
 _symmetry_equiv_pos_as_xyz
  1  'x, y, z'
loop_
 _atom_site_type_symbol
 _atom_site_label
 _atom_site_symmetry_multiplicity
 _atom_site_fract_x
 _atom_site_fract_y
 _atom_site_fract_z
 _atom_site_occupancy
  K  K0  1  0.620789  0.379211  0.000000  1
  K  K1  1  0.379211  0.620789  0.000000  1
  K  K2  1  0.802705  0.197294  0.500000  1
  K  K3  1  0.197294  0.802705  0.500000  1
  Ba  Ba4  1  0.000000  0.000000  0.000000  1
  Au  Au5  1  0.728669  0.271331  0.000000  1
  Au  Au6  1  0.271331  0.728669  0.000000  1
  Au  Au7  1  0.918122  0.081878  0.500000  1
  Au  Au8  1  0.543858  0.456141  0.500000  1
  Au  Au9  1  0.456141  0.543858  0.500000  1
  Au  Au10  1  0.081878  0.918122  0.500000  1
