# generated using pymatgen
data_CeCoSi3Rh4
_symmetry_space_group_name_H-M   'P 1'
_cell_length_a   3.87611700
_cell_length_b   11.04152800
_cell_length_c   12.55192400
_cell_angle_alpha   90.00000000
_cell_angle_beta   90.00000000
_cell_angle_gamma   90.00000000
_symmetry_Int_Tables_number   1
_chemical_formula_structural   CeCoSi3Rh4
_chemical_formula_sum   'Ce4 Co4 Si12 Rh16'
_cell_volume   537.20043640
_cell_formula_units_Z   4
loop_
 _symmetry_equiv_pos_site_id
 _symmetry_equiv_pos_as_xyz
  1  'x, y, z'
loop_
 _atom_site_type_symbol
 _atom_site_label
 _atom_site_symmetry_multiplicity
 _atom_site_fract_x
 _atom_site_fract_y
 _atom_site_fract_z
 _atom_site_occupancy
  Ce  Ce0  1  0.250000  0.585542  0.707835  1
  Ce  Ce1  1  0.250000  0.914458  0.207835  1
  Ce  Ce2  1  0.750000  0.414458  0.292165  1
  Ce  Ce3  1  0.750000  0.085542  0.792165  1
  Co  Co4  1  0.250000  0.472529  0.930843  1
  Co  Co5  1  0.250000  0.027471  0.430843  1
  Co  Co6  1  0.750000  0.527471  0.069157  1
  Co  Co7  1  0.750000  0.972529  0.569157  1
  Si  Si8  1  0.250000  0.417859  0.101599  1
  Si  Si9  1  0.250000  0.082141  0.601599  1
  Si  Si10  1  0.750000  0.582141  0.898401  1
  Si  Si11  1  0.750000  0.917859  0.398401  1
  Si  Si12  1  0.250000  0.278925  0.875913  1
  Si  Si13  1  0.250000  0.221075  0.375913  1
  Si  Si14  1  0.750000  0.721075  0.124087  1
  Si  Si15  1  0.750000  0.778925  0.624087  1
  Si  Si16  1  0.250000  0.604091  0.392720  1
  Si  Si17  1  0.250000  0.895909  0.892720  1
  Si  Si18  1  0.750000  0.395909  0.607280  1
  Si  Si19  1  0.750000  0.104091  0.107280  1
  Rh  Rh20  1  0.250000  0.708748  0.989406  1
  Rh  Rh21  1  0.250000  0.791252  0.489406  1
  Rh  Rh22  1  0.750000  0.291252  0.010594  1
  Rh  Rh23  1  0.750000  0.208748  0.510594  1
  Rh  Rh24  1  0.250000  0.405821  0.485516  1
  Rh  Rh25  1  0.250000  0.094179  0.985516  1
  Rh  Rh26  1  0.750000  0.594179  0.514484  1
  Rh  Rh27  1  0.750000  0.905821  0.014484  1
  Rh  Rh28  1  0.250000  0.224116  0.179264  1
  Rh  Rh29  1  0.250000  0.275884  0.679264  1
  Rh  Rh30  1  0.750000  0.775884  0.820736  1
  Rh  Rh31  1  0.750000  0.724116  0.320736  1
  Rh  Rh32  1  0.250000  0.891778  0.698841  1
  Rh  Rh33  1  0.250000  0.608222  0.198841  1
  Rh  Rh34  1  0.750000  0.108222  0.301159  1
  Rh  Rh35  1  0.750000  0.391778  0.801159  1
