# generated using pymatgen
data_Sc4CuSi3(GeIr2)3
_symmetry_space_group_name_H-M   'P 1'
_cell_length_a   7.01116773
_cell_length_b   7.02276122
_cell_length_c   7.03709772
_cell_angle_alpha   109.51161704
_cell_angle_beta   109.46113283
_cell_angle_gamma   109.50903315
_symmetry_Int_Tables_number   1
_chemical_formula_structural   Sc4CuSi3(GeIr2)3
_chemical_formula_sum   'Sc4 Cu1 Si3 Ge3 Ir6'
_cell_volume   266.50429857
_cell_formula_units_Z   1
loop_
 _symmetry_equiv_pos_site_id
 _symmetry_equiv_pos_as_xyz
  1  'x, y, z'
loop_
 _atom_site_type_symbol
 _atom_site_label
 _atom_site_symmetry_multiplicity
 _atom_site_fract_x
 _atom_site_fract_y
 _atom_site_fract_z
 _atom_site_occupancy
  Sc  Sc0  1  0.002713  0.997194  0.526448  1
  Sc  Sc1  1  0.003464  0.492278  0.005450  1
  Sc  Sc2  1  0.486565  0.997282  0.993576  1
  Sc  Sc3  1  0.504363  0.510461  0.506098  1
  Cu  Cu4  1  0.752219  0.253100  0.505571  1
  Si  Si5  1  0.324489  0.324398  0.001537  1
  Si  Si6  1  0.674325  0.996973  0.679109  1
  Si  Si7  1  0.001284  0.678920  0.679192  1
  Ge  Ge8  1  0.696010  0.695212  0.002984  1
  Ge  Ge9  1  0.303635  0.998492  0.308162  1
  Ge  Ge10  1  0.999541  0.304452  0.307870  1
  Ir  Ir11  1  0.745329  0.493317  0.254955  1
  Ir  Ir12  1  0.506590  0.252494  0.749842  1
  Ir  Ir13  1  0.241011  0.494985  0.749898  1
  Ir  Ir14  1  0.250147  0.750021  0.502901  1
  Ir  Ir15  1  0.506567  0.758465  0.255004  1
  Ir  Ir16  1  0.001746  0.001955  0.971403  1
