# generated using pymatgen
data_Bi2SbSe3
_symmetry_space_group_name_H-M   'P 1'
_cell_length_a   4.22789400
_cell_length_b   4.22789434
_cell_length_c   24.11333400
_cell_angle_alpha   90.00000000
_cell_angle_beta   90.00000000
_cell_angle_gamma   119.99999735
_symmetry_Int_Tables_number   1
_chemical_formula_structural   Bi2SbSe3
_chemical_formula_sum   'Bi4 Sb2 Se6'
_cell_volume   373.28120249
_cell_formula_units_Z   2
loop_
 _symmetry_equiv_pos_site_id
 _symmetry_equiv_pos_as_xyz
  1  'x, y, z'
loop_
 _atom_site_type_symbol
 _atom_site_label
 _atom_site_symmetry_multiplicity
 _atom_site_fract_x
 _atom_site_fract_y
 _atom_site_fract_z
 _atom_site_occupancy
  Bi  Bi0  1  0.666667  0.333333  0.713037  1
  Bi  Bi1  1  0.333333  0.666667  0.286963  1
  Bi  Bi2  1  0.000000  0.000000  0.871867  1
  Bi  Bi3  1  0.000000  0.000000  0.128133  1
  Sb  Sb4  1  0.666667  0.333333  0.466792  1
  Sb  Sb5  1  0.333333  0.666667  0.533208  1
  Se  Se6  1  0.000000  0.000000  0.648018  1
  Se  Se7  1  0.000000  0.000000  0.351982  1
  Se  Se8  1  0.666667  0.333333  0.208274  1
  Se  Se9  1  0.333333  0.666667  0.791726  1
  Se  Se10  1  0.666667  0.333333  0.935634  1
  Se  Se11  1  0.333333  0.666667  0.064366  1
