# generated using pymatgen
data_Ca4Ga(TcO4)3
_symmetry_space_group_name_H-M   'P 1'
_cell_length_a   5.43358679
_cell_length_b   5.59133213
_cell_length_c   7.75951700
_cell_angle_alpha   89.71617050
_cell_angle_beta   89.86188481
_cell_angle_gamma   89.94484158
_symmetry_Int_Tables_number   1
_chemical_formula_structural   Ca4Ga(TcO4)3
_chemical_formula_sum   'Ca4 Ga1 Tc3 O12'
_cell_volume   235.73811193
_cell_formula_units_Z   1
loop_
 _symmetry_equiv_pos_site_id
 _symmetry_equiv_pos_as_xyz
  1  'x, y, z'
loop_
 _atom_site_type_symbol
 _atom_site_label
 _atom_site_symmetry_multiplicity
 _atom_site_fract_x
 _atom_site_fract_y
 _atom_site_fract_z
 _atom_site_occupancy
  Ca  Ca0  1  0.987668  0.951614  0.756196  1
  Ca  Ca1  1  0.012332  0.047858  0.243800  1
  Ca  Ca2  1  0.486358  0.554551  0.242322  1
  Ca  Ca3  1  0.513633  0.445019  0.757681  1
  Ga  Ga4  1  0.499961  0.999740  0.000045  1
  Tc  Tc5  1  0.999997  0.499762  0.000041  1
  Tc  Tc6  1  0.500034  0.999712  0.499970  1
  Tc  Tc7  1  0.000022  0.499741  0.499962  1
  O  O8  1  0.794345  0.206293  0.546499  1
  O  O9  1  0.205650  0.793217  0.453506  1
  O  O10  1  0.087172  0.523419  0.751565  1
  O  O11  1  0.912833  0.476076  0.248418  1
  O  O12  1  0.296798  0.295204  0.046073  1
  O  O13  1  0.703204  0.704291  0.953927  1
  O  O14  1  0.702760  0.707761  0.547220  1
  O  O15  1  0.297253  0.291739  0.452776  1
  O  O16  1  0.408259  0.027115  0.750251  1
  O  O17  1  0.591739  0.972409  0.249763  1
  O  O18  1  0.202293  0.793808  0.046621  1
  O  O19  1  0.797695  0.205662  0.953364  1
