# generated using pymatgen
data_Pr5LuU4O20
_symmetry_space_group_name_H-M   'P 1'
_cell_length_a   6.76681825
_cell_length_b   7.70286128
_cell_length_c   8.61540645
_cell_angle_alpha   101.57122385
_cell_angle_beta   97.68119218
_cell_angle_gamma   107.16953142
_symmetry_Int_Tables_number   1
_chemical_formula_structural   Pr5LuU4O20
_chemical_formula_sum   'Pr5 Lu1 U4 O20'
_cell_volume   411.31517262
_cell_formula_units_Z   1
loop_
 _symmetry_equiv_pos_site_id
 _symmetry_equiv_pos_as_xyz
  1  'x, y, z'
loop_
 _atom_site_type_symbol
 _atom_site_label
 _atom_site_symmetry_multiplicity
 _atom_site_fract_x
 _atom_site_fract_y
 _atom_site_fract_z
 _atom_site_occupancy
  Pr  Pr0  1  0.614178  0.704942  0.699180  1
  Pr  Pr1  1  0.385822  0.295058  0.300820  1
  Pr  Pr2  1  0.198904  0.898222  0.891533  1
  Pr  Pr3  1  0.000000  0.500000  0.500000  1
  Pr  Pr4  1  0.801096  0.101778  0.108467  1
  Lu  Lu5  1  0.000000  0.000000  0.500000  1
  U  U6  1  0.401823  0.804813  0.302672  1
  U  U7  1  0.197815  0.400051  0.899841  1
  U  U8  1  0.802185  0.599949  0.100159  1
  U  U9  1  0.598177  0.195187  0.697328  1
  O  O10  1  0.437992  0.534620  0.132964  1
  O  O11  1  0.556972  0.993721  0.836704  1
  O  O12  1  0.270701  0.151114  0.739298  1
  O  O13  1  0.360072  0.600294  0.438119  1
  O  O14  1  0.054460  0.735745  0.327911  1
  O  O15  1  0.443028  0.006279  0.163296  1
  O  O16  1  0.150137  0.189359  0.028432  1
  O  O17  1  0.562008  0.465380  0.867036  1
  O  O18  1  0.855789  0.341553  0.948688  1
  O  O19  1  0.254437  0.600889  0.762956  1
  O  O20  1  0.956642  0.784616  0.642922  1
  O  O21  1  0.350008  0.054834  0.456744  1
  O  O22  1  0.649992  0.945166  0.543256  1
  O  O23  1  0.043358  0.215384  0.357078  1
  O  O24  1  0.745563  0.399111  0.237044  1
  O  O25  1  0.144211  0.658447  0.051312  1
  O  O26  1  0.849863  0.810641  0.971568  1
  O  O27  1  0.945540  0.264255  0.672089  1
  O  O28  1  0.639928  0.399706  0.561881  1
  O  O29  1  0.729299  0.848886  0.260702  1
