# generated using pymatgen
data_La5Nd(OsI3)2
_symmetry_space_group_name_H-M   'P 1'
_cell_length_a   4.42814100
_cell_length_b   9.57251342
_cell_length_c   12.45688589
_cell_angle_alpha   86.90330553
_cell_angle_beta   90.00000000
_cell_angle_gamma   90.00000000
_symmetry_Int_Tables_number   1
_chemical_formula_structural   La5Nd(OsI3)2
_chemical_formula_sum   'La5 Nd1 Os2 I6'
_cell_volume   527.25691725
_cell_formula_units_Z   1
loop_
 _symmetry_equiv_pos_site_id
 _symmetry_equiv_pos_as_xyz
  1  'x, y, z'
loop_
 _atom_site_type_symbol
 _atom_site_label
 _atom_site_symmetry_multiplicity
 _atom_site_fract_x
 _atom_site_fract_y
 _atom_site_fract_z
 _atom_site_occupancy
  La  La0  1  0.750000  0.687706  0.119162  1
  La  La1  1  0.250000  0.884027  0.330694  1
  La  La2  1  0.250000  0.311980  0.882357  1
  La  La3  1  0.250000  0.900430  0.894739  1
  La  La4  1  0.750000  0.117622  0.668758  1
  Nd  Nd5  1  0.750000  0.097425  0.106361  1
  Os  Os6  1  0.250000  0.887913  0.123973  1
  Os  Os7  1  0.750000  0.111899  0.874721  1
  I  I8  1  0.250000  0.393401  0.137985  1
  I  I9  1  0.750000  0.133850  0.378216  1
  I  I10  1  0.750000  0.604279  0.862856  1
  I  I11  1  0.250000  0.365990  0.620633  1
  I  I12  1  0.750000  0.635340  0.380317  1
  I  I13  1  0.250000  0.868140  0.619226  1
