# generated using pymatgen
data_Lu10Zn4BiPb
_symmetry_space_group_name_H-M   'P 1'
_cell_length_a   8.50527544
_cell_length_b   8.50527499
_cell_length_c   8.50527553
_cell_angle_alpha   124.52430099
_cell_angle_beta   124.52429549
_cell_angle_gamma   82.32745119
_symmetry_Int_Tables_number   1
_chemical_formula_structural   Lu10Zn4BiPb
_chemical_formula_sum   'Lu10 Zn4 Bi1 Pb1'
_cell_volume   401.35247103
_cell_formula_units_Z   1
loop_
 _symmetry_equiv_pos_site_id
 _symmetry_equiv_pos_as_xyz
  1  'x, y, z'
loop_
 _atom_site_type_symbol
 _atom_site_label
 _atom_site_symmetry_multiplicity
 _atom_site_fract_x
 _atom_site_fract_y
 _atom_site_fract_z
 _atom_site_occupancy
  Lu  Lu0  1  0.002253  0.002253  0.000000  1
  Lu  Lu1  1  0.497747  0.497747  0.000000  1
  Lu  Lu2  1  0.798213  0.295106  0.807537  1
  Lu  Lu3  1  0.204894  0.701787  0.192463  1
  Lu  Lu4  1  0.487570  0.990677  0.192463  1
  Lu  Lu5  1  0.295106  0.487570  0.496893  1
  Lu  Lu6  1  0.012430  0.204894  0.503107  1
  Lu  Lu7  1  0.509323  0.012430  0.807537  1
  Lu  Lu8  1  0.701787  0.509323  0.496893  1
  Lu  Lu9  1  0.990677  0.798213  0.503107  1
  Zn  Zn10  1  0.136187  0.636187  0.772374  1
  Zn  Zn11  1  0.863813  0.363813  0.227626  1
  Zn  Zn12  1  0.636187  0.863813  0.500000  1
  Zn  Zn13  1  0.363813  0.136187  0.500000  1
  Bi  Bi14  1  0.750000  0.750000  0.000000  1
  Pb  Pb15  1  0.250000  0.250000  0.000000  1
