# generated using pymatgen
data_Tb4Co15Si4P8Ru5
_symmetry_space_group_name_H-M   'P 1'
_cell_length_a   3.72007600
_cell_length_b   10.49517023
_cell_length_c   11.89803101
_cell_angle_alpha   90.27308573
_cell_angle_beta   90.00000000
_cell_angle_gamma   90.00000000
_symmetry_Int_Tables_number   1
_chemical_formula_structural   Tb4Co15Si4P8Ru5
_chemical_formula_sum   'Tb4 Co15 Si4 P8 Ru5'
_cell_volume   464.52753611
_cell_formula_units_Z   1
loop_
 _symmetry_equiv_pos_site_id
 _symmetry_equiv_pos_as_xyz
  1  'x, y, z'
loop_
 _atom_site_type_symbol
 _atom_site_label
 _atom_site_symmetry_multiplicity
 _atom_site_fract_x
 _atom_site_fract_y
 _atom_site_fract_z
 _atom_site_occupancy
  Tb  Tb0  1  0.250000  0.586837  0.704687  1
  Tb  Tb1  1  0.250000  0.914673  0.202829  1
  Tb  Tb2  1  0.750000  0.416932  0.293141  1
  Tb  Tb3  1  0.750000  0.082710  0.797529  1
  Co  Co4  1  0.250000  0.087266  0.991213  1
  Co  Co5  1  0.750000  0.600073  0.512876  1
  Co  Co6  1  0.750000  0.907003  0.010466  1
  Co  Co7  1  0.250000  0.211963  0.173602  1
  Co  Co8  1  0.250000  0.282973  0.678552  1
  Co  Co9  1  0.750000  0.778829  0.824871  1
  Co  Co10  1  0.750000  0.722836  0.323490  1
  Co  Co11  1  0.250000  0.882974  0.702362  1
  Co  Co12  1  0.250000  0.618227  0.200317  1
  Co  Co13  1  0.750000  0.109332  0.297284  1
  Co  Co14  1  0.750000  0.389625  0.799074  1
  Co  Co15  1  0.250000  0.472939  0.929427  1
  Co  Co16  1  0.250000  0.027071  0.429861  1
  Co  Co17  1  0.750000  0.539089  0.065430  1
  Co  Co18  1  0.750000  0.960469  0.565983  1
  Si  Si19  1  0.250000  0.416485  0.109454  1
  Si  Si20  1  0.250000  0.081502  0.611634  1
  Si  Si21  1  0.250000  0.272757  0.869894  1
  Si  Si22  1  0.250000  0.225050  0.366699  1
  P  P23  1  0.750000  0.580187  0.886493  1
  P  P24  1  0.750000  0.920622  0.385813  1
  P  P25  1  0.750000  0.727977  0.133828  1
  P  P26  1  0.750000  0.772474  0.635012  1
  P  P27  1  0.250000  0.601863  0.387164  1
  P  P28  1  0.250000  0.902797  0.889963  1
  P  P29  1  0.750000  0.399459  0.612662  1
  P  P30  1  0.750000  0.097469  0.109171  1
  Ru  Ru31  1  0.250000  0.717915  0.991762  1
  Ru  Ru32  1  0.250000  0.785832  0.491118  1
  Ru  Ru33  1  0.750000  0.287478  0.011594  1
  Ru  Ru34  1  0.750000  0.205713  0.513972  1
  Ru  Ru35  1  0.250000  0.412602  0.490772  1
