# generated using pymatgen
data_Nb3Ga2CoC
_symmetry_space_group_name_H-M   'P 1'
_cell_length_a   8.22418463
_cell_length_b   8.22418489
_cell_length_c   8.22418400
_cell_angle_alpha   60.00000357
_cell_angle_beta   60.00000254
_cell_angle_gamma   60.00000040
_symmetry_Int_Tables_number   1
_chemical_formula_structural   Nb3Ga2CoC
_chemical_formula_sum   'Nb12 Ga8 Co4 C4'
_cell_volume   393.33587468
_cell_formula_units_Z   4
loop_
 _symmetry_equiv_pos_site_id
 _symmetry_equiv_pos_as_xyz
  1  'x, y, z'
loop_
 _atom_site_type_symbol
 _atom_site_label
 _atom_site_symmetry_multiplicity
 _atom_site_fract_x
 _atom_site_fract_y
 _atom_site_fract_z
 _atom_site_occupancy
  Nb  Nb0  1  0.693185  0.306815  0.693185  1
  Nb  Nb1  1  0.943185  0.556815  0.556815  1
  Nb  Nb2  1  0.556815  0.943185  0.943185  1
  Nb  Nb3  1  0.943185  0.556815  0.943185  1
  Nb  Nb4  1  0.556815  0.556815  0.943185  1
  Nb  Nb5  1  0.943185  0.943185  0.556815  1
  Nb  Nb6  1  0.693185  0.693185  0.306815  1
  Nb  Nb7  1  0.306815  0.693185  0.693185  1
  Nb  Nb8  1  0.693185  0.306815  0.306815  1
  Nb  Nb9  1  0.306815  0.306815  0.693185  1
  Nb  Nb10  1  0.556815  0.943185  0.556815  1
  Nb  Nb11  1  0.306815  0.693185  0.306815  1
  Ga  Ga12  1  0.333751  0.333751  0.333751  1
  Ga  Ga13  1  0.251252  0.916249  0.916249  1
  Ga  Ga14  1  0.916249  0.251252  0.916249  1
  Ga  Ga15  1  0.916249  0.916249  0.251252  1
  Ga  Ga16  1  0.333751  0.998748  0.333751  1
  Ga  Ga17  1  0.333751  0.333751  0.998748  1
  Ga  Ga18  1  0.998748  0.333751  0.333751  1
  Ga  Ga19  1  0.916249  0.916249  0.916249  1
  Co  Co20  1  0.125000  0.125000  0.125000  1
  Co  Co21  1  0.625000  0.125000  0.125000  1
  Co  Co22  1  0.125000  0.625000  0.125000  1
  Co  Co23  1  0.125000  0.125000  0.625000  1
  C  C24  1  0.625000  0.625000  0.625000  1
  C  C25  1  0.125000  0.625000  0.625000  1
  C  C26  1  0.625000  0.125000  0.625000  1
  C  C27  1  0.625000  0.625000  0.125000  1
