# generated using pymatgen
data_Sc12InTc3Hg
_symmetry_space_group_name_H-M   'P 1'
_cell_length_a   7.86947444
_cell_length_b   7.86947505
_cell_length_c   7.86947400
_cell_angle_alpha   107.97978675
_cell_angle_beta   109.99712725
_cell_angle_gamma   110.44728082
_symmetry_Int_Tables_number   1
_chemical_formula_structural   Sc12InTc3Hg
_chemical_formula_sum   'Sc12 In1 Tc3 Hg1'
_cell_volume   374.96299129
_cell_formula_units_Z   1
loop_
 _symmetry_equiv_pos_site_id
 _symmetry_equiv_pos_as_xyz
  1  'x, y, z'
loop_
 _atom_site_type_symbol
 _atom_site_label
 _atom_site_symmetry_multiplicity
 _atom_site_fract_x
 _atom_site_fract_y
 _atom_site_fract_z
 _atom_site_occupancy
  Sc  Sc0  1  0.312679  0.313637  0.626317  1
  Sc  Sc1  1  0.687321  0.686363  0.373683  1
  Sc  Sc2  1  0.687321  0.313637  0.000958  1
  Sc  Sc3  1  0.312679  0.686363  0.999042  1
  Sc  Sc4  1  0.187768  0.427238  0.239469  1
  Sc  Sc5  1  0.812232  0.572762  0.760531  1
  Sc  Sc6  1  0.187768  0.948297  0.760531  1
  Sc  Sc7  1  0.941727  0.191290  0.750439  1
  Sc  Sc8  1  0.812232  0.051703  0.239469  1
  Sc  Sc9  1  0.058273  0.808710  0.249561  1
  Sc  Sc10  1  0.440851  0.191290  0.249561  1
  Sc  Sc11  1  0.559149  0.808710  0.750439  1
  In  In12  1  0.000000  0.500000  0.500000  1
  Tc  Tc13  1  0.340500  0.340500  0.000000  1
  Tc  Tc14  1  0.659500  0.659500  0.000000  1
  Tc  Tc15  1  0.000000  0.000000  0.000000  1
  Hg  Hg16  1  0.500000  0.000000  0.500000  1
