# generated using pymatgen
data_NdHo2ThS6
_symmetry_space_group_name_H-M   'P 1'
_cell_length_a   10.71960300
_cell_length_b   3.91930600
_cell_length_c   10.41267600
_cell_angle_alpha   90.00000000
_cell_angle_beta   90.00000000
_cell_angle_gamma   90.00000000
_symmetry_Int_Tables_number   1
_chemical_formula_structural   NdHo2ThS6
_chemical_formula_sum   'Nd2 Ho4 Th2 S12'
_cell_volume   437.47196721
_cell_formula_units_Z   2
loop_
 _symmetry_equiv_pos_site_id
 _symmetry_equiv_pos_as_xyz
  1  'x, y, z'
loop_
 _atom_site_type_symbol
 _atom_site_label
 _atom_site_symmetry_multiplicity
 _atom_site_fract_x
 _atom_site_fract_y
 _atom_site_fract_z
 _atom_site_occupancy
  Nd  Nd0  1  0.697105  0.750000  0.496996  1
  Nd  Nd1  1  0.197105  0.750000  0.003004  1
  Ho  Ho2  1  0.487493  0.250000  0.186918  1
  Ho  Ho3  1  0.987493  0.250000  0.313082  1
  Ho  Ho4  1  0.511461  0.750000  0.813246  1
  Ho  Ho5  1  0.011461  0.750000  0.686754  1
  Th  Th6  1  0.305128  0.250000  0.497080  1
  Th  Th7  1  0.805128  0.250000  0.002920  1
  S  S8  1  0.543457  0.250000  0.630666  1
  S  S9  1  0.043457  0.250000  0.869334  1
  S  S10  1  0.453106  0.750000  0.368775  1
  S  S11  1  0.953106  0.750000  0.131225  1
  S  S12  1  0.615649  0.750000  0.054806  1
  S  S13  1  0.115649  0.750000  0.445194  1
  S  S14  1  0.385347  0.250000  0.944836  1
  S  S15  1  0.885347  0.250000  0.555164  1
  S  S16  1  0.729155  0.250000  0.292199  1
  S  S17  1  0.229155  0.250000  0.207801  1
  S  S18  1  0.272100  0.750000  0.700392  1
  S  S19  1  0.772100  0.750000  0.799608  1
