# generated using pymatgen
data_LaHo2RuI3
_symmetry_space_group_name_H-M   'P 1'
_cell_length_a   4.24766400
_cell_length_b   9.07135860
_cell_length_c   12.56478857
_cell_angle_alpha   94.49175415
_cell_angle_beta   90.00000000
_cell_angle_gamma   90.00000000
_symmetry_Int_Tables_number   1
_chemical_formula_structural   LaHo2RuI3
_chemical_formula_sum   'La2 Ho4 Ru2 I6'
_cell_volume   482.66047709
_cell_formula_units_Z   2
loop_
 _symmetry_equiv_pos_site_id
 _symmetry_equiv_pos_as_xyz
  1  'x, y, z'
loop_
 _atom_site_type_symbol
 _atom_site_label
 _atom_site_symmetry_multiplicity
 _atom_site_fract_x
 _atom_site_fract_y
 _atom_site_fract_z
 _atom_site_occupancy
  La  La0  1  0.750000  0.273355  0.604220  1
  La  La1  1  0.250000  0.726645  0.395780  1
  Ho  Ho2  1  0.750000  0.882721  0.626797  1
  Ho  Ho3  1  0.250000  0.117279  0.373203  1
  Ho  Ho4  1  0.750000  0.900343  0.183181  1
  Ho  Ho5  1  0.250000  0.099657  0.816819  1
  Ru  Ru6  1  0.750000  0.936505  0.403032  1
  Ru  Ru7  1  0.250000  0.063495  0.596968  1
  I  I8  1  0.750000  0.411906  0.359026  1
  I  I9  1  0.250000  0.588094  0.640974  1
  I  I10  1  0.750000  0.867598  0.889684  1
  I  I11  1  0.250000  0.132402  0.110316  1
  I  I12  1  0.750000  0.346631  0.871358  1
  I  I13  1  0.250000  0.653369  0.128642  1
