# generated using pymatgen
data_NdYAl20(RuRh)2
_symmetry_space_group_name_H-M   'P 1'
_cell_length_a   6.87260462
_cell_length_b   6.86633088
_cell_length_c   9.19057500
_cell_angle_alpha   90.00000000
_cell_angle_beta   90.00000000
_cell_angle_gamma   97.13981448
_symmetry_Int_Tables_number   1
_chemical_formula_structural   NdYAl20(RuRh)2
_chemical_formula_sum   'Nd1 Y1 Al20 Ru2 Rh2'
_cell_volume   430.33636168
_cell_formula_units_Z   1
loop_
 _symmetry_equiv_pos_site_id
 _symmetry_equiv_pos_as_xyz
  1  'x, y, z'
loop_
 _atom_site_type_symbol
 _atom_site_label
 _atom_site_symmetry_multiplicity
 _atom_site_fract_x
 _atom_site_fract_y
 _atom_site_fract_z
 _atom_site_occupancy
  Nd  Nd0  1  0.871349  0.124376  0.750000  1
  Y  Y1  1  0.131120  0.874370  0.250000  1
  Al  Al2  1  0.620531  0.375926  0.548682  1
  Al  Al3  1  0.378583  0.624680  0.450267  1
  Al  Al4  1  0.378583  0.624680  0.049733  1
  Al  Al5  1  0.620531  0.375926  0.951318  1
  Al  Al6  1  0.225989  0.223836  0.497874  1
  Al  Al7  1  0.774292  0.775754  0.499857  1
  Al  Al8  1  0.774292  0.775754  0.000143  1
  Al  Al9  1  0.225989  0.223836  0.002126  1
  Al  Al10  1  0.843687  0.155092  0.102677  1
  Al  Al11  1  0.157443  0.843662  0.898771  1
  Al  Al12  1  0.157443  0.843662  0.601229  1
  Al  Al13  1  0.843687  0.155092  0.397323  1
  Al  Al14  1  0.857457  0.590810  0.750000  1
  Al  Al15  1  0.143197  0.411982  0.250000  1
  Al  Al16  1  0.409964  0.140568  0.750000  1
  Al  Al17  1  0.587459  0.858831  0.250000  1
  Al  Al18  1  0.224980  0.482090  0.750000  1
  Al  Al19  1  0.776255  0.519341  0.250000  1
  Al  Al20  1  0.517100  0.777266  0.750000  1
  Al  Al21  1  0.481493  0.221782  0.250000  1
  Ru  Ru22  1  0.499451  0.999939  0.001094  1
  Ru  Ru23  1  0.499451  0.999939  0.498906  1
  Rh  Rh24  1  0.999837  0.500403  0.499122  1
  Rh  Rh25  1  0.999837  0.500403  0.000878  1
