# generated using pymatgen
data_Pr2NdDy2(Sn5Rh2)2
_symmetry_space_group_name_H-M   'P 1'
_cell_length_a   14.18856500
_cell_length_b   14.18856500
_cell_length_c   4.58348400
_cell_angle_alpha   90.00000000
_cell_angle_beta   90.00000000
_cell_angle_gamma   90.00000000
_symmetry_Int_Tables_number   1
_chemical_formula_structural   Pr2NdDy2(Sn5Rh2)2
_chemical_formula_sum   'Pr4 Nd2 Dy4 Sn20 Rh8'
_cell_volume   922.72580833
_cell_formula_units_Z   2
loop_
 _symmetry_equiv_pos_site_id
 _symmetry_equiv_pos_as_xyz
  1  'x, y, z'
loop_
 _atom_site_type_symbol
 _atom_site_label
 _atom_site_symmetry_multiplicity
 _atom_site_fract_x
 _atom_site_fract_y
 _atom_site_fract_z
 _atom_site_occupancy
  Pr  Pr0  1  0.888149  0.388149  0.500000  1
  Pr  Pr1  1  0.111851  0.611851  0.500000  1
  Pr  Pr2  1  0.388149  0.111851  0.500000  1
  Pr  Pr3  1  0.611851  0.888149  0.500000  1
  Nd  Nd4  1  0.500000  0.500000  0.000000  1
  Nd  Nd5  1  0.000000  0.000000  0.000000  1
  Dy  Dy6  1  0.677138  0.177138  0.500000  1
  Dy  Dy7  1  0.322862  0.822862  0.500000  1
  Dy  Dy8  1  0.177138  0.322862  0.500000  1
  Dy  Dy9  1  0.822862  0.677138  0.500000  1
  Sn  Sn10  1  0.570241  0.070241  0.000000  1
  Sn  Sn11  1  0.429759  0.929759  0.000000  1
  Sn  Sn12  1  0.070241  0.429759  0.000000  1
  Sn  Sn13  1  0.929759  0.570241  0.000000  1
  Sn  Sn14  1  0.654093  0.698374  0.000000  1
  Sn  Sn15  1  0.345907  0.301626  0.000000  1
  Sn  Sn16  1  0.154093  0.801626  0.000000  1
  Sn  Sn17  1  0.845907  0.198374  0.000000  1
  Sn  Sn18  1  0.301626  0.654093  0.000000  1
  Sn  Sn19  1  0.698374  0.345907  0.000000  1
  Sn  Sn20  1  0.198374  0.154093  0.000000  1
  Sn  Sn21  1  0.801626  0.845907  0.000000  1
  Sn  Sn22  1  0.663160  0.506007  0.500000  1
  Sn  Sn23  1  0.336840  0.493993  0.500000  1
  Sn  Sn24  1  0.163160  0.993993  0.500000  1
  Sn  Sn25  1  0.836840  0.006007  0.500000  1
  Sn  Sn26  1  0.493993  0.663160  0.500000  1
  Sn  Sn27  1  0.506007  0.336840  0.500000  1
  Sn  Sn28  1  0.006007  0.163160  0.500000  1
  Sn  Sn29  1  0.993993  0.836840  0.500000  1
  Rh  Rh30  1  0.746793  0.529864  0.000000  1
  Rh  Rh31  1  0.253207  0.470136  0.000000  1
  Rh  Rh32  1  0.246793  0.970136  0.000000  1
  Rh  Rh33  1  0.753207  0.029864  0.000000  1
  Rh  Rh34  1  0.470136  0.746793  0.000000  1
  Rh  Rh35  1  0.529864  0.253207  0.000000  1
  Rh  Rh36  1  0.029864  0.246793  0.000000  1
  Rh  Rh37  1  0.970136  0.753207  0.000000  1
