# generated using pymatgen
data_Tb16Cd4NiIr2Rh
_symmetry_space_group_name_H-M   'P 1'
_cell_length_a   9.63871594
_cell_length_b   9.63871580
_cell_length_c   9.62478538
_cell_angle_alpha   60.20415560
_cell_angle_beta   60.20416008
_cell_angle_gamma   60.28594123
_symmetry_Int_Tables_number   1
_chemical_formula_structural   Tb16Cd4NiIr2Rh
_chemical_formula_sum   'Tb16 Cd4 Ni1 Ir2 Rh1'
_cell_volume   635.59901555
_cell_formula_units_Z   1
loop_
 _symmetry_equiv_pos_site_id
 _symmetry_equiv_pos_as_xyz
  1  'x, y, z'
loop_
 _atom_site_type_symbol
 _atom_site_label
 _atom_site_symmetry_multiplicity
 _atom_site_fract_x
 _atom_site_fract_y
 _atom_site_fract_z
 _atom_site_occupancy
  Tb  Tb0  1  0.598755  0.598755  0.598312  1
  Tb  Tb1  1  0.598472  0.598472  0.203029  1
  Tb  Tb2  1  0.598640  0.202784  0.598204  1
  Tb  Tb3  1  0.202784  0.598640  0.598204  1
  Tb  Tb4  1  0.061338  0.440010  0.439519  1
  Tb  Tb5  1  0.438146  0.060101  0.060751  1
  Tb  Tb6  1  0.440010  0.061338  0.439519  1
  Tb  Tb7  1  0.060101  0.438146  0.060751  1
  Tb  Tb8  1  0.439804  0.439804  0.061731  1
  Tb  Tb9  1  0.060260  0.060260  0.438111  1
  Tb  Tb10  1  0.188031  0.813334  0.811932  1
  Tb  Tb11  1  0.814226  0.187081  0.187023  1
  Tb  Tb12  1  0.813334  0.188031  0.811932  1
  Tb  Tb13  1  0.187081  0.814226  0.187023  1
  Tb  Tb14  1  0.811901  0.811901  0.188533  1
  Tb  Tb15  1  0.186466  0.186466  0.814238  1
  Cd  Cd16  1  0.830610  0.830610  0.830494  1
  Cd  Cd17  1  0.831428  0.831428  0.506383  1
  Cd  Cd18  1  0.831414  0.506287  0.831377  1
  Cd  Cd19  1  0.506287  0.831414  0.831377  1
  Ni  Ni20  1  0.392252  0.392252  0.392289  1
  Ir  Ir21  1  0.392322  0.824102  0.392406  1
  Ir  Ir22  1  0.824102  0.392322  0.392406  1
  Rh  Rh23  1  0.392240  0.392240  0.824461  1
