# generated using pymatgen
data_Er4Co3TcOs4
_symmetry_space_group_name_H-M   'P 1'
_cell_length_a   5.10881037
_cell_length_b   5.21981621
_cell_length_c   8.65722300
_cell_angle_alpha   90.00000000
_cell_angle_beta   90.00000000
_cell_angle_gamma   119.03328816
_symmetry_Int_Tables_number   1
_chemical_formula_structural   Er4Co3TcOs4
_chemical_formula_sum   'Er4 Co3 Tc1 Os4'
_cell_volume   201.85192661
_cell_formula_units_Z   1
loop_
 _symmetry_equiv_pos_site_id
 _symmetry_equiv_pos_as_xyz
  1  'x, y, z'
loop_
 _atom_site_type_symbol
 _atom_site_label
 _atom_site_symmetry_multiplicity
 _atom_site_fract_x
 _atom_site_fract_y
 _atom_site_fract_z
 _atom_site_occupancy
  Er  Er0  1  0.329459  0.668759  0.439156  1
  Er  Er1  1  0.663623  0.334287  0.567323  1
  Er  Er2  1  0.663623  0.334287  0.932677  1
  Er  Er3  1  0.329459  0.668759  0.060844  1
  Co  Co4  1  0.826961  0.652297  0.250000  1
  Co  Co5  1  0.183329  0.834570  0.750000  1
  Co  Co6  1  0.178723  0.340066  0.750000  1
  Tc  Tc7  1  0.831494  0.161765  0.250000  1
  Os  Os8  1  0.990386  0.002391  0.504575  1
  Os  Os9  1  0.990386  0.002391  0.995425  1
  Os  Os10  1  0.346268  0.166753  0.250000  1
  Os  Os11  1  0.666287  0.833678  0.750000  1
