# generated using pymatgen
data_EuThIr3Rh
_symmetry_space_group_name_H-M   'P 1'
_cell_length_a   5.42800452
_cell_length_b   5.41598991
_cell_length_c   5.41599000
_cell_angle_alpha   59.99999943
_cell_angle_beta   60.07319278
_cell_angle_gamma   60.07320077
_symmetry_Int_Tables_number   1
_chemical_formula_structural   EuThIr3Rh
_chemical_formula_sum   'Eu1 Th1 Ir3 Rh1'
_cell_volume   112.70949554
_cell_formula_units_Z   1
loop_
 _symmetry_equiv_pos_site_id
 _symmetry_equiv_pos_as_xyz
  1  'x, y, z'
loop_
 _atom_site_type_symbol
 _atom_site_label
 _atom_site_symmetry_multiplicity
 _atom_site_fract_x
 _atom_site_fract_y
 _atom_site_fract_z
 _atom_site_occupancy
  Eu  Eu0  1  0.999158  0.000281  0.000281  1
  Th  Th1  1  0.251615  0.249461  0.249461  1
  Ir  Ir2  1  0.625058  0.625394  0.124155  1
  Ir  Ir3  1  0.625058  0.625394  0.625394  1
  Ir  Ir4  1  0.625058  0.124155  0.625394  1
  Rh  Rh5  1  0.124054  0.625315  0.625315  1
