# generated using pymatgen
data_KSrPd4
_symmetry_space_group_name_H-M   'P 1'
_cell_length_a   5.60470400
_cell_length_b   5.60470456
_cell_length_c   5.60470400
_cell_angle_alpha   119.99999668
_cell_angle_beta   90.00000000
_cell_angle_gamma   119.99999668
_symmetry_Int_Tables_number   1
_chemical_formula_structural   KSrPd4
_chemical_formula_sum   'K1 Sr1 Pd4'
_cell_volume   124.49248414
_cell_formula_units_Z   1
loop_
 _symmetry_equiv_pos_site_id
 _symmetry_equiv_pos_as_xyz
  1  'x, y, z'
loop_
 _atom_site_type_symbol
 _atom_site_label
 _atom_site_symmetry_multiplicity
 _atom_site_fract_x
 _atom_site_fract_y
 _atom_site_fract_z
 _atom_site_occupancy
  K  K0  1  0.000000  0.000000  0.000000  1
  Sr  Sr1  1  0.750001  0.500001  0.250000  1
  Pd  Pd2  1  0.375103  0.750207  0.125309  1
  Pd  Pd3  1  0.874691  0.249794  0.624897  1
  Pd  Pd4  1  0.375103  0.249794  0.624898  1
  Pd  Pd5  1  0.375103  0.750207  0.624898  1
