# generated using pymatgen
data_Ba2EuSi2(B3O8)2
_symmetry_space_group_name_H-M   'P 1'
_cell_length_a   5.05901769
_cell_length_b   7.66136892
_cell_length_c   8.52022677
_cell_angle_alpha   102.09633555
_cell_angle_beta   102.31017052
_cell_angle_gamma   87.70054663
_symmetry_Int_Tables_number   1
_chemical_formula_structural   Ba2EuSi2(B3O8)2
_chemical_formula_sum   'Ba2 Eu1 Si2 B6 O16'
_cell_volume   315.47528111
_cell_formula_units_Z   1
loop_
 _symmetry_equiv_pos_site_id
 _symmetry_equiv_pos_as_xyz
  1  'x, y, z'
loop_
 _atom_site_type_symbol
 _atom_site_label
 _atom_site_symmetry_multiplicity
 _atom_site_fract_x
 _atom_site_fract_y
 _atom_site_fract_z
 _atom_site_occupancy
  Ba  Ba0  1  0.385124  0.412697  0.240868  1
  Ba  Ba1  1  0.614876  0.587303  0.759132  1
  Eu  Eu2  1  0.500000  0.000000  0.500000  1
  Si  Si3  1  0.777496  0.180787  0.940507  1
  Si  Si4  1  0.222504  0.819213  0.059493  1
  B  B5  1  0.208949  0.246350  0.800703  1
  B  B6  1  0.791051  0.753650  0.199297  1
  B  B7  1  0.037005  0.707785  0.469417  1
  B  B8  1  0.962995  0.292215  0.530583  1
  B  B9  1  0.967554  0.080477  0.250005  1
  B  B10  1  0.032446  0.919523  0.749995  1
  O  O11  1  0.789869  0.175897  0.133041  1
  O  O12  1  0.210131  0.824103  0.866959  1
  O  O13  1  0.861111  0.632773  0.318809  1
  O  O14  1  0.138889  0.367227  0.681191  1
  O  O15  1  0.041946  0.292119  0.928694  1
  O  O16  1  0.958054  0.707881  0.071306  1
  O  O17  1  0.089276  0.210426  0.402999  1
  O  O18  1  0.910724  0.789574  0.597001  1
  O  O19  1  0.307788  0.695945  0.486925  1
  O  O20  1  0.692212  0.304055  0.513075  1
  O  O21  1  0.500653  0.710322  0.114210  1
  O  O22  1  0.499347  0.289678  0.885790  1
  O  O23  1  0.173045  0.061286  0.710688  1
  O  O24  1  0.826955  0.938714  0.289312  1
  O  O25  1  0.215615  0.013750  0.184139  1
  O  O26  1  0.784385  0.986250  0.815861  1
