# generated using pymatgen
data_Tb3Er3Al24Os5Rh3
_symmetry_space_group_name_H-M   'P 1'
_cell_length_a   8.78689446
_cell_length_b   8.80512752
_cell_length_c   9.55607048
_cell_angle_alpha   89.96170257
_cell_angle_beta   89.85674961
_cell_angle_gamma   119.41142157
_symmetry_Int_Tables_number   1
_chemical_formula_structural   Tb3Er3Al24Os5Rh3
_chemical_formula_sum   'Tb3 Er3 Al24 Os5 Rh3'
_cell_volume   644.05651235
_cell_formula_units_Z   1
loop_
 _symmetry_equiv_pos_site_id
 _symmetry_equiv_pos_as_xyz
  1  'x, y, z'
loop_
 _atom_site_type_symbol
 _atom_site_label
 _atom_site_symmetry_multiplicity
 _atom_site_fract_x
 _atom_site_fract_y
 _atom_site_fract_z
 _atom_site_occupancy
  Tb  Tb0  1  0.186755  0.383408  0.251788  1
  Tb  Tb1  1  0.813314  0.616709  0.748206  1
  Tb  Tb2  1  0.614418  0.814266  0.251366  1
  Er  Er3  1  0.388024  0.186389  0.748567  1
  Er  Er4  1  0.196682  0.808565  0.251938  1
  Er  Er5  1  0.802767  0.191182  0.748106  1
  Al  Al6  1  0.333340  0.667812  0.024375  1
  Al  Al7  1  0.666294  0.332131  0.975000  1
  Al  Al8  1  0.667287  0.332673  0.522776  1
  Al  Al9  1  0.332319  0.667227  0.477830  1
  Al  Al10  1  0.161964  0.325747  0.577549  1
  Al  Al11  1  0.838224  0.673923  0.422972  1
  Al  Al12  1  0.672914  0.836966  0.576783  1
  Al  Al13  1  0.836127  0.673953  0.077397  1
  Al  Al14  1  0.326849  0.162997  0.424076  1
  Al  Al15  1  0.164186  0.325731  0.922022  1
  Al  Al16  1  0.164171  0.834890  0.575759  1
  Al  Al17  1  0.326691  0.162609  0.076011  1
  Al  Al18  1  0.836046  0.165746  0.424753  1
  Al  Al19  1  0.673086  0.837338  0.923164  1
  Al  Al20  1  0.833788  0.163296  0.075648  1
  Al  Al21  1  0.166438  0.837474  0.923844  1
  Al  Al22  1  0.561004  0.126717  0.249549  1
  Al  Al23  1  0.438597  0.873732  0.750412  1
  Al  Al24  1  0.875591  0.439928  0.250033  1
  Al  Al25  1  0.124480  0.559986  0.750038  1
  Al  Al26  1  0.560781  0.439727  0.249682  1
  Al  Al27  1  0.438960  0.559248  0.750308  1
  Al  Al28  1  0.999721  0.001189  0.250078  1
  Al  Al29  1  0.001853  0.999692  0.749958  1
  Os  Os30  1  0.499711  0.000539  0.999301  1
  Os  Os31  1  0.499656  0.000487  0.500673  1
  Os  Os32  1  0.999619  0.499844  0.500257  1
  Os  Os33  1  0.999894  0.000044  0.999936  1
  Os  Os34  1  0.999899  0.999975  0.500081  1
  Rh  Rh35  1  0.999643  0.499959  0.999789  1
  Rh  Rh36  1  0.499502  0.498981  0.999403  1
  Rh  Rh37  1  0.499403  0.498920  0.500574  1
