# generated using pymatgen
data_Ca6PrY(Si3Pd)4
_symmetry_space_group_name_H-M   'P 1'
_cell_length_a   8.25385600
_cell_length_b   8.25385466
_cell_length_c   8.39360000
_cell_angle_alpha   90.00000000
_cell_angle_beta   90.00000000
_cell_angle_gamma   119.99999737
_symmetry_Int_Tables_number   1
_chemical_formula_structural   Ca6PrY(Si3Pd)4
_chemical_formula_sum   'Ca6 Pr1 Y1 Si12 Pd4'
_cell_volume   495.21366120
_cell_formula_units_Z   1
loop_
 _symmetry_equiv_pos_site_id
 _symmetry_equiv_pos_as_xyz
  1  'x, y, z'
loop_
 _atom_site_type_symbol
 _atom_site_label
 _atom_site_symmetry_multiplicity
 _atom_site_fract_x
 _atom_site_fract_y
 _atom_site_fract_z
 _atom_site_occupancy
  Ca  Ca0  1  0.501146  0.002292  0.250000  1
  Ca  Ca1  1  0.498868  0.997737  0.750000  1
  Ca  Ca2  1  0.997708  0.498854  0.250000  1
  Ca  Ca3  1  0.002263  0.501132  0.750000  1
  Ca  Ca4  1  0.501146  0.498854  0.250000  1
  Ca  Ca5  1  0.498868  0.501132  0.750000  1
  Pr  Pr6  1  0.000000  0.000000  0.250000  1
  Y  Y7  1  0.000000  0.000000  0.750000  1
  Si  Si8  1  0.164999  0.329998  0.997603  1
  Si  Si9  1  0.835042  0.670084  0.995671  1
  Si  Si10  1  0.670002  0.835001  0.997603  1
  Si  Si11  1  0.835042  0.670084  0.504329  1
  Si  Si12  1  0.329916  0.164958  0.995671  1
  Si  Si13  1  0.164999  0.329998  0.502397  1
  Si  Si14  1  0.164999  0.835001  0.997603  1
  Si  Si15  1  0.329916  0.164958  0.504329  1
  Si  Si16  1  0.835042  0.164958  0.995671  1
  Si  Si17  1  0.670002  0.835001  0.502397  1
  Si  Si18  1  0.835042  0.164958  0.504329  1
  Si  Si19  1  0.164999  0.835001  0.502397  1
  Pd  Pd20  1  0.333333  0.666667  0.999417  1
  Pd  Pd21  1  0.666667  0.333333  0.995405  1
  Pd  Pd22  1  0.666667  0.333333  0.504595  1
  Pd  Pd23  1  0.333333  0.666667  0.500583  1
