# generated using pymatgen
data_Er(P2Ru3)2
_symmetry_space_group_name_H-M   'P 1'
_cell_length_a   6.94771200
_cell_length_b   6.94771192
_cell_length_c   3.73076100
_cell_angle_alpha   90.00000000
_cell_angle_beta   90.00000000
_cell_angle_gamma   120.00000037
_symmetry_Int_Tables_number   1
_chemical_formula_structural   Er(P2Ru3)2
_chemical_formula_sum   'Er1 P4 Ru6'
_cell_volume   155.95944049
_cell_formula_units_Z   1
loop_
 _symmetry_equiv_pos_site_id
 _symmetry_equiv_pos_as_xyz
  1  'x, y, z'
loop_
 _atom_site_type_symbol
 _atom_site_label
 _atom_site_symmetry_multiplicity
 _atom_site_fract_x
 _atom_site_fract_y
 _atom_site_fract_z
 _atom_site_occupancy
  Er  Er0  1  0.000000  0.000000  0.000000  1
  P  P1  1  0.189568  0.379137  0.500000  1
  P  P2  1  0.620863  0.810432  0.500000  1
  P  P3  1  0.189568  0.810432  0.500000  1
  P  P4  1  0.666667  0.333333  0.000000  1
  Ru  Ru5  1  0.801568  0.603135  0.500000  1
  Ru  Ru6  1  0.396865  0.198432  0.500000  1
  Ru  Ru7  1  0.801568  0.198432  0.500000  1
  Ru  Ru8  1  0.464925  0.929848  0.000000  1
  Ru  Ru9  1  0.070152  0.535075  0.000000  1
  Ru  Ru10  1  0.464925  0.535075  0.000000  1
