# generated using pymatgen
data_Er3Tm5Zn2(Si6Rh)2
_symmetry_space_group_name_H-M   'P 1'
_cell_length_a   8.10905000
_cell_length_b   8.10528109
_cell_length_c   7.89034900
_cell_angle_alpha   89.99930780
_cell_angle_beta   90.00000000
_cell_angle_gamma   120.01538308
_symmetry_Int_Tables_number   1
_chemical_formula_structural   Er3Tm5Zn2(Si6Rh)2
_chemical_formula_sum   'Er3 Tm5 Zn2 Si12 Rh2'
_cell_volume   449.05295923
_cell_formula_units_Z   1
loop_
 _symmetry_equiv_pos_site_id
 _symmetry_equiv_pos_as_xyz
  1  'x, y, z'
loop_
 _atom_site_type_symbol
 _atom_site_label
 _atom_site_symmetry_multiplicity
 _atom_site_fract_x
 _atom_site_fract_y
 _atom_site_fract_z
 _atom_site_occupancy
  Er  Er0  1  0.507962  0.015925  0.256010  1
  Er  Er1  1  0.000011  0.000022  0.749816  1
  Er  Er2  1  0.999988  0.999975  0.250162  1
  Tm  Tm3  1  0.983898  0.491974  0.256823  1
  Tm  Tm4  1  0.508075  0.491974  0.256823  1
  Tm  Tm5  1  0.491833  0.983665  0.743181  1
  Tm  Tm6  1  0.016483  0.508277  0.743228  1
  Tm  Tm7  1  0.491795  0.508277  0.743228  1
  Zn  Zn8  1  0.333128  0.666256  0.040574  1
  Zn  Zn9  1  0.666768  0.333535  0.958229  1
  Si  Si10  1  0.166638  0.833301  0.492269  1
  Si  Si11  1  0.166638  0.333274  0.492444  1
  Si  Si12  1  0.666664  0.833301  0.492269  1
  Si  Si13  1  0.333401  0.166768  0.007403  1
  Si  Si14  1  0.833261  0.666524  0.507874  1
  Si  Si15  1  0.833367  0.166768  0.007403  1
  Si  Si16  1  0.833313  0.666629  0.007691  1
  Si  Si17  1  0.166625  0.333248  0.992413  1
  Si  Si18  1  0.666660  0.833402  0.992104  1
  Si  Si19  1  0.333518  0.166788  0.508109  1
  Si  Si20  1  0.833268  0.166788  0.508109  1
  Si  Si21  1  0.166742  0.833402  0.992104  1
  Rh  Rh22  1  0.666767  0.333534  0.520954  1
  Rh  Rh23  1  0.333196  0.666392  0.480782  1
