# generated using pymatgen
data_TaB3Ru3W2
_symmetry_space_group_name_H-M   'P 1'
_cell_length_a   3.03599000
_cell_length_b   8.97645300
_cell_length_c   15.79065400
_cell_angle_alpha   90.00000000
_cell_angle_beta   90.00000000
_cell_angle_gamma   90.00000000
_symmetry_Int_Tables_number   1
_chemical_formula_structural   TaB3Ru3W2
_chemical_formula_sum   'Ta4 B12 Ru12 W8'
_cell_volume   430.33355926
_cell_formula_units_Z   4
loop_
 _symmetry_equiv_pos_site_id
 _symmetry_equiv_pos_as_xyz
  1  'x, y, z'
loop_
 _atom_site_type_symbol
 _atom_site_label
 _atom_site_symmetry_multiplicity
 _atom_site_fract_x
 _atom_site_fract_y
 _atom_site_fract_z
 _atom_site_occupancy
  Ta  Ta0  1  0.000000  0.697377  0.198630  1
  Ta  Ta1  1  0.000000  0.302623  0.801370  1
  Ta  Ta2  1  0.000000  0.197377  0.301370  1
  Ta  Ta3  1  0.000000  0.802623  0.698630  1
  B  B4  1  0.500000  0.603640  0.496042  1
  B  B5  1  0.500000  0.396360  0.503958  1
  B  B6  1  0.500000  0.103640  0.003958  1
  B  B7  1  0.500000  0.896360  0.996042  1
  B  B8  1  0.000000  0.601983  0.831820  1
  B  B9  1  0.000000  0.398017  0.168180  1
  B  B10  1  0.000000  0.101983  0.668180  1
  B  B11  1  0.000000  0.898017  0.331820  1
  B  B12  1  0.500000  0.712092  0.594716  1
  B  B13  1  0.500000  0.287908  0.405284  1
  B  B14  1  0.500000  0.212092  0.905284  1
  B  B15  1  0.500000  0.787908  0.094716  1
  Ru  Ru16  1  0.500000  0.723406  0.350444  1
  Ru  Ru17  1  0.500000  0.276594  0.649556  1
  Ru  Ru18  1  0.500000  0.223406  0.149556  1
  Ru  Ru19  1  0.500000  0.776594  0.850444  1
  Ru  Ru20  1  0.500000  0.517323  0.088544  1
  Ru  Ru21  1  0.500000  0.482677  0.911456  1
  Ru  Ru22  1  0.500000  0.017323  0.411456  1
  Ru  Ru23  1  0.500000  0.982677  0.588544  1
  Ru  Ru24  1  0.500000  0.546316  0.735500  1
  Ru  Ru25  1  0.500000  0.453684  0.264500  1
  Ru  Ru26  1  0.500000  0.046316  0.764500  1
  Ru  Ru27  1  0.500000  0.953684  0.235500  1
  W  W28  1  0.000000  0.790108  0.492557  1
  W  W29  1  0.000000  0.209892  0.507443  1
  W  W30  1  0.000000  0.290108  0.007443  1
  W  W31  1  0.000000  0.709892  0.992557  1
  W  W32  1  0.000000  0.512721  0.591012  1
  W  W33  1  0.000000  0.487279  0.408988  1
  W  W34  1  0.000000  0.012721  0.908988  1
  W  W35  1  0.000000  0.987279  0.091012  1
