# generated using pymatgen
data_SmDyU8O20
_symmetry_space_group_name_H-M   'P 1'
_cell_length_a   6.62935249
_cell_length_b   7.66066048
_cell_length_c   8.56025998
_cell_angle_alpha   102.93241910
_cell_angle_beta   97.33736424
_cell_angle_gamma   106.84122550
_symmetry_Int_Tables_number   1
_chemical_formula_structural   SmDyU8O20
_chemical_formula_sum   'Sm1 Dy1 U8 O20'
_cell_volume   396.80180620
_cell_formula_units_Z   1
loop_
 _symmetry_equiv_pos_site_id
 _symmetry_equiv_pos_as_xyz
  1  'x, y, z'
loop_
 _atom_site_type_symbol
 _atom_site_label
 _atom_site_symmetry_multiplicity
 _atom_site_fract_x
 _atom_site_fract_y
 _atom_site_fract_z
 _atom_site_occupancy
  Sm  Sm0  1  0.999056  0.998307  0.998194  1
  Dy  Dy1  1  0.800302  0.600973  0.600787  1
  U  U2  1  0.600732  0.201753  0.200247  1
  U  U3  1  0.000602  0.500124  0.998419  1
  U  U4  1  0.798401  0.100032  0.600161  1
  U  U5  1  0.399631  0.798990  0.799212  1
  U  U6  1  0.200277  0.400096  0.401551  1
  U  U7  1  0.601811  0.700360  0.201608  1
  U  U8  1  0.400766  0.300557  0.799650  1
  U  U9  1  0.198243  0.898946  0.399999  1
  O  O10  1  0.850875  0.319803  0.450417  1
  O  O11  1  0.641484  0.922384  0.055477  1
  O  O12  1  0.949296  0.767917  0.153193  1
  O  O13  1  0.442728  0.520859  0.650246  1
  O  O14  1  0.852187  0.829641  0.448716  1
  O  O15  1  0.649184  0.426120  0.049698  1
  O  O16  1  0.745057  0.370804  0.752209  1
  O  O17  1  0.256718  0.127294  0.257009  1
  O  O18  1  0.948460  0.284002  0.152921  1
  O  O19  1  0.445524  0.025786  0.647497  1
  O  O20  1  0.549851  0.973833  0.352978  1
  O  O21  1  0.058303  0.718222  0.848684  1
  O  O22  1  0.737981  0.875851  0.745531  1
  O  O23  1  0.353933  0.573797  0.951869  1
  O  O24  1  0.253321  0.626698  0.248503  1
  O  O25  1  0.548551  0.475610  0.346476  1
  O  O26  1  0.149606  0.173962  0.549952  1
  O  O27  1  0.052168  0.231783  0.845755  1
  O  O28  1  0.360272  0.079498  0.947829  1
  O  O29  1  0.154680  0.675999  0.545209  1
