# generated using pymatgen
data_Sr2GaSiI
_symmetry_space_group_name_H-M   'P 1'
_cell_length_a   4.31261600
_cell_length_b   4.31261649
_cell_length_c   18.79369000
_cell_angle_alpha   90.00000000
_cell_angle_beta   90.00000000
_cell_angle_gamma   120.00001159
_symmetry_Int_Tables_number   1
_chemical_formula_structural   Sr2GaSiI
_chemical_formula_sum   'Sr4 Ga2 Si2 I2'
_cell_volume   302.70825796
_cell_formula_units_Z   2
loop_
 _symmetry_equiv_pos_site_id
 _symmetry_equiv_pos_as_xyz
  1  'x, y, z'
loop_
 _atom_site_type_symbol
 _atom_site_label
 _atom_site_symmetry_multiplicity
 _atom_site_fract_x
 _atom_site_fract_y
 _atom_site_fract_z
 _atom_site_occupancy
  Sr  Sr0  1  0.000000  0.000000  0.381116  1
  Sr  Sr1  1  0.000000  0.000000  0.881116  1
  Sr  Sr2  1  0.000000  0.000000  0.618455  1
  Sr  Sr3  1  0.000000  0.000000  0.118455  1
  Ga  Ga4  1  0.333333  0.666667  0.520933  1
  Ga  Ga5  1  0.666667  0.333333  0.020933  1
  Si  Si6  1  0.666667  0.333333  0.479021  1
  Si  Si7  1  0.333333  0.666667  0.979021  1
  I  I8  1  0.333333  0.666667  0.250475  1
  I  I9  1  0.666667  0.333333  0.750475  1
