# generated using pymatgen
data_Dy8Er2Cd7InNi4
_symmetry_space_group_name_H-M   'P 1'
_cell_length_a   3.54622700
_cell_length_b   7.86858700
_cell_length_c   18.15183599
_cell_angle_alpha   89.84666196
_cell_angle_beta   90.00000000
_cell_angle_gamma   90.00000000
_symmetry_Int_Tables_number   1
_chemical_formula_structural   Dy8Er2Cd7InNi4
_chemical_formula_sum   'Dy8 Er2 Cd7 In1 Ni4'
_cell_volume   506.50330855
_cell_formula_units_Z   1
loop_
 _symmetry_equiv_pos_site_id
 _symmetry_equiv_pos_as_xyz
  1  'x, y, z'
loop_
 _atom_site_type_symbol
 _atom_site_label
 _atom_site_symmetry_multiplicity
 _atom_site_fract_x
 _atom_site_fract_y
 _atom_site_fract_z
 _atom_site_occupancy
  Dy  Dy0  1  0.500000  0.114991  0.087844  1
  Dy  Dy1  1  0.500000  0.750469  0.720995  1
  Dy  Dy2  1  0.500000  0.250356  0.778768  1
  Dy  Dy3  1  0.500000  0.498058  0.001162  1
  Dy  Dy4  1  0.500000  0.749921  0.221045  1
  Dy  Dy5  1  0.500000  0.248459  0.279545  1
  Dy  Dy6  1  0.500000  0.001986  0.500139  1
  Dy  Dy7  1  0.500000  0.615039  0.412089  1
  Er  Er8  1  0.500000  0.386611  0.588450  1
  Er  Er9  1  0.500000  0.884720  0.911063  1
  Cd  Cd10  1  0.000000  0.787711  0.069028  1
  Cd  Cd11  1  0.000000  0.930892  0.349402  1
  Cd  Cd12  1  0.000000  0.069750  0.650911  1
  Cd  Cd13  1  0.000000  0.568577  0.849323  1
  Cd  Cd14  1  0.000000  0.711894  0.569448  1
  Cd  Cd15  1  0.000000  0.208954  0.930554  1
  Cd  Cd16  1  0.000000  0.289774  0.430461  1
  In  In17  1  0.000000  0.432609  0.151408  1
  Ni  Ni18  1  0.000000  0.970275  0.803687  1
  Ni  Ni19  1  0.000000  0.528666  0.302774  1
  Ni  Ni20  1  0.000000  0.470735  0.695466  1
  Ni  Ni21  1  0.000000  0.029549  0.196435  1
