# generated using pymatgen
data_Rb6TbYBi4
_symmetry_space_group_name_H-M   'P 1'
_cell_length_a   10.39201610
_cell_length_b   10.39201676
_cell_length_c   10.39201631
_cell_angle_alpha   128.16539148
_cell_angle_beta   70.56608634
_cell_angle_gamma   135.62565601
_symmetry_Int_Tables_number   1
_chemical_formula_structural   Rb6TbYBi4
_chemical_formula_sum   'Rb6 Tb1 Y1 Bi4'
_cell_volume   604.83753966
_cell_formula_units_Z   1
loop_
 _symmetry_equiv_pos_site_id
 _symmetry_equiv_pos_as_xyz
  1  'x, y, z'
loop_
 _atom_site_type_symbol
 _atom_site_label
 _atom_site_symmetry_multiplicity
 _atom_site_fract_x
 _atom_site_fract_y
 _atom_site_fract_z
 _atom_site_occupancy
  Rb  Rb0  1  0.250000  0.250000  0.000000  1
  Rb  Rb1  1  0.750000  0.750000  0.000000  1
  Rb  Rb2  1  0.313778  0.806202  0.119998  1
  Rb  Rb3  1  0.186222  0.306220  0.492425  1
  Rb  Rb4  1  0.813797  0.693799  0.507576  1
  Rb  Rb5  1  0.686203  0.193779  0.880001  1
  Tb  Tb6  1  0.750000  0.250000  0.500000  1
  Y  Y7  1  0.250000  0.749999  0.499999  1
  Bi  Bi8  1  0.901618  0.304590  0.205818  1
  Bi  Bi9  1  0.598382  0.804202  0.402972  1
  Bi  Bi10  1  0.401230  0.195410  0.597028  1
  Bi  Bi11  1  0.098770  0.695798  0.794181  1
