# generated using pymatgen
data_Ca2LaPr7Ir4
_symmetry_space_group_name_H-M   'P 1'
_cell_length_a   9.00151306
_cell_length_b   9.01260672
_cell_length_c   7.46410179
_cell_angle_alpha   83.74005662
_cell_angle_beta   83.44261252
_cell_angle_gamma   43.84506310
_symmetry_Int_Tables_number   1
_chemical_formula_structural   Ca2LaPr7Ir4
_chemical_formula_sum   'Ca2 La1 Pr7 Ir4'
_cell_volume   416.40723500
_cell_formula_units_Z   1
loop_
 _symmetry_equiv_pos_site_id
 _symmetry_equiv_pos_as_xyz
  1  'x, y, z'
loop_
 _atom_site_type_symbol
 _atom_site_label
 _atom_site_symmetry_multiplicity
 _atom_site_fract_x
 _atom_site_fract_y
 _atom_site_fract_z
 _atom_site_occupancy
  Ca  Ca0  1  0.014760  0.800478  0.915993  1
  Ca  Ca1  1  0.199061  0.985016  0.584116  1
  La  La2  1  0.986460  0.198422  0.088715  1
  Pr  Pr3  1  0.799306  0.016071  0.416295  1
  Pr  Pr4  1  0.352137  0.214509  0.817300  1
  Pr  Pr5  1  0.785850  0.648619  0.681186  1
  Pr  Pr6  1  0.653266  0.787230  0.182104  1
  Pr  Pr7  1  0.214349  0.346473  0.317873  1
  Pr  Pr8  1  0.562261  0.437830  0.749552  1
  Pr  Pr9  1  0.428746  0.570062  0.250446  1
  Ir  Ir10  1  0.179564  0.588821  0.570540  1
  Ir  Ir11  1  0.407423  0.823586  0.930213  1
  Ir  Ir12  1  0.819868  0.400343  0.419875  1
  Ir  Ir13  1  0.596949  0.182542  0.075793  1
