# generated using pymatgen
data_Y4ErHf3Pt4
_symmetry_space_group_name_H-M   'P 1'
_cell_length_a   4.71098100
_cell_length_b   7.12104792
_cell_length_c   8.33165886
_cell_angle_alpha   90.81507275
_cell_angle_beta   90.00000000
_cell_angle_gamma   90.00000000
_symmetry_Int_Tables_number   1
_chemical_formula_structural   Y4ErHf3Pt4
_chemical_formula_sum   'Y4 Er1 Hf3 Pt4'
_cell_volume   279.47489061
_cell_formula_units_Z   1
loop_
 _symmetry_equiv_pos_site_id
 _symmetry_equiv_pos_as_xyz
  1  'x, y, z'
loop_
 _atom_site_type_symbol
 _atom_site_label
 _atom_site_symmetry_multiplicity
 _atom_site_fract_x
 _atom_site_fract_y
 _atom_site_fract_z
 _atom_site_occupancy
  Y  Y0  1  0.250000  0.978249  0.328061  1
  Y  Y1  1  0.250000  0.484503  0.173933  1
  Y  Y2  1  0.750000  0.021813  0.679674  1
  Y  Y3  1  0.750000  0.521192  0.818775  1
  Er  Er4  1  0.750000  0.143551  0.078994  1
  Hf  Hf5  1  0.250000  0.361677  0.573872  1
  Hf  Hf6  1  0.250000  0.852093  0.924733  1
  Hf  Hf7  1  0.750000  0.647867  0.424024  1
  Pt  Pt8  1  0.250000  0.226406  0.884850  1
  Pt  Pt9  1  0.250000  0.730966  0.599031  1
  Pt  Pt10  1  0.750000  0.754636  0.098455  1
  Pt  Pt11  1  0.750000  0.277047  0.415597  1
