# generated using pymatgen
data_TbNd3(GaRh)4
_symmetry_space_group_name_H-M   'P 1'
_cell_length_a   4.37678700
_cell_length_b   7.00960703
_cell_length_c   7.89461459
_cell_angle_alpha   89.81049512
_cell_angle_beta   90.00000000
_cell_angle_gamma   90.00000000
_symmetry_Int_Tables_number   1
_chemical_formula_structural   TbNd3(GaRh)4
_chemical_formula_sum   'Tb1 Nd3 Ga4 Rh4'
_cell_volume   242.20195311
_cell_formula_units_Z   1
loop_
 _symmetry_equiv_pos_site_id
 _symmetry_equiv_pos_as_xyz
  1  'x, y, z'
loop_
 _atom_site_type_symbol
 _atom_site_label
 _atom_site_symmetry_multiplicity
 _atom_site_fract_x
 _atom_site_fract_y
 _atom_site_fract_z
 _atom_site_occupancy
  Tb  Tb0  1  0.750000  0.528138  0.808291  1
  Nd  Nd1  1  0.250000  0.972382  0.309244  1
  Nd  Nd2  1  0.250000  0.473840  0.188579  1
  Nd  Nd3  1  0.750000  0.027243  0.691837  1
  Ga  Ga4  1  0.250000  0.348658  0.574598  1
  Ga  Ga5  1  0.250000  0.842263  0.926143  1
  Ga  Ga6  1  0.750000  0.652365  0.430826  1
  Ga  Ga7  1  0.750000  0.156975  0.070840  1
  Rh  Rh8  1  0.250000  0.229976  0.893966  1
  Rh  Rh9  1  0.250000  0.721676  0.609414  1
  Rh  Rh10  1  0.750000  0.772165  0.101162  1
  Rh  Rh11  1  0.750000  0.274320  0.395102  1
