# generated using pymatgen
data_Pr2HoCoSn6
_symmetry_space_group_name_H-M   'P 1'
_cell_length_a   8.54280806
_cell_length_b   8.54280910
_cell_length_c   13.40643200
_cell_angle_alpha   90.00000000
_cell_angle_beta   90.00000000
_cell_angle_gamma   148.48676439
_symmetry_Int_Tables_number   1
_chemical_formula_structural   Pr2HoCoSn6
_chemical_formula_sum   'Pr4 Ho2 Co2 Sn12'
_cell_volume   511.40307366
_cell_formula_units_Z   2
loop_
 _symmetry_equiv_pos_site_id
 _symmetry_equiv_pos_as_xyz
  1  'x, y, z'
loop_
 _atom_site_type_symbol
 _atom_site_label
 _atom_site_symmetry_multiplicity
 _atom_site_fract_x
 _atom_site_fract_y
 _atom_site_fract_z
 _atom_site_occupancy
  Pr  Pr0  1  0.900869  0.099131  0.092242  1
  Pr  Pr1  1  0.099131  0.900869  0.592242  1
  Pr  Pr2  1  0.099131  0.900869  0.907758  1
  Pr  Pr3  1  0.900869  0.099131  0.407758  1
  Ho  Ho4  1  0.898219  0.101781  0.750000  1
  Ho  Ho5  1  0.101781  0.898219  0.250000  1
  Co  Co6  1  0.296960  0.703040  0.250000  1
  Co  Co7  1  0.703040  0.296960  0.750000  1
  Sn  Sn8  1  0.754608  0.245392  0.571860  1
  Sn  Sn9  1  0.427206  0.572794  0.580421  1
  Sn  Sn10  1  0.572794  0.427206  0.419579  1
  Sn  Sn11  1  0.733264  0.266736  0.250000  1
  Sn  Sn12  1  0.266736  0.733264  0.750000  1
  Sn  Sn13  1  0.245392  0.754608  0.071860  1
  Sn  Sn14  1  0.245392  0.754608  0.428140  1
  Sn  Sn15  1  0.572794  0.427206  0.080421  1
  Sn  Sn16  1  0.453694  0.546306  0.250000  1
  Sn  Sn17  1  0.546306  0.453694  0.750000  1
  Sn  Sn18  1  0.754608  0.245392  0.928140  1
  Sn  Sn19  1  0.427206  0.572794  0.919579  1
