# generated using pymatgen
data_Hf5ZrMnI12
_symmetry_space_group_name_H-M   'P 1'
_cell_length_a   9.40885963
_cell_length_b   9.38017610
_cell_length_c   9.46116105
_cell_angle_alpha   106.90037735
_cell_angle_beta   106.74780734
_cell_angle_gamma   106.61110424
_symmetry_Int_Tables_number   1
_chemical_formula_structural   Hf5ZrMnI12
_chemical_formula_sum   'Hf5 Zr1 Mn1 I12'
_cell_volume   700.03296263
_cell_formula_units_Z   1
loop_
 _symmetry_equiv_pos_site_id
 _symmetry_equiv_pos_as_xyz
  1  'x, y, z'
loop_
 _atom_site_type_symbol
 _atom_site_label
 _atom_site_symmetry_multiplicity
 _atom_site_fract_x
 _atom_site_fract_y
 _atom_site_fract_z
 _atom_site_occupancy
  Hf  Hf0  1  0.972255  0.725899  0.909568  1
  Hf  Hf1  1  0.277666  0.091007  0.028752  1
  Hf  Hf2  1  0.090487  0.028429  0.275249  1
  Hf  Hf3  1  0.910055  0.972887  0.725453  1
  Hf  Hf4  1  0.723585  0.908909  0.971466  1
  Zr  Zr5  1  0.028599  0.282817  0.092571  1
  Mn  Mn6  1  0.000691  0.003248  0.001166  1
  I  I7  1  0.921716  0.307449  0.775192  1
  I  I8  1  0.685167  0.217338  0.075544  1
  I  I9  1  0.437532  0.137989  0.364086  1
  I  I10  1  0.861272  0.634831  0.562744  1
  I  I11  1  0.220697  0.076163  0.693259  1
  I  I12  1  0.635619  0.560315  0.859903  1
  I  I13  1  0.369434  0.438832  0.140121  1
  I  I14  1  0.779006  0.922184  0.305955  1
  I  I15  1  0.140421  0.364069  0.441213  1
  I  I16  1  0.562470  0.860997  0.636150  1
  I  I17  1  0.307279  0.776490  0.922556  1
  I  I18  1  0.076049  0.690149  0.219053  1
