# generated using pymatgen
data_Er9Cd(SiB4)4
_symmetry_space_group_name_H-M   'P 1'
_cell_length_a   7.16179500
_cell_length_b   7.16179500
_cell_length_c   7.89981100
_cell_angle_alpha   90.00000000
_cell_angle_beta   90.00000000
_cell_angle_gamma   90.00000000
_symmetry_Int_Tables_number   1
_chemical_formula_structural   Er9Cd(SiB4)4
_chemical_formula_sum   'Er9 Cd1 Si4 B16'
_cell_volume   405.19163616
_cell_formula_units_Z   1
loop_
 _symmetry_equiv_pos_site_id
 _symmetry_equiv_pos_as_xyz
  1  'x, y, z'
loop_
 _atom_site_type_symbol
 _atom_site_label
 _atom_site_symmetry_multiplicity
 _atom_site_fract_x
 _atom_site_fract_y
 _atom_site_fract_z
 _atom_site_occupancy
  Er  Er0  1  0.681365  0.180375  0.227997  1
  Er  Er1  1  0.318635  0.819625  0.772003  1
  Er  Er2  1  0.318635  0.819625  0.227997  1
  Er  Er3  1  0.819625  0.681365  0.227997  1
  Er  Er4  1  0.819625  0.681365  0.772003  1
  Er  Er5  1  0.681365  0.180375  0.772003  1
  Er  Er6  1  0.180375  0.318635  0.772003  1
  Er  Er7  1  0.180375  0.318635  0.227997  1
  Er  Er8  1  0.500000  0.500000  0.500000  1
  Cd  Cd9  1  0.000000  0.000000  0.500000  1
  Si  Si10  1  0.118514  0.612483  0.500000  1
  Si  Si11  1  0.881486  0.387517  0.500000  1
  Si  Si12  1  0.387517  0.118514  0.500000  1
  Si  Si13  1  0.612483  0.881486  0.500000  1
  B  B14  1  0.175653  0.038799  0.000000  1
  B  B15  1  0.824347  0.961201  0.000000  1
  B  B16  1  0.961201  0.175653  0.000000  1
  B  B17  1  0.327010  0.539696  0.000000  1
  B  B18  1  0.038799  0.824347  0.000000  1
  B  B19  1  0.672990  0.460304  0.000000  1
  B  B20  1  0.539696  0.672990  0.000000  1
  B  B21  1  0.460304  0.327010  0.000000  1
  B  B22  1  0.089455  0.588004  0.000000  1
  B  B23  1  0.910545  0.411996  0.000000  1
  B  B24  1  0.411996  0.089455  0.000000  1
  B  B25  1  0.588004  0.910545  0.000000  1
  B  B26  1  0.000000  0.000000  0.158288  1
  B  B27  1  0.000000  0.000000  0.841712  1
  B  B28  1  0.500000  0.500000  0.834591  1
  B  B29  1  0.500000  0.500000  0.165409  1
