# generated using pymatgen
data_La3Dy2Pb3Br
_symmetry_space_group_name_H-M   'P 1'
_cell_length_a   9.62793900
_cell_length_b   9.62793996
_cell_length_c   6.90738500
_cell_angle_alpha   90.00000000
_cell_angle_beta   90.00000000
_cell_angle_gamma   120.00000702
_symmetry_Int_Tables_number   1
_chemical_formula_structural   La3Dy2Pb3Br
_chemical_formula_sum   'La6 Dy4 Pb6 Br2'
_cell_volume   554.51202351
_cell_formula_units_Z   2
loop_
 _symmetry_equiv_pos_site_id
 _symmetry_equiv_pos_as_xyz
  1  'x, y, z'
loop_
 _atom_site_type_symbol
 _atom_site_label
 _atom_site_symmetry_multiplicity
 _atom_site_fract_x
 _atom_site_fract_y
 _atom_site_fract_z
 _atom_site_occupancy
  La  La0  1  0.732821  0.000000  0.750000  1
  La  La1  1  0.000000  0.267179  0.250000  1
  La  La2  1  0.732821  0.732821  0.250000  1
  La  La3  1  0.267179  0.000000  0.250000  1
  La  La4  1  0.267179  0.267179  0.750000  1
  La  La5  1  0.000000  0.732821  0.750000  1
  Dy  Dy6  1  0.333333  0.666667  0.500000  1
  Dy  Dy7  1  0.333333  0.666667  0.000000  1
  Dy  Dy8  1  0.666667  0.333333  0.500000  1
  Dy  Dy9  1  0.666667  0.333333  0.000000  1
  Pb  Pb10  1  0.390186  0.000000  0.750000  1
  Pb  Pb11  1  0.609814  0.000000  0.250000  1
  Pb  Pb12  1  0.000000  0.609814  0.250000  1
  Pb  Pb13  1  0.609814  0.609814  0.750000  1
  Pb  Pb14  1  0.000000  0.390186  0.750000  1
  Pb  Pb15  1  0.390186  0.390186  0.250000  1
  Br  Br16  1  0.000000  0.000000  0.500000  1
  Br  Br17  1  0.000000  0.000000  0.000000  1
