# generated using pymatgen
data_U2Zn16Au
_symmetry_space_group_name_H-M   'P 1'
_cell_length_a   6.83731629
_cell_length_b   6.83731551
_cell_length_c   6.79423851
_cell_angle_alpha   82.91207651
_cell_angle_beta   82.91207565
_cell_angle_gamma   83.24021605
_symmetry_Int_Tables_number   1
_chemical_formula_structural   U2Zn16Au
_chemical_formula_sum   'U2 Zn16 Au1'
_cell_volume   311.08877323
_cell_formula_units_Z   1
loop_
 _symmetry_equiv_pos_site_id
 _symmetry_equiv_pos_as_xyz
  1  'x, y, z'
loop_
 _atom_site_type_symbol
 _atom_site_label
 _atom_site_symmetry_multiplicity
 _atom_site_fract_x
 _atom_site_fract_y
 _atom_site_fract_z
 _atom_site_occupancy
  U  U0  1  0.662821  0.662821  0.662443  1
  U  U1  1  0.337706  0.337706  0.336780  1
  Zn  Zn2  1  0.354203  0.841058  0.353715  1
  Zn  Zn3  1  0.841058  0.354203  0.353715  1
  Zn  Zn4  1  0.152836  0.650888  0.643509  1
  Zn  Zn5  1  0.646920  0.646920  0.161821  1
  Zn  Zn6  1  0.650888  0.152836  0.643509  1
  Zn  Zn7  1  0.897937  0.897937  0.897635  1
  Zn  Zn8  1  0.100221  0.100221  0.103768  1
  Zn  Zn9  1  0.997301  0.502500  0.999556  1
  Zn  Zn10  1  0.502500  0.997301  0.999556  1
  Zn  Zn11  1  0.000294  0.000294  0.499892  1
  Zn  Zn12  1  0.702324  0.999245  0.298081  1
  Zn  Zn13  1  0.997784  0.297765  0.701877  1
  Zn  Zn14  1  0.297067  0.704765  0.002453  1
  Zn  Zn15  1  0.297765  0.997784  0.701877  1
  Zn  Zn16  1  0.999245  0.702324  0.298081  1
  Zn  Zn17  1  0.704765  0.297067  0.002453  1
  Au  Au18  1  0.356364  0.356364  0.839283  1
