# generated using pymatgen
data_Sc4Al18RePd3Pt2
_symmetry_space_group_name_H-M   'P 1'
_cell_length_a   7.53909887
_cell_length_b   7.53909979
_cell_length_c   9.34027333
_cell_angle_alpha   89.72387870
_cell_angle_beta   89.72388468
_cell_angle_gamma   119.43415375
_symmetry_Int_Tables_number   1
_chemical_formula_structural   Sc4Al18RePd3Pt2
_chemical_formula_sum   'Sc4 Al18 Re1 Pd3 Pt2'
_cell_volume   462.33573322
_cell_formula_units_Z   1
loop_
 _symmetry_equiv_pos_site_id
 _symmetry_equiv_pos_as_xyz
  1  'x, y, z'
loop_
 _atom_site_type_symbol
 _atom_site_label
 _atom_site_symmetry_multiplicity
 _atom_site_fract_x
 _atom_site_fract_y
 _atom_site_fract_z
 _atom_site_occupancy
  Sc  Sc0  1  0.995614  0.675923  0.246838  1
  Sc  Sc1  1  0.004386  0.324077  0.753162  1
  Sc  Sc2  1  0.675923  0.995614  0.246838  1
  Sc  Sc3  1  0.324077  0.004386  0.753162  1
  Al  Al4  1  0.127981  0.127981  0.248320  1
  Al  Al5  1  0.872019  0.872019  0.751680  1
  Al  Al6  1  0.996737  0.330410  0.075957  1
  Al  Al7  1  0.003263  0.669590  0.924043  1
  Al  Al8  1  0.001876  0.662545  0.580961  1
  Al  Al9  1  0.337455  0.998124  0.419039  1
  Al  Al10  1  0.998124  0.337455  0.419039  1
  Al  Al11  1  0.662545  0.001876  0.580961  1
  Al  Al12  1  0.669590  0.003263  0.924043  1
  Al  Al13  1  0.330410  0.996737  0.075957  1
  Al  Al14  1  0.330391  0.330391  0.562831  1
  Al  Al15  1  0.669609  0.669609  0.437169  1
  Al  Al16  1  0.672579  0.672579  0.058553  1
  Al  Al17  1  0.327421  0.327421  0.941447  1
  Al  Al18  1  0.341696  0.552480  0.249840  1
  Al  Al19  1  0.658304  0.447520  0.750160  1
  Al  Al20  1  0.552480  0.341696  0.249840  1
  Al  Al21  1  0.447520  0.658304  0.750160  1
  Re  Re22  1  0.000000  0.000000  0.000000  1
  Pd  Pd23  1  0.327628  0.672372  0.500000  1
  Pd  Pd24  1  0.672372  0.327628  0.500000  1
  Pd  Pd25  1  0.000000  0.000000  0.500000  1
  Pt  Pt26  1  0.671928  0.328072  0.000000  1
  Pt  Pt27  1  0.328072  0.671928  0.000000  1
