# generated using pymatgen
data_Tm6ZrCo17(Si3P)3
_symmetry_space_group_name_H-M   'P 1'
_cell_length_a   3.74069800
_cell_length_b   10.71642275
_cell_length_c   12.33506199
_cell_angle_alpha   90.23305749
_cell_angle_beta   90.00000000
_cell_angle_gamma   90.00000000
_symmetry_Int_Tables_number   1
_chemical_formula_structural   Tm6ZrCo17(Si3P)3
_chemical_formula_sum   'Tm6 Zr1 Co17 Si9 P3'
_cell_volume   494.47032005
_cell_formula_units_Z   1
loop_
 _symmetry_equiv_pos_site_id
 _symmetry_equiv_pos_as_xyz
  1  'x, y, z'
loop_
 _atom_site_type_symbol
 _atom_site_label
 _atom_site_symmetry_multiplicity
 _atom_site_fract_x
 _atom_site_fract_y
 _atom_site_fract_z
 _atom_site_occupancy
  Tm  Tm0  1  0.000000  0.498707  0.531643  1
  Tm  Tm1  1  0.500000  0.997711  0.472062  1
  Tm  Tm2  1  0.500000  0.820759  0.207634  1
  Tm  Tm3  1  0.500000  0.179762  0.206490  1
  Tm  Tm4  1  0.000000  0.682577  0.795816  1
  Tm  Tm5  1  0.000000  0.315960  0.796925  1
  Zr  Zr6  1  0.500000  0.501303  0.148772  1
  Co  Co7  1  0.000000  0.999325  0.846443  1
  Co  Co8  1  0.500000  0.499437  0.697982  1
  Co  Co9  1  0.000000  0.995976  0.304438  1
  Co  Co10  1  0.000000  0.500233  0.985185  1
  Co  Co11  1  0.500000  0.999777  0.017495  1
  Co  Co12  1  0.500000  0.324605  0.991648  1
  Co  Co13  1  0.500000  0.675906  0.991251  1
  Co  Co14  1  0.000000  0.163841  0.003988  1
  Co  Co15  1  0.000000  0.836182  0.003089  1
  Co  Co16  1  0.500000  0.299096  0.433919  1
  Co  Co17  1  0.500000  0.708057  0.431513  1
  Co  Co18  1  0.000000  0.196640  0.571247  1
  Co  Co19  1  0.000000  0.801911  0.566977  1
  Co  Co20  1  0.500000  0.882276  0.704558  1
  Co  Co21  1  0.500000  0.115349  0.705994  1
  Co  Co22  1  0.000000  0.624702  0.293844  1
  Co  Co23  1  0.000000  0.380833  0.291961  1
  Si  Si24  1  0.500000  0.499928  0.882393  1
  Si  Si25  1  0.000000  0.999839  0.119468  1
  Si  Si26  1  0.500000  0.501306  0.358281  1
  Si  Si27  1  0.000000  0.999320  0.658487  1
  Si  Si28  1  0.500000  0.303514  0.617693  1
  Si  Si29  1  0.500000  0.693788  0.616376  1
  Si  Si30  1  0.000000  0.194062  0.385785  1
  Si  Si31  1  0.500000  0.856047  0.888384  1
  Si  Si32  1  0.500000  0.143076  0.889345  1
  P  P33  1  0.000000  0.806612  0.384930  1
  P  P34  1  0.000000  0.666112  0.098698  1
  P  P35  1  0.000000  0.335471  0.099283  1
