# generated using pymatgen
data_Ac2Y3Sn4
_symmetry_space_group_name_H-M   'P 1'
_cell_length_a   8.31335100
_cell_length_b   8.49517400
_cell_length_c   16.06871000
_cell_angle_alpha   90.00000000
_cell_angle_beta   90.00000000
_cell_angle_gamma   90.00000000
_symmetry_Int_Tables_number   1
_chemical_formula_structural   Ac2Y3Sn4
_chemical_formula_sum   'Ac8 Y12 Sn16'
_cell_volume   1134.82634358
_cell_formula_units_Z   4
loop_
 _symmetry_equiv_pos_site_id
 _symmetry_equiv_pos_as_xyz
  1  'x, y, z'
loop_
 _atom_site_type_symbol
 _atom_site_label
 _atom_site_symmetry_multiplicity
 _atom_site_fract_x
 _atom_site_fract_y
 _atom_site_fract_z
 _atom_site_occupancy
  Ac  Ac0  1  0.500298  0.173789  0.595553  1
  Ac  Ac1  1  0.000298  0.326211  0.904447  1
  Ac  Ac2  1  0.499702  0.826211  0.095553  1
  Ac  Ac3  1  0.999702  0.673789  0.404447  1
  Ac  Ac4  1  0.499702  0.826211  0.404447  1
  Ac  Ac5  1  0.999702  0.673789  0.095553  1
  Ac  Ac6  1  0.500298  0.173789  0.904447  1
  Ac  Ac7  1  0.000298  0.326211  0.595553  1
  Y  Y8  1  0.336294  0.664346  0.625169  1
  Y  Y9  1  0.836294  0.835654  0.874831  1
  Y  Y10  1  0.663706  0.335654  0.125169  1
  Y  Y11  1  0.163706  0.164346  0.374831  1
  Y  Y12  1  0.663706  0.335654  0.374831  1
  Y  Y13  1  0.163706  0.164346  0.125169  1
  Y  Y14  1  0.336294  0.664346  0.874831  1
  Y  Y15  1  0.836294  0.835654  0.625169  1
  Y  Y16  1  0.669676  0.502685  0.750000  1
  Y  Y17  1  0.169676  0.997315  0.750000  1
  Y  Y18  1  0.330324  0.497315  0.250000  1
  Y  Y19  1  0.830324  0.002685  0.250000  1
  Sn  Sn20  1  0.826658  0.042299  0.456402  1
  Sn  Sn21  1  0.326658  0.457701  0.043598  1
  Sn  Sn22  1  0.173342  0.957701  0.956402  1
  Sn  Sn23  1  0.673342  0.542299  0.543598  1
  Sn  Sn24  1  0.173342  0.957701  0.543598  1
  Sn  Sn25  1  0.673342  0.542299  0.956402  1
  Sn  Sn26  1  0.826658  0.042299  0.043598  1
  Sn  Sn27  1  0.326658  0.457701  0.456402  1
  Sn  Sn28  1  0.304149  0.363157  0.750000  1
  Sn  Sn29  1  0.804149  0.136843  0.750000  1
  Sn  Sn30  1  0.695851  0.636843  0.250000  1
  Sn  Sn31  1  0.195851  0.863157  0.250000  1
  Sn  Sn32  1  0.531711  0.866289  0.750000  1
  Sn  Sn33  1  0.031711  0.633711  0.750000  1
  Sn  Sn34  1  0.468289  0.133711  0.250000  1
  Sn  Sn35  1  0.968289  0.366289  0.250000  1
