# generated using pymatgen
data_DyHo9In8(PtRh)2
_symmetry_space_group_name_H-M   'P 1'
_cell_length_a   3.60729000
_cell_length_b   8.11358998
_cell_length_c   18.23521904
_cell_angle_alpha   90.13274594
_cell_angle_beta   90.00000000
_cell_angle_gamma   90.00000000
_symmetry_Int_Tables_number   1
_chemical_formula_structural   DyHo9In8(PtRh)2
_chemical_formula_sum   'Dy1 Ho9 In8 Pt2 Rh2'
_cell_volume   533.70827131
_cell_formula_units_Z   1
loop_
 _symmetry_equiv_pos_site_id
 _symmetry_equiv_pos_as_xyz
  1  'x, y, z'
loop_
 _atom_site_type_symbol
 _atom_site_label
 _atom_site_symmetry_multiplicity
 _atom_site_fract_x
 _atom_site_fract_y
 _atom_site_fract_z
 _atom_site_occupancy
  Dy  Dy0  1  0.000000  0.500000  0.500000  1
  Ho  Ho1  1  0.000000  0.115622  0.412116  1
  Ho  Ho2  1  0.000000  0.884378  0.587884  1
  Ho  Ho3  1  0.000000  0.383007  0.914284  1
  Ho  Ho4  1  0.000000  0.616993  0.085716  1
  Ho  Ho5  1  0.000000  0.239119  0.221208  1
  Ho  Ho6  1  0.000000  0.760881  0.778792  1
  Ho  Ho7  1  0.000000  0.251021  0.720063  1
  Ho  Ho8  1  0.000000  0.748979  0.279937  1
  Ho  Ho9  1  0.000000  0.000000  0.000000  1
  In  In10  1  0.500000  0.423224  0.350908  1
  In  In11  1  0.500000  0.576776  0.649092  1
  In  In12  1  0.500000  0.074154  0.850081  1
  In  In13  1  0.500000  0.925846  0.149919  1
  In  In14  1  0.500000  0.292157  0.066493  1
  In  In15  1  0.500000  0.707843  0.933507  1
  In  In16  1  0.500000  0.206142  0.567648  1
  In  In17  1  0.500000  0.793858  0.432352  1
  Pt  Pt18  1  0.500000  0.476546  0.803367  1
  Pt  Pt19  1  0.500000  0.523454  0.196633  1
  Rh  Rh20  1  0.500000  0.022871  0.304319  1
  Rh  Rh21  1  0.500000  0.977129  0.695681  1
