# generated using pymatgen
data_Tb2YIn3GePd2
_symmetry_space_group_name_H-M   'P 1'
_cell_length_a   7.53371702
_cell_length_b   7.53312375
_cell_length_c   4.13864100
_cell_angle_alpha   90.00000000
_cell_angle_beta   90.00000000
_cell_angle_gamma   119.99409108
_symmetry_Int_Tables_number   1
_chemical_formula_structural   Tb2YIn3GePd2
_chemical_formula_sum   'Tb2 Y1 In3 Ge1 Pd2'
_cell_volume   203.42234119
_cell_formula_units_Z   1
loop_
 _symmetry_equiv_pos_site_id
 _symmetry_equiv_pos_as_xyz
  1  'x, y, z'
loop_
 _atom_site_type_symbol
 _atom_site_label
 _atom_site_symmetry_multiplicity
 _atom_site_fract_x
 _atom_site_fract_y
 _atom_site_fract_z
 _atom_site_occupancy
  Tb  Tb0  1  0.408263  0.412770  0.500000  1
  Tb  Tb1  1  0.004646  0.591730  0.500000  1
  Y  Y2  1  0.587388  0.995769  0.500000  1
  In  In3  1  0.742019  0.753767  0.000000  1
  In  In4  1  0.246494  0.988448  0.000000  1
  In  In5  1  0.011430  0.257832  0.000000  1
  Ge  Ge6  1  0.666530  0.333154  0.000000  1
  Pd  Pd7  1  0.999996  0.999992  0.500000  1
  Pd  Pd8  1  0.333235  0.666538  0.000000  1
