# generated using pymatgen
data_Zr13Nb7Si15As
_symmetry_space_group_name_H-M   'P 1'
_cell_length_a   7.00503176
_cell_length_b   7.00166658
_cell_length_c   12.91332020
_cell_angle_alpha   90.17793312
_cell_angle_beta   89.71190032
_cell_angle_gamma   90.04701037
_symmetry_Int_Tables_number   1
_chemical_formula_structural   Zr13Nb7Si15As
_chemical_formula_sum   'Zr13 Nb7 Si15 As1'
_cell_volume   633.34701673
_cell_formula_units_Z   1
loop_
 _symmetry_equiv_pos_site_id
 _symmetry_equiv_pos_as_xyz
  1  'x, y, z'
loop_
 _atom_site_type_symbol
 _atom_site_label
 _atom_site_symmetry_multiplicity
 _atom_site_fract_x
 _atom_site_fract_y
 _atom_site_fract_z
 _atom_site_occupancy
  Zr  Zr0  1  0.152074  0.999249  0.872823  1
  Zr  Zr1  1  0.997828  0.654602  0.033624  1
  Zr  Zr2  1  0.001649  0.343128  0.530786  1
  Zr  Zr3  1  0.656167  0.998912  0.968345  1
  Zr  Zr4  1  0.154962  0.501918  0.781430  1
  Zr  Zr5  1  0.839333  0.495817  0.279607  1
  Zr  Zr6  1  0.502923  0.156912  0.219007  1
  Zr  Zr7  1  0.500402  0.845379  0.717733  1
  Zr  Zr8  1  0.344109  0.002924  0.469423  1
  Zr  Zr9  1  0.667932  0.671321  0.499781  1
  Zr  Zr10  1  0.828900  0.171978  0.748832  1
  Zr  Zr11  1  0.170808  0.829790  0.249548  1
  Zr  Zr12  1  0.331001  0.329288  0.001092  1
  Nb  Nb13  1  0.348596  0.503445  0.377093  1
  Nb  Nb14  1  0.844838  0.000405  0.371990  1
  Nb  Nb15  1  0.004409  0.153716  0.126974  1
  Nb  Nb16  1  0.997574  0.847962  0.626367  1
  Nb  Nb17  1  0.654060  0.496777  0.877009  1
  Nb  Nb18  1  0.505190  0.347687  0.622597  1
  Nb  Nb19  1  0.498702  0.651127  0.124804  1
  Si  Si20  1  0.950076  0.299299  0.939190  1
  Si  Si21  1  0.703277  0.048598  0.560738  1
  Si  Si22  1  0.202899  0.452067  0.189087  1
  Si  Si23  1  0.797876  0.547880  0.688139  1
  Si  Si24  1  0.453936  0.205350  0.810652  1
  Si  Si25  1  0.547221  0.798269  0.311352  1
  Si  Si26  1  0.300475  0.950615  0.062743  1
  Si  Si27  1  0.858215  0.789312  0.822446  1
  Si  Si28  1  0.136298  0.208391  0.323517  1
  Si  Si29  1  0.790939  0.865782  0.175784  1
  Si  Si30  1  0.295573  0.634383  0.578706  1
  Si  Si31  1  0.708918  0.363021  0.073687  1
  Si  Si32  1  0.634272  0.291779  0.426341  1
  Si  Si33  1  0.366327  0.703842  0.928059  1
  Si  Si34  1  0.209481  0.137350  0.674269  1
  As  As35  1  0.042761  0.701727  0.436426  1
