# generated using pymatgen
data_Tb5InRh2Pb3
_symmetry_space_group_name_H-M   'P 1'
_cell_length_a   3.77959800
_cell_length_b   8.08171820
_cell_length_c   18.23729314
_cell_angle_alpha   89.91469408
_cell_angle_beta   90.00000000
_cell_angle_gamma   90.00000000
_symmetry_Int_Tables_number   1
_chemical_formula_structural   Tb5InRh2Pb3
_chemical_formula_sum   'Tb10 In2 Rh4 Pb6'
_cell_volume   557.06928191
_cell_formula_units_Z   2
loop_
 _symmetry_equiv_pos_site_id
 _symmetry_equiv_pos_as_xyz
  1  'x, y, z'
loop_
 _atom_site_type_symbol
 _atom_site_label
 _atom_site_symmetry_multiplicity
 _atom_site_fract_x
 _atom_site_fract_y
 _atom_site_fract_z
 _atom_site_occupancy
  Tb  Tb0  1  0.000000  0.500000  0.500000  1
  Tb  Tb1  1  0.000000  0.000000  0.000000  1
  Tb  Tb2  1  0.000000  0.748146  0.279669  1
  Tb  Tb3  1  0.000000  0.251854  0.720331  1
  Tb  Tb4  1  0.000000  0.755387  0.781967  1
  Tb  Tb5  1  0.000000  0.244613  0.218033  1
  Tb  Tb6  1  0.000000  0.615483  0.088316  1
  Tb  Tb7  1  0.000000  0.384517  0.911684  1
  Tb  Tb8  1  0.000000  0.884398  0.590645  1
  Tb  Tb9  1  0.000000  0.115602  0.409355  1
  In  In10  1  0.500000  0.919434  0.152478  1
  In  In11  1  0.500000  0.080566  0.847522  1
  Rh  Rh12  1  0.500000  0.530608  0.194000  1
  Rh  Rh13  1  0.500000  0.469392  0.806000  1
  Rh  Rh14  1  0.500000  0.974109  0.695905  1
  Rh  Rh15  1  0.500000  0.025891  0.304095  1
  Pb  Pb16  1  0.500000  0.709200  0.933915  1
  Pb  Pb17  1  0.500000  0.290800  0.066085  1
  Pb  Pb18  1  0.500000  0.797908  0.436598  1
  Pb  Pb19  1  0.500000  0.202092  0.563402  1
  Pb  Pb20  1  0.500000  0.578593  0.651700  1
  Pb  Pb21  1  0.500000  0.421407  0.348300  1
