# generated using pymatgen
data_SmTmAl3(Fe7C)2
_symmetry_space_group_name_H-M   'P 1'
_cell_length_a   6.47427056
_cell_length_b   6.47427048
_cell_length_c   6.49427415
_cell_angle_alpha   83.71954374
_cell_angle_beta   83.71953378
_cell_angle_gamma   84.00024081
_symmetry_Int_Tables_number   1
_chemical_formula_structural   SmTmAl3(Fe7C)2
_chemical_formula_sum   'Sm1 Tm1 Al3 Fe14 C2'
_cell_volume   267.77473609
_cell_formula_units_Z   1
loop_
 _symmetry_equiv_pos_site_id
 _symmetry_equiv_pos_as_xyz
  1  'x, y, z'
loop_
 _atom_site_type_symbol
 _atom_site_label
 _atom_site_symmetry_multiplicity
 _atom_site_fract_x
 _atom_site_fract_y
 _atom_site_fract_z
 _atom_site_occupancy
  Sm  Sm0  1  0.657111  0.657111  0.658772  1
  Tm  Tm1  1  0.340277  0.340277  0.340361  1
  Al  Al2  1  0.654310  0.654310  0.150669  1
  Al  Al3  1  0.343640  0.343640  0.853332  1
  Al  Al4  1  0.999952  0.999952  0.499728  1
  Fe  Fe5  1  0.654813  0.145720  0.662475  1
  Fe  Fe6  1  0.145720  0.654813  0.662475  1
  Fe  Fe7  1  0.344019  0.856564  0.336499  1
  Fe  Fe8  1  0.856564  0.344019  0.336499  1
  Fe  Fe9  1  0.096404  0.096404  0.093235  1
  Fe  Fe10  1  0.904671  0.904671  0.907938  1
  Fe  Fe11  1  0.000198  0.499362  0.000348  1
  Fe  Fe12  1  0.499362  0.000198  0.000348  1
  Fe  Fe13  1  0.715887  0.283139  0.001459  1
  Fe  Fe14  1  0.287827  0.996990  0.716656  1
  Fe  Fe15  1  0.006022  0.710217  0.282712  1
  Fe  Fe16  1  0.710217  0.006022  0.282712  1
  Fe  Fe17  1  0.996990  0.287827  0.716656  1
  Fe  Fe18  1  0.283139  0.715887  0.001459  1
  C  C19  1  0.496834  0.006044  0.497834  1
  C  C20  1  0.006044  0.496834  0.497834  1
