# generated using pymatgen
data_Dy4Ho6Er6Ga6FeCo
_symmetry_space_group_name_H-M   'P 1'
_cell_length_a   9.96879400
_cell_length_b   9.96879427
_cell_length_c   6.92178100
_cell_angle_alpha   89.99897120
_cell_angle_beta   90.00102306
_cell_angle_gamma   119.99352860
_symmetry_Int_Tables_number   1
_chemical_formula_structural   Dy4Ho6Er6Ga6FeCo
_chemical_formula_sum   'Dy4 Ho6 Er6 Ga6 Fe1 Co1'
_cell_volume   595.74726568
_cell_formula_units_Z   1
loop_
 _symmetry_equiv_pos_site_id
 _symmetry_equiv_pos_as_xyz
  1  'x, y, z'
loop_
 _atom_site_type_symbol
 _atom_site_label
 _atom_site_symmetry_multiplicity
 _atom_site_fract_x
 _atom_site_fract_y
 _atom_site_fract_z
 _atom_site_occupancy
  Dy  Dy0  1  0.927071  0.463603  0.707387  1
  Dy  Dy1  1  0.536397  0.072929  0.707387  1
  Dy  Dy2  1  0.999981  0.000019  0.231659  1
  Dy  Dy3  1  0.000029  0.999971  0.732203  1
  Ho  Ho4  1  0.333427  0.666573  0.828226  1
  Ho  Ho5  1  0.666572  0.333428  0.327899  1
  Ho  Ho6  1  0.462763  0.537237  0.207888  1
  Ho  Ho7  1  0.074611  0.537294  0.207972  1
  Ho  Ho8  1  0.462706  0.925389  0.207972  1
  Ho  Ho9  1  0.536560  0.463440  0.707170  1
  Er  Er10  1  0.173312  0.826688  0.510595  1
  Er  Er11  1  0.653284  0.826485  0.510794  1
  Er  Er12  1  0.173515  0.346716  0.510794  1
  Er  Er13  1  0.826961  0.173039  0.011932  1
  Er  Er14  1  0.346201  0.173188  0.011795  1
  Er  Er15  1  0.826812  0.653799  0.011795  1
  Ga  Ga16  1  0.163316  0.836684  0.958830  1
  Ga  Ga17  1  0.673355  0.836679  0.958716  1
  Ga  Ga18  1  0.163321  0.326645  0.958716  1
  Ga  Ga19  1  0.836584  0.163416  0.458187  1
  Ga  Ga20  1  0.326992  0.163592  0.458409  1
  Ga  Ga21  1  0.836408  0.673008  0.458409  1
  Fe  Fe22  1  0.333344  0.666656  0.445155  1
  Co  Co23  1  0.666478  0.333522  0.944948  1
