# generated using pymatgen
data_Tb16MgCd3Pd3Rh
_symmetry_space_group_name_H-M   'P 1'
_cell_length_a   9.77628795
_cell_length_b   9.73408282
_cell_length_c   9.73408400
_cell_angle_alpha   59.99999598
_cell_angle_beta   60.14270178
_cell_angle_gamma   60.14270028
_symmetry_Int_Tables_number   1
_chemical_formula_structural   Tb16MgCd3Pd3Rh
_chemical_formula_sum   'Tb16 Mg1 Cd3 Pd3 Rh1'
_cell_volume   656.42102194
_cell_formula_units_Z   1
loop_
 _symmetry_equiv_pos_site_id
 _symmetry_equiv_pos_as_xyz
  1  'x, y, z'
loop_
 _atom_site_type_symbol
 _atom_site_label
 _atom_site_symmetry_multiplicity
 _atom_site_fract_x
 _atom_site_fract_y
 _atom_site_fract_z
 _atom_site_occupancy
  Tb  Tb0  1  0.309479  0.896841  0.896841  1
  Tb  Tb1  1  0.682724  0.315874  0.685529  1
  Tb  Tb2  1  0.318293  0.683297  0.315113  1
  Tb  Tb3  1  0.061596  0.438449  0.438449  1
  Tb  Tb4  1  0.682724  0.315874  0.315874  1
  Tb  Tb5  1  0.443175  0.061076  0.434672  1
  Tb  Tb6  1  0.443175  0.061076  0.061076  1
  Tb  Tb7  1  0.894703  0.901941  0.901941  1
  Tb  Tb8  1  0.061596  0.438449  0.061505  1
  Tb  Tb9  1  0.894703  0.301416  0.901941  1
  Tb  Tb10  1  0.318293  0.683297  0.683297  1
  Tb  Tb11  1  0.894703  0.901941  0.301416  1
  Tb  Tb12  1  0.443175  0.434672  0.061076  1
  Tb  Tb13  1  0.318293  0.315113  0.683297  1
  Tb  Tb14  1  0.682724  0.685529  0.315874  1
  Tb  Tb15  1  0.061596  0.061505  0.438449  1
  Mg  Mg16  1  0.982610  0.672464  0.672464  1
  Cd  Cd17  1  0.668382  0.995914  0.667853  1
  Cd  Cd18  1  0.668382  0.667853  0.995914  1
  Cd  Cd19  1  0.668382  0.667853  0.667853  1
  Pd  Pd20  1  0.107564  0.105867  0.680704  1
  Pd  Pd21  1  0.107564  0.680704  0.105867  1
  Pd  Pd22  1  0.107564  0.105867  0.105867  1
  Rh  Rh23  1  0.678602  0.107133  0.107133  1
