# generated using pymatgen
data_Nd4Al3ZnPt4
_symmetry_space_group_name_H-M   'P 1'
_cell_length_a   4.51719900
_cell_length_b   7.08869386
_cell_length_c   7.90502434
_cell_angle_alpha   89.59146926
_cell_angle_beta   90.00000000
_cell_angle_gamma   90.00000000
_symmetry_Int_Tables_number   1
_chemical_formula_structural   Nd4Al3ZnPt4
_chemical_formula_sum   'Nd4 Al3 Zn1 Pt4'
_cell_volume   253.12067257
_cell_formula_units_Z   1
loop_
 _symmetry_equiv_pos_site_id
 _symmetry_equiv_pos_as_xyz
  1  'x, y, z'
loop_
 _atom_site_type_symbol
 _atom_site_label
 _atom_site_symmetry_multiplicity
 _atom_site_fract_x
 _atom_site_fract_y
 _atom_site_fract_z
 _atom_site_occupancy
  Nd  Nd0  1  0.750000  0.470856  0.181969  1
  Nd  Nd1  1  0.250000  0.028936  0.685378  1
  Nd  Nd2  1  0.750000  0.970562  0.312996  1
  Nd  Nd3  1  0.250000  0.533517  0.819526  1
  Al  Al4  1  0.250000  0.645221  0.435299  1
  Al  Al5  1  0.750000  0.351282  0.565793  1
  Al  Al6  1  0.250000  0.147732  0.066364  1
  Zn  Zn7  1  0.750000  0.847514  0.931220  1
  Pt  Pt8  1  0.750000  0.715666  0.604704  1
  Pt  Pt9  1  0.750000  0.226529  0.887106  1
  Pt  Pt10  1  0.250000  0.281331  0.387651  1
  Pt  Pt11  1  0.250000  0.780855  0.121994  1
