# generated using pymatgen
data_PrHo2CuRh8
_symmetry_space_group_name_H-M   'P 1'
_cell_length_a   5.33589300
_cell_length_b   5.33592394
_cell_length_c   17.23047900
_cell_angle_alpha   90.00000000
_cell_angle_beta   90.00000000
_cell_angle_gamma   119.99810335
_symmetry_Int_Tables_number   1
_chemical_formula_structural   PrHo2CuRh8
_chemical_formula_sum   'Pr2 Ho4 Cu2 Rh16'
_cell_volume   424.86702430
_cell_formula_units_Z   2
loop_
 _symmetry_equiv_pos_site_id
 _symmetry_equiv_pos_as_xyz
  1  'x, y, z'
loop_
 _atom_site_type_symbol
 _atom_site_label
 _atom_site_symmetry_multiplicity
 _atom_site_fract_x
 _atom_site_fract_y
 _atom_site_fract_z
 _atom_site_occupancy
  Pr  Pr0  1  0.333397  0.666738  0.750000  1
  Pr  Pr1  1  0.666603  0.333262  0.250000  1
  Ho  Ho2  1  0.333327  0.666675  0.958590  1
  Ho  Ho3  1  0.666673  0.333325  0.041410  1
  Ho  Ho4  1  0.666673  0.333325  0.458590  1
  Ho  Ho5  1  0.333327  0.666675  0.541410  1
  Cu  Cu6  1  0.333403  0.666717  0.250000  1
  Cu  Cu7  1  0.666597  0.333283  0.750000  1
  Rh  Rh8  1  0.168439  0.831559  0.375268  1
  Rh  Rh9  1  0.168448  0.336857  0.375253  1
  Rh  Rh10  1  0.663129  0.831557  0.375272  1
  Rh  Rh11  1  0.831561  0.168441  0.624732  1
  Rh  Rh12  1  0.831552  0.663143  0.624747  1
  Rh  Rh13  1  0.336871  0.168443  0.624728  1
  Rh  Rh14  1  0.831561  0.168441  0.875268  1
  Rh  Rh15  1  0.831552  0.663143  0.875253  1
  Rh  Rh16  1  0.336871  0.168443  0.875272  1
  Rh  Rh17  1  0.168439  0.831559  0.124732  1
  Rh  Rh18  1  0.168448  0.336857  0.124747  1
  Rh  Rh19  1  0.663129  0.831557  0.124728  1
  Rh  Rh20  1  0.000067  0.000108  0.250000  1
  Rh  Rh21  1  0.999933  0.999892  0.750000  1
  Rh  Rh22  1  0.000000  0.000000  0.500000  1
  Rh  Rh23  1  0.000000  0.000000  0.000000  1
