# generated using pymatgen
data_YHo3MnAl18Pd5
_symmetry_space_group_name_H-M   'P 1'
_cell_length_a   7.59339278
_cell_length_b   7.59459023
_cell_length_c   9.46601466
_cell_angle_alpha   89.96458208
_cell_angle_beta   89.93888260
_cell_angle_gamma   119.53680039
_symmetry_Int_Tables_number   1
_chemical_formula_structural   YHo3MnAl18Pd5
_chemical_formula_sum   'Y1 Ho3 Mn1 Al18 Pd5'
_cell_volume   474.94749452
_cell_formula_units_Z   1
loop_
 _symmetry_equiv_pos_site_id
 _symmetry_equiv_pos_as_xyz
  1  'x, y, z'
loop_
 _atom_site_type_symbol
 _atom_site_label
 _atom_site_symmetry_multiplicity
 _atom_site_fract_x
 _atom_site_fract_y
 _atom_site_fract_z
 _atom_site_occupancy
  Y  Y0  1  0.994967  0.670074  0.248435  1
  Ho  Ho1  1  0.005023  0.329682  0.751759  1
  Ho  Ho2  1  0.670321  0.994965  0.248260  1
  Ho  Ho3  1  0.329685  0.005039  0.751735  1
  Mn  Mn4  1  0.000059  0.000237  0.999769  1
  Al  Al5  1  0.124136  0.124376  0.241872  1
  Al  Al6  1  0.875933  0.875968  0.758086  1
  Al  Al7  1  0.998807  0.324137  0.072197  1
  Al  Al8  1  0.001193  0.675627  0.927283  1
  Al  Al9  1  0.998495  0.664441  0.578774  1
  Al  Al10  1  0.335808  0.001788  0.421756  1
  Al  Al11  1  0.001513  0.335196  0.421772  1
  Al  Al12  1  0.664468  0.998511  0.578487  1
  Al  Al13  1  0.675563  0.001184  0.927584  1
  Al  Al14  1  0.324698  0.999145  0.072170  1
  Al  Al15  1  0.333754  0.333754  0.558175  1
  Al  Al16  1  0.665980  0.666243  0.442117  1
  Al  Al17  1  0.676409  0.676665  0.051778  1
  Al  Al18  1  0.323359  0.323365  0.947938  1
  Al  Al19  1  0.340515  0.546309  0.248442  1
  Al  Al20  1  0.659683  0.453571  0.751558  1
  Al  Al21  1  0.545990  0.339932  0.248446  1
  Al  Al22  1  0.453600  0.659735  0.751549  1
  Pd  Pd23  1  0.672188  0.327774  0.999960  1
  Pd  Pd24  1  0.327820  0.672201  0.999966  1
  Pd  Pd25  1  0.327700  0.672332  0.500043  1
  Pd  Pd26  1  0.672330  0.327691  0.500011  1
  Pd  Pd27  1  0.000006  0.000059  0.500079  1
