# generated using pymatgen
data_Rb12Li8Hf3ZrAs12
_symmetry_space_group_name_H-M   'P 1'
_cell_length_a   10.58034629
_cell_length_b   10.58034760
_cell_length_c   15.87227804
_cell_angle_alpha   90.01038020
_cell_angle_beta   90.01038252
_cell_angle_gamma   143.30055589
_symmetry_Int_Tables_number   1
_chemical_formula_structural   Rb12Li8Hf3ZrAs12
_chemical_formula_sum   'Rb12 Li8 Hf3 Zr1 As12'
_cell_volume   1061.84767189
_cell_formula_units_Z   1
loop_
 _symmetry_equiv_pos_site_id
 _symmetry_equiv_pos_as_xyz
  1  'x, y, z'
loop_
 _atom_site_type_symbol
 _atom_site_label
 _atom_site_symmetry_multiplicity
 _atom_site_fract_x
 _atom_site_fract_y
 _atom_site_fract_z
 _atom_site_occupancy
  Rb  Rb0  1  0.949540  0.605374  0.827709  1
  Rb  Rb1  1  0.550665  0.894312  0.327041  1
  Rb  Rb2  1  0.394626  0.050460  0.172291  1
  Rb  Rb3  1  0.050301  0.394355  0.172380  1
  Rb  Rb4  1  0.895013  0.550683  0.327122  1
  Rb  Rb5  1  0.449317  0.104987  0.672878  1
  Rb  Rb6  1  0.605645  0.949699  0.827620  1
  Rb  Rb7  1  0.287710  0.288100  0.319468  1
  Rb  Rb8  1  0.788101  0.788140  0.180527  1
  Rb  Rb9  1  0.211860  0.211899  0.819473  1
  Rb  Rb10  1  0.711900  0.712290  0.680532  1
  Rb  Rb11  1  0.105688  0.449335  0.672959  1
  Li  Li12  1  0.916644  0.083356  0.000000  1
  Li  Li13  1  0.582800  0.417200  0.500000  1
  Li  Li14  1  0.083333  0.916667  0.000000  1
  Li  Li15  1  0.416287  0.583713  0.500000  1
  Li  Li16  1  0.749848  0.250152  0.000000  1
  Li  Li17  1  0.750350  0.249650  0.500000  1
  Li  Li18  1  0.250193  0.749807  0.000000  1
  Li  Li19  1  0.250757  0.749243  0.500000  1
  Hf  Hf20  1  0.586822  0.413178  0.000000  1
  Hf  Hf21  1  0.912653  0.087347  0.500000  1
  Hf  Hf22  1  0.413157  0.586843  0.000000  1
  Zr  Zr23  1  0.087329  0.912671  0.500000  1
  As  As24  1  0.894773  0.571469  0.088526  1
  As  As25  1  0.428531  0.105227  0.911474  1
  As  As26  1  0.604971  0.928720  0.588762  1
  As  As27  1  0.927340  0.602334  0.589058  1
  As  As28  1  0.105210  0.428538  0.911502  1
  As  As29  1  0.571462  0.894790  0.088498  1
  As  As30  1  0.397666  0.072660  0.410942  1
  As  As31  1  0.225136  0.226896  0.585702  1
  As  As32  1  0.725058  0.725068  0.914465  1
  As  As33  1  0.274932  0.274942  0.085535  1
  As  As34  1  0.071280  0.395029  0.411238  1
  As  As35  1  0.773104  0.774864  0.414298  1
