# generated using pymatgen
data_Cs3Th2InTe6
_symmetry_space_group_name_H-M   'P 1'
_cell_length_a   8.30836415
_cell_length_b   8.30836521
_cell_length_c   9.20438806
_cell_angle_alpha   81.37213707
_cell_angle_beta   81.37214287
_cell_angle_gamma   119.84376187
_symmetry_Int_Tables_number   1
_chemical_formula_structural   Cs3Th2InTe6
_chemical_formula_sum   'Cs3 Th2 In1 Te6'
_cell_volume   525.84210529
_cell_formula_units_Z   1
loop_
 _symmetry_equiv_pos_site_id
 _symmetry_equiv_pos_as_xyz
  1  'x, y, z'
loop_
 _atom_site_type_symbol
 _atom_site_label
 _atom_site_symmetry_multiplicity
 _atom_site_fract_x
 _atom_site_fract_y
 _atom_site_fract_z
 _atom_site_occupancy
  Cs  Cs0  1  0.652697  0.347303  0.500000  1
  Cs  Cs1  1  0.347303  0.652697  0.500000  1
  Cs  Cs2  1  0.000000  0.000000  0.500000  1
  Th  Th3  1  0.831814  0.168186  0.000000  1
  Th  Th4  1  0.168186  0.831814  0.000000  1
  In  In5  1  0.500000  0.500000  0.000000  1
  Te  Te6  1  0.795505  0.795505  0.188844  1
  Te  Te7  1  0.204495  0.204495  0.811156  1
  Te  Te8  1  0.433364  0.071931  0.197056  1
  Te  Te9  1  0.566636  0.928069  0.802944  1
  Te  Te10  1  0.928069  0.566636  0.802944  1
  Te  Te11  1  0.071931  0.433364  0.197056  1
