# generated using pymatgen
data_ScP6RhO18
_symmetry_space_group_name_H-M   'P 1'
_cell_length_a   5.23834235
_cell_length_b   6.99163241
_cell_length_c   10.53726106
_cell_angle_alpha   98.97185957
_cell_angle_beta   93.21552967
_cell_angle_gamma   93.34763290
_symmetry_Int_Tables_number   1
_chemical_formula_structural   ScP6RhO18
_chemical_formula_sum   'Sc1 P6 Rh1 O18'
_cell_volume   379.71763381
_cell_formula_units_Z   1
loop_
 _symmetry_equiv_pos_site_id
 _symmetry_equiv_pos_as_xyz
  1  'x, y, z'
loop_
 _atom_site_type_symbol
 _atom_site_label
 _atom_site_symmetry_multiplicity
 _atom_site_fract_x
 _atom_site_fract_y
 _atom_site_fract_z
 _atom_site_occupancy
  Sc  Sc0  1  0.499980  0.500009  0.499983  1
  P  P1  1  0.024686  0.979879  0.180466  1
  P  P2  1  0.742052  0.331244  0.216872  1
  P  P3  1  0.989375  0.689596  0.357174  1
  P  P4  1  0.010568  0.310393  0.642824  1
  P  P5  1  0.257971  0.668739  0.783103  1
  P  P6  1  0.975327  0.020111  0.819545  1
  Rh  Rh7  1  0.499994  0.000000  0.999996  1
  O  O8  1  0.610912  0.282160  0.083321  1
  O  O9  1  0.822042  0.893028  0.076240  1
  O  O10  1  0.301913  0.949714  0.155703  1
  O  O11  1  0.990271  0.205040  0.227860  1
  O  O12  1  0.879494  0.544450  0.227154  1
  O  O13  1  0.588396  0.319521  0.331929  1
  O  O14  1  0.974052  0.896126  0.311415  1
  O  O15  1  0.262627  0.651283  0.387216  1
  O  O16  1  0.807472  0.683660  0.462055  1
  O  O17  1  0.192564  0.316339  0.537988  1
  O  O18  1  0.737305  0.348692  0.612800  1
  O  O19  1  0.025953  0.103887  0.688609  1
  O  O20  1  0.411633  0.680423  0.668046  1
  O  O21  1  0.120525  0.455562  0.772807  1
  O  O22  1  0.009746  0.794952  0.772170  1
  O  O23  1  0.698110  0.050313  0.844312  1
  O  O24  1  0.177991  0.107009  0.923747  1
  O  O25  1  0.389049  0.717867  0.916663  1
