# generated using pymatgen
data_Sr2CaCd(Sb2O7)2
_symmetry_space_group_name_H-M   'P 1'
_cell_length_a   7.45355492
_cell_length_b   7.52340181
_cell_length_c   7.52340260
_cell_angle_alpha   120.43445040
_cell_angle_beta   119.55679060
_cell_angle_gamma   90.27419450
_symmetry_Int_Tables_number   1
_chemical_formula_structural   Sr2CaCd(Sb2O7)2
_chemical_formula_sum   'Sr2 Ca1 Cd1 Sb4 O14'
_cell_volume   297.61721020
_cell_formula_units_Z   1
loop_
 _symmetry_equiv_pos_site_id
 _symmetry_equiv_pos_as_xyz
  1  'x, y, z'
loop_
 _atom_site_type_symbol
 _atom_site_label
 _atom_site_symmetry_multiplicity
 _atom_site_fract_x
 _atom_site_fract_y
 _atom_site_fract_z
 _atom_site_occupancy
  Sr  Sr0  1  0.500000  0.500000  0.500000  1
  Sr  Sr1  1  0.500000  0.000000  0.000000  1
  Ca  Ca2  1  0.500000  0.500000  0.000000  1
  Cd  Cd3  1  0.000000  0.000000  0.000000  1
  Sb  Sb4  1  0.000000  0.500000  0.000000  1
  Sb  Sb5  1  0.000000  0.000000  0.500000  1
  Sb  Sb6  1  0.000000  0.500000  0.500000  1
  Sb  Sb7  1  0.500000  0.000000  0.500000  1
  O  O8  1  0.942764  0.586830  0.769819  1
  O  O9  1  0.057236  0.827055  0.644066  1
  O  O10  1  0.679130  0.913060  0.354653  1
  O  O11  1  0.320870  0.675523  0.233930  1
  O  O12  1  0.057236  0.413170  0.230181  1
  O  O13  1  0.942764  0.172945  0.355934  1
  O  O14  1  0.320870  0.086940  0.645347  1
  O  O15  1  0.679130  0.324477  0.766070  1
  O  O16  1  0.107610  0.257815  0.849795  1
  O  O17  1  0.892390  0.742185  0.150205  1
  O  O18  1  0.681950  0.412845  0.269104  1
  O  O19  1  0.318050  0.587155  0.730896  1
  O  O20  1  0.349448  0.084150  0.265298  1
  O  O21  1  0.650552  0.915850  0.734702  1
