# generated using pymatgen
data_LiEr3CdIn3Ir
_symmetry_space_group_name_H-M   'P 1'
_cell_length_a   8.08201400
_cell_length_b   8.08201412
_cell_length_c   3.59479800
_cell_angle_alpha   90.00000000
_cell_angle_beta   90.00000000
_cell_angle_gamma   119.99999351
_symmetry_Int_Tables_number   1
_chemical_formula_structural   LiEr3CdIn3Ir
_chemical_formula_sum   'Li1 Er3 Cd1 In3 Ir1'
_cell_volume   203.35008337
_cell_formula_units_Z   1
loop_
 _symmetry_equiv_pos_site_id
 _symmetry_equiv_pos_as_xyz
  1  'x, y, z'
loop_
 _atom_site_type_symbol
 _atom_site_label
 _atom_site_symmetry_multiplicity
 _atom_site_fract_x
 _atom_site_fract_y
 _atom_site_fract_z
 _atom_site_occupancy
  Li  Li0  1  0.000000  0.000000  0.500000  1
  Er  Er1  1  0.381662  0.962423  0.500000  1
  Er  Er2  1  0.037577  0.419239  0.500000  1
  Er  Er3  1  0.580761  0.618338  0.500000  1
  Cd  Cd4  1  0.666667  0.333333  0.000000  1
  In  In5  1  0.739492  0.007652  0.000000  1
  In  In6  1  0.992348  0.731839  0.000000  1
  In  In7  1  0.268161  0.260508  0.000000  1
  Ir  Ir8  1  0.333333  0.666667  0.000000  1
