# generated using pymatgen
data_YLu2(Ni3P2)3
_symmetry_space_group_name_H-M   'P 1'
_cell_length_a   3.74057800
_cell_length_b   10.41571100
_cell_length_c   12.25498100
_cell_angle_alpha   90.00000000
_cell_angle_beta   90.00000000
_cell_angle_gamma   90.00000000
_symmetry_Int_Tables_number   1
_chemical_formula_structural   YLu2(Ni3P2)3
_chemical_formula_sum   'Y2 Lu4 Ni18 P12'
_cell_volume   477.46361155
_cell_formula_units_Z   2
loop_
 _symmetry_equiv_pos_site_id
 _symmetry_equiv_pos_as_xyz
  1  'x, y, z'
loop_
 _atom_site_type_symbol
 _atom_site_label
 _atom_site_symmetry_multiplicity
 _atom_site_fract_x
 _atom_site_fract_y
 _atom_site_fract_z
 _atom_site_occupancy
  Y  Y0  1  0.000000  0.500000  0.522658  1
  Y  Y1  1  0.500000  0.000000  0.477342  1
  Lu  Lu2  1  0.500000  0.818416  0.205232  1
  Lu  Lu3  1  0.500000  0.181584  0.205232  1
  Lu  Lu4  1  0.000000  0.681584  0.794768  1
  Lu  Lu5  1  0.000000  0.318416  0.794768  1
  Ni  Ni6  1  0.500000  0.500000  0.159327  1
  Ni  Ni7  1  0.000000  0.000000  0.840673  1
  Ni  Ni8  1  0.500000  0.500000  0.702502  1
  Ni  Ni9  1  0.000000  0.000000  0.297498  1
  Ni  Ni10  1  0.000000  0.500000  0.985686  1
  Ni  Ni11  1  0.500000  0.000000  0.014314  1
  Ni  Ni12  1  0.500000  0.332392  0.996339  1
  Ni  Ni13  1  0.500000  0.667608  0.996339  1
  Ni  Ni14  1  0.000000  0.167608  0.003661  1
  Ni  Ni15  1  0.000000  0.832392  0.003661  1
  Ni  Ni16  1  0.500000  0.299718  0.429245  1
  Ni  Ni17  1  0.500000  0.700282  0.429245  1
  Ni  Ni18  1  0.000000  0.200282  0.570755  1
  Ni  Ni19  1  0.000000  0.799718  0.570755  1
  Ni  Ni20  1  0.500000  0.877845  0.711343  1
  Ni  Ni21  1  0.500000  0.122155  0.711343  1
  Ni  Ni22  1  0.000000  0.622155  0.288657  1
  Ni  Ni23  1  0.000000  0.377845  0.288657  1
  P  P24  1  0.500000  0.500000  0.877689  1
  P  P25  1  0.000000  0.000000  0.122311  1
  P  P26  1  0.500000  0.500000  0.344719  1
  P  P27  1  0.000000  0.000000  0.655281  1
  P  P28  1  0.500000  0.313402  0.616241  1
  P  P29  1  0.500000  0.686598  0.616241  1
  P  P30  1  0.000000  0.186598  0.383759  1
  P  P31  1  0.000000  0.813402  0.383759  1
  P  P32  1  0.500000  0.846330  0.890887  1
  P  P33  1  0.500000  0.153670  0.890887  1
  P  P34  1  0.000000  0.653670  0.109113  1
  P  P35  1  0.000000  0.346330  0.109113  1
