# generated using pymatgen
data_ErTm7(AgRh)2
_symmetry_space_group_name_H-M   'P 1'
_cell_length_a   9.38180435
_cell_length_b   9.41034698
_cell_length_c   9.41448509
_cell_angle_alpha   60.22102590
_cell_angle_beta   60.11476281
_cell_angle_gamma   60.10027538
_symmetry_Int_Tables_number   1
_chemical_formula_structural   ErTm7(AgRh)2
_chemical_formula_sum   'Er2 Tm14 Ag4 Rh4'
_cell_volume   589.65775216
_cell_formula_units_Z   2
loop_
 _symmetry_equiv_pos_site_id
 _symmetry_equiv_pos_as_xyz
  1  'x, y, z'
loop_
 _atom_site_type_symbol
 _atom_site_label
 _atom_site_symmetry_multiplicity
 _atom_site_fract_x
 _atom_site_fract_y
 _atom_site_fract_z
 _atom_site_occupancy
  Er  Er0  1  0.064406  0.065417  0.434696  1
  Er  Er1  1  0.435481  0.065417  0.434696  1
  Tm  Tm2  1  0.064655  0.435050  0.065161  1
  Tm  Tm3  1  0.061116  0.646068  0.646390  1
  Tm  Tm4  1  0.435134  0.435050  0.065161  1
  Tm  Tm5  1  0.646647  0.059941  0.646768  1
  Tm  Tm6  1  0.187073  0.813101  0.187522  1
  Tm  Tm7  1  0.186912  0.187626  0.813406  1
  Tm  Tm8  1  0.812303  0.813101  0.187522  1
  Tm  Tm9  1  0.435253  0.064893  0.064601  1
  Tm  Tm10  1  0.812236  0.188005  0.187524  1
  Tm  Tm11  1  0.064672  0.435654  0.435002  1
  Tm  Tm12  1  0.812057  0.187626  0.813406  1
  Tm  Tm13  1  0.186658  0.813048  0.813636  1
  Tm  Tm14  1  0.646719  0.646569  0.059995  1
  Tm  Tm15  1  0.646428  0.646068  0.646390  1
  Ag  Ag16  1  0.417654  0.417513  0.416942  1
  Ag  Ag17  1  0.747888  0.417513  0.416942  1
  Ag  Ag18  1  0.418166  0.746740  0.416926  1
  Ag  Ag19  1  0.417751  0.417155  0.747340  1
  Rh  Rh20  1  0.856521  0.854798  0.432161  1
  Rh  Rh21  1  0.856894  0.855688  0.856243  1
  Rh  Rh22  1  0.431175  0.855688  0.856243  1
  Rh  Rh23  1  0.856201  0.432270  0.855328  1
