# generated using pymatgen
data_Lu3NiPd2Pb3
_symmetry_space_group_name_H-M   'P 1'
_cell_length_a   7.72168400
_cell_length_b   7.72168356
_cell_length_c   3.75348900
_cell_angle_alpha   90.00000000
_cell_angle_beta   90.00000000
_cell_angle_gamma   120.00000187
_symmetry_Int_Tables_number   1
_chemical_formula_structural   Lu3NiPd2Pb3
_chemical_formula_sum   'Lu3 Ni1 Pd2 Pb3'
_cell_volume   193.81607566
_cell_formula_units_Z   1
loop_
 _symmetry_equiv_pos_site_id
 _symmetry_equiv_pos_as_xyz
  1  'x, y, z'
loop_
 _atom_site_type_symbol
 _atom_site_label
 _atom_site_symmetry_multiplicity
 _atom_site_fract_x
 _atom_site_fract_y
 _atom_site_fract_z
 _atom_site_occupancy
  Lu  Lu0  1  0.601665  0.000000  0.500000  1
  Lu  Lu1  1  0.398335  0.398335  0.500000  1
  Lu  Lu2  1  0.000000  0.601665  0.500000  1
  Ni  Ni3  1  0.000000  0.000000  0.500000  1
  Pd  Pd4  1  0.333333  0.666667  0.000000  1
  Pd  Pd5  1  0.666667  0.333333  0.000000  1
  Pb  Pb6  1  0.258411  0.000000  0.000000  1
  Pb  Pb7  1  0.741589  0.741589  0.000000  1
  Pb  Pb8  1  0.000000  0.258411  0.000000  1
