# generated using pymatgen
data_Y2Ta3Sn(B2Ru5)2
_symmetry_space_group_name_H-M   'P 1'
_cell_length_a   9.54131531
_cell_length_b   9.64667704
_cell_length_c   3.09847300
_cell_angle_alpha   90.00000000
_cell_angle_beta   90.00000000
_cell_angle_gamma   91.24504619
_symmetry_Int_Tables_number   1
_chemical_formula_structural   Y2Ta3Sn(B2Ru5)2
_chemical_formula_sum   'Y2 Ta3 Sn1 B4 Ru10'
_cell_volume   285.12228210
_cell_formula_units_Z   1
loop_
 _symmetry_equiv_pos_site_id
 _symmetry_equiv_pos_as_xyz
  1  'x, y, z'
loop_
 _atom_site_type_symbol
 _atom_site_label
 _atom_site_symmetry_multiplicity
 _atom_site_fract_x
 _atom_site_fract_y
 _atom_site_fract_z
 _atom_site_occupancy
  Y  Y0  1  0.819459  0.673523  0.000000  1
  Y  Y1  1  0.180541  0.326477  0.000000  1
  Ta  Ta2  1  0.320953  0.829215  0.000000  1
  Ta  Ta3  1  0.679047  0.170785  0.000000  1
  Ta  Ta4  1  0.000000  0.000000  0.000000  1
  Sn  Sn5  1  0.500000  0.500000  0.000000  1
  B  B6  1  0.618237  0.879465  0.000000  1
  B  B7  1  0.381763  0.120535  0.000000  1
  B  B8  1  0.120924  0.623156  0.000000  1
  B  B9  1  0.879076  0.376844  0.000000  1
  Ru  Ru10  1  0.553458  0.729900  0.500000  1
  Ru  Ru11  1  0.446542  0.270100  0.500000  1
  Ru  Ru12  1  0.078123  0.786593  0.500000  1
  Ru  Ru13  1  0.921877  0.213407  0.500000  1
  Ru  Ru14  1  0.282403  0.592991  0.500000  1
  Ru  Ru15  1  0.717597  0.407009  0.500000  1
  Ru  Ru16  1  0.223056  0.059302  0.500000  1
  Ru  Ru17  1  0.776944  0.940698  0.500000  1
  Ru  Ru18  1  0.500000  0.000000  0.500000  1
  Ru  Ru19  1  0.000000  0.500000  0.500000  1
