# generated using pymatgen
data_NaCa20AcGa14
_symmetry_space_group_name_H-M   'P 1'
_cell_length_a   11.44440024
_cell_length_b   11.44440116
_cell_length_c   11.44440169
_cell_angle_alpha   59.50698406
_cell_angle_beta   59.50697992
_cell_angle_gamma   59.50698374
_symmetry_Int_Tables_number   1
_chemical_formula_structural   NaCa20AcGa14
_chemical_formula_sum   'Na1 Ca20 Ac1 Ga14'
_cell_volume   1048.01467563
_cell_formula_units_Z   1
loop_
 _symmetry_equiv_pos_site_id
 _symmetry_equiv_pos_as_xyz
  1  'x, y, z'
loop_
 _atom_site_type_symbol
 _atom_site_label
 _atom_site_symmetry_multiplicity
 _atom_site_fract_x
 _atom_site_fract_y
 _atom_site_fract_z
 _atom_site_occupancy
  Na  Na0  1  0.500113  0.500113  0.500113  1
  Ca  Ca1  1  0.997015  0.997015  0.997015  1
  Ca  Ca2  1  0.389286  0.869970  0.869970  1
  Ca  Ca3  1  0.869970  0.389286  0.869970  1
  Ca  Ca4  1  0.869970  0.869970  0.389286  1
  Ca  Ca5  1  0.129659  0.612616  0.129659  1
  Ca  Ca6  1  0.129659  0.129659  0.612616  1
  Ca  Ca7  1  0.612616  0.129659  0.129659  1
  Ca  Ca8  1  0.870305  0.870305  0.870305  1
  Ca  Ca9  1  0.501179  0.831737  0.501179  1
  Ca  Ca10  1  0.831737  0.501179  0.501179  1
  Ca  Ca11  1  0.502315  0.830950  0.167174  1
  Ca  Ca12  1  0.167174  0.502315  0.830950  1
  Ca  Ca13  1  0.830950  0.502315  0.167174  1
  Ca  Ca14  1  0.501179  0.501179  0.831737  1
  Ca  Ca15  1  0.167174  0.830950  0.502315  1
  Ca  Ca16  1  0.502315  0.167174  0.830950  1
  Ca  Ca17  1  0.499063  0.499063  0.166899  1
  Ca  Ca18  1  0.830950  0.167174  0.502315  1
  Ca  Ca19  1  0.166899  0.499063  0.499063  1
  Ca  Ca20  1  0.499063  0.166899  0.499063  1
  Ac  Ac21  1  0.127800  0.127800  0.127800  1
  Ga  Ga22  1  0.219308  0.779378  0.219308  1
  Ga  Ga23  1  0.217202  0.781447  0.781447  1
  Ga  Ga24  1  0.779378  0.219308  0.219308  1
  Ga  Ga25  1  0.781447  0.781447  0.217202  1
  Ga  Ga26  1  0.219308  0.219308  0.779378  1
  Ga  Ga27  1  0.781447  0.217202  0.781447  1
  Ga  Ga28  1  0.309722  0.309721  0.309721  1
  Ga  Ga29  1  0.928027  0.690522  0.690522  1
  Ga  Ga30  1  0.690522  0.928027  0.690522  1
  Ga  Ga31  1  0.690522  0.690522  0.928027  1
  Ga  Ga32  1  0.312040  0.071629  0.312040  1
  Ga  Ga33  1  0.312040  0.312040  0.071629  1
  Ga  Ga34  1  0.071629  0.312040  0.312040  1
  Ga  Ga35  1  0.691017  0.691017  0.691016  1
