# generated using pymatgen
data_NaY(AgTe2)4
_symmetry_space_group_name_H-M   'P 1'
_cell_length_a   12.01055058
_cell_length_b   12.01055055
_cell_length_c   11.00282800
_cell_angle_alpha   90.13345834
_cell_angle_beta   90.13345834
_cell_angle_gamma   14.87961710
_symmetry_Int_Tables_number   1
_chemical_formula_structural   NaY(AgTe2)4
_chemical_formula_sum   'Na1 Y1 Ag4 Te8'
_cell_volume   407.57295348
_cell_formula_units_Z   1
loop_
 _symmetry_equiv_pos_site_id
 _symmetry_equiv_pos_as_xyz
  1  'x, y, z'
loop_
 _atom_site_type_symbol
 _atom_site_label
 _atom_site_symmetry_multiplicity
 _atom_site_fract_x
 _atom_site_fract_y
 _atom_site_fract_z
 _atom_site_occupancy
  Na  Na0  1  0.000000  0.000000  0.000000  1
  Y  Y1  1  0.500000  0.500000  0.500000  1
  Ag  Ag2  1  0.246293  0.246293  0.127391  1
  Ag  Ag3  1  0.873304  0.873304  0.391612  1
  Ag  Ag4  1  0.126696  0.126696  0.608388  1
  Ag  Ag5  1  0.753707  0.753707  0.872609  1
  Te  Te6  1  0.905263  0.905263  0.634478  1
  Te  Te7  1  0.094737  0.094737  0.365522  1
  Te  Te8  1  0.554235  0.554235  0.777563  1
  Te  Te9  1  0.445765  0.445765  0.222437  1
  Te  Te10  1  0.649889  0.649889  0.010025  1
  Te  Te11  1  0.350111  0.350111  0.989975  1
  Te  Te12  1  0.759032  0.759032  0.350677  1
  Te  Te13  1  0.240968  0.240968  0.649323  1
