# generated using pymatgen
data_NaPa5(GaPt)6
_symmetry_space_group_name_H-M   'P 1'
_cell_length_a   7.01616400
_cell_length_b   7.01186321
_cell_length_c   8.32948200
_cell_angle_alpha   90.00000000
_cell_angle_beta   90.00000000
_cell_angle_gamma   120.08780090
_symmetry_Int_Tables_number   1
_chemical_formula_structural   NaPa5(GaPt)6
_chemical_formula_sum   'Na1 Pa5 Ga6 Pt6'
_cell_volume   354.56582602
_cell_formula_units_Z   1
loop_
 _symmetry_equiv_pos_site_id
 _symmetry_equiv_pos_as_xyz
  1  'x, y, z'
loop_
 _atom_site_type_symbol
 _atom_site_label
 _atom_site_symmetry_multiplicity
 _atom_site_fract_x
 _atom_site_fract_y
 _atom_site_fract_z
 _atom_site_occupancy
  Na  Na0  1  0.408609  0.408602  0.250000  1
  Pa  Pa1  1  0.003911  0.584894  0.750000  1
  Pa  Pa2  1  0.999487  0.577330  0.250000  1
  Pa  Pa3  1  0.577146  0.999016  0.250000  1
  Pa  Pa4  1  0.585165  0.004421  0.750000  1
  Pa  Pa5  1  0.420730  0.420790  0.750000  1
  Ga  Ga6  1  0.010285  0.245234  0.493506  1
  Ga  Ga7  1  0.747068  0.747158  0.000743  1
  Ga  Ga8  1  0.010285  0.245234  0.006494  1
  Ga  Ga9  1  0.245393  0.010309  0.493603  1
  Ga  Ga10  1  0.245393  0.010309  0.006397  1
  Ga  Ga11  1  0.747068  0.747158  0.499257  1
  Pt  Pt12  1  0.332938  0.677057  0.504698  1
  Pt  Pt13  1  0.676900  0.332589  0.504323  1
  Pt  Pt14  1  0.676900  0.332589  0.995677  1
  Pt  Pt15  1  0.976420  0.976414  0.250000  1
  Pt  Pt16  1  0.003363  0.003835  0.750000  1
  Pt  Pt17  1  0.332938  0.677057  0.995302  1
