# generated using pymatgen
data_Er5U3Ta6(Nb3Si8)2
_symmetry_space_group_name_H-M   'P 1'
_cell_length_a   7.03675906
_cell_length_b   7.04357027
_cell_length_c   12.99079467
_cell_angle_alpha   89.97758655
_cell_angle_beta   89.97315591
_cell_angle_gamma   90.03211374
_symmetry_Int_Tables_number   1
_chemical_formula_structural   Er5U3Ta6(Nb3Si8)2
_chemical_formula_sum   'Er5 U3 Ta6 Nb6 Si16'
_cell_volume   643.87431707
_cell_formula_units_Z   1
loop_
 _symmetry_equiv_pos_site_id
 _symmetry_equiv_pos_as_xyz
  1  'x, y, z'
loop_
 _atom_site_type_symbol
 _atom_site_label
 _atom_site_symmetry_multiplicity
 _atom_site_fract_x
 _atom_site_fract_y
 _atom_site_fract_z
 _atom_site_occupancy
  Er  Er0  1  0.998398  0.339915  0.217192  1
  Er  Er1  1  0.000883  0.660792  0.717197  1
  Er  Er2  1  0.160221  0.499302  0.467783  1
  Er  Er3  1  0.501423  0.840908  0.032185  1
  Er  Er4  1  0.840859  0.500694  0.967428  1
  U  U5  1  0.499458  0.158448  0.530930  1
  U  U6  1  0.339085  0.998157  0.781810  1
  U  U7  1  0.660391  0.002637  0.284095  1
  Ta  Ta8  1  0.171250  0.168822  0.997371  1
  Ta  Ta9  1  0.825984  0.834408  0.498699  1
  Ta  Ta10  1  0.331809  0.672935  0.250295  1
  Ta  Ta11  1  0.666244  0.325056  0.748998  1
  Ta  Ta12  1  0.155091  0.993803  0.376507  1
  Ta  Ta13  1  0.848485  0.007232  0.875153  1
  Nb  Nb14  1  0.504057  0.656265  0.627036  1
  Nb  Nb15  1  0.345476  0.496768  0.874708  1
  Nb  Nb16  1  0.495701  0.344005  0.127012  1
  Nb  Nb17  1  0.651580  0.501031  0.375224  1
  Nb  Nb18  1  0.998180  0.152467  0.625819  1
  Nb  Nb19  1  0.003928  0.847203  0.126002  1
  Si  Si20  1  0.293918  0.043312  0.185270  1
  Si  Si21  1  0.706355  0.956495  0.686007  1
  Si  Si22  1  0.455982  0.792298  0.435797  1
  Si  Si23  1  0.205579  0.542992  0.063707  1
  Si  Si24  1  0.543997  0.205448  0.936223  1
  Si  Si25  1  0.794199  0.457565  0.563592  1
  Si  Si26  1  0.042538  0.297518  0.813133  1
  Si  Si27  1  0.956522  0.703649  0.313790  1
  Si  Si28  1  0.365268  0.294201  0.318278  1
  Si  Si29  1  0.634028  0.704411  0.817836  1
  Si  Si30  1  0.205168  0.867325  0.567456  1
  Si  Si31  1  0.133133  0.795127  0.932408  1
  Si  Si32  1  0.796328  0.133336  0.067160  1
  Si  Si33  1  0.869579  0.204833  0.432978  1
  Si  Si34  1  0.295861  0.367281  0.682439  1
  Si  Si35  1  0.703039  0.633362  0.182481  1
