# generated using pymatgen
data_CsTb3CBr6
_symmetry_space_group_name_H-M   'P 1'
_cell_length_a   8.87839258
_cell_length_b   8.91198443
_cell_length_c   9.50437654
_cell_angle_alpha   70.86292126
_cell_angle_beta   84.85969799
_cell_angle_gamma   89.13597891
_symmetry_Int_Tables_number   1
_chemical_formula_structural   CsTb3CBr6
_chemical_formula_sum   'Cs2 Tb6 C2 Br12'
_cell_volume   707.52708119
_cell_formula_units_Z   2
loop_
 _symmetry_equiv_pos_site_id
 _symmetry_equiv_pos_as_xyz
  1  'x, y, z'
loop_
 _atom_site_type_symbol
 _atom_site_label
 _atom_site_symmetry_multiplicity
 _atom_site_fract_x
 _atom_site_fract_y
 _atom_site_fract_z
 _atom_site_occupancy
  Cs  Cs0  1  0.466724  0.367048  0.330063  1
  Cs  Cs1  1  0.533277  0.632952  0.669937  1
  Tb  Tb2  1  0.916895  0.745342  0.005075  1
  Tb  Tb3  1  0.083105  0.254658  0.994924  1
  Tb  Tb4  1  0.744207  0.085449  0.001155  1
  Tb  Tb5  1  0.255792  0.914551  0.998846  1
  Tb  Tb6  1  0.973279  0.887040  0.324275  1
  Tb  Tb7  1  0.026720  0.112960  0.675726  1
  C  C8  1  0.006372  0.026721  0.920711  1
  C  C9  1  0.993627  0.973279  0.079289  1
  Br  Br10  1  0.074267  0.197877  0.326495  1
  Br  Br11  1  0.925733  0.802123  0.673505  1
  Br  Br12  1  0.204216  0.593395  0.001009  1
  Br  Br13  1  0.795785  0.406605  0.998991  1
  Br  Br14  1  0.402332  0.200244  0.000850  1
  Br  Br15  1  0.597667  0.799757  0.999149  1
  Br  Br16  1  0.667625  0.002083  0.325209  1
  Br  Br17  1  0.332375  0.997917  0.674791  1
  Br  Br18  1  0.280111  0.777020  0.321621  1
  Br  Br19  1  0.719889  0.222980  0.678379  1
  Br  Br20  1  0.851847  0.590728  0.326164  1
  Br  Br21  1  0.148152  0.409272  0.673836  1
