# generated using pymatgen
data_Tb8Lu12Sn15Bi
_symmetry_space_group_name_H-M   'P 1'
_cell_length_a   7.99184536
_cell_length_b   8.09492763
_cell_length_c   15.26643563
_cell_angle_alpha   90.04468647
_cell_angle_beta   90.54863543
_cell_angle_gamma   89.99222135
_symmetry_Int_Tables_number   1
_chemical_formula_structural   Tb8Lu12Sn15Bi
_chemical_formula_sum   'Tb8 Lu12 Sn15 Bi1'
_cell_volume   987.59218978
_cell_formula_units_Z   1
loop_
 _symmetry_equiv_pos_site_id
 _symmetry_equiv_pos_as_xyz
  1  'x, y, z'
loop_
 _atom_site_type_symbol
 _atom_site_label
 _atom_site_symmetry_multiplicity
 _atom_site_fract_x
 _atom_site_fract_y
 _atom_site_fract_z
 _atom_site_occupancy
  Tb  Tb0  1  0.526853  0.325069  0.900793  1
  Tb  Tb1  1  0.020467  0.177953  0.596257  1
  Tb  Tb2  1  0.480067  0.677300  0.404070  1
  Tb  Tb3  1  0.968132  0.818613  0.100098  1
  Tb  Tb4  1  0.476457  0.672829  0.098366  1
  Tb  Tb5  1  0.979503  0.822006  0.403793  1
  Tb  Tb6  1  0.520010  0.321581  0.595842  1
  Tb  Tb7  1  0.020537  0.181557  0.900010  1
  Lu  Lu8  1  0.370599  0.836150  0.875359  1
  Lu  Lu9  1  0.865363  0.663360  0.623513  1
  Lu  Lu10  1  0.635844  0.162276  0.375660  1
  Lu  Lu11  1  0.129824  0.343969  0.124387  1
  Lu  Lu12  1  0.637161  0.160562  0.123632  1
  Lu  Lu13  1  0.136205  0.338468  0.376204  1
  Lu  Lu14  1  0.364397  0.838380  0.624158  1
  Lu  Lu15  1  0.867337  0.661521  0.876767  1
  Lu  Lu16  1  0.196725  0.504508  0.749609  1
  Lu  Lu17  1  0.696941  0.995391  0.750139  1
  Lu  Lu18  1  0.803083  0.495276  0.250995  1
  Lu  Lu19  1  0.303704  0.004005  0.253375  1
  Sn  Sn20  1  0.798672  0.459728  0.458579  1
  Sn  Sn21  1  0.701621  0.960282  0.541380  1
  Sn  Sn22  1  0.207536  0.537914  0.957556  1
  Sn  Sn23  1  0.709959  0.962676  0.957441  1
  Sn  Sn24  1  0.201999  0.541135  0.541569  1
  Sn  Sn25  1  0.299088  0.040202  0.458907  1
  Sn  Sn26  1  0.793171  0.460810  0.041857  1
  Sn  Sn27  1  0.562669  0.622310  0.749267  1
  Sn  Sn28  1  0.063419  0.877965  0.751107  1
  Sn  Sn29  1  0.437829  0.375704  0.248783  1
  Sn  Sn30  1  0.938868  0.122262  0.249428  1
  Sn  Sn31  1  0.331656  0.149409  0.749318  1
  Sn  Sn32  1  0.831144  0.351915  0.747871  1
  Sn  Sn33  1  0.665848  0.850264  0.250483  1
  Sn  Sn34  1  0.167932  0.649540  0.251009  1
  Bi  Bi35  1  0.289381  0.037109  0.042416  1
