# generated using pymatgen
data_La2In2GaCu9
_symmetry_space_group_name_H-M   'P 1'
_cell_length_a   5.10255400
_cell_length_b   8.47662717
_cell_length_c   10.81405261
_cell_angle_alpha   89.88059365
_cell_angle_beta   90.00000000
_cell_angle_gamma   90.00000000
_symmetry_Int_Tables_number   1
_chemical_formula_structural   La2In2GaCu9
_chemical_formula_sum   'La4 In4 Ga2 Cu18'
_cell_volume   467.73323144
_cell_formula_units_Z   2
loop_
 _symmetry_equiv_pos_site_id
 _symmetry_equiv_pos_as_xyz
  1  'x, y, z'
loop_
 _atom_site_type_symbol
 _atom_site_label
 _atom_site_symmetry_multiplicity
 _atom_site_fract_x
 _atom_site_fract_y
 _atom_site_fract_z
 _atom_site_occupancy
  La  La0  1  0.250000  0.752559  0.062396  1
  La  La1  1  0.750000  0.247441  0.937604  1
  La  La2  1  0.750000  0.742858  0.554271  1
  La  La3  1  0.250000  0.257142  0.445729  1
  In  In4  1  0.250000  0.637431  0.361635  1
  In  In5  1  0.750000  0.362569  0.638365  1
  In  In6  1  0.750000  0.860922  0.867119  1
  In  In7  1  0.250000  0.139078  0.132881  1
  Ga  Ga8  1  0.250000  0.815320  0.739219  1
  Ga  Ga9  1  0.750000  0.184680  0.260781  1
  Cu  Cu10  1  0.750000  0.681616  0.243589  1
  Cu  Cu11  1  0.250000  0.318384  0.756411  1
  Cu  Cu12  1  0.502396  0.566295  0.812324  1
  Cu  Cu13  1  0.497604  0.433705  0.187676  1
  Cu  Cu14  1  0.497517  0.931465  0.312800  1
  Cu  Cu15  1  0.002396  0.433705  0.187676  1
  Cu  Cu16  1  0.502483  0.068535  0.687200  1
  Cu  Cu17  1  0.997604  0.566295  0.812324  1
  Cu  Cu18  1  0.997517  0.068535  0.687200  1
  Cu  Cu19  1  0.002483  0.931465  0.312800  1
  Cu  Cu20  1  0.250000  0.556588  0.606092  1
  Cu  Cu21  1  0.750000  0.443412  0.393908  1
  Cu  Cu22  1  0.750000  0.939320  0.109826  1
  Cu  Cu23  1  0.250000  0.060680  0.890174  1
  Cu  Cu24  1  0.250000  0.918768  0.515109  1
  Cu  Cu25  1  0.750000  0.081232  0.484891  1
  Cu  Cu26  1  0.750000  0.581420  0.016573  1
  Cu  Cu27  1  0.250000  0.418580  0.983427  1
