# generated using pymatgen
data_Er3Cd3C
_symmetry_space_group_name_H-M   'P 1'
_cell_length_a   9.50162700
_cell_length_b   9.50146163
_cell_length_c   9.50140400
_cell_angle_alpha   119.99770949
_cell_angle_beta   90.00258092
_cell_angle_gamma   119.99974629
_symmetry_Int_Tables_number   1
_chemical_formula_structural   Er3Cd3C
_chemical_formula_sum   'Er12 Cd12 C4'
_cell_volume   606.55208905
_cell_formula_units_Z   4
loop_
 _symmetry_equiv_pos_site_id
 _symmetry_equiv_pos_as_xyz
  1  'x, y, z'
loop_
 _atom_site_type_symbol
 _atom_site_label
 _atom_site_symmetry_multiplicity
 _atom_site_fract_x
 _atom_site_fract_y
 _atom_site_fract_z
 _atom_site_occupancy
  Er  Er0  1  0.935671  0.371373  0.185685  1
  Er  Er1  1  0.935752  0.750044  0.185724  1
  Er  Er2  1  0.314303  0.749995  0.185702  1
  Er  Er3  1  0.685717  0.249986  0.435716  1
  Er  Er4  1  0.685732  0.871455  0.435716  1
  Er  Er5  1  0.064268  0.249991  0.435702  1
  Er  Er6  1  0.314262  0.128539  0.564292  1
  Er  Er7  1  0.314276  0.750011  0.564279  1
  Er  Er8  1  0.935719  0.749980  0.564290  1
  Er  Er9  1  0.685711  0.250021  0.814325  1
  Er  Er10  1  0.064313  0.628637  0.814306  1
  Er  Er11  1  0.064277  0.249988  0.814290  1
  Cd  Cd12  1  0.999989  0.999984  0.999974  1
  Cd  Cd13  1  0.499993  0.000000  0.000007  1
  Cd  Cd14  1  0.499973  0.499996  0.999996  1
  Cd  Cd15  1  0.708909  0.917733  0.126602  1
  Cd  Cd16  1  0.291169  0.082226  0.208885  1
  Cd  Cd17  1  0.291131  0.417793  0.208860  1
  Cd  Cd18  1  0.626676  0.417796  0.208913  1
  Cd  Cd19  1  0.500009  0.500013  0.500024  1
  Cd  Cd20  1  0.373320  0.582198  0.791076  1
  Cd  Cd21  1  0.708887  0.582211  0.791115  1
  Cd  Cd22  1  0.708857  0.917785  0.791140  1
  Cd  Cd23  1  0.291074  0.082236  0.873379  1
  C  C24  1  0.000012  0.500004  0.000004  1
  C  C25  1  0.000003  0.000001  0.499987  1
  C  C26  1  0.500011  0.000014  0.500017  1
  C  C27  1  0.999994  0.500002  0.500000  1
