# generated using pymatgen
data_Y2Tm3Bi2Sb
_symmetry_space_group_name_H-M   'P 1'
_cell_length_a   8.14271600
_cell_length_b   9.38215600
_cell_length_c   11.97928700
_cell_angle_alpha   90.00000000
_cell_angle_beta   90.00000000
_cell_angle_gamma   90.00000000
_symmetry_Int_Tables_number   1
_chemical_formula_structural   Y2Tm3Bi2Sb
_chemical_formula_sum   'Y8 Tm12 Bi8 Sb4'
_cell_volume   915.17238616
_cell_formula_units_Z   4
loop_
 _symmetry_equiv_pos_site_id
 _symmetry_equiv_pos_as_xyz
  1  'x, y, z'
loop_
 _atom_site_type_symbol
 _atom_site_label
 _atom_site_symmetry_multiplicity
 _atom_site_fract_x
 _atom_site_fract_y
 _atom_site_fract_z
 _atom_site_occupancy
  Y  Y0  1  0.183108  0.750000  0.718292  1
  Y  Y1  1  0.683108  0.750000  0.781708  1
  Y  Y2  1  0.816892  0.250000  0.281708  1
  Y  Y3  1  0.316892  0.250000  0.218292  1
  Y  Y4  1  0.352977  0.750000  0.213617  1
  Y  Y5  1  0.852977  0.750000  0.286383  1
  Y  Y6  1  0.647023  0.250000  0.786383  1
  Y  Y7  1  0.147023  0.250000  0.713617  1
  Tm  Tm8  1  0.027572  0.750000  0.988943  1
  Tm  Tm9  1  0.527572  0.750000  0.511057  1
  Tm  Tm10  1  0.972428  0.250000  0.011057  1
  Tm  Tm11  1  0.472428  0.250000  0.488943  1
  Tm  Tm12  1  0.310582  0.436092  0.942057  1
  Tm  Tm13  1  0.810582  0.063908  0.557943  1
  Tm  Tm14  1  0.689418  0.936092  0.057943  1
  Tm  Tm15  1  0.189418  0.563908  0.442057  1
  Tm  Tm16  1  0.689418  0.563908  0.057943  1
  Tm  Tm17  1  0.189418  0.936092  0.442057  1
  Tm  Tm18  1  0.310582  0.063908  0.942057  1
  Tm  Tm19  1  0.810582  0.436092  0.557943  1
  Bi  Bi20  1  0.433852  0.003712  0.672172  1
  Bi  Bi21  1  0.933852  0.496288  0.827828  1
  Bi  Bi22  1  0.566148  0.503712  0.327828  1
  Bi  Bi23  1  0.066148  0.996288  0.172172  1
  Bi  Bi24  1  0.566148  0.996288  0.327828  1
  Bi  Bi25  1  0.066148  0.503712  0.172172  1
  Bi  Bi26  1  0.433852  0.496288  0.672172  1
  Bi  Bi27  1  0.933852  0.003712  0.827828  1
  Sb  Sb28  1  0.406522  0.750000  0.958965  1
  Sb  Sb29  1  0.906522  0.750000  0.541035  1
  Sb  Sb30  1  0.593478  0.250000  0.041035  1
  Sb  Sb31  1  0.093478  0.250000  0.458965  1
