# generated using pymatgen
data_Sm6Cd22AgSn
_symmetry_space_group_name_H-M   'P 1'
_cell_length_a   10.07094138
_cell_length_b   9.99906086
_cell_length_c   10.07094139
_cell_angle_alpha   60.23582431
_cell_angle_beta   60.17104705
_cell_angle_gamma   60.23581998
_symmetry_Int_Tables_number   1
_chemical_formula_structural   Sm6Cd22AgSn
_chemical_formula_sum   'Sm6 Cd22 Ag1 Sn1'
_cell_volume   720.58538914
_cell_formula_units_Z   1
loop_
 _symmetry_equiv_pos_site_id
 _symmetry_equiv_pos_as_xyz
  1  'x, y, z'
loop_
 _atom_site_type_symbol
 _atom_site_label
 _atom_site_symmetry_multiplicity
 _atom_site_fract_x
 _atom_site_fract_y
 _atom_site_fract_z
 _atom_site_occupancy
  Sm  Sm0  1  0.779359  0.781123  0.220641  1
  Sm  Sm1  1  0.220884  0.779116  0.220884  1
  Sm  Sm2  1  0.779359  0.218877  0.220641  1
  Sm  Sm3  1  0.220641  0.218877  0.779359  1
  Sm  Sm4  1  0.779116  0.220884  0.779116  1
  Sm  Sm5  1  0.220641  0.781123  0.779359  1
  Cd  Cd6  1  0.841062  0.841441  0.476057  1
  Cd  Cd7  1  0.843059  0.476394  0.843059  1
  Cd  Cd8  1  0.476057  0.841441  0.841062  1
  Cd  Cd9  1  0.843059  0.837489  0.843059  1
  Cd  Cd10  1  0.158938  0.158559  0.523943  1
  Cd  Cd11  1  0.156941  0.523606  0.156941  1
  Cd  Cd12  1  0.523943  0.158559  0.158938  1
  Cd  Cd13  1  0.156941  0.162511  0.156941  1
  Cd  Cd14  1  0.631661  0.621443  0.125452  1
  Cd  Cd15  1  0.625104  0.126798  0.625104  1
  Cd  Cd16  1  0.125452  0.621443  0.631661  1
  Cd  Cd17  1  0.625104  0.622994  0.625104  1
  Cd  Cd18  1  0.368339  0.378557  0.874548  1
  Cd  Cd19  1  0.374896  0.873202  0.374896  1
  Cd  Cd20  1  0.874548  0.378557  0.368339  1
  Cd  Cd21  1  0.374896  0.377006  0.374896  1
  Cd  Cd22  1  0.000000  0.000000  0.500000  1
  Cd  Cd23  1  0.500000  0.000000  0.500000  1
  Cd  Cd24  1  0.000000  0.500000  0.500000  1
  Cd  Cd25  1  0.500000  0.500000  0.000000  1
  Cd  Cd26  1  0.500000  0.000000  0.000000  1
  Cd  Cd27  1  0.500000  0.500000  0.500000  1
  Ag  Ag28  1  0.000000  0.500000  0.000000  1
  Sn  Sn29  1  0.000000  0.000000  0.000000  1
