# generated using pymatgen
data_Li2Zn20Pd3Rh
_symmetry_space_group_name_H-M   'P 1'
_cell_length_a   7.92549337
_cell_length_b   7.92549472
_cell_length_c   7.89303724
_cell_angle_alpha   70.89406042
_cell_angle_beta   70.89405687
_cell_angle_gamma   109.92536824
_symmetry_Int_Tables_number   1
_chemical_formula_structural   Li2Zn20Pd3Rh
_chemical_formula_sum   'Li2 Zn20 Pd3 Rh1'
_cell_volume   382.93527147
_cell_formula_units_Z   1
loop_
 _symmetry_equiv_pos_site_id
 _symmetry_equiv_pos_as_xyz
  1  'x, y, z'
loop_
 _atom_site_type_symbol
 _atom_site_label
 _atom_site_symmetry_multiplicity
 _atom_site_fract_x
 _atom_site_fract_y
 _atom_site_fract_z
 _atom_site_occupancy
  Li  Li0  1  0.999126  0.353172  0.648127  1
  Li  Li1  1  0.353172  0.999126  0.648127  1
  Zn  Zn2  1  0.001742  0.001742  0.785714  1
  Zn  Zn3  1  0.779854  0.779854  0.221096  1
  Zn  Zn4  1  0.215702  0.001659  0.998598  1
  Zn  Zn5  1  0.001659  0.215702  0.998598  1
  Zn  Zn6  1  0.270351  0.270351  0.383479  1
  Zn  Zn7  1  0.003924  0.733781  0.646496  1
  Zn  Zn8  1  0.733781  0.003924  0.646496  1
  Zn  Zn9  1  0.652653  0.652653  0.622025  1
  Zn  Zn10  1  0.372992  0.647949  0.351998  1
  Zn  Zn11  1  0.647949  0.372992  0.351998  1
  Zn  Zn12  1  0.350391  0.729289  0.992930  1
  Zn  Zn13  1  0.623838  0.269807  0.723551  1
  Zn  Zn14  1  0.349451  0.999096  0.274242  1
  Zn  Zn15  1  0.729289  0.350391  0.992930  1
  Zn  Zn16  1  0.999096  0.349451  0.274242  1
  Zn  Zn17  1  0.269807  0.623838  0.723551  1
  Zn  Zn18  1  0.641363  0.641363  0.005363  1
  Zn  Zn19  1  0.000534  0.645603  0.355388  1
  Zn  Zn20  1  0.645603  0.000534  0.355388  1
  Zn  Zn21  1  0.355884  0.355884  0.002700  1
  Pd  Pd22  1  0.348731  0.348731  0.653545  1
  Pd  Pd23  1  0.652123  0.998730  0.999000  1
  Pd  Pd24  1  0.998730  0.652123  0.999000  1
  Rh  Rh25  1  0.002258  0.002258  0.345420  1
