# generated using pymatgen
data_TiNb8FeSe16
_symmetry_space_group_name_H-M   'P 1'
_cell_length_a   6.98540300
_cell_length_b   6.98540509
_cell_length_c   12.89520300
_cell_angle_alpha   90.00000000
_cell_angle_beta   90.00000000
_cell_angle_gamma   120.00000431
_symmetry_Int_Tables_number   1
_chemical_formula_structural   TiNb8FeSe16
_chemical_formula_sum   'Ti1 Nb8 Fe1 Se16'
_cell_volume   544.93143169
_cell_formula_units_Z   1
loop_
 _symmetry_equiv_pos_site_id
 _symmetry_equiv_pos_as_xyz
  1  'x, y, z'
loop_
 _atom_site_type_symbol
 _atom_site_label
 _atom_site_symmetry_multiplicity
 _atom_site_fract_x
 _atom_site_fract_y
 _atom_site_fract_z
 _atom_site_occupancy
  Ti  Ti0  1  0.000000  0.000000  0.000000  1
  Nb  Nb1  1  0.000000  0.000000  0.250024  1
  Nb  Nb2  1  0.000000  0.000000  0.749976  1
  Nb  Nb3  1  0.506939  0.013877  0.250750  1
  Nb  Nb4  1  0.493061  0.986123  0.749250  1
  Nb  Nb5  1  0.986123  0.493061  0.250750  1
  Nb  Nb6  1  0.013877  0.506939  0.749250  1
  Nb  Nb7  1  0.506939  0.493061  0.250750  1
  Nb  Nb8  1  0.493061  0.506939  0.749250  1
  Fe  Fe9  1  0.000000  0.000000  0.500000  1
  Se  Se10  1  0.333333  0.666667  0.616050  1
  Se  Se11  1  0.666667  0.333333  0.383950  1
  Se  Se12  1  0.666667  0.333333  0.116728  1
  Se  Se13  1  0.333333  0.666667  0.883272  1
  Se  Se14  1  0.168388  0.336776  0.120630  1
  Se  Se15  1  0.831612  0.663224  0.879370  1
  Se  Se16  1  0.663224  0.831612  0.120630  1
  Se  Se17  1  0.832275  0.664551  0.620011  1
  Se  Se18  1  0.336776  0.168388  0.879370  1
  Se  Se19  1  0.167725  0.335449  0.379989  1
  Se  Se20  1  0.168388  0.831612  0.120630  1
  Se  Se21  1  0.335449  0.167725  0.620011  1
  Se  Se22  1  0.831612  0.168388  0.879370  1
  Se  Se23  1  0.664551  0.832275  0.379989  1
  Se  Se24  1  0.832275  0.167725  0.620011  1
  Se  Se25  1  0.167725  0.832275  0.379989  1
