# generated using pymatgen
data_Er3Tm(ScBi)6
_symmetry_space_group_name_H-M   'P 1'
_cell_length_a   7.90773600
_cell_length_b   9.13467700
_cell_length_c   11.73724000
_cell_angle_alpha   90.00000000
_cell_angle_beta   89.99717636
_cell_angle_gamma   90.00000000
_symmetry_Int_Tables_number   1
_chemical_formula_structural   Er3Tm(ScBi)6
_chemical_formula_sum   'Er6 Tm2 Sc12 Bi12'
_cell_volume   847.83500220
_cell_formula_units_Z   2
loop_
 _symmetry_equiv_pos_site_id
 _symmetry_equiv_pos_as_xyz
  1  'x, y, z'
loop_
 _atom_site_type_symbol
 _atom_site_label
 _atom_site_symmetry_multiplicity
 _atom_site_fract_x
 _atom_site_fract_y
 _atom_site_fract_z
 _atom_site_occupancy
  Er  Er0  1  0.351733  0.250000  0.281556  1
  Er  Er1  1  0.648267  0.750000  0.718444  1
  Er  Er2  1  0.148262  0.750000  0.781512  1
  Er  Er3  1  0.851738  0.250000  0.218488  1
  Er  Er4  1  0.184733  0.250000  0.780485  1
  Er  Er5  1  0.815267  0.750000  0.219515  1
  Tm  Tm6  1  0.315181  0.750000  0.280530  1
  Tm  Tm7  1  0.684819  0.250000  0.719470  1
  Sc  Sc8  1  0.019647  0.250000  0.510100  1
  Sc  Sc9  1  0.980353  0.750000  0.489900  1
  Sc  Sc10  1  0.480259  0.750000  0.010103  1
  Sc  Sc11  1  0.519741  0.250000  0.989897  1
  Sc  Sc12  1  0.192792  0.066883  0.058238  1
  Sc  Sc13  1  0.807208  0.933117  0.941762  1
  Sc  Sc14  1  0.307147  0.933090  0.558179  1
  Sc  Sc15  1  0.807208  0.566883  0.941762  1
  Sc  Sc16  1  0.692853  0.066910  0.441821  1
  Sc  Sc17  1  0.192792  0.433117  0.058238  1
  Sc  Sc18  1  0.692853  0.433090  0.441821  1
  Sc  Sc19  1  0.307147  0.566910  0.558179  1
  Bi  Bi20  1  0.403820  0.250000  0.540517  1
  Bi  Bi21  1  0.596180  0.750000  0.459483  1
  Bi  Bi22  1  0.096559  0.750000  0.040444  1
  Bi  Bi23  1  0.903441  0.250000  0.959556  1
  Bi  Bi24  1  0.065162  0.003699  0.331568  1
  Bi  Bi25  1  0.934838  0.996301  0.668432  1
  Bi  Bi26  1  0.435167  0.996247  0.831552  1
  Bi  Bi27  1  0.934838  0.503699  0.668432  1
  Bi  Bi28  1  0.564833  0.003753  0.168448  1
  Bi  Bi29  1  0.065162  0.496301  0.331568  1
  Bi  Bi30  1  0.564833  0.496247  0.168448  1
  Bi  Bi31  1  0.435167  0.503753  0.831552  1
