# generated using pymatgen
data_Cd3Os4PbO14
_symmetry_space_group_name_H-M   'P 1'
_cell_length_a   7.29629540
_cell_length_b   7.29629533
_cell_length_c   7.33940311
_cell_angle_alpha   60.19409884
_cell_angle_beta   60.19409410
_cell_angle_gamma   59.99999787
_symmetry_Int_Tables_number   1
_chemical_formula_structural   Cd3Os4PbO14
_chemical_formula_sum   'Cd3 Os4 Pb1 O14'
_cell_volume   277.08847246
_cell_formula_units_Z   1
loop_
 _symmetry_equiv_pos_site_id
 _symmetry_equiv_pos_as_xyz
  1  'x, y, z'
loop_
 _atom_site_type_symbol
 _atom_site_label
 _atom_site_symmetry_multiplicity
 _atom_site_fract_x
 _atom_site_fract_y
 _atom_site_fract_z
 _atom_site_occupancy
  Cd  Cd0  1  0.125000  0.125000  0.125000  1
  Cd  Cd1  1  0.625000  0.125000  0.125000  1
  Cd  Cd2  1  0.125000  0.625000  0.125000  1
  Os  Os3  1  0.625000  0.625000  0.625000  1
  Os  Os4  1  0.125000  0.625000  0.625000  1
  Os  Os5  1  0.625000  0.125000  0.625000  1
  Os  Os6  1  0.625000  0.625000  0.125000  1
  Pb  Pb7  1  0.125000  0.125000  0.625000  1
  O  O8  1  0.258906  0.258906  0.223281  1
  O  O9  1  0.991094  0.991094  0.026719  1
  O  O10  1  0.552326  0.943969  0.559736  1
  O  O11  1  0.308373  0.690726  0.310175  1
  O  O12  1  0.559274  0.559274  0.939825  1
  O  O13  1  0.943969  0.552326  0.559736  1
  O  O14  1  0.559274  0.941627  0.939825  1
  O  O15  1  0.943969  0.943969  0.559736  1
  O  O16  1  0.941627  0.559274  0.939825  1
  O  O17  1  0.690726  0.308373  0.310175  1
  O  O18  1  0.306031  0.697674  0.690264  1
  O  O19  1  0.697674  0.306031  0.690264  1
  O  O20  1  0.306031  0.306031  0.690264  1
  O  O21  1  0.690726  0.690726  0.310175  1
