# generated using pymatgen
data_TbDy3(Tm4Bi3)4
_symmetry_space_group_name_H-M   'P 1'
_cell_length_a   8.20410114
_cell_length_b   9.44139900
_cell_length_c   11.93669520
_cell_angle_alpha   90.00000000
_cell_angle_beta   89.97885045
_cell_angle_gamma   90.00000000
_symmetry_Int_Tables_number   1
_chemical_formula_structural   TbDy3(Tm4Bi3)4
_chemical_formula_sum   'Tb1 Dy3 Tm16 Bi12'
_cell_volume   924.59476945
_cell_formula_units_Z   1
loop_
 _symmetry_equiv_pos_site_id
 _symmetry_equiv_pos_as_xyz
  1  'x, y, z'
loop_
 _atom_site_type_symbol
 _atom_site_label
 _atom_site_symmetry_multiplicity
 _atom_site_fract_x
 _atom_site_fract_y
 _atom_site_fract_z
 _atom_site_occupancy
  Tb  Tb0  1  0.312593  0.250000  0.218206  1
  Dy  Dy1  1  0.812744  0.250000  0.281863  1
  Dy  Dy2  1  0.687450  0.750000  0.781996  1
  Dy  Dy3  1  0.187442  0.750000  0.718067  1
  Tm  Tm4  1  0.352482  0.750000  0.217211  1
  Tm  Tm5  1  0.852674  0.750000  0.282757  1
  Tm  Tm6  1  0.647456  0.250000  0.782734  1
  Tm  Tm7  1  0.147335  0.250000  0.717198  1
  Tm  Tm8  1  0.692431  0.566065  0.059564  1
  Tm  Tm9  1  0.192505  0.933874  0.440456  1
  Tm  Tm10  1  0.307590  0.066035  0.940396  1
  Tm  Tm11  1  0.807450  0.433907  0.559591  1
  Tm  Tm12  1  0.307590  0.433965  0.940396  1
  Tm  Tm13  1  0.807450  0.066093  0.559591  1
  Tm  Tm14  1  0.692431  0.933935  0.059564  1
  Tm  Tm15  1  0.192505  0.566126  0.440456  1
  Tm  Tm16  1  0.475986  0.250000  0.488933  1
  Tm  Tm17  1  0.975990  0.250000  0.011100  1
  Tm  Tm18  1  0.523991  0.750000  0.511172  1
  Tm  Tm19  1  0.023967  0.750000  0.988792  1
  Bi  Bi20  1  0.404998  0.750000  0.958500  1
  Bi  Bi21  1  0.905061  0.750000  0.541573  1
  Bi  Bi22  1  0.595352  0.250000  0.041223  1
  Bi  Bi23  1  0.094736  0.250000  0.458565  1
  Bi  Bi24  1  0.565643  0.994518  0.325933  1
  Bi  Bi25  1  0.065009  0.505509  0.174204  1
  Bi  Bi26  1  0.434592  0.494705  0.674168  1
  Bi  Bi27  1  0.934652  0.005203  0.825745  1
  Bi  Bi28  1  0.434592  0.005295  0.674168  1
  Bi  Bi29  1  0.934652  0.494797  0.825745  1
  Bi  Bi30  1  0.565643  0.505482  0.325933  1
  Bi  Bi31  1  0.065009  0.994491  0.174204  1
