# generated using pymatgen
data_Yb4Pr16InSn15
_symmetry_space_group_name_H-M   'P 1'
_cell_length_a   8.06468500
_cell_length_b   8.55875701
_cell_length_c   16.08572200
_cell_angle_alpha   90.00000000
_cell_angle_beta   90.00000000
_cell_angle_gamma   90.00204179
_symmetry_Int_Tables_number   1
_chemical_formula_structural   Yb4Pr16InSn15
_chemical_formula_sum   'Yb4 Pr16 In1 Sn15'
_cell_volume   1110.29571497
_cell_formula_units_Z   1
loop_
 _symmetry_equiv_pos_site_id
 _symmetry_equiv_pos_as_xyz
  1  'x, y, z'
loop_
 _atom_site_type_symbol
 _atom_site_label
 _atom_site_symmetry_multiplicity
 _atom_site_fract_x
 _atom_site_fract_y
 _atom_site_fract_z
 _atom_site_occupancy
  Yb  Yb0  1  0.835802  0.505123  0.750000  1
  Yb  Yb1  1  0.332340  0.992552  0.750000  1
  Yb  Yb2  1  0.166499  0.493930  0.250000  1
  Yb  Yb3  1  0.667105  0.005881  0.250000  1
  Pr  Pr4  1  0.660328  0.172940  0.625991  1
  Pr  Pr5  1  0.164678  0.327656  0.874853  1
  Pr  Pr6  1  0.338193  0.827096  0.124376  1
  Pr  Pr7  1  0.837009  0.672301  0.375497  1
  Pr  Pr8  1  0.338193  0.827096  0.375624  1
  Pr  Pr9  1  0.837009  0.672301  0.124503  1
  Pr  Pr10  1  0.660328  0.172940  0.874009  1
  Pr  Pr11  1  0.164678  0.327656  0.625147  1
  Pr  Pr12  1  0.506593  0.685847  0.595319  1
  Pr  Pr13  1  0.005255  0.816596  0.903735  1
  Pr  Pr14  1  0.493510  0.315638  0.095294  1
  Pr  Pr15  1  0.993546  0.182687  0.404319  1
  Pr  Pr16  1  0.493510  0.315638  0.404706  1
  Pr  Pr17  1  0.993546  0.182687  0.095681  1
  Pr  Pr18  1  0.506593  0.685847  0.904681  1
  Pr  Pr19  1  0.005255  0.816596  0.596265  1
  In  In20  1  0.468329  0.406607  0.750000  1
  Sn  Sn21  1  0.677741  0.963808  0.464282  1
  Sn  Sn22  1  0.175441  0.535565  0.037170  1
  Sn  Sn23  1  0.321246  0.034990  0.961413  1
  Sn  Sn24  1  0.823100  0.463594  0.539561  1
  Sn  Sn25  1  0.321246  0.034990  0.538587  1
  Sn  Sn26  1  0.823100  0.463594  0.960439  1
  Sn  Sn27  1  0.677741  0.963808  0.035718  1
  Sn  Sn28  1  0.175441  0.535565  0.462830  1
  Sn  Sn29  1  0.964252  0.102777  0.750000  1
  Sn  Sn30  1  0.535099  0.600986  0.250000  1
  Sn  Sn31  1  0.035395  0.897200  0.250000  1
  Sn  Sn32  1  0.705014  0.857738  0.750000  1
  Sn  Sn33  1  0.204882  0.640060  0.750000  1
  Sn  Sn34  1  0.295302  0.140801  0.250000  1
  Sn  Sn35  1  0.796692  0.358907  0.250000  1
