# generated using pymatgen
data_Sc6Co16Si6P
_symmetry_space_group_name_H-M   'P 1'
_cell_length_a   8.05416209
_cell_length_b   8.02323303
_cell_length_c   8.02323334
_cell_angle_alpha   60.17557505
_cell_angle_beta   59.87239737
_cell_angle_gamma   59.87240114
_symmetry_Int_Tables_number   1
_chemical_formula_structural   Sc6Co16Si6P
_chemical_formula_sum   'Sc6 Co16 Si6 P1'
_cell_volume   366.38239426
_cell_formula_units_Z   1
loop_
 _symmetry_equiv_pos_site_id
 _symmetry_equiv_pos_as_xyz
  1  'x, y, z'
loop_
 _atom_site_type_symbol
 _atom_site_label
 _atom_site_symmetry_multiplicity
 _atom_site_fract_x
 _atom_site_fract_y
 _atom_site_fract_z
 _atom_site_occupancy
  Sc  Sc0  1  0.712021  0.287979  0.287979  1
  Sc  Sc1  1  0.287978  0.712022  0.712022  1
  Sc  Sc2  1  0.288586  0.712285  0.287715  1
  Sc  Sc3  1  0.288586  0.287715  0.712285  1
  Sc  Sc4  1  0.711415  0.287714  0.712286  1
  Sc  Sc5  1  0.711415  0.712286  0.287714  1
  Co  Co6  1  0.119609  0.119633  0.119633  1
  Co  Co7  1  0.120574  0.119615  0.639236  1
  Co  Co8  1  0.641125  0.119633  0.119633  1
  Co  Co9  1  0.120574  0.639236  0.119615  1
  Co  Co10  1  0.880390  0.880366  0.880366  1
  Co  Co11  1  0.879425  0.880384  0.360765  1
  Co  Co12  1  0.879425  0.360765  0.880384  1
  Co  Co13  1  0.358876  0.880366  0.880366  1
  Co  Co14  1  0.326424  0.326430  0.326430  1
  Co  Co15  1  0.329827  0.321903  0.018439  1
  Co  Co16  1  0.020713  0.326430  0.326430  1
  Co  Co17  1  0.329827  0.018439  0.321903  1
  Co  Co18  1  0.673574  0.673568  0.673568  1
  Co  Co19  1  0.670171  0.678095  0.981561  1
  Co  Co20  1  0.670171  0.981561  0.678095  1
  Co  Co21  1  0.979287  0.673568  0.673568  1
  Si  Si22  1  0.999999  0.500000  0.500000  1
  Si  Si23  1  0.000000  0.499999  0.000000  1
  Si  Si24  1  0.000000  0.000000  0.499999  1
  Si  Si25  1  0.500000  0.999999  0.500000  1
  Si  Si26  1  0.500000  0.500000  0.999999  1
  Si  Si27  1  0.000000  0.000000  0.000000  1
  P  P28  1  0.499999  0.000000  0.000000  1
