# generated using pymatgen
data_Hf4Mg2Zr2(Al2Pd)7
_symmetry_space_group_name_H-M   'P 1'
_cell_length_a   8.84167657
_cell_length_b   8.83666212
_cell_length_c   8.83439573
_cell_angle_alpha   60.01529492
_cell_angle_beta   60.00772635
_cell_angle_gamma   59.96215301
_symmetry_Int_Tables_number   1
_chemical_formula_structural   Hf4Mg2Zr2(Al2Pd)7
_chemical_formula_sum   'Hf4 Mg2 Zr2 Al14 Pd7'
_cell_volume   488.01800108
_cell_formula_units_Z   1
loop_
 _symmetry_equiv_pos_site_id
 _symmetry_equiv_pos_as_xyz
  1  'x, y, z'
loop_
 _atom_site_type_symbol
 _atom_site_label
 _atom_site_symmetry_multiplicity
 _atom_site_fract_x
 _atom_site_fract_y
 _atom_site_fract_z
 _atom_site_occupancy
  Hf  Hf0  1  0.680535  0.680758  0.317616  1
  Hf  Hf1  1  0.321793  0.679105  0.319510  1
  Hf  Hf2  1  0.675378  0.324627  0.323808  1
  Hf  Hf3  1  0.320141  0.318640  0.679795  1
  Mg  Mg4  1  0.881291  0.883841  0.353619  1
  Mg  Mg5  1  0.881167  0.353919  0.883860  1
  Zr  Zr6  1  0.682788  0.316186  0.682380  1
  Zr  Zr7  1  0.314622  0.685347  0.684414  1
  Al  Al8  1  0.361420  0.880054  0.880110  1
  Al  Al9  1  0.878296  0.879888  0.880020  1
  Al  Al10  1  0.120729  0.122241  0.636895  1
  Al  Al11  1  0.120360  0.637145  0.122359  1
  Al  Al12  1  0.639386  0.120060  0.120466  1
  Al  Al13  1  0.120330  0.119956  0.120167  1
  Al  Al14  1  0.664662  0.663941  0.006464  1
  Al  Al15  1  0.664938  0.005616  0.663955  1
  Al  Al16  1  0.005486  0.664372  0.664184  1
  Al  Al17  1  0.665964  0.665063  0.664433  1
  Al  Al18  1  0.334797  0.334278  0.995595  1
  Al  Al19  1  0.335423  0.994740  0.334282  1
  Al  Al20  1  0.993823  0.335104  0.334555  1
  Al  Al21  1  0.336480  0.335308  0.335066  1
  Pd  Pd22  1  0.008986  0.990971  0.990294  1
  Pd  Pd23  1  0.000592  0.000686  0.503848  1
  Pd  Pd24  1  0.494048  0.001062  0.504334  1
  Pd  Pd25  1  0.002494  0.498117  0.497138  1
  Pd  Pd26  1  0.493741  0.505134  0.000953  1
  Pd  Pd27  1  0.000089  0.504841  0.000597  1
  Pd  Pd28  1  0.500240  0.999000  0.999284  1
