# generated using pymatgen
data_CaY(Ga2Ag)2
_symmetry_space_group_name_H-M   'P 1'
_cell_length_a   4.37300400
_cell_length_b   7.00864560
_cell_length_c   10.42508530
_cell_angle_alpha   90.68323076
_cell_angle_beta   90.00000000
_cell_angle_gamma   90.00000000
_symmetry_Int_Tables_number   1
_chemical_formula_structural   CaY(Ga2Ag)2
_chemical_formula_sum   'Ca2 Y2 Ga8 Ag4'
_cell_volume   319.49400472
_cell_formula_units_Z   2
loop_
 _symmetry_equiv_pos_site_id
 _symmetry_equiv_pos_as_xyz
  1  'x, y, z'
loop_
 _atom_site_type_symbol
 _atom_site_label
 _atom_site_symmetry_multiplicity
 _atom_site_fract_x
 _atom_site_fract_y
 _atom_site_fract_z
 _atom_site_occupancy
  Ca  Ca0  1  0.750000  0.723875  0.327661  1
  Ca  Ca1  1  0.250000  0.276125  0.672339  1
  Y  Y2  1  0.250000  0.777336  0.828289  1
  Y  Y3  1  0.750000  0.222664  0.171711  1
  Ga  Ga4  1  0.250000  0.702670  0.535525  1
  Ga  Ga5  1  0.750000  0.297330  0.464475  1
  Ga  Ga6  1  0.750000  0.795555  0.035248  1
  Ga  Ga7  1  0.250000  0.204445  0.964752  1
  Ga  Ga8  1  0.250000  0.926978  0.150075  1
  Ga  Ga9  1  0.750000  0.073022  0.849925  1
  Ga  Ga10  1  0.750000  0.574275  0.651927  1
  Ga  Ga11  1  0.250000  0.425725  0.348073  1
  Ag  Ag12  1  0.250000  0.542693  0.098966  1
  Ag  Ag13  1  0.750000  0.457307  0.901034  1
  Ag  Ag14  1  0.750000  0.958834  0.599137  1
  Ag  Ag15  1  0.250000  0.041166  0.400863  1
