# generated using pymatgen
data_Pr16Cd4CoIr2Au
_symmetry_space_group_name_H-M   'P 1'
_cell_length_a   10.06203878
_cell_length_b   10.06203702
_cell_length_c   10.02702397
_cell_angle_alpha   59.98893472
_cell_angle_beta   59.98893962
_cell_angle_gamma   60.13573660
_symmetry_Int_Tables_number   1
_chemical_formula_structural   Pr16Cd4CoIr2Au
_chemical_formula_sum   'Pr16 Cd4 Co1 Ir2 Au1'
_cell_volume   718.45520412
_cell_formula_units_Z   1
loop_
 _symmetry_equiv_pos_site_id
 _symmetry_equiv_pos_as_xyz
  1  'x, y, z'
loop_
 _atom_site_type_symbol
 _atom_site_label
 _atom_site_symmetry_multiplicity
 _atom_site_fract_x
 _atom_site_fract_y
 _atom_site_fract_z
 _atom_site_occupancy
  Pr  Pr0  1  0.343699  0.343699  0.349971  1
  Pr  Pr1  1  0.355632  0.355632  0.946952  1
  Pr  Pr2  1  0.352656  0.948752  0.360155  1
  Pr  Pr3  1  0.948752  0.352656  0.360155  1
  Pr  Pr4  1  0.799545  0.191456  0.190388  1
  Pr  Pr5  1  0.188618  0.814538  0.806284  1
  Pr  Pr6  1  0.191456  0.799545  0.190388  1
  Pr  Pr7  1  0.814538  0.188618  0.806284  1
  Pr  Pr8  1  0.189764  0.189764  0.794558  1
  Pr  Pr9  1  0.809834  0.809834  0.189538  1
  Pr  Pr10  1  0.939087  0.564773  0.563256  1
  Pr  Pr11  1  0.561560  0.940942  0.939966  1
  Pr  Pr12  1  0.564773  0.939087  0.563256  1
  Pr  Pr13  1  0.940942  0.561560  0.939966  1
  Pr  Pr14  1  0.562406  0.562406  0.939844  1
  Pr  Pr15  1  0.938429  0.938429  0.563057  1
  Cd  Cd16  1  0.581521  0.581521  0.580251  1
  Cd  Cd17  1  0.579145  0.579145  0.261399  1
  Cd  Cd18  1  0.579523  0.259786  0.578762  1
  Cd  Cd19  1  0.259786  0.579523  0.578762  1
  Co  Co20  1  0.140809  0.140809  0.574289  1
  Ir  Ir21  1  0.140609  0.573067  0.139681  1
  Ir  Ir22  1  0.573067  0.140609  0.139681  1
  Au  Au23  1  0.143850  0.143850  0.143160  1
