# generated using pymatgen
data_Sc6ZnSn6PtRh4
_symmetry_space_group_name_H-M   'P 1'
_cell_length_a   7.57769900
_cell_length_b   7.57769903
_cell_length_c   7.02238400
_cell_angle_alpha   90.00000000
_cell_angle_beta   90.00000000
_cell_angle_gamma   120.00001298
_symmetry_Int_Tables_number   1
_chemical_formula_structural   Sc6ZnSn6PtRh4
_chemical_formula_sum   'Sc6 Zn1 Sn6 Pt1 Rh4'
_cell_volume   349.21255642
_cell_formula_units_Z   1
loop_
 _symmetry_equiv_pos_site_id
 _symmetry_equiv_pos_as_xyz
  1  'x, y, z'
loop_
 _atom_site_type_symbol
 _atom_site_label
 _atom_site_symmetry_multiplicity
 _atom_site_fract_x
 _atom_site_fract_y
 _atom_site_fract_z
 _atom_site_occupancy
  Sc  Sc0  1  0.384914  0.983032  0.256891  1
  Sc  Sc1  1  0.598118  0.615086  0.256891  1
  Sc  Sc2  1  0.016968  0.401882  0.256891  1
  Sc  Sc3  1  0.384149  0.981661  0.743156  1
  Sc  Sc4  1  0.597512  0.615851  0.743156  1
  Sc  Sc5  1  0.018339  0.402488  0.743156  1
  Zn  Zn6  1  0.666667  0.333333  0.997584  1
  Sn  Sn7  1  0.281850  0.279051  0.000097  1
  Sn  Sn8  1  0.997202  0.718150  0.000097  1
  Sn  Sn9  1  0.995450  0.730460  0.499989  1
  Sn  Sn10  1  0.735009  0.004550  0.499989  1
  Sn  Sn11  1  0.269540  0.264991  0.499989  1
  Sn  Sn12  1  0.720949  0.002798  0.000097  1
  Pt  Pt13  1  0.666667  0.333333  0.501857  1
  Rh  Rh14  1  0.000000  0.000000  0.764346  1
  Rh  Rh15  1  0.000000  0.000000  0.235548  1
  Rh  Rh16  1  0.333333  0.666667  0.499013  1
  Rh  Rh17  1  0.333333  0.666667  0.001249  1
