# generated using pymatgen
data_La2Zn3PIr3Rh
_symmetry_space_group_name_H-M   'P 1'
_cell_length_a   4.16022300
_cell_length_b   4.17261100
_cell_length_c   10.66894800
_cell_angle_alpha   90.00000000
_cell_angle_beta   90.00000000
_cell_angle_gamma   90.00000000
_symmetry_Int_Tables_number   1
_chemical_formula_structural   La2Zn3PIr3Rh
_chemical_formula_sum   'La2 Zn3 P1 Ir3 Rh1'
_cell_volume   185.20218567
_cell_formula_units_Z   1
loop_
 _symmetry_equiv_pos_site_id
 _symmetry_equiv_pos_as_xyz
  1  'x, y, z'
loop_
 _atom_site_type_symbol
 _atom_site_label
 _atom_site_symmetry_multiplicity
 _atom_site_fract_x
 _atom_site_fract_y
 _atom_site_fract_z
 _atom_site_occupancy
  La  La0  1  0.000000  0.500000  0.247761  1
  La  La1  1  0.500000  0.000000  0.747056  1
  Zn  Zn2  1  0.000000  0.000000  0.494505  1
  Zn  Zn3  1  0.500000  0.500000  0.494596  1
  Zn  Zn4  1  0.000000  0.500000  0.878065  1
  P  P5  1  0.500000  0.000000  0.118693  1
  Ir  Ir6  1  0.000000  0.000000  0.019363  1
  Ir  Ir7  1  0.000000  0.500000  0.640685  1
  Ir  Ir8  1  0.500000  0.000000  0.340146  1
  Rh  Rh9  1  0.500000  0.500000  0.019131  1
