# generated using pymatgen
data_Ce12Mn6CrSi5
_symmetry_space_group_name_H-M   'P 1'
_cell_length_a   7.48166100
_cell_length_b   7.48166033
_cell_length_c   9.59643700
_cell_angle_alpha   90.00000000
_cell_angle_beta   90.00000000
_cell_angle_gamma   119.99999855
_symmetry_Int_Tables_number   1
_chemical_formula_structural   Ce12Mn6CrSi5
_chemical_formula_sum   'Ce12 Mn6 Cr1 Si5'
_cell_volume   465.19674538
_cell_formula_units_Z   1
loop_
 _symmetry_equiv_pos_site_id
 _symmetry_equiv_pos_as_xyz
  1  'x, y, z'
loop_
 _atom_site_type_symbol
 _atom_site_label
 _atom_site_symmetry_multiplicity
 _atom_site_fract_x
 _atom_site_fract_y
 _atom_site_fract_z
 _atom_site_occupancy
  Ce  Ce0  1  0.000000  0.571388  0.491209  1
  Ce  Ce1  1  0.571388  0.000000  0.491209  1
  Ce  Ce2  1  0.428612  0.428612  0.491209  1
  Ce  Ce3  1  0.000000  0.432784  0.999616  1
  Ce  Ce4  1  0.432784  0.000000  0.999616  1
  Ce  Ce5  1  0.567216  0.567216  0.999616  1
  Ce  Ce6  1  0.000000  0.754515  0.177890  1
  Ce  Ce7  1  0.754515  0.000000  0.177890  1
  Ce  Ce8  1  0.245485  0.245485  0.177890  1
  Ce  Ce9  1  0.000000  0.253852  0.680316  1
  Ce  Ce10  1  0.253852  0.000000  0.680316  1
  Ce  Ce11  1  0.746148  0.746148  0.680316  1
  Mn  Mn12  1  0.000000  0.351501  0.341526  1
  Mn  Mn13  1  0.351501  0.000000  0.341526  1
  Mn  Mn14  1  0.648499  0.648499  0.341526  1
  Mn  Mn15  1  0.000000  0.652554  0.844771  1
  Mn  Mn16  1  0.652554  0.000000  0.844771  1
  Mn  Mn17  1  0.347446  0.347446  0.844771  1
  Cr  Cr18  1  0.000000  0.000000  0.924831  1
  Si  Si19  1  0.666667  0.333333  0.265620  1
  Si  Si20  1  0.333333  0.666667  0.265620  1
  Si  Si21  1  0.333333  0.666667  0.770715  1
  Si  Si22  1  0.666667  0.333333  0.770715  1
  Si  Si23  1  0.000000  0.000000  0.425770  1
