# generated using pymatgen
data_Nd16Cd3Ni3HgIr
_symmetry_space_group_name_H-M   'P 1'
_cell_length_a   9.91139955
_cell_length_b   9.91139977
_cell_length_c   9.91139948
_cell_angle_alpha   59.87305529
_cell_angle_beta   59.87305478
_cell_angle_gamma   59.87305392
_symmetry_Int_Tables_number   1
_chemical_formula_structural   Nd16Cd3Ni3HgIr
_chemical_formula_sum   'Nd16 Cd3 Ni3 Hg1 Ir1'
_cell_volume   686.49469887
_cell_formula_units_Z   1
loop_
 _symmetry_equiv_pos_site_id
 _symmetry_equiv_pos_as_xyz
  1  'x, y, z'
loop_
 _atom_site_type_symbol
 _atom_site_label
 _atom_site_symmetry_multiplicity
 _atom_site_fract_x
 _atom_site_fract_y
 _atom_site_fract_z
 _atom_site_occupancy
  Nd  Nd0  1  0.596738  0.596738  0.596738  1
  Nd  Nd1  1  0.600922  0.600922  0.202915  1
  Nd  Nd2  1  0.600922  0.202915  0.600922  1
  Nd  Nd3  1  0.202915  0.600922  0.600922  1
  Nd  Nd4  1  0.059992  0.439253  0.439253  1
  Nd  Nd5  1  0.438261  0.058799  0.058799  1
  Nd  Nd6  1  0.439253  0.059992  0.439253  1
  Nd  Nd7  1  0.058799  0.438261  0.058799  1
  Nd  Nd8  1  0.439253  0.439253  0.059992  1
  Nd  Nd9  1  0.058799  0.058799  0.438261  1
  Nd  Nd10  1  0.188689  0.813746  0.813746  1
  Nd  Nd11  1  0.806253  0.188776  0.188776  1
  Nd  Nd12  1  0.813746  0.188689  0.813746  1
  Nd  Nd13  1  0.188776  0.806253  0.188776  1
  Nd  Nd14  1  0.813746  0.813746  0.188689  1
  Nd  Nd15  1  0.188776  0.188776  0.806253  1
  Cd  Cd16  1  0.829261  0.829261  0.509787  1
  Cd  Cd17  1  0.829261  0.509787  0.829261  1
  Cd  Cd18  1  0.509787  0.829261  0.829261  1
  Ni  Ni19  1  0.392571  0.392571  0.823905  1
  Ni  Ni20  1  0.392571  0.823905  0.392571  1
  Ni  Ni21  1  0.823905  0.392571  0.392571  1
  Hg  Hg22  1  0.833735  0.833735  0.833735  1
  Ir  Ir23  1  0.393075  0.393075  0.393075  1
