# generated using pymatgen
data_SmTh(Si2Rh3)2
_symmetry_space_group_name_H-M   'P 1'
_cell_length_a   6.68685171
_cell_length_b   6.68685170
_cell_length_c   6.68685188
_cell_angle_alpha   130.28184716
_cell_angle_beta   114.82088782
_cell_angle_gamma   86.19672435
_symmetry_Int_Tables_number   1
_chemical_formula_structural   SmTh(Si2Rh3)2
_chemical_formula_sum   'Sm1 Th1 Si4 Rh6'
_cell_volume   197.73633032
_cell_formula_units_Z   1
loop_
 _symmetry_equiv_pos_site_id
 _symmetry_equiv_pos_as_xyz
  1  'x, y, z'
loop_
 _atom_site_type_symbol
 _atom_site_label
 _atom_site_symmetry_multiplicity
 _atom_site_fract_x
 _atom_site_fract_y
 _atom_site_fract_z
 _atom_site_occupancy
  Sm  Sm0  1  0.750000  0.462574  0.712574  1
  Th  Th1  1  0.250000  0.541091  0.291091  1
  Si  Si2  1  0.073361  0.879116  0.805755  1
  Si  Si3  1  0.914907  0.113274  0.198367  1
  Si  Si4  1  0.585093  0.783459  0.198367  1
  Si  Si5  1  0.426639  0.232394  0.805755  1
  Rh  Rh6  1  0.714521  0.998437  0.713011  1
  Rh  Rh7  1  0.214573  0.498491  0.713011  1
  Rh  Rh8  1  0.285427  0.998437  0.283918  1
  Rh  Rh9  1  0.785479  0.498491  0.283918  1
  Rh  Rh10  1  0.008014  0.997117  0.505130  1
  Rh  Rh11  1  0.491986  0.997117  0.989104  1
