# generated using pymatgen
data_Mo2P4PbO14
_symmetry_space_group_name_H-M   'P 1'
_cell_length_a   5.04231790
_cell_length_b   7.31228043
_cell_length_c   8.30483287
_cell_angle_alpha   90.30291175
_cell_angle_beta   92.27549547
_cell_angle_gamma   105.78349038
_symmetry_Int_Tables_number   1
_chemical_formula_structural   Mo2P4PbO14
_chemical_formula_sum   'Mo2 P4 Pb1 O14'
_cell_volume   294.38755585
_cell_formula_units_Z   1
loop_
 _symmetry_equiv_pos_site_id
 _symmetry_equiv_pos_as_xyz
  1  'x, y, z'
loop_
 _atom_site_type_symbol
 _atom_site_label
 _atom_site_symmetry_multiplicity
 _atom_site_fract_x
 _atom_site_fract_y
 _atom_site_fract_z
 _atom_site_occupancy
  Mo  Mo0  1  0.000000  0.500000  0.500000  1
  Mo  Mo1  1  0.500000  0.000000  0.000000  1
  P  P2  1  0.378529  0.273014  0.291947  1
  P  P3  1  0.621471  0.726986  0.708053  1
  P  P4  1  0.018699  0.111851  0.751019  1
  P  P5  1  0.981301  0.888149  0.248981  1
  Pb  Pb6  1  0.000000  0.500000  0.000000  1
  O  O7  1  0.271432  0.044630  0.791982  1
  O  O8  1  0.728568  0.955370  0.208018  1
  O  O9  1  0.119034  0.840026  0.094606  1
  O  O10  1  0.880966  0.159974  0.905394  1
  O  O11  1  0.211288  0.058767  0.339343  1
  O  O12  1  0.788712  0.941233  0.660657  1
  O  O13  1  0.172935  0.397613  0.287523  1
  O  O14  1  0.827065  0.602387  0.712477  1
  O  O15  1  0.604030  0.328397  0.420964  1
  O  O16  1  0.395970  0.671603  0.579036  1
  O  O17  1  0.080399  0.281351  0.642644  1
  O  O18  1  0.919601  0.718649  0.357356  1
  O  O19  1  0.479164  0.265121  0.117017  1
  O  O20  1  0.520836  0.734879  0.882983  1
