# generated using pymatgen
data_NdPuSe2
_symmetry_space_group_name_H-M   'P 1'
_cell_length_a   7.23685913
_cell_length_b   7.23685919
_cell_length_c   7.23685871
_cell_angle_alpha   33.86091218
_cell_angle_beta   33.86090860
_cell_angle_gamma   33.86091268
_symmetry_Int_Tables_number   1
_chemical_formula_structural   NdPuSe2
_chemical_formula_sum   'Nd1 Pu1 Se2'
_cell_volume   104.85762940
_cell_formula_units_Z   1
loop_
 _symmetry_equiv_pos_site_id
 _symmetry_equiv_pos_as_xyz
  1  'x, y, z'
loop_
 _atom_site_type_symbol
 _atom_site_label
 _atom_site_symmetry_multiplicity
 _atom_site_fract_x
 _atom_site_fract_y
 _atom_site_fract_z
 _atom_site_occupancy
  Nd  Nd0  1  0.500000  0.500000  0.500000  1
  Pu  Pu1  1  0.000000  0.000000  0.000000  1
  Se  Se2  1  0.253014  0.253014  0.253014  1
  Se  Se3  1  0.746986  0.746986  0.746986  1
