# generated using pymatgen
data_Nd7Y(SiBr6)2
_symmetry_space_group_name_H-M   'P 1'
_cell_length_a   4.18172000
_cell_length_b   13.71368324
_cell_length_c   14.51512660
_cell_angle_alpha   89.60319297
_cell_angle_beta   90.00000000
_cell_angle_gamma   90.00000000
_symmetry_Int_Tables_number   1
_chemical_formula_structural   Nd7Y(SiBr6)2
_chemical_formula_sum   'Nd7 Y1 Si2 Br12'
_cell_volume   832.37586005
_cell_formula_units_Z   1
loop_
 _symmetry_equiv_pos_site_id
 _symmetry_equiv_pos_as_xyz
  1  'x, y, z'
loop_
 _atom_site_type_symbol
 _atom_site_label
 _atom_site_symmetry_multiplicity
 _atom_site_fract_x
 _atom_site_fract_y
 _atom_site_fract_z
 _atom_site_occupancy
  Nd  Nd0  1  0.500000  0.120065  0.339495  1
  Nd  Nd1  1  0.500000  0.880702  0.659349  1
  Nd  Nd2  1  0.500000  0.617028  0.159053  1
  Nd  Nd3  1  0.500000  0.380708  0.842308  1
  Nd  Nd4  1  0.000000  0.119974  0.579145  1
  Nd  Nd5  1  0.000000  0.880213  0.420159  1
  Nd  Nd6  1  0.000000  0.617764  0.921551  1
  Y  Y7  1  0.000000  0.383008  0.077865  1
  Si  Si8  1  0.500000  0.000362  0.499276  1
  Si  Si9  1  0.500000  0.497175  0.001773  1
  Br  Br10  1  0.500000  0.252340  0.159293  1
  Br  Br11  1  0.500000  0.755892  0.838068  1
  Br  Br12  1  0.500000  0.742404  0.337482  1
  Br  Br13  1  0.500000  0.256686  0.663068  1
  Br  Br14  1  0.000000  0.255444  0.410666  1
  Br  Br15  1  0.000000  0.744833  0.588729  1
  Br  Br16  1  0.000000  0.753651  0.088268  1
  Br  Br17  1  0.000000  0.246881  0.918243  1
  Br  Br18  1  0.000000  0.002901  0.243330  1
  Br  Br19  1  0.000000  0.997975  0.755774  1
  Br  Br20  1  0.000000  0.495799  0.252131  1
  Br  Br21  1  0.000000  0.498192  0.744972  1
