# generated using pymatgen
data_SrReNO2
_symmetry_space_group_name_H-M   'P 1'
_cell_length_a   5.65678405
_cell_length_b   5.62711100
_cell_length_c   8.00006300
_cell_angle_alpha   89.99941109
_cell_angle_beta   90.00059449
_cell_angle_gamma   89.99152692
_symmetry_Int_Tables_number   1
_chemical_formula_structural   SrReNO2
_chemical_formula_sum   'Sr4 Re4 N4 O8'
_cell_volume   254.65281653
_cell_formula_units_Z   4
loop_
 _symmetry_equiv_pos_site_id
 _symmetry_equiv_pos_as_xyz
  1  'x, y, z'
loop_
 _atom_site_type_symbol
 _atom_site_label
 _atom_site_symmetry_multiplicity
 _atom_site_fract_x
 _atom_site_fract_y
 _atom_site_fract_z
 _atom_site_occupancy
  Sr  Sr0  1  0.968898  0.001998  0.999930  1
  Sr  Sr1  1  0.531106  0.502032  0.999926  1
  Sr  Sr2  1  0.527210  0.497285  0.500071  1
  Sr  Sr3  1  0.972813  0.997236  0.500075  1
  Re  Re4  1  0.030630  0.498563  0.251449  1
  Re  Re5  1  0.469381  0.998563  0.251438  1
  Re  Re6  1  0.469309  0.998518  0.748522  1
  Re  Re7  1  0.030684  0.498534  0.748518  1
  N  N8  1  0.245479  0.245104  0.257758  1
  N  N9  1  0.254617  0.745199  0.257711  1
  N  N10  1  0.254719  0.745129  0.742210  1
  N  N11  1  0.245334  0.245021  0.742175  1
  O  O12  1  0.006935  0.499451  0.000070  1
  O  O13  1  0.493150  0.999487  0.000010  1
  O  O14  1  0.743881  0.256577  0.241190  1
  O  O15  1  0.755971  0.756926  0.241191  1
  O  O16  1  0.527735  0.000261  0.500009  1
  O  O17  1  0.972269  0.500286  0.499987  1
  O  O18  1  0.756140  0.757053  0.758886  1
  O  O19  1  0.743741  0.256778  0.758880  1
