# generated using pymatgen
data_Hf16PaNi4Pt3
_symmetry_space_group_name_H-M   'P 1'
_cell_length_a   8.72023336
_cell_length_b   8.73646112
_cell_length_c   8.73646300
_cell_angle_alpha   59.99999668
_cell_angle_beta   59.93841843
_cell_angle_gamma   59.93842301
_symmetry_Int_Tables_number   1
_chemical_formula_structural   Hf16PaNi4Pt3
_chemical_formula_sum   'Hf16 Pa1 Ni4 Pt3'
_cell_volume   470.19654431
_cell_formula_units_Z   1
loop_
 _symmetry_equiv_pos_site_id
 _symmetry_equiv_pos_as_xyz
  1  'x, y, z'
loop_
 _atom_site_type_symbol
 _atom_site_label
 _atom_site_symmetry_multiplicity
 _atom_site_fract_x
 _atom_site_fract_y
 _atom_site_fract_z
 _atom_site_occupancy
  Hf  Hf0  1  0.677172  0.107609  0.107609  1
  Hf  Hf1  1  0.095307  0.710720  0.096986  1
  Hf  Hf2  1  0.095307  0.096986  0.710720  1
  Hf  Hf3  1  0.095307  0.096986  0.096986  1
  Hf  Hf4  1  0.314929  0.315180  0.684946  1
  Hf  Hf5  1  0.698608  0.673714  0.313839  1
  Hf  Hf6  1  0.314929  0.684946  0.315180  1
  Hf  Hf7  1  0.698608  0.313839  0.673714  1
  Hf  Hf8  1  0.698608  0.313839  0.313839  1
  Hf  Hf9  1  0.314929  0.684946  0.684946  1
  Hf  Hf10  1  0.933408  0.947055  0.559769  1
  Hf  Hf11  1  0.549683  0.551924  0.949196  1
  Hf  Hf12  1  0.933408  0.559769  0.947055  1
  Hf  Hf13  1  0.549683  0.949196  0.551924  1
  Hf  Hf14  1  0.549683  0.949196  0.949196  1
  Hf  Hf15  1  0.933408  0.559769  0.559769  1
  Pa  Pa16  1  0.041471  0.319509  0.319509  1
  Ni  Ni17  1  0.331057  0.889648  0.889648  1
  Ni  Ni18  1  0.881961  0.324202  0.896919  1
  Ni  Ni19  1  0.881961  0.896919  0.324202  1
  Ni  Ni20  1  0.881961  0.896919  0.896919  1
  Pt  Pt21  1  0.342871  0.967253  0.344938  1
  Pt  Pt22  1  0.342871  0.344938  0.967253  1
  Pt  Pt23  1  0.342871  0.344938  0.344938  1
