# generated using pymatgen
data_Ti9ReSi8
_symmetry_space_group_name_H-M   'P 1'
_cell_length_a   6.65931547
_cell_length_b   6.65348300
_cell_length_c   12.15902746
_cell_angle_alpha   90.00000000
_cell_angle_beta   90.18277229
_cell_angle_gamma   90.00000000
_symmetry_Int_Tables_number   1
_chemical_formula_structural   Ti9ReSi8
_chemical_formula_sum   'Ti18 Re2 Si16'
_cell_volume   538.73509830
_cell_formula_units_Z   2
loop_
 _symmetry_equiv_pos_site_id
 _symmetry_equiv_pos_as_xyz
  1  'x, y, z'
loop_
 _atom_site_type_symbol
 _atom_site_label
 _atom_site_symmetry_multiplicity
 _atom_site_fract_x
 _atom_site_fract_y
 _atom_site_fract_z
 _atom_site_occupancy
  Ti  Ti0  1  0.996515  0.148404  0.623358  1
  Ti  Ti1  1  0.352286  0.497951  0.872734  1
  Ti  Ti2  1  0.650427  0.505794  0.370658  1
  Ti  Ti3  1  0.495977  0.350100  0.129616  1
  Ti  Ti4  1  0.503485  0.648404  0.626642  1
  Ti  Ti5  1  0.004023  0.850100  0.120384  1
  Ti  Ti6  1  0.147714  0.997951  0.377266  1
  Ti  Ti7  1  0.849573  0.005794  0.879342  1
  Ti  Ti8  1  0.999514  0.340393  0.222539  1
  Ti  Ti9  1  0.154835  0.502103  0.470330  1
  Ti  Ti10  1  0.838801  0.500501  0.971915  1
  Ti  Ti11  1  0.500449  0.156683  0.529387  1
  Ti  Ti12  1  0.500486  0.840393  0.027461  1
  Ti  Ti13  1  0.999551  0.656683  0.720613  1
  Ti  Ti14  1  0.345165  0.002103  0.779670  1
  Ti  Ti15  1  0.661199  0.000501  0.278085  1
  Ti  Ti16  1  0.670410  0.328186  0.751233  1
  Ti  Ti17  1  0.829590  0.828186  0.498767  1
  Re  Re18  1  0.172569  0.171251  0.001942  1
  Re  Re19  1  0.327431  0.671251  0.248058  1
  Si  Si20  1  0.045793  0.301710  0.815711  1
  Si  Si21  1  0.197149  0.541710  0.064182  1
  Si  Si22  1  0.801953  0.455218  0.564903  1
  Si  Si23  1  0.540864  0.198144  0.935877  1
  Si  Si24  1  0.454207  0.801710  0.434289  1
  Si  Si25  1  0.959136  0.698144  0.314123  1
  Si  Si26  1  0.302851  0.041710  0.185818  1
  Si  Si27  1  0.698047  0.955218  0.685097  1
  Si  Si28  1  0.293979  0.358363  0.673928  1
  Si  Si29  1  0.141154  0.795591  0.921524  1
  Si  Si30  1  0.856674  0.205722  0.424878  1
  Si  Si31  1  0.794402  0.142175  0.077845  1
  Si  Si32  1  0.206021  0.858363  0.576072  1
  Si  Si33  1  0.705598  0.642175  0.172155  1
  Si  Si34  1  0.358846  0.295591  0.328476  1
  Si  Si35  1  0.643326  0.705722  0.825122  1
