# generated using pymatgen
data_Dy3PaHg2Rh3
_symmetry_space_group_name_H-M   'P 1'
_cell_length_a   7.81004276
_cell_length_b   7.81004235
_cell_length_c   3.85124800
_cell_angle_alpha   90.00000000
_cell_angle_beta   90.00000000
_cell_angle_gamma   121.82810171
_symmetry_Int_Tables_number   1
_chemical_formula_structural   Dy3PaHg2Rh3
_chemical_formula_sum   'Dy3 Pa1 Hg2 Rh3'
_cell_volume   199.59067148
_cell_formula_units_Z   1
loop_
 _symmetry_equiv_pos_site_id
 _symmetry_equiv_pos_as_xyz
  1  'x, y, z'
loop_
 _atom_site_type_symbol
 _atom_site_label
 _atom_site_symmetry_multiplicity
 _atom_site_fract_x
 _atom_site_fract_y
 _atom_site_fract_z
 _atom_site_occupancy
  Dy  Dy0  1  0.962367  0.403797  0.500000  1
  Dy  Dy1  1  0.642401  0.642401  0.500000  1
  Dy  Dy2  1  0.403797  0.962367  0.500000  1
  Pa  Pa3  1  0.267187  0.267187  0.000000  1
  Hg  Hg4  1  0.013202  0.737695  0.000000  1
  Hg  Hg5  1  0.737695  0.013202  0.000000  1
  Rh  Rh6  1  0.324843  0.620098  0.000000  1
  Rh  Rh7  1  0.028414  0.028414  0.500000  1
  Rh  Rh8  1  0.620098  0.324843  0.000000  1
