# generated using pymatgen
data_DyTm3BeOs7
_symmetry_space_group_name_H-M   'P 1'
_cell_length_a   5.22971087
_cell_length_b   5.22971179
_cell_length_c   8.74746701
_cell_angle_alpha   90.00532018
_cell_angle_beta   89.99467830
_cell_angle_gamma   118.86925525
_symmetry_Int_Tables_number   1
_chemical_formula_structural   DyTm3BeOs7
_chemical_formula_sum   'Dy1 Tm3 Be1 Os7'
_cell_volume   209.51005123
_cell_formula_units_Z   1
loop_
 _symmetry_equiv_pos_site_id
 _symmetry_equiv_pos_as_xyz
  1  'x, y, z'
loop_
 _atom_site_type_symbol
 _atom_site_label
 _atom_site_symmetry_multiplicity
 _atom_site_fract_x
 _atom_site_fract_y
 _atom_site_fract_z
 _atom_site_occupancy
  Dy  Dy0  1  0.333289  0.666711  0.065346  1
  Tm  Tm1  1  0.333332  0.666668  0.435623  1
  Tm  Tm2  1  0.669517  0.330483  0.563627  1
  Tm  Tm3  1  0.669611  0.330389  0.935847  1
  Be  Be4  1  0.828851  0.171149  0.250364  1
  Os  Os5  1  0.004010  0.995990  0.495713  1
  Os  Os6  1  0.004163  0.995837  0.003859  1
  Os  Os7  1  0.820211  0.654901  0.250863  1
  Os  Os8  1  0.345099  0.179789  0.250863  1
  Os  Os9  1  0.165646  0.834354  0.749338  1
  Os  Os10  1  0.173289  0.347017  0.749279  1
  Os  Os11  1  0.652983  0.826711  0.749279  1
