# generated using pymatgen
data_Li14ScSi4
_symmetry_space_group_name_H-M   'P 1'
_cell_length_a   9.21488076
_cell_length_b   9.21488049
_cell_length_c   9.21488086
_cell_angle_alpha   109.53266317
_cell_angle_beta   109.53266809
_cell_angle_gamma   109.34840223
_symmetry_Int_Tables_number   1
_chemical_formula_structural   Li14ScSi4
_chemical_formula_sum   'Li28 Sc2 Si8'
_cell_volume   602.34561703
_cell_formula_units_Z   2
loop_
 _symmetry_equiv_pos_site_id
 _symmetry_equiv_pos_as_xyz
  1  'x, y, z'
loop_
 _atom_site_type_symbol
 _atom_site_label
 _atom_site_symmetry_multiplicity
 _atom_site_fract_x
 _atom_site_fract_y
 _atom_site_fract_z
 _atom_site_occupancy
  Li  Li0  1  0.071751  0.543079  0.278834  1
  Li  Li1  1  0.264245  0.792918  0.721166  1
  Li  Li2  1  0.178249  0.957082  0.971327  1
  Li  Li3  1  0.985755  0.206921  0.028673  1
  Li  Li4  1  0.042918  0.014245  0.221166  1
  Li  Li5  1  0.793079  0.821751  0.778834  1
  Li  Li6  1  0.456921  0.735755  0.528673  1
  Li  Li7  1  0.207082  0.928249  0.471327  1
  Li  Li8  1  0.723623  0.342903  0.063242  1
  Li  Li9  1  0.970339  0.407097  0.880720  1
  Li  Li10  1  0.279661  0.660381  0.936758  1
  Li  Li11  1  0.526377  0.089619  0.119280  1
  Li  Li12  1  0.692693  0.867584  0.094535  1
  Li  Li13  1  0.476952  0.882416  0.325109  1
  Li  Li14  1  0.557307  0.151843  0.674891  1
  Li  Li15  1  0.773048  0.598157  0.905465  1
  Li  Li16  1  0.848157  0.523048  0.405465  1
  Li  Li17  1  0.401843  0.307307  0.174891  1
  Li  Li18  1  0.132416  0.226952  0.825109  1
  Li  Li19  1  0.117584  0.442693  0.594535  1
  Li  Li20  1  0.910381  0.029661  0.436758  1
  Li  Li21  1  0.339619  0.276377  0.619280  1
  Li  Li22  1  0.592903  0.473623  0.563242  1
  Li  Li23  1  0.657097  0.720339  0.380720  1
  Li  Li24  1  0.002479  0.875000  0.627479  1
  Li  Li25  1  0.247521  0.375000  0.372521  1
  Li  Li26  1  0.125000  0.752479  0.127479  1
  Li  Li27  1  0.625000  0.997521  0.872521  1
  Sc  Sc28  1  0.500000  0.500000  0.000000  1
  Sc  Sc29  1  0.750000  0.250000  0.500000  1
  Si  Si30  1  0.293766  0.534223  0.159911  1
  Si  Si31  1  0.374311  0.133855  0.840089  1
  Si  Si32  1  0.956234  0.616145  0.740457  1
  Si  Si33  1  0.875689  0.215777  0.259543  1
  Si  Si34  1  0.383855  0.124311  0.340089  1
  Si  Si35  1  0.784223  0.043766  0.659911  1
  Si  Si36  1  0.465777  0.625689  0.759543  1
  Si  Si37  1  0.866145  0.706234  0.240457  1
