# generated using pymatgen
data_Rb4Cd(SnAu3)2
_symmetry_space_group_name_H-M   'P 1'
_cell_length_a   10.76905159
_cell_length_b   10.76905191
_cell_length_c   10.76905160
_cell_angle_alpha   38.16554952
_cell_angle_beta   38.16554547
_cell_angle_gamma   38.16554733
_symmetry_Int_Tables_number   1
_chemical_formula_structural   Rb4Cd(SnAu3)2
_chemical_formula_sum   'Rb4 Cd1 Sn2 Au6'
_cell_volume   428.20925912
_cell_formula_units_Z   1
loop_
 _symmetry_equiv_pos_site_id
 _symmetry_equiv_pos_as_xyz
  1  'x, y, z'
loop_
 _atom_site_type_symbol
 _atom_site_label
 _atom_site_symmetry_multiplicity
 _atom_site_fract_x
 _atom_site_fract_y
 _atom_site_fract_z
 _atom_site_occupancy
  Rb  Rb0  1  0.684297  0.684297  0.684297  1
  Rb  Rb1  1  0.315703  0.315703  0.315703  1
  Rb  Rb2  1  0.812106  0.812106  0.812106  1
  Rb  Rb3  1  0.187894  0.187894  0.187894  1
  Cd  Cd4  1  0.000000  0.000000  0.000000  1
  Sn  Sn5  1  0.448558  0.448558  0.448558  1
  Sn  Sn6  1  0.551442  0.551442  0.551442  1
  Au  Au7  1  0.189012  0.787755  0.787755  1
  Au  Au8  1  0.787755  0.787755  0.189012  1
  Au  Au9  1  0.787755  0.189012  0.787755  1
  Au  Au10  1  0.212245  0.810988  0.212245  1
  Au  Au11  1  0.810988  0.212245  0.212245  1
  Au  Au12  1  0.212245  0.212245  0.810988  1
