# generated using pymatgen
data_Dy12Cd2Tc3
_symmetry_space_group_name_H-M   'P 1'
_cell_length_a   8.43913259
_cell_length_b   8.43913337
_cell_length_c   8.43913261
_cell_angle_alpha   109.67925920
_cell_angle_beta   109.67926332
_cell_angle_gamma   109.05593480
_symmetry_Int_Tables_number   1
_chemical_formula_structural   Dy12Cd2Tc3
_chemical_formula_sum   'Dy12 Cd2 Tc3'
_cell_volume   462.65204855
_cell_formula_units_Z   1
loop_
 _symmetry_equiv_pos_site_id
 _symmetry_equiv_pos_as_xyz
  1  'x, y, z'
loop_
 _atom_site_type_symbol
 _atom_site_label
 _atom_site_symmetry_multiplicity
 _atom_site_fract_x
 _atom_site_fract_y
 _atom_site_fract_z
 _atom_site_occupancy
  Dy  Dy0  1  0.319357  0.319357  0.638714  1
  Dy  Dy1  1  0.680643  0.680643  0.361286  1
  Dy  Dy2  1  0.680643  0.319357  0.000000  1
  Dy  Dy3  1  0.319357  0.680643  0.000000  1
  Dy  Dy4  1  0.186262  0.430014  0.243753  1
  Dy  Dy5  1  0.813738  0.569986  0.756247  1
  Dy  Dy6  1  0.186262  0.942509  0.756247  1
  Dy  Dy7  1  0.942509  0.186262  0.756247  1
  Dy  Dy8  1  0.813738  0.057491  0.243753  1
  Dy  Dy9  1  0.057491  0.813738  0.243753  1
  Dy  Dy10  1  0.430014  0.186262  0.243753  1
  Dy  Dy11  1  0.569986  0.813738  0.756247  1
  Cd  Cd12  1  0.000000  0.500000  0.500000  1
  Cd  Cd13  1  0.500000  0.000000  0.500000  1
  Tc  Tc14  1  0.338155  0.338155  0.000000  1
  Tc  Tc15  1  0.661845  0.661845  0.000000  1
  Tc  Tc16  1  0.000000  0.000000  0.000000  1
