# generated using pymatgen
data_Cs3Er(AsO4)2
_symmetry_space_group_name_H-M   'P 1'
_cell_length_a   6.01050200
_cell_length_b   6.01050163
_cell_length_c   8.22092600
_cell_angle_alpha   90.00000000
_cell_angle_beta   90.00000000
_cell_angle_gamma   120.00000201
_symmetry_Int_Tables_number   1
_chemical_formula_structural   Cs3Er(AsO4)2
_chemical_formula_sum   'Cs3 Er1 As2 O8'
_cell_volume   257.20110346
_cell_formula_units_Z   1
loop_
 _symmetry_equiv_pos_site_id
 _symmetry_equiv_pos_as_xyz
  1  'x, y, z'
loop_
 _atom_site_type_symbol
 _atom_site_label
 _atom_site_symmetry_multiplicity
 _atom_site_fract_x
 _atom_site_fract_y
 _atom_site_fract_z
 _atom_site_occupancy
  Cs  Cs0  1  0.333333  0.666667  0.731096  1
  Cs  Cs1  1  0.666667  0.333333  0.268904  1
  Cs  Cs2  1  0.000000  0.000000  0.000000  1
  Er  Er3  1  0.000000  0.000000  0.500000  1
  As  As4  1  0.333333  0.666667  0.276104  1
  As  As5  1  0.666667  0.333333  0.723896  1
  O  O6  1  0.333333  0.666667  0.071329  1
  O  O7  1  0.666667  0.333333  0.928671  1
  O  O8  1  0.177254  0.822746  0.348576  1
  O  O9  1  0.822746  0.177254  0.651424  1
  O  O10  1  0.177254  0.354508  0.348576  1
  O  O11  1  0.822746  0.645492  0.651424  1
  O  O12  1  0.645492  0.822746  0.348576  1
  O  O13  1  0.354508  0.177254  0.651424  1
