# generated using pymatgen
data_Y8Zr12Si15Ge
_symmetry_space_group_name_H-M   'P 1'
_cell_length_a   7.16092922
_cell_length_b   7.32422169
_cell_length_c   13.97600252
_cell_angle_alpha   90.01782553
_cell_angle_beta   89.79531552
_cell_angle_gamma   90.01653145
_symmetry_Int_Tables_number   1
_chemical_formula_structural   Y8Zr12Si15Ge
_chemical_formula_sum   'Y8 Zr12 Si15 Ge1'
_cell_volume   733.01189453
_cell_formula_units_Z   1
loop_
 _symmetry_equiv_pos_site_id
 _symmetry_equiv_pos_as_xyz
  1  'x, y, z'
loop_
 _atom_site_type_symbol
 _atom_site_label
 _atom_site_symmetry_multiplicity
 _atom_site_fract_x
 _atom_site_fract_y
 _atom_site_fract_z
 _atom_site_occupancy
  Y  Y0  1  0.513292  0.323780  0.097038  1
  Y  Y1  1  0.011821  0.175180  0.402476  1
  Y  Y2  1  0.490202  0.677721  0.597694  1
  Y  Y3  1  0.986169  0.823977  0.903345  1
  Y  Y4  1  0.486484  0.675874  0.903367  1
  Y  Y5  1  0.986741  0.824633  0.597276  1
  Y  Y6  1  0.512899  0.323598  0.402522  1
  Y  Y7  1  0.013578  0.176586  0.096877  1
  Zr  Zr8  1  0.657688  0.001428  0.750389  1
  Zr  Zr9  1  0.157735  0.497756  0.751664  1
  Zr  Zr10  1  0.342241  0.998648  0.249784  1
  Zr  Zr11  1  0.841972  0.502195  0.249913  1
  Zr  Zr12  1  0.828761  0.322298  0.625101  1
  Zr  Zr13  1  0.329819  0.177509  0.875204  1
  Zr  Zr14  1  0.169804  0.677467  0.124993  1
  Zr  Zr15  1  0.669337  0.822823  0.374461  1
  Zr  Zr16  1  0.167909  0.679382  0.373802  1
  Zr  Zr17  1  0.669410  0.822559  0.124772  1
  Zr  Zr18  1  0.829915  0.322417  0.875224  1
  Zr  Zr19  1  0.333020  0.174336  0.626289  1
  Si  Si20  1  0.785378  0.626140  0.750136  1
  Si  Si21  1  0.283999  0.872466  0.750552  1
  Si  Si22  1  0.215302  0.373843  0.249887  1
  Si  Si23  1  0.715428  0.126680  0.249585  1
  Si  Si24  1  0.534021  0.382458  0.750360  1
  Si  Si25  1  0.033895  0.117554  0.750016  1
  Si  Si26  1  0.465453  0.617750  0.249735  1
  Si  Si27  1  0.965274  0.883313  0.249216  1
  Si  Si28  1  0.656374  0.032929  0.539631  1
  Si  Si29  1  0.154840  0.467964  0.959832  1
  Si  Si30  1  0.345000  0.967739  0.040254  1
  Si  Si31  1  0.839734  0.533195  0.458971  1
  Si  Si32  1  0.344156  0.967230  0.459866  1
  Si  Si33  1  0.844678  0.532197  0.040363  1
  Si  Si34  1  0.654156  0.032152  0.959671  1
  Ge  Ge35  1  0.163512  0.466225  0.539734  1
