# generated using pymatgen
data_Sm2Si7(Ir3Ru)3
_symmetry_space_group_name_H-M   'P 1'
_cell_length_a   9.64824600
_cell_length_b   9.64824625
_cell_length_c   3.96444800
_cell_angle_alpha   90.00000000
_cell_angle_beta   90.00000000
_cell_angle_gamma   119.99999230
_symmetry_Int_Tables_number   1
_chemical_formula_structural   Sm2Si7(Ir3Ru)3
_chemical_formula_sum   'Sm2 Si7 Ir9 Ru3'
_cell_volume   319.60247839
_cell_formula_units_Z   1
loop_
 _symmetry_equiv_pos_site_id
 _symmetry_equiv_pos_as_xyz
  1  'x, y, z'
loop_
 _atom_site_type_symbol
 _atom_site_label
 _atom_site_symmetry_multiplicity
 _atom_site_fract_x
 _atom_site_fract_y
 _atom_site_fract_z
 _atom_site_occupancy
  Sm  Sm0  1  0.333333  0.666667  0.738031  1
  Sm  Sm1  1  0.666667  0.333333  0.237970  1
  Si  Si2  1  0.000000  0.000000  0.738168  1
  Si  Si3  1  0.286887  0.889321  0.238080  1
  Si  Si4  1  0.602433  0.713113  0.238080  1
  Si  Si5  1  0.110679  0.397567  0.238080  1
  Si  Si6  1  0.703189  0.115321  0.738104  1
  Si  Si7  1  0.412132  0.296811  0.738104  1
  Si  Si8  1  0.884679  0.587868  0.738104  1
  Ir  Ir9  1  0.723878  0.882594  0.738095  1
  Ir  Ir10  1  0.158716  0.276122  0.738095  1
  Ir  Ir11  1  0.117406  0.841284  0.738095  1
  Ir  Ir12  1  0.052409  0.612005  0.238088  1
  Ir  Ir13  1  0.559595  0.947591  0.238088  1
  Ir  Ir14  1  0.387995  0.440405  0.238088  1
  Ir  Ir15  1  0.936151  0.368748  0.738062  1
  Ir  Ir16  1  0.432598  0.063849  0.738062  1
  Ir  Ir17  1  0.631252  0.567402  0.738062  1
  Ru  Ru18  1  0.214199  0.093793  0.238181  1
  Ru  Ru19  1  0.879594  0.785801  0.238181  1
  Ru  Ru20  1  0.906207  0.120406  0.238181  1
