# generated using pymatgen
data_TiBi4Os3O16
_symmetry_space_group_name_H-M   'P 1'
_cell_length_a   5.57528991
_cell_length_b   7.72376452
_cell_length_c   7.64886480
_cell_angle_alpha   103.34070853
_cell_angle_beta   89.59375327
_cell_angle_gamma   93.89516997
_symmetry_Int_Tables_number   1
_chemical_formula_structural   TiBi4Os3O16
_chemical_formula_sum   'Ti1 Bi4 Os3 O16'
_cell_volume   319.73613624
_cell_formula_units_Z   1
loop_
 _symmetry_equiv_pos_site_id
 _symmetry_equiv_pos_as_xyz
  1  'x, y, z'
loop_
 _atom_site_type_symbol
 _atom_site_label
 _atom_site_symmetry_multiplicity
 _atom_site_fract_x
 _atom_site_fract_y
 _atom_site_fract_z
 _atom_site_occupancy
  Ti  Ti0  1  0.773232  0.654406  0.294500  1
  Bi  Bi1  1  0.220980  0.875937  0.592826  1
  Bi  Bi2  1  0.691210  0.161160  0.907939  1
  Bi  Bi3  1  0.291703  0.818609  0.103502  1
  Bi  Bi4  1  0.755401  0.112780  0.393833  1
  Os  Os5  1  0.756624  0.670605  0.796741  1
  Os  Os6  1  0.241358  0.329770  0.206600  1
  Os  Os7  1  0.226462  0.336142  0.704156  1
  O  O8  1  0.015348  0.894442  0.328091  1
  O  O9  1  0.073028  0.546410  0.221694  1
  O  O10  1  0.302595  0.318892  0.952365  1
  O  O11  1  0.533344  0.851331  0.361262  1
  O  O12  1  0.456771  0.146837  0.637883  1
  O  O13  1  0.989515  0.122139  0.674490  1
  O  O14  1  0.547628  0.466671  0.271335  1
  O  O15  1  0.551885  0.878938  0.824251  1
  O  O16  1  0.478626  0.518790  0.729486  1
  O  O17  1  0.024474  0.840396  0.865825  1
  O  O18  1  0.961066  0.478627  0.776861  1
  O  O19  1  0.182512  0.329274  0.452924  1
  O  O20  1  0.442242  0.110162  0.163267  1
  O  O21  1  0.955698  0.174919  0.142080  1
  O  O22  1  0.832158  0.681669  0.549715  1
  O  O23  1  0.696141  0.681092  0.048375  1
