# generated using pymatgen
data_Cd2Hg(Pd2Au)3
_symmetry_space_group_name_H-M   'P 1'
_cell_length_a   4.38980500
_cell_length_b   7.08656800
_cell_length_c   13.35560300
_cell_angle_alpha   89.99995429
_cell_angle_beta   90.00040029
_cell_angle_gamma   90.00000000
_symmetry_Int_Tables_number   1
_chemical_formula_structural   Cd2Hg(Pd2Au)3
_chemical_formula_sum   'Cd4 Hg2 Pd12 Au6'
_cell_volume   415.47480124
_cell_formula_units_Z   2
loop_
 _symmetry_equiv_pos_site_id
 _symmetry_equiv_pos_as_xyz
  1  'x, y, z'
loop_
 _atom_site_type_symbol
 _atom_site_label
 _atom_site_symmetry_multiplicity
 _atom_site_fract_x
 _atom_site_fract_y
 _atom_site_fract_z
 _atom_site_occupancy
  Cd  Cd0  1  0.999994  0.000000  0.333713  1
  Cd  Cd1  1  0.500000  0.500000  0.500232  1
  Cd  Cd2  1  0.000006  0.000000  0.666438  1
  Cd  Cd3  1  0.499998  0.500000  0.832946  1
  Hg  Hg4  1  0.999996  0.000000  0.999817  1
  Hg  Hg5  1  0.500010  0.500001  0.166848  1
  Pd  Pd6  1  0.500000  0.251201  0.999182  1
  Pd  Pd7  1  0.499999  0.748800  0.999182  1
  Pd  Pd8  1  0.000004  0.248894  0.167539  1
  Pd  Pd9  1  0.000004  0.751105  0.167539  1
  Pd  Pd10  1  0.499999  0.249463  0.334296  1
  Pd  Pd11  1  0.500000  0.750537  0.334296  1
  Pd  Pd12  1  0.000002  0.249755  0.500246  1
  Pd  Pd13  1  0.000001  0.750244  0.500247  1
  Pd  Pd14  1  0.500001  0.250118  0.666455  1
  Pd  Pd15  1  0.500000  0.749882  0.666455  1
  Pd  Pd16  1  0.999997  0.250547  0.832300  1
  Pd  Pd17  1  0.999997  0.749453  0.832300  1
  Au  Au18  1  0.000000  0.500000  0.998051  1
  Au  Au19  1  0.499983  0.000001  0.168673  1
  Au  Au20  1  0.999992  0.500000  0.334893  1
  Au  Au21  1  0.500001  0.999999  0.499691  1
  Au  Au22  1  0.000009  0.500000  0.667039  1
  Au  Au23  1  0.500008  0.000000  0.831623  1
