# generated using pymatgen
data_HoEr3Ga5Tc3
_symmetry_space_group_name_H-M   'P 1'
_cell_length_a   5.45472303
_cell_length_b   5.51378530
_cell_length_c   8.68027300
_cell_angle_alpha   89.99999673
_cell_angle_beta   89.99908235
_cell_angle_gamma   120.35882919
_symmetry_Int_Tables_number   1
_chemical_formula_structural   HoEr3Ga5Tc3
_chemical_formula_sum   'Ho1 Er3 Ga5 Tc3'
_cell_volume   225.27078095
_cell_formula_units_Z   1
loop_
 _symmetry_equiv_pos_site_id
 _symmetry_equiv_pos_as_xyz
  1  'x, y, z'
loop_
 _atom_site_type_symbol
 _atom_site_label
 _atom_site_symmetry_multiplicity
 _atom_site_fract_x
 _atom_site_fract_y
 _atom_site_fract_z
 _atom_site_occupancy
  Ho  Ho0  1  0.334459  0.667231  0.443464  1
  Er  Er1  1  0.662598  0.331299  0.552226  1
  Er  Er2  1  0.662612  0.331306  0.947780  1
  Er  Er3  1  0.334463  0.667233  0.056513  1
  Ga  Ga4  1  0.835471  0.164874  0.249987  1
  Ga  Ga5  1  0.835471  0.670599  0.249987  1
  Ga  Ga6  1  0.326562  0.163282  0.249995  1
  Ga  Ga7  1  0.189265  0.841242  0.750015  1
  Ga  Ga8  1  0.189265  0.348022  0.750015  1
  Tc  Tc9  1  0.975664  0.987833  0.510084  1
  Tc  Tc10  1  0.975650  0.987826  0.989930  1
  Tc  Tc11  1  0.678515  0.839257  0.750002  1
