# generated using pymatgen
data_Tb4YEr2FeI12
_symmetry_space_group_name_H-M   'P 1'
_cell_length_a   9.76365568
_cell_length_b   9.74973545
_cell_length_c   9.69471602
_cell_angle_alpha   106.80656741
_cell_angle_beta   107.04052642
_cell_angle_gamma   106.94621754
_symmetry_Int_Tables_number   1
_chemical_formula_structural   Tb4YEr2FeI12
_chemical_formula_sum   'Tb4 Y1 Er2 Fe1 I12'
_cell_volume   770.01209002
_cell_formula_units_Z   1
loop_
 _symmetry_equiv_pos_site_id
 _symmetry_equiv_pos_as_xyz
  1  'x, y, z'
loop_
 _atom_site_type_symbol
 _atom_site_label
 _atom_site_symmetry_multiplicity
 _atom_site_fract_x
 _atom_site_fract_y
 _atom_site_fract_z
 _atom_site_occupancy
  Tb  Tb0  1  0.911171  0.979392  0.719468  1
  Tb  Tb1  1  0.706628  0.907012  0.978574  1
  Tb  Tb2  1  0.977851  0.706688  0.906782  1
  Tb  Tb3  1  0.090231  0.021571  0.280835  1
  Y  Y4  1  0.500342  0.500447  0.500077  1
  Er  Er5  1  0.288671  0.092779  0.021440  1
  Er  Er6  1  0.022091  0.288498  0.091608  1
  Fe  Fe7  1  0.999848  0.999695  0.000039  1
  I  I8  1  0.839800  0.615203  0.536489  1
  I  I9  1  0.538379  0.840739  0.613544  1
  I  I10  1  0.613827  0.536418  0.840987  1
  I  I11  1  0.160091  0.385320  0.461437  1
  I  I12  1  0.462005  0.160070  0.384548  1
  I  I13  1  0.384360  0.461483  0.158522  1
  I  I14  1  0.928952  0.321090  0.775892  1
  I  I15  1  0.777038  0.929729  0.321941  1
  I  I16  1  0.322702  0.777356  0.929252  1
  I  I17  1  0.071889  0.678756  0.226483  1
  I  I18  1  0.224985  0.071037  0.680503  1
  I  I19  1  0.679139  0.226717  0.071579  1
