# generated using pymatgen
data_Y10Lu2ZnCo4Sn
_symmetry_space_group_name_H-M   'P 1'
_cell_length_a   8.31905738
_cell_length_b   8.33834872
_cell_length_c   8.31905745
_cell_angle_alpha   111.93678815
_cell_angle_beta   109.14533818
_cell_angle_gamma   107.27127691
_symmetry_Int_Tables_number   1
_chemical_formula_structural   Y10Lu2ZnCo4Sn
_chemical_formula_sum   'Y10 Lu2 Zn1 Co4 Sn1'
_cell_volume   443.99646893
_cell_formula_units_Z   1
loop_
 _symmetry_equiv_pos_site_id
 _symmetry_equiv_pos_as_xyz
  1  'x, y, z'
loop_
 _atom_site_type_symbol
 _atom_site_label
 _atom_site_symmetry_multiplicity
 _atom_site_fract_x
 _atom_site_fract_y
 _atom_site_fract_z
 _atom_site_occupancy
  Y  Y0  1  0.428744  0.227707  0.198050  1
  Y  Y1  1  0.571256  0.772293  0.801950  1
  Y  Y2  1  0.029657  0.227707  0.798963  1
  Y  Y3  1  0.970343  0.772293  0.201037  1
  Y  Y4  1  0.180397  0.282317  0.464774  1
  Y  Y5  1  0.819603  0.717683  0.535226  1
  Y  Y6  1  0.182459  0.717683  0.898080  1
  Y  Y7  1  0.817541  0.282317  0.101920  1
  Y  Y8  1  0.324722  0.636298  0.311575  1
  Y  Y9  1  0.675278  0.363702  0.688425  1
  Lu  Lu10  1  0.324534  0.010085  0.685552  1
  Lu  Lu11  1  0.675466  0.989915  0.314448  1
  Zn  Zn12  1  0.000000  0.000000  0.000000  1
  Co  Co13  1  0.347543  0.000000  0.347543  1
  Co  Co14  1  0.652457  0.000000  0.652457  1
  Co  Co15  1  0.114247  0.615888  0.501641  1
  Co  Co16  1  0.885753  0.384112  0.498359  1
  Sn  Sn17  1  0.500000  0.500000  0.000000  1
