# generated using pymatgen
data_Zr8Nb12Si15Ge
_symmetry_space_group_name_H-M   'P 1'
_cell_length_a   6.71934220
_cell_length_b   6.89491003
_cell_length_c   13.17477900
_cell_angle_alpha   90.00000000
_cell_angle_beta   90.00000000
_cell_angle_gamma   90.01928444
_symmetry_Int_Tables_number   1
_chemical_formula_structural   Zr8Nb12Si15Ge
_chemical_formula_sum   'Zr8 Nb12 Si15 Ge1'
_cell_volume   610.37772611
_cell_formula_units_Z   1
loop_
 _symmetry_equiv_pos_site_id
 _symmetry_equiv_pos_as_xyz
  1  'x, y, z'
loop_
 _atom_site_type_symbol
 _atom_site_label
 _atom_site_symmetry_multiplicity
 _atom_site_fract_x
 _atom_site_fract_y
 _atom_site_fract_z
 _atom_site_occupancy
  Zr  Zr0  1  0.497646  0.673388  0.594770  1
  Zr  Zr1  1  0.997480  0.826444  0.905608  1
  Zr  Zr2  1  0.500782  0.326838  0.093493  1
  Zr  Zr3  1  0.004988  0.170900  0.407935  1
  Zr  Zr4  1  0.500782  0.326838  0.406507  1
  Zr  Zr5  1  0.004988  0.170900  0.092065  1
  Zr  Zr6  1  0.497646  0.673388  0.905230  1
  Zr  Zr7  1  0.997480  0.826444  0.594392  1
  Nb  Nb8  1  0.663159  0.171378  0.623826  1
  Nb  Nb9  1  0.163145  0.328588  0.876271  1
  Nb  Nb10  1  0.336017  0.829409  0.123476  1
  Nb  Nb11  1  0.837138  0.673621  0.376999  1
  Nb  Nb12  1  0.336017  0.829409  0.376524  1
  Nb  Nb13  1  0.837138  0.673621  0.123001  1
  Nb  Nb14  1  0.663159  0.171378  0.876174  1
  Nb  Nb15  1  0.163145  0.328588  0.623729  1
  Nb  Nb16  1  0.837412  0.496339  0.750000  1
  Nb  Nb17  1  0.337765  0.004667  0.750000  1
  Nb  Nb18  1  0.164962  0.505568  0.250000  1
  Nb  Nb19  1  0.660604  0.992296  0.250000  1
  Si  Si20  1  0.669646  0.963199  0.461627  1
  Si  Si21  1  0.169949  0.537309  0.038539  1
  Si  Si22  1  0.329706  0.036990  0.960786  1
  Si  Si23  1  0.829305  0.462999  0.538696  1
  Si  Si24  1  0.329706  0.036990  0.539214  1
  Si  Si25  1  0.829305  0.462999  0.961304  1
  Si  Si26  1  0.669646  0.963199  0.038373  1
  Si  Si27  1  0.169949  0.537309  0.461461  1
  Si  Si28  1  0.461200  0.386293  0.750000  1
  Si  Si29  1  0.960977  0.114914  0.750000  1
  Si  Si30  1  0.537809  0.616028  0.250000  1
  Si  Si31  1  0.038745  0.885942  0.250000  1
  Si  Si32  1  0.704703  0.863438  0.750000  1
  Si  Si33  1  0.204512  0.636952  0.750000  1
  Si  Si34  1  0.295439  0.137528  0.250000  1
  Ge  Ge35  1  0.797948  0.357903  0.250000  1
