# generated using pymatgen
data_Pr16Cd4Ru3Au
_symmetry_space_group_name_H-M   'P 1'
_cell_length_a   10.05990657
_cell_length_b   10.05990713
_cell_length_c   10.05990697
_cell_angle_alpha   60.05237837
_cell_angle_beta   60.05237363
_cell_angle_gamma   60.05238400
_symmetry_Int_Tables_number   1
_chemical_formula_structural   Pr16Cd4Ru3Au
_chemical_formula_sum   'Pr16 Cd4 Ru3 Au1'
_cell_volume   720.74586223
_cell_formula_units_Z   1
loop_
 _symmetry_equiv_pos_site_id
 _symmetry_equiv_pos_as_xyz
  1  'x, y, z'
loop_
 _atom_site_type_symbol
 _atom_site_label
 _atom_site_symmetry_multiplicity
 _atom_site_fract_x
 _atom_site_fract_y
 _atom_site_fract_z
 _atom_site_occupancy
  Pr  Pr0  1  0.345024  0.345024  0.345024  1
  Pr  Pr1  1  0.355031  0.355031  0.948906  1
  Pr  Pr2  1  0.355031  0.948906  0.355031  1
  Pr  Pr3  1  0.948906  0.355031  0.355031  1
  Pr  Pr4  1  0.796422  0.191978  0.191978  1
  Pr  Pr5  1  0.189368  0.809783  0.809783  1
  Pr  Pr6  1  0.191978  0.796422  0.191978  1
  Pr  Pr7  1  0.809783  0.189368  0.809783  1
  Pr  Pr8  1  0.191978  0.191978  0.796422  1
  Pr  Pr9  1  0.809783  0.809783  0.189368  1
  Pr  Pr10  1  0.940687  0.562630  0.562630  1
  Pr  Pr11  1  0.564216  0.940052  0.940052  1
  Pr  Pr12  1  0.562630  0.940687  0.562630  1
  Pr  Pr13  1  0.940052  0.564216  0.940052  1
  Pr  Pr14  1  0.562630  0.562630  0.940687  1
  Pr  Pr15  1  0.940052  0.940052  0.564216  1
  Cd  Cd16  1  0.579934  0.579934  0.579934  1
  Cd  Cd17  1  0.578885  0.578885  0.261326  1
  Cd  Cd18  1  0.578885  0.261326  0.578885  1
  Cd  Cd19  1  0.261326  0.578885  0.578885  1
  Ru  Ru20  1  0.138082  0.138082  0.578899  1
  Ru  Ru21  1  0.138082  0.578899  0.138082  1
  Ru  Ru22  1  0.578899  0.138082  0.138082  1
  Au  Au23  1  0.142338  0.142338  0.142338  1
