# generated using pymatgen
data_LiCe2GaPt2
_symmetry_space_group_name_H-M   'P 1'
_cell_length_a   4.27189500
_cell_length_b   6.97044200
_cell_length_c   8.20868700
_cell_angle_alpha   90.00000000
_cell_angle_beta   90.00000000
_cell_angle_gamma   90.00000000
_symmetry_Int_Tables_number   1
_chemical_formula_structural   LiCe2GaPt2
_chemical_formula_sum   'Li2 Ce4 Ga2 Pt4'
_cell_volume   244.43004265
_cell_formula_units_Z   2
loop_
 _symmetry_equiv_pos_site_id
 _symmetry_equiv_pos_as_xyz
  1  'x, y, z'
loop_
 _atom_site_type_symbol
 _atom_site_label
 _atom_site_symmetry_multiplicity
 _atom_site_fract_x
 _atom_site_fract_y
 _atom_site_fract_z
 _atom_site_occupancy
  Li  Li0  1  0.250000  0.369048  0.560679  1
  Li  Li1  1  0.250000  0.869048  0.939321  1
  Ce  Ce2  1  0.250000  0.960628  0.311784  1
  Ce  Ce3  1  0.250000  0.460628  0.188216  1
  Ce  Ce4  1  0.750000  0.037068  0.692688  1
  Ce  Ce5  1  0.750000  0.537068  0.807312  1
  Ga  Ga6  1  0.750000  0.632973  0.437006  1
  Ga  Ga7  1  0.750000  0.132973  0.062994  1
  Pt  Pt8  1  0.250000  0.248170  0.885918  1
  Pt  Pt9  1  0.250000  0.748170  0.614082  1
  Pt  Pt10  1  0.750000  0.752113  0.115972  1
  Pt  Pt11  1  0.750000  0.252113  0.384028  1
