# generated using pymatgen
data_Ho2Ta5WO18
_symmetry_space_group_name_H-M   'P 1'
_cell_length_a   7.50941632
_cell_length_b   5.28529744
_cell_length_c   8.33160482
_cell_angle_alpha   87.62238156
_cell_angle_beta   90.14832013
_cell_angle_gamma   89.79372215
_symmetry_Int_Tables_number   1
_chemical_formula_structural   Ho2Ta5WO18
_chemical_formula_sum   'Ho2 Ta5 W1 O18'
_cell_volume   330.38916176
_cell_formula_units_Z   1
loop_
 _symmetry_equiv_pos_site_id
 _symmetry_equiv_pos_as_xyz
  1  'x, y, z'
loop_
 _atom_site_type_symbol
 _atom_site_label
 _atom_site_symmetry_multiplicity
 _atom_site_fract_x
 _atom_site_fract_y
 _atom_site_fract_z
 _atom_site_occupancy
  Ho  Ho0  1  0.247709  0.965226  0.435368  1
  Ho  Ho1  1  0.752291  0.034774  0.564632  1
  Ta  Ta2  1  0.500000  0.000000  0.000000  1
  Ta  Ta3  1  0.493561  0.527384  0.695559  1
  Ta  Ta4  1  0.007746  0.530529  0.696181  1
  Ta  Ta5  1  0.992254  0.469471  0.303819  1
  Ta  Ta6  1  0.506439  0.472616  0.304441  1
  W  W7  1  0.000000  0.000000  0.000000  1
  O  O8  1  0.246891  0.907493  0.977579  1
  O  O9  1  0.931996  0.855430  0.780669  1
  O  O10  1  0.563562  0.851103  0.786528  1
  O  O11  1  0.956003  0.742666  0.468207  1
  O  O12  1  0.543741  0.742733  0.467969  1
  O  O13  1  0.250672  0.666600  0.654091  1
  O  O14  1  0.945591  0.672047  0.122971  1
  O  O15  1  0.552186  0.675321  0.120579  1
  O  O16  1  0.250255  0.579594  0.314845  1
  O  O17  1  0.749745  0.420406  0.685155  1
  O  O18  1  0.054409  0.327953  0.877029  1
  O  O19  1  0.447814  0.324679  0.879421  1
  O  O20  1  0.749328  0.333400  0.345909  1
  O  O21  1  0.043997  0.257334  0.531793  1
  O  O22  1  0.456259  0.257267  0.532031  1
  O  O23  1  0.068004  0.144570  0.219331  1
  O  O24  1  0.436438  0.148897  0.213472  1
  O  O25  1  0.753109  0.092507  0.022421  1
