# generated using pymatgen
data_Ho4Sc4Re(TcB8)3
_symmetry_space_group_name_H-M   'P 1'
_cell_length_a   3.57947700
_cell_length_b   9.00813073
_cell_length_c   11.37757336
_cell_angle_alpha   90.02097906
_cell_angle_beta   90.00000000
_cell_angle_gamma   90.00000000
_symmetry_Int_Tables_number   1
_chemical_formula_structural   Ho4Sc4Re(TcB8)3
_chemical_formula_sum   'Ho4 Sc4 Re1 Tc3 B24'
_cell_volume   366.86296499
_cell_formula_units_Z   1
loop_
 _symmetry_equiv_pos_site_id
 _symmetry_equiv_pos_as_xyz
  1  'x, y, z'
loop_
 _atom_site_type_symbol
 _atom_site_label
 _atom_site_symmetry_multiplicity
 _atom_site_fract_x
 _atom_site_fract_y
 _atom_site_fract_z
 _atom_site_occupancy
  Ho  Ho0  1  0.000000  0.321897  0.414046  1
  Ho  Ho1  1  0.000000  0.678122  0.585818  1
  Ho  Ho2  1  0.000000  0.821686  0.086390  1
  Ho  Ho3  1  0.000000  0.178771  0.914031  1
  Sc  Sc4  1  0.000000  0.943808  0.369935  1
  Sc  Sc5  1  0.000000  0.056621  0.629358  1
  Sc  Sc6  1  0.000000  0.443633  0.130277  1
  Sc  Sc7  1  0.000000  0.555627  0.870174  1
  Re  Re8  1  0.000000  0.859576  0.818515  1
  Tc  Tc9  1  0.000000  0.640506  0.318621  1
  Tc  Tc10  1  0.000000  0.359386  0.681318  1
  Tc  Tc11  1  0.000000  0.140584  0.181677  1
  B  B12  1  0.500000  0.554258  0.432819  1
  B  B13  1  0.500000  0.445843  0.567140  1
  B  B14  1  0.500000  0.054292  0.067314  1
  B  B15  1  0.500000  0.946080  0.933085  1
  B  B16  1  0.500000  0.753988  0.418715  1
  B  B17  1  0.500000  0.246233  0.581138  1
  B  B18  1  0.500000  0.253967  0.081283  1
  B  B19  1  0.500000  0.745603  0.919050  1
  B  B20  1  0.500000  0.794943  0.264902  1
  B  B21  1  0.500000  0.205204  0.734919  1
  B  B22  1  0.500000  0.294836  0.235175  1
  B  B23  1  0.500000  0.704676  0.764848  1
  B  B24  1  0.500000  0.628814  0.183339  1
  B  B25  1  0.500000  0.371009  0.816701  1
  B  B26  1  0.500000  0.128925  0.316686  1
  B  B27  1  0.500000  0.871177  0.683014  1
  B  B28  1  0.500000  0.980967  0.213281  1
  B  B29  1  0.500000  0.019459  0.786555  1
  B  B30  1  0.500000  0.481057  0.286750  1
  B  B31  1  0.500000  0.518784  0.713302  1
  B  B32  1  0.500000  0.595662  0.026523  1
  B  B33  1  0.500000  0.403848  0.973740  1
  B  B34  1  0.500000  0.095900  0.473370  1
  B  B35  1  0.500000  0.904256  0.526189  1
