# generated using pymatgen
data_Hf13Zr7(NiAs3)4
_symmetry_space_group_name_H-M   'P 1'
_cell_length_a   3.70621100
_cell_length_b   10.44373297
_cell_length_c   17.56500313
_cell_angle_alpha   90.04526284
_cell_angle_beta   90.00000000
_cell_angle_gamma   90.00000000
_symmetry_Int_Tables_number   1
_chemical_formula_structural   Hf13Zr7(NiAs3)4
_chemical_formula_sum   'Hf13 Zr7 Ni4 As12'
_cell_volume   679.88270840
_cell_formula_units_Z   1
loop_
 _symmetry_equiv_pos_site_id
 _symmetry_equiv_pos_as_xyz
  1  'x, y, z'
loop_
 _atom_site_type_symbol
 _atom_site_label
 _atom_site_symmetry_multiplicity
 _atom_site_fract_x
 _atom_site_fract_y
 _atom_site_fract_z
 _atom_site_occupancy
  Hf  Hf0  1  0.250000  0.621048  0.978064  1
  Hf  Hf1  1  0.250000  0.937992  0.079636  1
  Hf  Hf2  1  0.750000  0.060500  0.920303  1
  Hf  Hf3  1  0.750000  0.438668  0.420085  1
  Hf  Hf4  1  0.250000  0.561554  0.579925  1
  Hf  Hf5  1  0.250000  0.240489  0.167776  1
  Hf  Hf6  1  0.750000  0.760175  0.832078  1
  Hf  Hf7  1  0.750000  0.740208  0.331868  1
  Hf  Hf8  1  0.250000  0.260243  0.668169  1
  Hf  Hf9  1  0.250000  0.512289  0.274478  1
  Hf  Hf10  1  0.750000  0.488290  0.725391  1
  Hf  Hf11  1  0.750000  0.012026  0.225077  1
  Hf  Hf12  1  0.250000  0.988192  0.775052  1
  Zr  Zr13  1  0.250000  0.184698  0.367271  1
  Zr  Zr14  1  0.750000  0.815597  0.632578  1
  Zr  Zr15  1  0.750000  0.684225  0.132006  1
  Zr  Zr16  1  0.250000  0.316091  0.867835  1
  Zr  Zr17  1  0.250000  0.879214  0.478070  1
  Zr  Zr18  1  0.750000  0.120872  0.521887  1
  Zr  Zr19  1  0.750000  0.379419  0.021701  1
  Ni  Ni20  1  0.250000  0.627880  0.410229  1
  Ni  Ni21  1  0.750000  0.372184  0.589599  1
  Ni  Ni22  1  0.750000  0.126744  0.089400  1
  Ni  Ni23  1  0.250000  0.870461  0.911449  1
  As  As24  1  0.250000  0.489056  0.118546  1
  As  As25  1  0.750000  0.512703  0.881464  1
  As  As26  1  0.750000  0.988862  0.380620  1
  As  As27  1  0.250000  0.011448  0.619445  1
  As  As28  1  0.250000  0.811909  0.221178  1
  As  As29  1  0.750000  0.188195  0.778947  1
  As  As30  1  0.750000  0.312487  0.278444  1
  As  As31  1  0.250000  0.687962  0.721511  1
  As  As32  1  0.250000  0.185352  0.007894  1
  As  As33  1  0.750000  0.812890  0.992013  1
  As  As34  1  0.750000  0.685631  0.492037  1
  As  As35  1  0.250000  0.314445  0.507973  1
