# generated using pymatgen
data_Ac2Si3Au
_symmetry_space_group_name_H-M   'P 1'
_cell_length_a   4.36794916
_cell_length_b   4.52574816
_cell_length_c   8.01337060
_cell_angle_alpha   73.59726260
_cell_angle_beta   74.18445476
_cell_angle_gamma   90.00000212
_symmetry_Int_Tables_number   1
_chemical_formula_structural   Ac2Si3Au
_chemical_formula_sum   'Ac2 Si3 Au1'
_cell_volume   145.70111931
_cell_formula_units_Z   1
loop_
 _symmetry_equiv_pos_site_id
 _symmetry_equiv_pos_as_xyz
  1  'x, y, z'
loop_
 _atom_site_type_symbol
 _atom_site_label
 _atom_site_symmetry_multiplicity
 _atom_site_fract_x
 _atom_site_fract_y
 _atom_site_fract_z
 _atom_site_occupancy
  Ac  Ac0  1  0.746025  0.246025  0.507951  1
  Ac  Ac1  1  0.003502  0.003502  0.992996  1
  Si  Si2  1  0.419404  0.419404  0.161192  1
  Si  Si3  1  0.164096  0.664096  0.671808  1
  Si  Si4  1  0.581636  0.581636  0.836728  1
  Au  Au5  1  0.335338  0.835338  0.329324  1
