# generated using pymatgen
data_K3InSi2O7
_symmetry_space_group_name_H-M   'P 1'
_cell_length_a   5.72569400
_cell_length_b   5.72569447
_cell_length_c   13.95949600
_cell_angle_alpha   90.00000000
_cell_angle_beta   90.00000000
_cell_angle_gamma   119.99999729
_symmetry_Int_Tables_number   1
_chemical_formula_structural   K3InSi2O7
_chemical_formula_sum   'K6 In2 Si4 O14'
_cell_volume   396.32976164
_cell_formula_units_Z   2
loop_
 _symmetry_equiv_pos_site_id
 _symmetry_equiv_pos_as_xyz
  1  'x, y, z'
loop_
 _atom_site_type_symbol
 _atom_site_label
 _atom_site_symmetry_multiplicity
 _atom_site_fract_x
 _atom_site_fract_y
 _atom_site_fract_z
 _atom_site_occupancy
  K  K0  1  0.333333  0.666667  0.408001  1
  K  K1  1  0.000000  0.000000  0.250000  1
  K  K2  1  0.666667  0.333333  0.591999  1
  K  K3  1  0.333333  0.666667  0.091999  1
  K  K4  1  0.666667  0.333333  0.908001  1
  K  K5  1  0.000000  0.000000  0.750000  1
  In  In6  1  0.000000  0.000000  0.500000  1
  In  In7  1  0.000000  0.000000  0.000000  1
  Si  Si8  1  0.333333  0.666667  0.630600  1
  Si  Si9  1  0.666667  0.333333  0.369400  1
  Si  Si10  1  0.666667  0.333333  0.130600  1
  Si  Si11  1  0.333333  0.666667  0.869400  1
  O  O12  1  0.351359  0.175679  0.404084  1
  O  O13  1  0.824321  0.175679  0.095916  1
  O  O14  1  0.175679  0.351359  0.595916  1
  O  O15  1  0.175679  0.824321  0.904084  1
  O  O16  1  0.648641  0.824321  0.904084  1
  O  O17  1  0.648641  0.824321  0.595916  1
  O  O18  1  0.351359  0.175679  0.095916  1
  O  O19  1  0.175679  0.824321  0.595916  1
  O  O20  1  0.824321  0.175679  0.404084  1
  O  O21  1  0.175679  0.351359  0.904084  1
  O  O22  1  0.824321  0.648641  0.095916  1
  O  O23  1  0.824321  0.648641  0.404084  1
  O  O24  1  0.666667  0.333333  0.250000  1
  O  O25  1  0.333333  0.666667  0.750000  1
