# generated using pymatgen
data_LiTb7Y2Cd3Ru
_symmetry_space_group_name_H-M   'P 1'
_cell_length_a   9.52422009
_cell_length_b   9.52651291
_cell_length_c   9.70925300
_cell_angle_alpha   90.00000000
_cell_angle_beta   90.00000000
_cell_angle_gamma   120.00767848
_symmetry_Int_Tables_number   1
_chemical_formula_structural   LiTb7Y2Cd3Ru
_chemical_formula_sum   'Li2 Tb14 Y4 Cd6 Ru2'
_cell_volume   762.86242580
_cell_formula_units_Z   2
loop_
 _symmetry_equiv_pos_site_id
 _symmetry_equiv_pos_as_xyz
  1  'x, y, z'
loop_
 _atom_site_type_symbol
 _atom_site_label
 _atom_site_symmetry_multiplicity
 _atom_site_fract_x
 _atom_site_fract_y
 _atom_site_fract_z
 _atom_site_occupancy
  Li  Li0  1  0.999967  0.999984  0.500129  1
  Li  Li1  1  0.999967  0.999984  0.999871  1
  Tb  Tb2  1  0.208351  0.791641  0.441312  1
  Tb  Tb3  1  0.208351  0.416711  0.441312  1
  Tb  Tb4  1  0.583315  0.791658  0.441332  1
  Tb  Tb5  1  0.791681  0.208246  0.558647  1
  Tb  Tb6  1  0.791680  0.583435  0.558648  1
  Tb  Tb7  1  0.416748  0.208374  0.558728  1
  Tb  Tb8  1  0.791681  0.208246  0.941353  1
  Tb  Tb9  1  0.791680  0.583435  0.941352  1
  Tb  Tb10  1  0.416748  0.208374  0.941272  1
  Tb  Tb11  1  0.208351  0.791641  0.058688  1
  Tb  Tb12  1  0.208351  0.416711  0.058688  1
  Tb  Tb13  1  0.583315  0.791658  0.058668  1
  Tb  Tb14  1  0.542465  0.457725  0.250000  1
  Tb  Tb15  1  0.542466  0.084743  0.250000  1
  Y  Y16  1  0.915220  0.457609  0.250000  1
  Y  Y17  1  0.457663  0.542289  0.750000  1
  Y  Y18  1  0.457662  0.915369  0.750000  1
  Y  Y19  1  0.084435  0.542216  0.750000  1
  Cd  Cd20  1  0.891897  0.108198  0.250000  1
  Cd  Cd21  1  0.891896  0.783700  0.250000  1
  Cd  Cd22  1  0.216341  0.108172  0.250000  1
  Cd  Cd23  1  0.108255  0.891709  0.750000  1
  Cd  Cd24  1  0.108255  0.216545  0.750000  1
  Cd  Cd25  1  0.783333  0.891666  0.750000  1
  Ru  Ru26  1  0.333399  0.666698  0.250000  1
  Ru  Ru27  1  0.666529  0.333266  0.750000  1
