# generated using pymatgen
data_DyYPI2
_symmetry_space_group_name_H-M   'P 1'
_cell_length_a   4.11250900
_cell_length_b   4.11250988
_cell_length_c   11.40063800
_cell_angle_alpha   90.00000000
_cell_angle_beta   90.00000000
_cell_angle_gamma   120.00000093
_symmetry_Int_Tables_number   1
_chemical_formula_structural   DyYPI2
_chemical_formula_sum   'Dy1 Y1 P1 I2'
_cell_volume   166.98351539
_cell_formula_units_Z   1
loop_
 _symmetry_equiv_pos_site_id
 _symmetry_equiv_pos_as_xyz
  1  'x, y, z'
loop_
 _atom_site_type_symbol
 _atom_site_label
 _atom_site_symmetry_multiplicity
 _atom_site_fract_x
 _atom_site_fract_y
 _atom_site_fract_z
 _atom_site_occupancy
  Dy  Dy0  1  0.333334  0.666667  0.870205  1
  Y  Y1  1  0.666667  0.333334  0.129900  1
  P  P2  1  0.000000  0.000000  0.999755  1
  I  I3  1  0.333334  0.666667  0.310093  1
  I  I4  1  0.666667  0.333334  0.690046  1
