# generated using pymatgen
data_Ho20IrPt5Rh6
_symmetry_space_group_name_H-M   'P 1'
_cell_length_a   10.95713053
_cell_length_b   10.95716123
_cell_length_c   6.31925410
_cell_angle_alpha   89.98865866
_cell_angle_beta   89.98855076
_cell_angle_gamma   90.47005336
_symmetry_Int_Tables_number   1
_chemical_formula_structural   Ho20IrPt5Rh6
_chemical_formula_sum   'Ho20 Ir1 Pt5 Rh6'
_cell_volume   758.65805564
_cell_formula_units_Z   1
loop_
 _symmetry_equiv_pos_site_id
 _symmetry_equiv_pos_as_xyz
  1  'x, y, z'
loop_
 _atom_site_type_symbol
 _atom_site_label
 _atom_site_symmetry_multiplicity
 _atom_site_fract_x
 _atom_site_fract_y
 _atom_site_fract_z
 _atom_site_occupancy
  Ho  Ho0  1  0.293819  0.085517  0.375530  1
  Ho  Ho1  1  0.291824  0.906551  0.878991  1
  Ho  Ho2  1  0.708227  0.089411  0.878864  1
  Ho  Ho3  1  0.706193  0.913402  0.374878  1
  Ho  Ho4  1  0.583915  0.792679  0.873343  1
  Ho  Ho5  1  0.590425  0.206580  0.375824  1
  Ho  Ho6  1  0.408015  0.791253  0.379522  1
  Ho  Ho7  1  0.412367  0.205134  0.874880  1
  Ho  Ho8  1  0.207317  0.416090  0.626647  1
  Ho  Ho9  1  0.208744  0.591980  0.120489  1
  Ho  Ho10  1  0.793421  0.409577  0.124180  1
  Ho  Ho11  1  0.794871  0.587629  0.625110  1
  Ho  Ho12  1  0.914485  0.706179  0.124477  1
  Ho  Ho13  1  0.910592  0.291775  0.621132  1
  Ho  Ho14  1  0.093448  0.708174  0.620998  1
  Ho  Ho15  1  0.086595  0.293808  0.125129  1
  Ho  Ho16  1  0.999617  0.999647  0.500040  1
  Ho  Ho17  1  0.000350  0.000383  0.999960  1
  Ho  Ho18  1  0.498277  0.500931  0.000208  1
  Ho  Ho19  1  0.499069  0.501721  0.499790  1
  Ir  Ir20  1  0.346619  0.653377  0.749999  1
  Pt  Pt21  1  0.843790  0.844881  0.750817  1
  Pt  Pt22  1  0.155114  0.156213  0.749181  1
  Pt  Pt23  1  0.653849  0.346151  0.750002  1
  Pt  Pt24  1  0.656009  0.655205  0.249944  1
  Pt  Pt25  1  0.344790  0.343997  0.250054  1
  Rh  Rh26  1  0.846258  0.153757  0.250002  1
  Rh  Rh27  1  0.152675  0.847315  0.250006  1
  Rh  Rh28  1  0.500237  0.000465  0.123895  1
  Rh  Rh29  1  0.500003  0.000460  0.623985  1
  Rh  Rh30  1  0.999545  0.499994  0.876015  1
  Rh  Rh31  1  0.999542  0.499765  0.376106  1
