# generated using pymatgen
data_CeTm3MgCo
_symmetry_space_group_name_H-M   'P 1'
_cell_length_a   9.51243643
_cell_length_b   9.51232054
_cell_length_c   9.51287951
_cell_angle_alpha   59.70837949
_cell_angle_beta   59.70915696
_cell_angle_gamma   59.70885802
_symmetry_Int_Tables_number   1
_chemical_formula_structural   CeTm3MgCo
_chemical_formula_sum   'Ce4 Tm12 Mg4 Co4'
_cell_volume   604.63483310
_cell_formula_units_Z   4
loop_
 _symmetry_equiv_pos_site_id
 _symmetry_equiv_pos_as_xyz
  1  'x, y, z'
loop_
 _atom_site_type_symbol
 _atom_site_label
 _atom_site_symmetry_multiplicity
 _atom_site_fract_x
 _atom_site_fract_y
 _atom_site_fract_z
 _atom_site_occupancy
  Ce  Ce0  1  0.342803  0.342868  0.342879  1
  Ce  Ce1  1  0.344023  0.344071  0.968956  1
  Ce  Ce2  1  0.344105  0.968764  0.344111  1
  Ce  Ce3  1  0.968675  0.344154  0.344123  1
  Tm  Tm4  1  0.813160  0.186321  0.186318  1
  Tm  Tm5  1  0.184582  0.814785  0.814649  1
  Tm  Tm6  1  0.186382  0.813129  0.186315  1
  Tm  Tm7  1  0.814810  0.184533  0.814651  1
  Tm  Tm8  1  0.186366  0.186299  0.813078  1
  Tm  Tm9  1  0.814718  0.814715  0.184542  1
  Tm  Tm10  1  0.936471  0.564884  0.564837  1
  Tm  Tm11  1  0.563996  0.936677  0.936729  1
  Tm  Tm12  1  0.564948  0.936453  0.564830  1
  Tm  Tm13  1  0.936729  0.563910  0.936735  1
  Tm  Tm14  1  0.565020  0.564942  0.936377  1
  Tm  Tm15  1  0.936857  0.936814  0.563784  1
  Mg  Mg16  1  0.579671  0.579625  0.579612  1
  Mg  Mg17  1  0.579124  0.579031  0.260004  1
  Mg  Mg18  1  0.579154  0.259957  0.579110  1
  Mg  Mg19  1  0.260006  0.579058  0.579107  1
  Co  Co20  1  0.145388  0.145599  0.145814  1
  Co  Co21  1  0.145463  0.145637  0.562093  1
  Co  Co22  1  0.145294  0.562327  0.145708  1
  Co  Co23  1  0.562257  0.145449  0.145639  1
