# generated using pymatgen
data_Ca2DyHo2AgPb3
_symmetry_space_group_name_H-M   'P 1'
_cell_length_a   9.32030200
_cell_length_b   9.32061953
_cell_length_c   6.82526900
_cell_angle_alpha   90.00000000
_cell_angle_beta   90.00000000
_cell_angle_gamma   120.00114085
_symmetry_Int_Tables_number   1
_chemical_formula_structural   Ca2DyHo2AgPb3
_chemical_formula_sum   'Ca4 Dy2 Ho4 Ag2 Pb6'
_cell_volume   513.47603230
_cell_formula_units_Z   2
loop_
 _symmetry_equiv_pos_site_id
 _symmetry_equiv_pos_as_xyz
  1  'x, y, z'
loop_
 _atom_site_type_symbol
 _atom_site_label
 _atom_site_symmetry_multiplicity
 _atom_site_fract_x
 _atom_site_fract_y
 _atom_site_fract_z
 _atom_site_occupancy
  Ca  Ca0  1  0.666726  0.333299  0.500060  1
  Ca  Ca1  1  0.333274  0.666574  0.500060  1
  Ca  Ca2  1  0.333274  0.666574  0.999940  1
  Ca  Ca3  1  0.666726  0.333299  0.999940  1
  Dy  Dy4  1  0.729474  0.729444  0.250000  1
  Dy  Dy5  1  0.270526  0.999970  0.250000  1
  Ho  Ho6  1  0.000000  0.270394  0.250000  1
  Ho  Ho7  1  0.270530  0.270525  0.750000  1
  Ho  Ho8  1  0.729470  0.999995  0.750000  1
  Ho  Ho9  1  0.000000  0.729578  0.750000  1
  Ag  Ag10  1  0.000000  0.000264  0.500397  1
  Ag  Ag11  1  0.000000  0.000264  0.999603  1
  Pb  Pb12  1  0.378822  0.378956  0.250000  1
  Pb  Pb13  1  0.621178  0.000133  0.250000  1
  Pb  Pb14  1  0.000000  0.620744  0.250000  1
  Pb  Pb15  1  0.620978  0.620959  0.750000  1
  Pb  Pb16  1  0.379022  0.999981  0.750000  1
  Pb  Pb17  1  0.000000  0.379045  0.750000  1
