# generated using pymatgen
data_Cs4NdUBr12
_symmetry_space_group_name_H-M   'P 1'
_cell_length_a   8.10921800
_cell_length_b   8.10921800
_cell_length_c   11.93237600
_cell_angle_alpha   90.00000000
_cell_angle_beta   90.00000000
_cell_angle_gamma   90.00000000
_symmetry_Int_Tables_number   1
_chemical_formula_structural   Cs4NdUBr12
_chemical_formula_sum   'Cs4 Nd1 U1 Br12'
_cell_volume   784.66608407
_cell_formula_units_Z   1
loop_
 _symmetry_equiv_pos_site_id
 _symmetry_equiv_pos_as_xyz
  1  'x, y, z'
loop_
 _atom_site_type_symbol
 _atom_site_label
 _atom_site_symmetry_multiplicity
 _atom_site_fract_x
 _atom_site_fract_y
 _atom_site_fract_z
 _atom_site_occupancy
  Cs  Cs0  1  0.500000  0.000000  0.793820  1
  Cs  Cs1  1  0.500000  0.000000  0.206180  1
  Cs  Cs2  1  0.000000  0.500000  0.206180  1
  Cs  Cs3  1  0.000000  0.500000  0.793820  1
  Nd  Nd4  1  0.000000  0.000000  0.000000  1
  U  U5  1  0.500000  0.500000  0.500000  1
  Br  Br6  1  0.746531  0.252030  0.000000  1
  Br  Br7  1  0.253469  0.747970  0.000000  1
  Br  Br8  1  0.500000  0.500000  0.272193  1
  Br  Br9  1  0.332048  0.213272  0.500000  1
  Br  Br10  1  0.252030  0.253469  0.000000  1
  Br  Br11  1  0.786728  0.332048  0.500000  1
  Br  Br12  1  0.000000  0.000000  0.243329  1
  Br  Br13  1  0.667952  0.786728  0.500000  1
  Br  Br14  1  0.213272  0.667952  0.500000  1
  Br  Br15  1  0.500000  0.500000  0.727807  1
  Br  Br16  1  0.747970  0.746531  0.000000  1
  Br  Br17  1  0.000000  0.000000  0.756671  1
