# generated using pymatgen
data_NdPuZnSb4
_symmetry_space_group_name_H-M   'P 1'
_cell_length_a   4.41070200
_cell_length_b   4.39896900
_cell_length_c   9.76663100
_cell_angle_alpha   90.00000000
_cell_angle_beta   90.00000000
_cell_angle_gamma   90.00000000
_symmetry_Int_Tables_number   1
_chemical_formula_structural   NdPuZnSb4
_chemical_formula_sum   'Nd1 Pu1 Zn1 Sb4'
_cell_volume   189.49746199
_cell_formula_units_Z   1
loop_
 _symmetry_equiv_pos_site_id
 _symmetry_equiv_pos_as_xyz
  1  'x, y, z'
loop_
 _atom_site_type_symbol
 _atom_site_label
 _atom_site_symmetry_multiplicity
 _atom_site_fract_x
 _atom_site_fract_y
 _atom_site_fract_z
 _atom_site_occupancy
  Nd  Nd0  1  0.000000  0.500000  0.248126  1
  Pu  Pu1  1  0.500000  0.000000  0.742526  1
  Zn  Zn2  1  0.500000  0.500000  0.506573  1
  Sb  Sb3  1  0.500000  0.000000  0.350345  1
  Sb  Sb4  1  0.000000  0.500000  0.670272  1
  Sb  Sb5  1  0.500000  0.500000  0.990739  1
  Sb  Sb6  1  0.000000  0.000000  0.991419  1
