# generated using pymatgen
data_TiInRh3Se8
_symmetry_space_group_name_H-M   'P 1'
_cell_length_a   7.33233411
_cell_length_b   7.33233404
_cell_length_c   7.33233534
_cell_angle_alpha   62.91033370
_cell_angle_beta   62.91031185
_cell_angle_gamma   62.91033646
_symmetry_Int_Tables_number   1
_chemical_formula_structural   TiInRh3Se8
_chemical_formula_sum   'Ti1 In1 Rh3 Se8'
_cell_volume   296.77063815
_cell_formula_units_Z   1
loop_
 _symmetry_equiv_pos_site_id
 _symmetry_equiv_pos_as_xyz
  1  'x, y, z'
loop_
 _atom_site_type_symbol
 _atom_site_label
 _atom_site_symmetry_multiplicity
 _atom_site_fract_x
 _atom_site_fract_y
 _atom_site_fract_z
 _atom_site_occupancy
  Ti  Ti0  1  0.592079  0.592079  0.592079  1
  In  In1  1  0.016719  0.016719  0.016719  1
  Rh  Rh2  1  0.625344  0.625344  0.139638  1
  Rh  Rh3  1  0.625344  0.139638  0.625344  1
  Rh  Rh4  1  0.139638  0.625344  0.625344  1
  Se  Se5  1  0.367805  0.367805  0.867850  1
  Se  Se6  1  0.367805  0.867850  0.367805  1
  Se  Se7  1  0.867850  0.367805  0.367805  1
  Se  Se8  1  0.389700  0.389700  0.389700  1
  Se  Se9  1  0.853915  0.853915  0.434156  1
  Se  Se10  1  0.853915  0.434156  0.853915  1
  Se  Se11  1  0.434156  0.853915  0.853915  1
  Se  Se12  1  0.865728  0.865728  0.865728  1
