# generated using pymatgen
data_CsZnRhF6
_symmetry_space_group_name_H-M   'P 1'
_cell_length_a   7.55460078
_cell_length_b   7.55460068
_cell_length_c   7.55460040
_cell_angle_alpha   120.57879999
_cell_angle_beta   120.85187906
_cell_angle_gamma   88.76555979
_symmetry_Int_Tables_number   1
_chemical_formula_structural   CsZnRhF6
_chemical_formula_sum   'Cs2 Zn2 Rh2 F12'
_cell_volume   301.49890471
_cell_formula_units_Z   2
loop_
 _symmetry_equiv_pos_site_id
 _symmetry_equiv_pos_as_xyz
  1  'x, y, z'
loop_
 _atom_site_type_symbol
 _atom_site_label
 _atom_site_symmetry_multiplicity
 _atom_site_fract_x
 _atom_site_fract_y
 _atom_site_fract_z
 _atom_site_occupancy
  Cs  Cs0  1  0.367703  0.617703  0.750000  1
  Cs  Cs1  1  0.632297  0.382297  0.250000  1
  Zn  Zn2  1  0.000000  0.000000  0.500000  1
  Zn  Zn3  1  0.000000  0.500000  0.000000  1
  Rh  Rh4  1  0.000000  0.000000  0.000000  1
  Rh  Rh5  1  0.500000  0.000000  0.500000  1
  F  F6  1  0.322799  0.072799  0.250000  1
  F  F7  1  0.935753  0.685753  0.250000  1
  F  F8  1  0.331299  0.680185  0.255326  1
  F  F9  1  0.924858  0.075973  0.244674  1
  F  F10  1  0.331299  0.075973  0.651115  1
  F  F11  1  0.924858  0.680185  0.848885  1
  F  F12  1  0.677201  0.927201  0.750000  1
  F  F13  1  0.064247  0.314247  0.750000  1
  F  F14  1  0.668701  0.319815  0.744674  1
  F  F15  1  0.075142  0.924027  0.755326  1
  F  F16  1  0.668701  0.924027  0.348885  1
  F  F17  1  0.075142  0.319815  0.151115  1
