# generated using pymatgen
data_Tb4TaVOs6
_symmetry_space_group_name_H-M   'P 1'
_cell_length_a   5.26170219
_cell_length_b   5.26170118
_cell_length_c   9.00864800
_cell_angle_alpha   90.00000000
_cell_angle_beta   90.00000000
_cell_angle_gamma   116.16568034
_symmetry_Int_Tables_number   1
_chemical_formula_structural   Tb4TaVOs6
_chemical_formula_sum   'Tb4 Ta1 V1 Os6'
_cell_volume   223.85020028
_cell_formula_units_Z   1
loop_
 _symmetry_equiv_pos_site_id
 _symmetry_equiv_pos_as_xyz
  1  'x, y, z'
loop_
 _atom_site_type_symbol
 _atom_site_label
 _atom_site_symmetry_multiplicity
 _atom_site_fract_x
 _atom_site_fract_y
 _atom_site_fract_z
 _atom_site_occupancy
  Tb  Tb0  1  0.329161  0.670839  0.438942  1
  Tb  Tb1  1  0.668856  0.331144  0.567112  1
  Tb  Tb2  1  0.668856  0.331144  0.932888  1
  Tb  Tb3  1  0.329161  0.670839  0.061058  1
  Ta  Ta4  1  0.842085  0.157915  0.250000  1
  V  V5  1  0.159063  0.840937  0.750000  1
  Os  Os6  1  0.001748  0.998252  0.506133  1
  Os  Os7  1  0.001748  0.998252  0.993867  1
  Os  Os8  1  0.823894  0.649559  0.250000  1
  Os  Os9  1  0.350441  0.176106  0.250000  1
  Os  Os10  1  0.176643  0.351654  0.750000  1
  Os  Os11  1  0.648346  0.823357  0.750000  1
