# generated using pymatgen
data_MnAl5(Pd2Pt3)2
_symmetry_space_group_name_H-M   'P 1'
_cell_length_a   4.06825400
_cell_length_b   5.44666896
_cell_length_c   10.70476425
_cell_angle_alpha   89.73278649
_cell_angle_beta   90.00000000
_cell_angle_gamma   90.00000000
_symmetry_Int_Tables_number   1
_chemical_formula_structural   MnAl5(Pd2Pt3)2
_chemical_formula_sum   'Mn1 Al5 Pd4 Pt6'
_cell_volume   237.19821965
_cell_formula_units_Z   1
loop_
 _symmetry_equiv_pos_site_id
 _symmetry_equiv_pos_as_xyz
  1  'x, y, z'
loop_
 _atom_site_type_symbol
 _atom_site_label
 _atom_site_symmetry_multiplicity
 _atom_site_fract_x
 _atom_site_fract_y
 _atom_site_fract_z
 _atom_site_occupancy
  Mn  Mn0  1  0.500000  0.185798  0.637407  1
  Al  Al1  1  0.500000  0.821895  0.360736  1
  Al  Al2  1  0.500000  0.680218  0.856962  1
  Al  Al3  1  0.500000  0.325686  0.140382  1
  Al  Al4  1  0.000000  0.482199  0.504611  1
  Al  Al5  1  0.000000  0.995434  0.998061  1
  Pd  Pd6  1  0.000000  0.437628  0.743450  1
  Pd  Pd7  1  0.000000  0.580231  0.268400  1
  Pd  Pd8  1  0.000000  0.935931  0.762174  1
  Pd  Pd9  1  0.000000  0.079571  0.230768  1
  Pt  Pt10  1  0.500000  0.299766  0.387646  1
  Pt  Pt11  1  0.500000  0.694129  0.608118  1
  Pt  Pt12  1  0.500000  0.803271  0.108315  1
  Pt  Pt13  1  0.500000  0.196785  0.895484  1
  Pt  Pt14  1  0.000000  0.497786  0.004189  1
  Pt  Pt15  1  0.000000  0.983670  0.493298  1
