# generated using pymatgen
data_La2SmYB4I5
_symmetry_space_group_name_H-M   'P 1'
_cell_length_a   9.88079170
_cell_length_b   9.88079088
_cell_length_c   9.88210796
_cell_angle_alpha   75.28622885
_cell_angle_beta   75.28622923
_cell_angle_gamma   25.30996678
_symmetry_Int_Tables_number   1
_chemical_formula_structural   La2SmYB4I5
_chemical_formula_sum   'La2 Sm1 Y1 B4 I5'
_cell_volume   398.24247702
_cell_formula_units_Z   1
loop_
 _symmetry_equiv_pos_site_id
 _symmetry_equiv_pos_as_xyz
  1  'x, y, z'
loop_
 _atom_site_type_symbol
 _atom_site_label
 _atom_site_symmetry_multiplicity
 _atom_site_fract_x
 _atom_site_fract_y
 _atom_site_fract_z
 _atom_site_occupancy
  La  La0  1  0.135098  0.135098  0.931175  1
  La  La1  1  0.866651  0.866651  0.069493  1
  Sm  Sm2  1  0.503247  0.503247  0.750794  1
  Y  Y3  1  0.498686  0.498686  0.243030  1
  B  B4  1  0.316117  0.685627  0.000000  1
  B  B5  1  0.685627  0.316117  0.000000  1
  B  B6  1  0.000759  0.000759  0.095916  1
  B  B7  1  0.000871  0.000871  0.904658  1
  I  I8  1  0.672643  0.672643  0.668232  1
  I  I9  1  0.331766  0.331766  0.332676  1
  I  I10  1  0.329502  0.329502  0.837962  1
  I  I11  1  0.670422  0.670422  0.163949  1
  I  I12  1  0.002911  0.002911  0.492316  1
