# generated using pymatgen
data_YLu4In4PtRh
_symmetry_space_group_name_H-M   'P 1'
_cell_length_a   3.56560700
_cell_length_b   8.04235113
_cell_length_c   18.02404101
_cell_angle_alpha   90.11946445
_cell_angle_beta   90.00000000
_cell_angle_gamma   90.00000000
_symmetry_Int_Tables_number   1
_chemical_formula_structural   YLu4In4PtRh
_chemical_formula_sum   'Y2 Lu8 In8 Pt2 Rh2'
_cell_volume   516.85381610
_cell_formula_units_Z   2
loop_
 _symmetry_equiv_pos_site_id
 _symmetry_equiv_pos_as_xyz
  1  'x, y, z'
loop_
 _atom_site_type_symbol
 _atom_site_label
 _atom_site_symmetry_multiplicity
 _atom_site_fract_x
 _atom_site_fract_y
 _atom_site_fract_z
 _atom_site_occupancy
  Y  Y0  1  0.000000  0.000000  0.000000  1
  Y  Y1  1  0.000000  0.500000  0.500000  1
  Lu  Lu2  1  0.000000  0.116124  0.412421  1
  Lu  Lu3  1  0.000000  0.883876  0.587579  1
  Lu  Lu4  1  0.000000  0.381892  0.912830  1
  Lu  Lu5  1  0.000000  0.618108  0.087170  1
  Lu  Lu6  1  0.000000  0.241204  0.222362  1
  Lu  Lu7  1  0.000000  0.758796  0.777638  1
  Lu  Lu8  1  0.000000  0.250742  0.721317  1
  Lu  Lu9  1  0.000000  0.749258  0.278683  1
  In  In10  1  0.500000  0.423918  0.351305  1
  In  In11  1  0.500000  0.576082  0.648695  1
  In  In12  1  0.500000  0.070635  0.849842  1
  In  In13  1  0.500000  0.929365  0.150158  1
  In  In14  1  0.500000  0.296130  0.066198  1
  In  In15  1  0.500000  0.703870  0.933802  1
  In  In16  1  0.500000  0.202934  0.567719  1
  In  In17  1  0.500000  0.797066  0.432281  1
  Pt  Pt18  1  0.500000  0.477441  0.803410  1
  Pt  Pt19  1  0.500000  0.522559  0.196590  1
  Rh  Rh20  1  0.500000  0.022921  0.304894  1
  Rh  Rh21  1  0.500000  0.977079  0.695106  1
