# generated using pymatgen
data_Sc20Bi11Ir
_symmetry_space_group_name_H-M   'P 1'
_cell_length_a   7.77300347
_cell_length_b   8.97561900
_cell_length_c   11.33736352
_cell_angle_alpha   90.00000000
_cell_angle_beta   90.09077441
_cell_angle_gamma   90.00000000
_symmetry_Int_Tables_number   1
_chemical_formula_structural   Sc20Bi11Ir
_chemical_formula_sum   'Sc20 Bi11 Ir1'
_cell_volume   790.97871602
_cell_formula_units_Z   1
loop_
 _symmetry_equiv_pos_site_id
 _symmetry_equiv_pos_as_xyz
  1  'x, y, z'
loop_
 _atom_site_type_symbol
 _atom_site_label
 _atom_site_symmetry_multiplicity
 _atom_site_fract_x
 _atom_site_fract_y
 _atom_site_fract_z
 _atom_site_occupancy
  Sc  Sc0  1  0.194484  0.064535  0.935172  1
  Sc  Sc1  1  0.311518  0.029902  0.440035  1
  Sc  Sc2  1  0.311518  0.470098  0.440035  1
  Sc  Sc3  1  0.339051  0.750000  0.702780  1
  Sc  Sc4  1  0.478768  0.750000  0.006356  1
  Sc  Sc5  1  0.163557  0.250000  0.216029  1
  Sc  Sc6  1  0.803951  0.934658  0.065147  1
  Sc  Sc7  1  0.632395  0.750000  0.297482  1
  Sc  Sc8  1  0.042120  0.750000  0.505696  1
  Sc  Sc9  1  0.672447  0.923246  0.558726  1
  Sc  Sc10  1  0.194484  0.435465  0.935172  1
  Sc  Sc11  1  0.341565  0.250000  0.716652  1
  Sc  Sc12  1  0.190158  0.750000  0.238051  1
  Sc  Sc13  1  0.986309  0.250000  0.491633  1
  Sc  Sc14  1  0.672447  0.576754  0.558726  1
  Sc  Sc15  1  0.685874  0.250000  0.267531  1
  Sc  Sc16  1  0.803951  0.565342  0.065147  1
  Sc  Sc17  1  0.519615  0.250000  0.993590  1
  Sc  Sc18  1  0.822479  0.250000  0.770343  1
  Sc  Sc19  1  0.839082  0.750000  0.786860  1
  Bi  Bi20  1  0.060576  0.490348  0.676513  1
  Bi  Bi21  1  0.564840  0.508901  0.825259  1
  Bi  Bi22  1  0.933447  0.987726  0.324453  1
  Bi  Bi23  1  0.435727  0.011791  0.174916  1
  Bi  Bi24  1  0.564840  0.991099  0.825259  1
  Bi  Bi25  1  0.098492  0.750000  0.977120  1
  Bi  Bi26  1  0.435727  0.488209  0.174916  1
  Bi  Bi27  1  0.060576  0.009652  0.676513  1
  Bi  Bi28  1  0.933447  0.512274  0.324453  1
  Bi  Bi29  1  0.597168  0.250000  0.523842  1
  Bi  Bi30  1  0.902071  0.250000  0.028223  1
  Ir  Ir31  1  0.407319  0.750000  0.477371  1
