# generated using pymatgen
data_Ac12HgIr2RhI12
_symmetry_space_group_name_H-M   'P 1'
_cell_length_a   11.58575102
_cell_length_b   11.58575166
_cell_length_c   11.58651420
_cell_angle_alpha   110.09115325
_cell_angle_beta   110.09116102
_cell_angle_gamma   110.03210069
_symmetry_Int_Tables_number   1
_chemical_formula_structural   Ac12HgIr2RhI12
_chemical_formula_sum   'Ac12 Hg1 Ir2 Rh1 I12'
_cell_volume   1169.87167095
_cell_formula_units_Z   1
loop_
 _symmetry_equiv_pos_site_id
 _symmetry_equiv_pos_as_xyz
  1  'x, y, z'
loop_
 _atom_site_type_symbol
 _atom_site_label
 _atom_site_symmetry_multiplicity
 _atom_site_fract_x
 _atom_site_fract_y
 _atom_site_fract_z
 _atom_site_occupancy
  Ac  Ac0  1  0.463651  0.494021  0.222581  1
  Ac  Ac1  1  0.751807  0.228733  0.273259  1
  Ac  Ac2  1  0.751046  0.020912  0.480183  1
  Ac  Ac3  1  0.223178  0.464225  0.494380  1
  Ac  Ac4  1  0.271267  0.748193  0.226741  1
  Ac  Ac5  1  0.035775  0.276822  0.005620  1
  Ac  Ac6  1  0.005979  0.036349  0.277419  1
  Ac  Ac7  1  0.479088  0.748954  0.019817  1
  Ac  Ac8  1  0.494046  0.223424  0.464150  1
  Ac  Ac9  1  0.020786  0.479214  0.750000  1
  Ac  Ac10  1  0.276576  0.005954  0.035850  1
  Ac  Ac11  1  0.227264  0.272736  0.750000  1
  Hg  Hg12  1  0.250212  0.249788  0.250000  1
  Ir  Ir13  1  0.996807  0.249685  0.502076  1
  Ir  Ir14  1  0.250315  0.503193  0.997924  1
  Rh  Rh15  1  0.502382  0.997618  0.250000  1
  I  I16  1  0.250261  0.764876  0.735717  1
  I  I17  1  0.517277  0.505713  0.755905  1
  I  I18  1  0.983333  0.744380  0.994314  1
  I  I19  1  0.735124  0.249739  0.764283  1
  I  I20  1  0.994287  0.982723  0.744095  1
  I  I21  1  0.250467  0.994425  0.506235  1
  I  I22  1  0.755620  0.516667  0.505686  1
  I  I23  1  0.505575  0.249533  0.993765  1
  I  I24  1  0.764415  0.735585  0.250000  1
  I  I25  1  0.744309  0.994584  0.983313  1
  I  I26  1  0.993736  0.506264  0.250000  1
  I  I27  1  0.505416  0.755691  0.516687  1
