# generated using pymatgen
data_Dy3Er5Mo2(OsC4)2
_symmetry_space_group_name_H-M   'P 1'
_cell_length_a   5.07182700
_cell_length_b   6.57476439
_cell_length_c   9.84966299
_cell_angle_alpha   89.11547016
_cell_angle_beta   90.00000000
_cell_angle_gamma   90.00000000
_symmetry_Int_Tables_number   1
_chemical_formula_structural   Dy3Er5Mo2(OsC4)2
_chemical_formula_sum   'Dy3 Er5 Mo2 Os2 C8'
_cell_volume   328.40838843
_cell_formula_units_Z   1
loop_
 _symmetry_equiv_pos_site_id
 _symmetry_equiv_pos_as_xyz
  1  'x, y, z'
loop_
 _atom_site_type_symbol
 _atom_site_label
 _atom_site_symmetry_multiplicity
 _atom_site_fract_x
 _atom_site_fract_y
 _atom_site_fract_z
 _atom_site_occupancy
  Dy  Dy0  1  0.750000  0.460524  0.781824  1
  Dy  Dy1  1  0.750000  0.967691  0.715209  1
  Dy  Dy2  1  0.250000  0.032739  0.284591  1
  Er  Er3  1  0.250000  0.676151  0.558181  1
  Er  Er4  1  0.750000  0.324441  0.441551  1
  Er  Er5  1  0.750000  0.826392  0.058625  1
  Er  Er6  1  0.250000  0.172884  0.941590  1
  Er  Er7  1  0.250000  0.539576  0.218431  1
  Mo  Mo8  1  0.250000  0.714682  0.868419  1
  Mo  Mo9  1  0.750000  0.285418  0.131827  1
  Os  Os10  1  0.750000  0.781157  0.367016  1
  Os  Os11  1  0.250000  0.219088  0.632516  1
  C  C12  1  0.250000  0.447300  0.757513  1
  C  C13  1  0.750000  0.552899  0.242169  1
  C  C14  1  0.750000  0.048590  0.260588  1
  C  C15  1  0.250000  0.951455  0.739524  1
  C  C16  1  0.250000  0.824430  0.053256  1
  C  C17  1  0.750000  0.173612  0.947719  1
  C  C18  1  0.750000  0.674617  0.549235  1
  C  C19  1  0.250000  0.326354  0.450217  1
