# generated using pymatgen
data_YEr3Al18(IrPd2)2
_symmetry_space_group_name_H-M   'P 1'
_cell_length_a   7.59822969
_cell_length_b   7.59936920
_cell_length_c   9.43077600
_cell_angle_alpha   90.00000000
_cell_angle_beta   90.00000000
_cell_angle_gamma   119.61925585
_symmetry_Int_Tables_number   1
_chemical_formula_structural   YEr3Al18(IrPd2)2
_chemical_formula_sum   'Y1 Er3 Al18 Ir2 Pd4'
_cell_volume   473.39263666
_cell_formula_units_Z   1
loop_
 _symmetry_equiv_pos_site_id
 _symmetry_equiv_pos_as_xyz
  1  'x, y, z'
loop_
 _atom_site_type_symbol
 _atom_site_label
 _atom_site_symmetry_multiplicity
 _atom_site_fract_x
 _atom_site_fract_y
 _atom_site_fract_z
 _atom_site_occupancy
  Y  Y0  1  0.994476  0.669011  0.250000  1
  Er  Er1  1  0.005571  0.330372  0.750000  1
  Er  Er2  1  0.669617  0.994552  0.250000  1
  Er  Er3  1  0.330712  0.005895  0.750000  1
  Al  Al4  1  0.128077  0.128348  0.250000  1
  Al  Al5  1  0.872032  0.872172  0.750000  1
  Al  Al6  1  0.999485  0.330977  0.076212  1
  Al  Al7  1  0.000530  0.668480  0.922560  1
  Al  Al8  1  0.000530  0.668480  0.577440  1
  Al  Al9  1  0.332078  0.000123  0.423803  1
  Al  Al10  1  0.999485  0.330977  0.423788  1
  Al  Al11  1  0.668406  0.000523  0.576994  1
  Al  Al12  1  0.668406  0.000523  0.923006  1
  Al  Al13  1  0.332078  0.000123  0.076197  1
  Al  Al14  1  0.330449  0.330437  0.557654  1
  Al  Al15  1  0.669191  0.669703  0.443352  1
  Al  Al16  1  0.669191  0.669703  0.056648  1
  Al  Al17  1  0.330449  0.330437  0.942346  1
  Al  Al18  1  0.341198  0.548293  0.250000  1
  Al  Al19  1  0.658991  0.451150  0.750000  1
  Al  Al20  1  0.547609  0.340139  0.250000  1
  Al  Al21  1  0.451231  0.659109  0.750000  1
  Ir  Ir22  1  0.000087  0.000360  0.999691  1
  Ir  Ir23  1  0.000087  0.000360  0.500309  1
  Pd  Pd24  1  0.672311  0.327426  0.999952  1
  Pd  Pd25  1  0.327707  0.672450  0.999959  1
  Pd  Pd26  1  0.327707  0.672450  0.500041  1
  Pd  Pd27  1  0.672311  0.327426  0.500048  1
