# generated using pymatgen
data_La6Pr6Ir3AuI12
_symmetry_space_group_name_H-M   'P 1'
_cell_length_a   11.07821105
_cell_length_b   11.08058862
_cell_length_c   11.08821022
_cell_angle_alpha   109.28105005
_cell_angle_beta   109.75777842
_cell_angle_gamma   110.48835671
_symmetry_Int_Tables_number   1
_chemical_formula_structural   La6Pr6Ir3AuI12
_chemical_formula_sum   'La6 Pr6 Ir3 Au1 I12'
_cell_volume   1033.04788025
_cell_formula_units_Z   1
loop_
 _symmetry_equiv_pos_site_id
 _symmetry_equiv_pos_as_xyz
  1  'x, y, z'
loop_
 _atom_site_type_symbol
 _atom_site_label
 _atom_site_symmetry_multiplicity
 _atom_site_fract_x
 _atom_site_fract_y
 _atom_site_fract_z
 _atom_site_occupancy
  La  La0  1  0.459938  0.489366  0.222338  1
  La  La1  1  0.743088  0.223466  0.269350  1
  La  La2  1  0.757511  0.025810  0.482156  1
  La  La3  1  0.218300  0.456214  0.489929  1
  La  La4  1  0.277022  0.757985  0.230846  1
  La  La5  1  0.039075  0.275928  0.010957  1
  Pr  Pr6  1  0.012539  0.037155  0.272707  1
  Pr  Pr7  1  0.478832  0.746872  0.017989  1
  Pr  Pr8  1  0.485577  0.224396  0.458869  1
  Pr  Pr9  1  0.023770  0.482400  0.755446  1
  Pr  Pr10  1  0.276188  0.012854  0.040789  1
  Pr  Pr11  1  0.227488  0.271079  0.748751  1
  Ir  Ir12  1  0.503338  0.998131  0.250528  1
  Ir  Ir13  1  0.997959  0.250109  0.499959  1
  Ir  Ir14  1  0.250611  0.500012  0.001800  1
  Au  Au15  1  0.249153  0.248400  0.248937  1
  I  I16  1  0.250523  0.761272  0.741768  1
  I  I17  1  0.515591  0.505030  0.756600  1
  I  I18  1  0.983868  0.743646  0.992139  1
  I  I19  1  0.738777  0.250979  0.758625  1
  I  I20  1  0.996057  0.984840  0.744575  1
  I  I21  1  0.249416  0.994814  0.507158  1
  I  I22  1  0.757544  0.515014  0.508310  1
  I  I23  1  0.504169  0.249095  0.991371  1
  I  I24  1  0.761136  0.741269  0.248527  1
  I  I25  1  0.742527  0.991363  0.985054  1
  I  I26  1  0.993318  0.505962  0.249611  1
  I  I27  1  0.506685  0.756542  0.514911  1
