# generated using pymatgen
data_Dy7Er13Sn13Sb3
_symmetry_space_group_name_H-M   'P 1'
_cell_length_a   8.06179194
_cell_length_b   8.11247614
_cell_length_c   15.31044644
_cell_angle_alpha   90.15272691
_cell_angle_beta   89.73560330
_cell_angle_gamma   89.97233815
_symmetry_Int_Tables_number   1
_chemical_formula_structural   Dy7Er13Sn13Sb3
_chemical_formula_sum   'Dy7 Er13 Sn13 Sb3'
_cell_volume   1001.30561629
_cell_formula_units_Z   1
loop_
 _symmetry_equiv_pos_site_id
 _symmetry_equiv_pos_as_xyz
  1  'x, y, z'
loop_
 _atom_site_type_symbol
 _atom_site_label
 _atom_site_symmetry_multiplicity
 _atom_site_fract_x
 _atom_site_fract_y
 _atom_site_fract_z
 _atom_site_occupancy
  Dy  Dy0  1  0.039175  0.174042  0.603468  1
  Dy  Dy1  1  0.461420  0.673774  0.397042  1
  Dy  Dy2  1  0.966419  0.822208  0.100395  1
  Dy  Dy3  1  0.472221  0.674429  0.098805  1
  Dy  Dy4  1  0.971094  0.824216  0.399281  1
  Dy  Dy5  1  0.528414  0.323871  0.600608  1
  Dy  Dy6  1  0.027367  0.179556  0.900115  1
  Er  Er7  1  0.373293  0.838030  0.878169  1
  Er  Er8  1  0.876218  0.660728  0.621917  1
  Er  Er9  1  0.624140  0.160171  0.378178  1
  Er  Er10  1  0.126975  0.337734  0.123067  1
  Er  Er11  1  0.627613  0.161471  0.121714  1
  Er  Er12  1  0.126118  0.338186  0.378207  1
  Er  Er13  1  0.373856  0.839234  0.621592  1
  Er  Er14  1  0.871810  0.662016  0.876604  1
  Er  Er15  1  0.533968  0.329156  0.898435  1
  Er  Er16  1  0.203163  0.502678  0.750072  1
  Er  Er17  1  0.703085  0.998620  0.752727  1
  Er  Er18  1  0.796487  0.497906  0.247896  1
  Er  Er19  1  0.296857  0.001466  0.251524  1
  Sn  Sn20  1  0.212964  0.533197  0.957828  1
  Sn  Sn21  1  0.713898  0.966003  0.957582  1
  Sn  Sn22  1  0.214996  0.533940  0.542583  1
  Sn  Sn23  1  0.285125  0.033730  0.457474  1
  Sn  Sn24  1  0.790407  0.463122  0.041356  1
  Sn  Sn25  1  0.569415  0.623570  0.748015  1
  Sn  Sn26  1  0.070692  0.877553  0.750160  1
  Sn  Sn27  1  0.430894  0.376325  0.250031  1
  Sn  Sn28  1  0.929276  0.122109  0.250974  1
  Sn  Sn29  1  0.340551  0.148681  0.751558  1
  Sn  Sn30  1  0.838349  0.352629  0.749061  1
  Sn  Sn31  1  0.660179  0.851925  0.249985  1
  Sn  Sn32  1  0.159484  0.646836  0.249333  1
  Sb  Sb33  1  0.283773  0.030861  0.044217  1
  Sb  Sb34  1  0.780616  0.469925  0.455796  1
  Sb  Sb35  1  0.719687  0.970101  0.544230  1
