# generated using pymatgen
data_Ca7Yb13(Bi2Sb)4
_symmetry_space_group_name_H-M   'P 1'
_cell_length_a   8.36929507
_cell_length_b   9.77483703
_cell_length_c   12.70363206
_cell_angle_alpha   89.99921534
_cell_angle_beta   90.01125606
_cell_angle_gamma   89.99087448
_symmetry_Int_Tables_number   1
_chemical_formula_structural   Ca7Yb13(Bi2Sb)4
_chemical_formula_sum   'Ca7 Yb13 Bi8 Sb4'
_cell_volume   1039.26499104
_cell_formula_units_Z   1
loop_
 _symmetry_equiv_pos_site_id
 _symmetry_equiv_pos_as_xyz
  1  'x, y, z'
loop_
 _atom_site_type_symbol
 _atom_site_label
 _atom_site_symmetry_multiplicity
 _atom_site_fract_x
 _atom_site_fract_y
 _atom_site_fract_z
 _atom_site_occupancy
  Ca  Ca0  1  0.308408  0.457812  0.424654  1
  Ca  Ca1  1  0.808412  0.542138  0.075336  1
  Ca  Ca2  1  0.691565  0.957843  0.575354  1
  Ca  Ca3  1  0.191567  0.042189  0.924668  1
  Ca  Ca4  1  0.691577  0.542148  0.575346  1
  Ca  Ca5  1  0.191631  0.457817  0.924641  1
  Ca  Ca6  1  0.308401  0.042192  0.424659  1
  Yb  Yb7  1  0.462673  0.750035  0.004182  1
  Yb  Yb8  1  0.962624  0.249996  0.495813  1
  Yb  Yb9  1  0.537431  0.249922  0.995802  1
  Yb  Yb10  1  0.037401  0.750002  0.504209  1
  Yb  Yb11  1  0.652527  0.750044  0.292770  1
  Yb  Yb12  1  0.152517  0.250002  0.207218  1
  Yb  Yb13  1  0.347481  0.249995  0.707219  1
  Yb  Yb14  1  0.847478  0.750023  0.792803  1
  Yb  Yb15  1  0.317943  0.750000  0.728082  1
  Yb  Yb16  1  0.817922  0.250005  0.771912  1
  Yb  Yb17  1  0.682083  0.249967  0.271901  1
  Yb  Yb18  1  0.182068  0.749996  0.228093  1
  Yb  Yb19  1  0.808328  0.957896  0.075412  1
  Bi  Bi20  1  0.436939  0.012112  0.171558  1
  Bi  Bi21  1  0.936653  0.987833  0.328245  1
  Bi  Bi22  1  0.563281  0.512133  0.828414  1
  Bi  Bi23  1  0.063235  0.487878  0.671584  1
  Bi  Bi24  1  0.563336  0.987858  0.828504  1
  Bi  Bi25  1  0.063180  0.012108  0.671589  1
  Bi  Bi26  1  0.436727  0.487880  0.171583  1
  Bi  Bi27  1  0.936742  0.512157  0.328398  1
  Sb  Sb28  1  0.078784  0.750106  0.984018  1
  Sb  Sb29  1  0.578930  0.250008  0.516009  1
  Sb  Sb30  1  0.921030  0.249907  0.016047  1
  Sb  Sb31  1  0.421127  0.750000  0.483976  1
