# generated using pymatgen
data_Pr2ZnCu11
_symmetry_space_group_name_H-M   'P 1'
_cell_length_a   5.19172600
_cell_length_b   8.13780462
_cell_length_c   10.22352646
_cell_angle_alpha   89.57697446
_cell_angle_beta   90.00000000
_cell_angle_gamma   90.00000000
_symmetry_Int_Tables_number   1
_chemical_formula_structural   Pr2ZnCu11
_chemical_formula_sum   'Pr4 Zn2 Cu22'
_cell_volume   431.92457086
_cell_formula_units_Z   2
loop_
 _symmetry_equiv_pos_site_id
 _symmetry_equiv_pos_as_xyz
  1  'x, y, z'
loop_
 _atom_site_type_symbol
 _atom_site_label
 _atom_site_symmetry_multiplicity
 _atom_site_fract_x
 _atom_site_fract_y
 _atom_site_fract_z
 _atom_site_occupancy
  Pr  Pr0  1  0.750000  0.238180  0.058082  1
  Pr  Pr1  1  0.250000  0.761820  0.941918  1
  Pr  Pr2  1  0.750000  0.741327  0.433510  1
  Pr  Pr3  1  0.250000  0.258673  0.566490  1
  Zn  Zn4  1  0.750000  0.352826  0.358159  1
  Zn  Zn5  1  0.250000  0.647174  0.641841  1
  Cu  Cu6  1  0.750000  0.852664  0.142659  1
  Cu  Cu7  1  0.250000  0.147336  0.857341  1
  Cu  Cu8  1  0.750000  0.681134  0.744531  1
  Cu  Cu9  1  0.250000  0.318866  0.255469  1
  Cu  Cu10  1  0.750000  0.181350  0.755625  1
  Cu  Cu11  1  0.250000  0.818650  0.244375  1
  Cu  Cu12  1  0.750000  0.932495  0.900983  1
  Cu  Cu13  1  0.250000  0.067505  0.099017  1
  Cu  Cu14  1  0.750000  0.434144  0.600008  1
  Cu  Cu15  1  0.250000  0.565856  0.399992  1
  Cu  Cu16  1  0.750000  0.599811  0.983030  1
  Cu  Cu17  1  0.250000  0.400189  0.016970  1
  Cu  Cu18  1  0.750000  0.095942  0.516805  1
  Cu  Cu19  1  0.250000  0.904058  0.483195  1
  Cu  Cu20  1  0.505334  0.064355  0.308704  1
  Cu  Cu21  1  0.005334  0.935645  0.691296  1
  Cu  Cu22  1  0.994979  0.565747  0.189066  1
  Cu  Cu23  1  0.494979  0.434253  0.810934  1
  Cu  Cu24  1  0.494666  0.935645  0.691296  1
  Cu  Cu25  1  0.994666  0.064355  0.308704  1
  Cu  Cu26  1  0.005021  0.434253  0.810934  1
  Cu  Cu27  1  0.505021  0.565747  0.189066  1
