# generated using pymatgen
data_Mg2Ni3AuO8
_symmetry_space_group_name_H-M   'P 1'
_cell_length_a   6.11965782
_cell_length_b   5.97195583
_cell_length_c   5.97186744
_cell_angle_alpha   60.04549621
_cell_angle_beta   60.80588764
_cell_angle_gamma   60.80410745
_symmetry_Int_Tables_number   1
_chemical_formula_structural   Mg2Ni3AuO8
_chemical_formula_sum   'Mg2 Ni3 Au1 O8'
_cell_volume   156.23200544
_cell_formula_units_Z   1
loop_
 _symmetry_equiv_pos_site_id
 _symmetry_equiv_pos_as_xyz
  1  'x, y, z'
loop_
 _atom_site_type_symbol
 _atom_site_label
 _atom_site_symmetry_multiplicity
 _atom_site_fract_x
 _atom_site_fract_y
 _atom_site_fract_z
 _atom_site_occupancy
  Mg  Mg0  1  0.090994  0.136478  0.136393  1
  Mg  Mg1  1  0.909015  0.863514  0.863608  1
  Ni  Ni2  1  0.499965  0.500007  0.000048  1
  Ni  Ni3  1  0.499989  0.500035  0.499938  1
  Ni  Ni4  1  0.500001  0.000025  0.499972  1
  Au  Au5  1  0.999948  0.499983  0.500063  1
  O  O6  1  0.751541  0.737698  0.737732  1
  O  O7  1  0.248530  0.262514  0.726664  1
  O  O8  1  0.248527  0.726663  0.262512  1
  O  O9  1  0.701422  0.266717  0.266246  1
  O  O10  1  0.751452  0.273385  0.737482  1
  O  O11  1  0.298690  0.733230  0.733721  1
  O  O12  1  0.248460  0.262263  0.262283  1
  O  O13  1  0.751467  0.737490  0.273337  1
