# generated using pymatgen
data_Rb3Sc(AsO4)2
_symmetry_space_group_name_H-M   'P 1'
_cell_length_a   5.83338600
_cell_length_b   5.83338646
_cell_length_c   8.19351900
_cell_angle_alpha   90.00000000
_cell_angle_beta   90.00000000
_cell_angle_gamma   119.99999738
_symmetry_Int_Tables_number   1
_chemical_formula_structural   Rb3Sc(AsO4)2
_chemical_formula_sum   'Rb3 Sc1 As2 O8'
_cell_volume   241.45854136
_cell_formula_units_Z   1
loop_
 _symmetry_equiv_pos_site_id
 _symmetry_equiv_pos_as_xyz
  1  'x, y, z'
loop_
 _atom_site_type_symbol
 _atom_site_label
 _atom_site_symmetry_multiplicity
 _atom_site_fract_x
 _atom_site_fract_y
 _atom_site_fract_z
 _atom_site_occupancy
  Rb  Rb0  1  0.666667  0.333333  0.263321  1
  Rb  Rb1  1  0.333333  0.666667  0.736679  1
  Rb  Rb2  1  0.000000  0.000000  0.000000  1
  Sc  Sc3  1  0.000000  0.000000  0.500000  1
  As  As4  1  0.666667  0.333333  0.720684  1
  As  As5  1  0.333333  0.666667  0.279316  1
  O  O6  1  0.666667  0.333333  0.926598  1
  O  O7  1  0.333333  0.666667  0.073402  1
  O  O8  1  0.828613  0.657226  0.650126  1
  O  O9  1  0.171387  0.342774  0.349874  1
  O  O10  1  0.828613  0.171387  0.650126  1
  O  O11  1  0.171387  0.828613  0.349874  1
  O  O12  1  0.342774  0.171387  0.650126  1
  O  O13  1  0.657226  0.828613  0.349874  1
