# generated using pymatgen
data_LaFe3As12Rh
_symmetry_space_group_name_H-M   'P 1'
_cell_length_a   7.29437530
_cell_length_b   7.29437588
_cell_length_c   7.29437581
_cell_angle_alpha   109.52974976
_cell_angle_beta   109.52975510
_cell_angle_gamma   109.52974709
_symmetry_Int_Tables_number   1
_chemical_formula_structural   LaFe3As12Rh
_chemical_formula_sum   'La1 Fe3 As12 Rh1'
_cell_volume   298.12457832
_cell_formula_units_Z   1
loop_
 _symmetry_equiv_pos_site_id
 _symmetry_equiv_pos_as_xyz
  1  'x, y, z'
loop_
 _atom_site_type_symbol
 _atom_site_label
 _atom_site_symmetry_multiplicity
 _atom_site_fract_x
 _atom_site_fract_y
 _atom_site_fract_z
 _atom_site_occupancy
  La  La0  1  0.000000  0.000000  0.000000  1
  Fe  Fe1  1  0.000000  0.000000  0.500000  1
  Fe  Fe2  1  0.500000  0.000000  0.000000  1
  Fe  Fe3  1  0.000000  0.500000  0.000000  1
  As  As4  1  0.156946  0.814288  0.657924  1
  As  As5  1  0.843054  0.185712  0.342076  1
  As  As6  1  0.657924  0.156946  0.814288  1
  As  As7  1  0.500378  0.661570  0.856389  1
  As  As8  1  0.661570  0.856389  0.500378  1
  As  As9  1  0.499622  0.338430  0.143611  1
  As  As10  1  0.342076  0.843054  0.185712  1
  As  As11  1  0.185712  0.342076  0.843054  1
  As  As12  1  0.814288  0.657924  0.156946  1
  As  As13  1  0.338430  0.143611  0.499622  1
  As  As14  1  0.856389  0.500378  0.661570  1
  As  As15  1  0.143611  0.499622  0.338430  1
  Rh  Rh16  1  0.500000  0.500000  0.500000  1
