# generated using pymatgen
data_Cs3Er(PS4)2
_symmetry_space_group_name_H-M   'P 1'
_cell_length_a   9.96012591
_cell_length_b   6.96060000
_cell_length_c   12.04021800
_cell_angle_alpha   90.00000000
_cell_angle_beta   88.47692266
_cell_angle_gamma   90.00000000
_symmetry_Int_Tables_number   1
_chemical_formula_structural   Cs3Er(PS4)2
_chemical_formula_sum   'Cs6 Er2 P4 S16'
_cell_volume   834.43477082
_cell_formula_units_Z   2
loop_
 _symmetry_equiv_pos_site_id
 _symmetry_equiv_pos_as_xyz
  1  'x, y, z'
loop_
 _atom_site_type_symbol
 _atom_site_label
 _atom_site_symmetry_multiplicity
 _atom_site_fract_x
 _atom_site_fract_y
 _atom_site_fract_z
 _atom_site_occupancy
  Cs  Cs0  1  0.365030  0.802119  0.087217  1
  Cs  Cs1  1  0.396213  0.308616  0.343167  1
  Cs  Cs2  1  0.837531  0.308897  0.433092  1
  Cs  Cs3  1  0.162469  0.808897  0.566909  1
  Cs  Cs4  1  0.603787  0.808616  0.656833  1
  Cs  Cs5  1  0.634971  0.302119  0.912783  1
  Er  Er6  1  0.890372  0.788065  0.141961  1
  Er  Er7  1  0.109628  0.288065  0.858039  1
  P  P8  1  0.080551  0.329491  0.146609  1
  P  P9  1  0.645211  0.808227  0.306262  1
  P  P10  1  0.354789  0.308226  0.693738  1
  P  P11  1  0.919449  0.829491  0.853391  1
  S  S12  1  0.937094  0.398857  0.032751  1
  S  S13  1  0.255772  0.305586  0.053677  1
  S  S14  1  0.674922  0.038934  0.201120  1
  S  S15  1  0.670143  0.566299  0.207113  1
  S  S16  1  0.049433  0.084321  0.238658  1
  S  S17  1  0.081608  0.563091  0.251698  1
  S  S18  1  0.462156  0.811963  0.383219  1
  S  S19  1  0.807684  0.807816  0.406967  1
  S  S20  1  0.192317  0.307815  0.593033  1
  S  S21  1  0.537843  0.311962  0.616781  1
  S  S22  1  0.918392  0.063090  0.748302  1
  S  S23  1  0.950567  0.584321  0.761342  1
  S  S24  1  0.329857  0.066300  0.792887  1
  S  S25  1  0.325078  0.538932  0.798880  1
  S  S26  1  0.744227  0.805587  0.946323  1
  S  S27  1  0.062906  0.898857  0.967248  1
