# generated using pymatgen
data_Er20InFe2Hg5
_symmetry_space_group_name_H-M   'P 1'
_cell_length_a   9.50552100
_cell_length_b   9.50552065
_cell_length_c   9.69675500
_cell_angle_alpha   90.00000000
_cell_angle_beta   90.00000000
_cell_angle_gamma   120.01002079
_symmetry_Int_Tables_number   1
_chemical_formula_structural   Er20InFe2Hg5
_chemical_formula_sum   'Er20 In1 Fe2 Hg5'
_cell_volume   758.69116688
_cell_formula_units_Z   1
loop_
 _symmetry_equiv_pos_site_id
 _symmetry_equiv_pos_as_xyz
  1  'x, y, z'
loop_
 _atom_site_type_symbol
 _atom_site_label
 _atom_site_symmetry_multiplicity
 _atom_site_fract_x
 _atom_site_fract_y
 _atom_site_fract_z
 _atom_site_occupancy
  Er  Er0  1  0.003811  0.996189  0.505512  1
  Er  Er1  1  0.003811  0.996189  0.994488  1
  Er  Er2  1  0.537772  0.462228  0.250000  1
  Er  Er3  1  0.534923  0.083555  0.250000  1
  Er  Er4  1  0.916445  0.465077  0.250000  1
  Er  Er5  1  0.457613  0.542387  0.750000  1
  Er  Er6  1  0.460140  0.919062  0.750000  1
  Er  Er7  1  0.080938  0.539860  0.750000  1
  Er  Er8  1  0.212461  0.787539  0.436169  1
  Er  Er9  1  0.209312  0.422761  0.434943  1
  Er  Er10  1  0.577239  0.790688  0.434943  1
  Er  Er11  1  0.788981  0.211019  0.562917  1
  Er  Er12  1  0.786750  0.575717  0.565037  1
  Er  Er13  1  0.424283  0.213250  0.565037  1
  Er  Er14  1  0.788981  0.211019  0.937083  1
  Er  Er15  1  0.786750  0.575717  0.934963  1
  Er  Er16  1  0.424283  0.213250  0.934963  1
  Er  Er17  1  0.212461  0.787539  0.063831  1
  Er  Er18  1  0.209312  0.422761  0.065057  1
  Er  Er19  1  0.577239  0.790688  0.065057  1
  In  In20  1  0.884494  0.115506  0.250000  1
  Fe  Fe21  1  0.334461  0.665539  0.250000  1
  Fe  Fe22  1  0.667431  0.332569  0.750000  1
  Hg  Hg23  1  0.883351  0.767091  0.250000  1
  Hg  Hg24  1  0.232909  0.116649  0.250000  1
  Hg  Hg25  1  0.120366  0.879634  0.750000  1
  Hg  Hg26  1  0.119635  0.236150  0.750000  1
  Hg  Hg27  1  0.763850  0.880365  0.750000  1
