# generated using pymatgen
data_PrDyPa2(Al8Pt3)3
_symmetry_space_group_name_H-M   'P 1'
_cell_length_a   7.57872606
_cell_length_b   7.58553165
_cell_length_c   13.15407533
_cell_angle_alpha   84.48391097
_cell_angle_beta   78.92440021
_cell_angle_gamma   59.89389685
_symmetry_Int_Tables_number   1
_chemical_formula_structural   PrDyPa2(Al8Pt3)3
_chemical_formula_sum   'Pr1 Dy1 Pa2 Al24 Pt9'
_cell_volume   642.01125952
_cell_formula_units_Z   1
loop_
 _symmetry_equiv_pos_site_id
 _symmetry_equiv_pos_as_xyz
  1  'x, y, z'
loop_
 _atom_site_type_symbol
 _atom_site_label
 _atom_site_symmetry_multiplicity
 _atom_site_fract_x
 _atom_site_fract_y
 _atom_site_fract_z
 _atom_site_occupancy
  Pr  Pr0  1  0.733029  0.498264  0.810183  1
  Dy  Dy1  1  0.265926  0.501350  0.192388  1
  Pa  Pa2  1  0.395821  0.167891  0.803736  1
  Pa  Pa3  1  0.603946  0.832294  0.196286  1
  Al  Al4  1  0.683098  0.836235  0.947209  1
  Al  Al5  1  0.316164  0.166245  0.055655  1
  Al  Al6  1  0.145840  0.832791  0.560250  1
  Al  Al7  1  0.854788  0.166757  0.438354  1
  Al  Al8  1  0.480928  0.167904  0.557000  1
  Al  Al9  1  0.519232  0.832321  0.441826  1
  Al  Al10  1  0.213925  0.168590  0.331217  1
  Al  Al11  1  0.787217  0.831933  0.666155  1
  Al  Al12  1  0.437576  0.509869  0.667162  1
  Al  Al13  1  0.562497  0.490129  0.330360  1
  Al  Al14  1  0.109180  0.158687  0.665249  1
  Al  Al15  1  0.892605  0.840459  0.332098  1
  Al  Al16  1  0.350015  0.499403  0.945649  1
  Al  Al17  1  0.645572  0.501063  0.059014  1
  Al  Al18  1  0.017059  0.165814  0.954890  1
  Al  Al19  1  0.983650  0.832208  0.048574  1
  Al  Al20  1  0.186092  0.500347  0.440632  1
  Al  Al21  1  0.814818  0.499562  0.557732  1
  Al  Al22  1  0.736907  0.161437  0.183150  1
  Al  Al23  1  0.260250  0.841567  0.817018  1
  Al  Al24  1  0.065958  0.630440  0.815735  1
  Al  Al25  1  0.937875  0.368831  0.184267  1
  Al  Al26  1  0.854366  0.036589  0.816745  1
  Al  Al27  1  0.144985  0.960184  0.183279  1
  Pt  Pt28  1  0.122204  0.491114  0.638512  1
  Pt  Pt29  1  0.879285  0.509455  0.359894  1
  Pt  Pt30  1  0.656716  0.172563  0.000944  1
  Pt  Pt31  1  0.342258  0.827683  0.000773  1
  Pt  Pt32  1  0.537520  0.165948  0.360115  1
  Pt  Pt33  1  0.461825  0.834931  0.638457  1
  Pt  Pt34  1  0.778480  0.173864  0.637437  1
  Pt  Pt35  1  0.222657  0.824595  0.360991  1
  Pt  Pt36  1  0.999736  0.500683  0.001064  1
