# generated using pymatgen
data_DyEr4Tm3AsP11Ir16
_symmetry_space_group_name_H-M   'P 1'
_cell_length_a   12.95054500
_cell_length_b   12.95054615
_cell_length_c   3.99026000
_cell_angle_alpha   90.00000000
_cell_angle_beta   90.00000000
_cell_angle_gamma   119.99999962
_symmetry_Int_Tables_number   1
_chemical_formula_structural   DyEr4Tm3AsP11Ir16
_chemical_formula_sum   'Dy1 Er4 Tm3 As1 P11 Ir16'
_cell_volume   579.57274895
_cell_formula_units_Z   1
loop_
 _symmetry_equiv_pos_site_id
 _symmetry_equiv_pos_as_xyz
  1  'x, y, z'
loop_
 _atom_site_type_symbol
 _atom_site_label
 _atom_site_symmetry_multiplicity
 _atom_site_fract_x
 _atom_site_fract_y
 _atom_site_fract_z
 _atom_site_occupancy
  Dy  Dy0  1  0.666204  0.332919  0.500000  1
  Er  Er1  1  0.333729  0.666762  0.500000  1
  Er  Er2  1  0.999925  0.817889  0.000000  1
  Er  Er3  1  0.186172  0.185927  0.000000  1
  Er  Er4  1  0.813928  0.999892  0.000000  1
  Tm  Tm5  1  0.000243  0.442552  0.500000  1
  Tm  Tm6  1  0.552225  0.554375  0.500000  1
  Tm  Tm7  1  0.447539  0.001634  0.500000  1
  As  As8  1  0.999892  0.651096  0.500000  1
  P  P9  1  0.347865  0.347312  0.500000  1
  P  P10  1  0.652359  0.999858  0.500000  1
  P  P11  1  0.516495  0.688895  0.000000  1
  P  P12  1  0.312942  0.828810  0.000000  1
  P  P13  1  0.172663  0.482703  0.000000  1
  P  P14  1  0.483036  0.171901  0.000000  1
  P  P15  1  0.686997  0.516278  0.000000  1
  P  P16  1  0.827837  0.310073  0.000000  1
  P  P17  1  0.000110  0.175419  0.500000  1
  P  P18  1  0.823217  0.824191  0.500000  1
  P  P19  1  0.176631  0.000735  0.500000  1
  Ir  Ir20  1  0.509033  0.866021  0.000000  1
  Ir  Ir21  1  0.138679  0.643288  0.000000  1
  Ir  Ir22  1  0.357149  0.491578  0.000000  1
  Ir  Ir23  1  0.489864  0.357017  0.000000  1
  Ir  Ir24  1  0.862249  0.505463  0.000000  1
  Ir  Ir25  1  0.642861  0.133354  0.000000  1
  Ir  Ir26  1  0.000107  0.273520  0.000000  1
  Ir  Ir27  1  0.725020  0.727456  0.000000  1
  Ir  Ir28  1  0.274849  0.002230  0.000000  1
  Ir  Ir29  1  0.630345  0.810169  0.500000  1
  Ir  Ir30  1  0.198983  0.826332  0.500000  1
  Ir  Ir31  1  0.179278  0.368411  0.500000  1
  Ir  Ir32  1  0.369628  0.179499  0.500000  1
  Ir  Ir33  1  0.800898  0.627455  0.500000  1
  Ir  Ir34  1  0.821042  0.189447  0.500000  1
  Ir  Ir35  1  0.000007  0.999538  0.500000  1
