# generated using pymatgen
data_Hf18Co3NiP8
_symmetry_space_group_name_H-M   'P 1'
_cell_length_a   12.03630447
_cell_length_b   12.03630447
_cell_length_c   3.57834500
_cell_angle_alpha   90.00000000
_cell_angle_beta   90.00000000
_cell_angle_gamma   89.94332450
_symmetry_Int_Tables_number   1
_chemical_formula_structural   Hf18Co3NiP8
_chemical_formula_sum   'Hf18 Co3 Ni1 P8'
_cell_volume   518.40398092
_cell_formula_units_Z   1
loop_
 _symmetry_equiv_pos_site_id
 _symmetry_equiv_pos_as_xyz
  1  'x, y, z'
loop_
 _atom_site_type_symbol
 _atom_site_label
 _atom_site_symmetry_multiplicity
 _atom_site_fract_x
 _atom_site_fract_y
 _atom_site_fract_z
 _atom_site_occupancy
  Hf  Hf0  1  0.182670  0.105602  0.500000  1
  Hf  Hf1  1  0.816955  0.894981  0.500000  1
  Hf  Hf2  1  0.104946  0.817595  0.500000  1
  Hf  Hf3  1  0.682710  0.397991  0.500000  1
  Hf  Hf4  1  0.897991  0.182710  0.500000  1
  Hf  Hf5  1  0.317595  0.604946  0.500000  1
  Hf  Hf6  1  0.605602  0.682670  0.500000  1
  Hf  Hf7  1  0.394981  0.316955  0.500000  1
  Hf  Hf8  1  0.620190  0.120190  0.500000  1
  Hf  Hf9  1  0.378945  0.878945  0.500000  1
  Hf  Hf10  1  0.120957  0.379288  0.500000  1
  Hf  Hf11  1  0.879288  0.620957  0.500000  1
  Hf  Hf12  1  0.999719  0.999600  0.000000  1
  Hf  Hf13  1  0.499600  0.499719  0.000000  1
  Hf  Hf14  1  0.094591  0.594591  0.000000  1
  Hf  Hf15  1  0.906225  0.406225  0.000000  1
  Hf  Hf16  1  0.594492  0.905519  0.000000  1
  Hf  Hf17  1  0.405519  0.094492  0.000000  1
  Co  Co18  1  0.249918  0.749918  0.000000  1
  Co  Co19  1  0.249121  0.249828  0.000000  1
  Co  Co20  1  0.749828  0.749121  0.000000  1
  Ni  Ni21  1  0.747507  0.247507  0.000000  1
  P  P22  1  0.055983  0.223813  0.000000  1
  P  P23  1  0.943182  0.776420  0.000000  1
  P  P24  1  0.223563  0.943428  0.000000  1
  P  P25  1  0.556861  0.277398  0.000000  1
  P  P26  1  0.777398  0.056861  0.000000  1
  P  P27  1  0.443428  0.723563  0.000000  1
  P  P28  1  0.723813  0.555983  0.000000  1
  P  P29  1  0.276420  0.443182  0.000000  1
