# generated using pymatgen
data_Pr2Ho3Sn3Sb
_symmetry_space_group_name_H-M   'P 1'
_cell_length_a   8.14321100
_cell_length_b   8.18259800
_cell_length_c   15.44929300
_cell_angle_alpha   90.00000000
_cell_angle_beta   90.00000000
_cell_angle_gamma   90.00000000
_symmetry_Int_Tables_number   1
_chemical_formula_structural   Pr2Ho3Sn3Sb
_chemical_formula_sum   'Pr8 Ho12 Sn12 Sb4'
_cell_volume   1029.42690129
_cell_formula_units_Z   4
loop_
 _symmetry_equiv_pos_site_id
 _symmetry_equiv_pos_as_xyz
  1  'x, y, z'
loop_
 _atom_site_type_symbol
 _atom_site_label
 _atom_site_symmetry_multiplicity
 _atom_site_fract_x
 _atom_site_fract_y
 _atom_site_fract_z
 _atom_site_occupancy
  Pr  Pr0  1  0.521298  0.322182  0.901498  1
  Pr  Pr1  1  0.021298  0.177818  0.598502  1
  Pr  Pr2  1  0.478702  0.677818  0.401498  1
  Pr  Pr3  1  0.978702  0.822182  0.098502  1
  Pr  Pr4  1  0.482484  0.679348  0.097605  1
  Pr  Pr5  1  0.982484  0.820652  0.402395  1
  Pr  Pr6  1  0.517516  0.320652  0.597605  1
  Pr  Pr7  1  0.017516  0.179348  0.902395  1
  Ho  Ho8  1  0.364195  0.838388  0.876890  1
  Ho  Ho9  1  0.864195  0.661612  0.623110  1
  Ho  Ho10  1  0.635805  0.161612  0.376890  1
  Ho  Ho11  1  0.135805  0.338388  0.123110  1
  Ho  Ho12  1  0.638342  0.163160  0.123017  1
  Ho  Ho13  1  0.138342  0.336840  0.376983  1
  Ho  Ho14  1  0.361658  0.836840  0.623017  1
  Ho  Ho15  1  0.861658  0.663160  0.876983  1
  Ho  Ho16  1  0.192445  0.501848  0.748658  1
  Ho  Ho17  1  0.692445  0.998152  0.751342  1
  Ho  Ho18  1  0.807555  0.498152  0.248658  1
  Ho  Ho19  1  0.307555  0.001848  0.251342  1
  Sn  Sn20  1  0.703258  0.961036  0.957215  1
  Sn  Sn21  1  0.203258  0.538964  0.542785  1
  Sn  Sn22  1  0.296742  0.038964  0.457215  1
  Sn  Sn23  1  0.796742  0.461036  0.042785  1
  Sn  Sn24  1  0.560020  0.623849  0.749537  1
  Sn  Sn25  1  0.060020  0.876151  0.750463  1
  Sn  Sn26  1  0.439980  0.376151  0.249537  1
  Sn  Sn27  1  0.939980  0.123849  0.250463  1
  Sn  Sn28  1  0.325890  0.142836  0.750274  1
  Sn  Sn29  1  0.825890  0.357164  0.749726  1
  Sn  Sn30  1  0.674110  0.857164  0.250274  1
  Sn  Sn31  1  0.174110  0.642836  0.249726  1
  Sb  Sb32  1  0.297496  0.040401  0.043133  1
  Sb  Sb33  1  0.797496  0.459599  0.456867  1
  Sb  Sb34  1  0.702504  0.959599  0.543133  1
  Sb  Sb35  1  0.202504  0.540401  0.956867  1
