# generated using pymatgen
data_Ac2NdTh(Zn5Sn)2
_symmetry_space_group_name_H-M   'P 1'
_cell_length_a   8.71917779
_cell_length_b   8.71917700
_cell_length_c   9.20848700
_cell_angle_alpha   90.00000000
_cell_angle_beta   90.00000000
_cell_angle_gamma   149.44717003
_symmetry_Int_Tables_number   1
_chemical_formula_structural   Ac2NdTh(Zn5Sn)2
_chemical_formula_sum   'Ac2 Nd1 Th1 Zn10 Sn2'
_cell_volume   355.86664572
_cell_formula_units_Z   1
loop_
 _symmetry_equiv_pos_site_id
 _symmetry_equiv_pos_as_xyz
  1  'x, y, z'
loop_
 _atom_site_type_symbol
 _atom_site_label
 _atom_site_symmetry_multiplicity
 _atom_site_fract_x
 _atom_site_fract_y
 _atom_site_fract_z
 _atom_site_occupancy
  Ac  Ac0  1  0.000366  0.999634  0.502003  1
  Ac  Ac1  1  0.000366  0.999634  0.997997  1
  Nd  Nd2  1  0.793118  0.206882  0.750000  1
  Th  Th3  1  0.207191  0.792809  0.250000  1
  Zn  Zn4  1  0.811048  0.188952  0.390851  1
  Zn  Zn5  1  0.187888  0.812112  0.609722  1
  Zn  Zn6  1  0.811048  0.188952  0.109149  1
  Zn  Zn7  1  0.187888  0.812112  0.890278  1
  Zn  Zn8  1  0.661327  0.338673  0.484060  1
  Zn  Zn9  1  0.339774  0.660226  0.514430  1
  Zn  Zn10  1  0.661327  0.338673  0.015940  1
  Zn  Zn11  1  0.339774  0.660226  0.985570  1
  Zn  Zn12  1  0.395824  0.604176  0.250000  1
  Zn  Zn13  1  0.604312  0.395688  0.750000  1
  Sn  Sn14  1  0.560109  0.439891  0.250000  1
  Sn  Sn15  1  0.438642  0.561358  0.750000  1
