# generated using pymatgen
data_KLi2CeBi2
_symmetry_space_group_name_H-M   'P 1'
_cell_length_a   4.89990700
_cell_length_b   4.89990680
_cell_length_c   8.92550400
_cell_angle_alpha   90.00000000
_cell_angle_beta   90.00000000
_cell_angle_gamma   119.99999458
_symmetry_Int_Tables_number   1
_chemical_formula_structural   KLi2CeBi2
_chemical_formula_sum   'K1 Li2 Ce1 Bi2'
_cell_volume   185.58337198
_cell_formula_units_Z   1
loop_
 _symmetry_equiv_pos_site_id
 _symmetry_equiv_pos_as_xyz
  1  'x, y, z'
loop_
 _atom_site_type_symbol
 _atom_site_label
 _atom_site_symmetry_multiplicity
 _atom_site_fract_x
 _atom_site_fract_y
 _atom_site_fract_z
 _atom_site_occupancy
  K  K0  1  0.000000  0.000000  0.500000  1
  Li  Li1  1  0.666667  0.333333  0.217185  1
  Li  Li2  1  0.333333  0.666667  0.782815  1
  Ce  Ce3  1  0.000000  0.000000  0.000000  1
  Bi  Bi4  1  0.666667  0.333333  0.796422  1
  Bi  Bi5  1  0.333333  0.666667  0.203578  1
