# generated using pymatgen
data_Nd2Dy3Tm15Pt16
_symmetry_space_group_name_H-M   'P 1'
_cell_length_a   7.43037126
_cell_length_b   7.50630723
_cell_length_c   14.63990200
_cell_angle_alpha   90.01319749
_cell_angle_beta   90.01517530
_cell_angle_gamma   89.99460759
_symmetry_Int_Tables_number   1
_chemical_formula_structural   Nd2Dy3Tm15Pt16
_chemical_formula_sum   'Nd2 Dy3 Tm15 Pt16'
_cell_volume   816.53534933
_cell_formula_units_Z   1
loop_
 _symmetry_equiv_pos_site_id
 _symmetry_equiv_pos_as_xyz
  1  'x, y, z'
loop_
 _atom_site_type_symbol
 _atom_site_label
 _atom_site_symmetry_multiplicity
 _atom_site_fract_x
 _atom_site_fract_y
 _atom_site_fract_z
 _atom_site_occupancy
  Nd  Nd0  1  0.001239  0.176310  0.407094  1
  Nd  Nd1  1  0.501288  0.324759  0.407866  1
  Dy  Dy2  1  0.999595  0.177788  0.091743  1
  Dy  Dy3  1  0.500236  0.678681  0.907652  1
  Dy  Dy4  1  0.000575  0.818642  0.594291  1
  Tm  Tm5  1  0.657090  0.166523  0.624119  1
  Tm  Tm6  1  0.156093  0.333316  0.877372  1
  Tm  Tm7  1  0.344191  0.833447  0.121226  1
  Tm  Tm8  1  0.846005  0.667867  0.376429  1
  Tm  Tm9  1  0.347079  0.831056  0.376895  1
  Tm  Tm10  1  0.844433  0.667052  0.120532  1
  Tm  Tm11  1  0.655729  0.167141  0.877877  1
  Tm  Tm12  1  0.157395  0.333470  0.623734  1
  Tm  Tm13  1  0.501162  0.682396  0.594832  1
  Tm  Tm14  1  0.001414  0.819777  0.906545  1
  Tm  Tm15  1  0.498989  0.320583  0.092615  1
  Tm  Tm16  1  0.818407  0.509552  0.750833  1
  Tm  Tm17  1  0.318438  0.990305  0.751013  1
  Tm  Tm18  1  0.181087  0.490525  0.247157  1
  Tm  Tm19  1  0.680961  0.009582  0.247394  1
  Pt  Pt20  1  0.678885  0.955325  0.462249  1
  Pt  Pt21  1  0.186562  0.533213  0.041199  1
  Pt  Pt22  1  0.314841  0.033317  0.957747  1
  Pt  Pt23  1  0.814369  0.472828  0.545520  1
  Pt  Pt24  1  0.317734  0.027223  0.545848  1
  Pt  Pt25  1  0.817789  0.467132  0.957460  1
  Pt  Pt26  1  0.683406  0.967174  0.041326  1
  Pt  Pt27  1  0.179072  0.544513  0.462378  1
  Pt  Pt28  1  0.453013  0.385598  0.750181  1
  Pt  Pt29  1  0.952890  0.114508  0.750996  1
  Pt  Pt30  1  0.546732  0.618913  0.247496  1
  Pt  Pt31  1  0.047369  0.880584  0.248072  1
  Pt  Pt32  1  0.680921  0.856169  0.750725  1
  Pt  Pt33  1  0.181134  0.643835  0.751726  1
  Pt  Pt34  1  0.317854  0.141898  0.244904  1
  Pt  Pt35  1  0.816023  0.359001  0.244954  1
