# generated using pymatgen
data_ErSb3F18
_symmetry_space_group_name_H-M   'P 1'
_cell_length_a   9.48716700
_cell_length_b   9.48716757
_cell_length_c   8.65390000
_cell_angle_alpha   90.00000000
_cell_angle_beta   90.00000000
_cell_angle_gamma   120.00000150
_symmetry_Int_Tables_number   1
_chemical_formula_structural   ErSb3F18
_chemical_formula_sum   'Er2 Sb6 F36'
_cell_volume   674.55227975
_cell_formula_units_Z   2
loop_
 _symmetry_equiv_pos_site_id
 _symmetry_equiv_pos_as_xyz
  1  'x, y, z'
loop_
 _atom_site_type_symbol
 _atom_site_label
 _atom_site_symmetry_multiplicity
 _atom_site_fract_x
 _atom_site_fract_y
 _atom_site_fract_z
 _atom_site_occupancy
  Er  Er0  1  0.333333  0.666667  0.573364  1
  Er  Er1  1  0.666667  0.333333  0.426636  1
  Sb  Sb2  1  0.982172  0.345486  0.763235  1
  Sb  Sb3  1  0.363314  0.017828  0.763235  1
  Sb  Sb4  1  0.654514  0.636686  0.763235  1
  Sb  Sb5  1  0.017828  0.654514  0.236765  1
  Sb  Sb6  1  0.636686  0.982172  0.236765  1
  Sb  Sb7  1  0.345486  0.363314  0.236765  1
  F  F8  1  0.472142  0.861683  0.401810  1
  F  F9  1  0.389541  0.527858  0.401810  1
  F  F10  1  0.138317  0.610459  0.401810  1
  F  F11  1  0.527858  0.138317  0.598190  1
  F  F12  1  0.610459  0.472142  0.598190  1
  F  F13  1  0.861683  0.389541  0.598190  1
  F  F14  1  0.111215  0.316107  0.909870  1
  F  F15  1  0.204892  0.888785  0.909870  1
  F  F16  1  0.683893  0.795108  0.909870  1
  F  F17  1  0.888785  0.683893  0.090130  1
  F  F18  1  0.795108  0.111215  0.090130  1
  F  F19  1  0.316107  0.204892  0.090130  1
  F  F20  1  0.858608  0.388977  0.904229  1
  F  F21  1  0.530370  0.141392  0.904229  1
  F  F22  1  0.611023  0.469630  0.904229  1
  F  F23  1  0.141392  0.611023  0.095771  1
  F  F24  1  0.469630  0.858608  0.095771  1
  F  F25  1  0.388977  0.530370  0.095771  1
  F  F26  1  0.238010  0.871961  0.595035  1
  F  F27  1  0.633951  0.761990  0.595035  1
  F  F28  1  0.128039  0.366049  0.595035  1
  F  F29  1  0.761990  0.128039  0.404965  1
  F  F30  1  0.366049  0.238010  0.404965  1
  F  F31  1  0.871961  0.633951  0.404965  1
  F  F32  1  0.837332  0.122152  0.731352  1
  F  F33  1  0.284820  0.162668  0.731352  1
  F  F34  1  0.877848  0.715180  0.731352  1
  F  F35  1  0.162668  0.877848  0.268648  1
  F  F36  1  0.715180  0.837332  0.268648  1
  F  F37  1  0.122152  0.284820  0.268648  1
  F  F38  1  0.134265  0.584494  0.751651  1
  F  F39  1  0.450229  0.865735  0.751651  1
  F  F40  1  0.415506  0.549771  0.751651  1
  F  F41  1  0.865735  0.415506  0.248349  1
  F  F42  1  0.549771  0.134265  0.248349  1
  F  F43  1  0.584494  0.450229  0.248349  1
