# generated using pymatgen
data_ThAl5Co2
_symmetry_space_group_name_H-M   'P 1'
_cell_length_a   6.21973437
_cell_length_b   6.21973524
_cell_length_c   6.21973508
_cell_angle_alpha   142.83382072
_cell_angle_beta   110.03859760
_cell_angle_gamma   81.97878980
_symmetry_Int_Tables_number   1
_chemical_formula_structural   ThAl5Co2
_chemical_formula_sum   'Th1 Al5 Co2'
_cell_volume   132.72779413
_cell_formula_units_Z   1
loop_
 _symmetry_equiv_pos_site_id
 _symmetry_equiv_pos_as_xyz
  1  'x, y, z'
loop_
 _atom_site_type_symbol
 _atom_site_label
 _atom_site_symmetry_multiplicity
 _atom_site_fract_x
 _atom_site_fract_y
 _atom_site_fract_z
 _atom_site_occupancy
  Th  Th0  1  0.000000  0.000000  0.000000  1
  Al  Al1  1  0.500000  0.000000  0.500000  1
  Al  Al2  1  0.152109  0.339429  0.812680  1
  Al  Al3  1  0.847891  0.660571  0.187320  1
  Al  Al4  1  0.473249  0.660571  0.812680  1
  Al  Al5  1  0.526751  0.339429  0.187320  1
  Co  Co6  1  0.746718  0.246718  0.500000  1
  Co  Co7  1  0.253282  0.753282  0.500000  1
