# generated using pymatgen
data_Y10In3Ru
_symmetry_space_group_name_H-M   'P 1'
_cell_length_a   9.77829900
_cell_length_b   9.77829846
_cell_length_c   9.79181100
_cell_angle_alpha   90.00000000
_cell_angle_beta   90.00000000
_cell_angle_gamma   119.99999846
_symmetry_Int_Tables_number   1
_chemical_formula_structural   Y10In3Ru
_chemical_formula_sum   'Y20 In6 Ru2'
_cell_volume   810.81217690
_cell_formula_units_Z   2
loop_
 _symmetry_equiv_pos_site_id
 _symmetry_equiv_pos_as_xyz
  1  'x, y, z'
loop_
 _atom_site_type_symbol
 _atom_site_label
 _atom_site_symmetry_multiplicity
 _atom_site_fract_x
 _atom_site_fract_y
 _atom_site_fract_z
 _atom_site_occupancy
  Y  Y0  1  0.000000  0.000000  0.500000  1
  Y  Y1  1  0.000000  0.000000  0.000000  1
  Y  Y2  1  0.209891  0.790109  0.438672  1
  Y  Y3  1  0.209891  0.419783  0.438672  1
  Y  Y4  1  0.580217  0.790109  0.438672  1
  Y  Y5  1  0.790109  0.209891  0.561328  1
  Y  Y6  1  0.790109  0.580217  0.561328  1
  Y  Y7  1  0.419783  0.209891  0.561328  1
  Y  Y8  1  0.790109  0.209891  0.938672  1
  Y  Y9  1  0.790109  0.580217  0.938672  1
  Y  Y10  1  0.419783  0.209891  0.938672  1
  Y  Y11  1  0.209891  0.790109  0.061328  1
  Y  Y12  1  0.209891  0.419783  0.061328  1
  Y  Y13  1  0.580217  0.790109  0.061328  1
  Y  Y14  1  0.539710  0.460290  0.250000  1
  Y  Y15  1  0.539710  0.079421  0.250000  1
  Y  Y16  1  0.920579  0.460290  0.250000  1
  Y  Y17  1  0.460290  0.539710  0.750000  1
  Y  Y18  1  0.460290  0.920579  0.750000  1
  Y  Y19  1  0.079421  0.539710  0.750000  1
  In  In20  1  0.884293  0.115707  0.250000  1
  In  In21  1  0.884293  0.768587  0.250000  1
  In  In22  1  0.231413  0.115707  0.250000  1
  In  In23  1  0.115707  0.884293  0.750000  1
  In  In24  1  0.115707  0.231413  0.750000  1
  In  In25  1  0.768587  0.884293  0.750000  1
  Ru  Ru26  1  0.333333  0.666667  0.250000  1
  Ru  Ru27  1  0.666667  0.333333  0.750000  1
