# generated using pymatgen
data_Ho15ErCd2(HgPt2)2
_symmetry_space_group_name_H-M   'P 1'
_cell_length_a   9.62343636
_cell_length_b   9.62343571
_cell_length_c   9.62164400
_cell_angle_alpha   60.00615177
_cell_angle_beta   60.00615403
_cell_angle_gamma   60.06174666
_symmetry_Int_Tables_number   1
_chemical_formula_structural   Ho15ErCd2(HgPt2)2
_chemical_formula_sum   'Ho15 Er1 Cd2 Hg2 Pt4'
_cell_volume   630.43060636
_cell_formula_units_Z   1
loop_
 _symmetry_equiv_pos_site_id
 _symmetry_equiv_pos_as_xyz
  1  'x, y, z'
loop_
 _atom_site_type_symbol
 _atom_site_label
 _atom_site_symmetry_multiplicity
 _atom_site_fract_x
 _atom_site_fract_y
 _atom_site_fract_z
 _atom_site_occupancy
  Ho  Ho0  1  0.353457  0.353457  0.350833  1
  Ho  Ho1  1  0.353457  0.353457  0.942254  1
  Ho  Ho2  1  0.356816  0.935015  0.354084  1
  Ho  Ho3  1  0.935015  0.356816  0.354084  1
  Ho  Ho4  1  0.810976  0.188867  0.190172  1
  Ho  Ho5  1  0.188867  0.810976  0.809985  1
  Ho  Ho6  1  0.188867  0.810976  0.190172  1
  Ho  Ho7  1  0.810976  0.188867  0.809985  1
  Ho  Ho8  1  0.189717  0.189717  0.810283  1
  Ho  Ho9  1  0.810344  0.810344  0.189656  1
  Ho  Ho10  1  0.934709  0.564266  0.564873  1
  Ho  Ho11  1  0.564266  0.934709  0.936152  1
  Ho  Ho12  1  0.564266  0.934709  0.564873  1
  Ho  Ho13  1  0.934709  0.564266  0.936152  1
  Ho  Ho14  1  0.564974  0.564974  0.935026  1
  Er  Er15  1  0.936134  0.936134  0.563866  1
  Cd  Cd16  1  0.580585  0.253910  0.582753  1
  Cd  Cd17  1  0.253910  0.580585  0.582753  1
  Hg  Hg18  1  0.584847  0.584847  0.587890  1
  Hg  Hg19  1  0.584847  0.584847  0.242417  1
  Pt  Pt20  1  0.143398  0.143398  0.146295  1
  Pt  Pt21  1  0.143398  0.143398  0.566908  1
  Pt  Pt22  1  0.141767  0.569694  0.144269  1
  Pt  Pt23  1  0.569694  0.141767  0.144269  1
