# generated using pymatgen
data_Ho12Tm3Sc5Bi12
_symmetry_space_group_name_H-M   'P 1'
_cell_length_a   8.07415875
_cell_length_b   9.36392203
_cell_length_c   11.90188870
_cell_angle_alpha   89.95278691
_cell_angle_beta   90.08185189
_cell_angle_gamma   89.97761076
_symmetry_Int_Tables_number   1
_chemical_formula_structural   Ho12Tm3Sc5Bi12
_chemical_formula_sum   'Ho12 Tm3 Sc5 Bi12'
_cell_volume   899.85044032
_cell_formula_units_Z   1
loop_
 _symmetry_equiv_pos_site_id
 _symmetry_equiv_pos_as_xyz
  1  'x, y, z'
loop_
 _atom_site_type_symbol
 _atom_site_label
 _atom_site_symmetry_multiplicity
 _atom_site_fract_x
 _atom_site_fract_y
 _atom_site_fract_z
 _atom_site_occupancy
  Ho  Ho0  1  0.352975  0.247697  0.282221  1
  Ho  Ho1  1  0.643934  0.749784  0.716447  1
  Ho  Ho2  1  0.145056  0.749150  0.784006  1
  Ho  Ho3  1  0.855493  0.249577  0.215588  1
  Ho  Ho4  1  0.184786  0.249287  0.781171  1
  Ho  Ho5  1  0.814410  0.749627  0.219139  1
  Ho  Ho6  1  0.315072  0.750490  0.280788  1
  Ho  Ho7  1  0.684610  0.249608  0.720104  1
  Ho  Ho8  1  0.805221  0.935329  0.941141  1
  Ho  Ho9  1  0.304380  0.934816  0.558781  1
  Ho  Ho10  1  0.806297  0.564949  0.941879  1
  Ho  Ho11  1  0.695315  0.065162  0.440964  1
  Tm  Tm12  1  0.195393  0.435109  0.058781  1
  Tm  Tm13  1  0.695857  0.434028  0.440997  1
  Tm  Tm14  1  0.304323  0.565990  0.559120  1
  Sc  Sc15  1  0.024350  0.250145  0.511863  1
  Sc  Sc16  1  0.975916  0.749605  0.486929  1
  Sc  Sc17  1  0.475261  0.750446  0.012382  1
  Sc  Sc18  1  0.521935  0.248122  0.988738  1
  Sc  Sc19  1  0.196504  0.068818  0.058156  1
  Bi  Bi20  1  0.401654  0.251552  0.542133  1
  Bi  Bi21  1  0.598505  0.748431  0.457383  1
  Bi  Bi22  1  0.101267  0.757005  0.043873  1
  Bi  Bi23  1  0.905599  0.248025  0.958860  1
  Bi  Bi24  1  0.066662  0.003915  0.329020  1
  Bi  Bi25  1  0.933727  0.995951  0.669007  1
  Bi  Bi26  1  0.432051  0.995982  0.832312  1
  Bi  Bi27  1  0.933912  0.503413  0.669087  1
  Bi  Bi28  1  0.563656  0.003782  0.168092  1
  Bi  Bi29  1  0.066354  0.495833  0.330329  1
  Bi  Bi30  1  0.565876  0.495240  0.169175  1
  Bi  Bi31  1  0.433650  0.503132  0.831535  1
