# generated using pymatgen
data_Dy20Os5I24
_symmetry_space_group_name_H-M   'P 1'
_cell_length_a   12.21626587
_cell_length_b   13.02933832
_cell_length_c   14.66832400
_cell_angle_alpha   99.77306886
_cell_angle_beta   107.72511141
_cell_angle_gamma   109.10491782
_symmetry_Int_Tables_number   1
_chemical_formula_structural   Dy20Os5I24
_chemical_formula_sum   'Dy20 Os5 I24'
_cell_volume   2005.09415276
_cell_formula_units_Z   1
loop_
 _symmetry_equiv_pos_site_id
 _symmetry_equiv_pos_as_xyz
  1  'x, y, z'
loop_
 _atom_site_type_symbol
 _atom_site_label
 _atom_site_symmetry_multiplicity
 _atom_site_fract_x
 _atom_site_fract_y
 _atom_site_fract_z
 _atom_site_occupancy
  Dy  Dy0  1  0.495881  0.024546  0.705593  1
  Dy  Dy1  1  0.504119  0.975454  0.294407  1
  Dy  Dy2  1  0.734635  0.999294  0.642455  1
  Dy  Dy3  1  0.265365  0.000706  0.357545  1
  Dy  Dy4  1  0.814413  0.167025  0.898336  1
  Dy  Dy5  1  0.185587  0.832975  0.101664  1
  Dy  Dy6  1  0.482697  0.220422  0.576915  1
  Dy  Dy7  1  0.517303  0.779578  0.423085  1
  Dy  Dy8  1  0.721359  0.196001  0.514377  1
  Dy  Dy9  1  0.278641  0.803999  0.485623  1
  Dy  Dy10  1  0.797532  0.448258  0.715874  1
  Dy  Dy11  1  0.202468  0.551742  0.284126  1
  Dy  Dy12  1  0.974303  0.289854  0.761747  1
  Dy  Dy13  1  0.025697  0.710146  0.238253  1
  Dy  Dy14  1  0.637102  0.325350  0.850972  1
  Dy  Dy15  1  0.362898  0.674650  0.149028  1
  Dy  Dy16  1  0.114833  0.587294  0.904212  1
  Dy  Dy17  1  0.885167  0.412706  0.095788  1
  Dy  Dy18  1  0.873637  0.613220  0.968967  1
  Dy  Dy19  1  0.126363  0.386780  0.031033  1
  Os  Os20  1  0.500000  0.000000  0.500000  1
  Os  Os21  1  0.708692  0.210761  0.710074  1
  Os  Os22  1  0.291308  0.789239  0.289926  1
  Os  Os23  1  0.904314  0.405842  0.904859  1
  Os  Os24  1  0.095686  0.594158  0.095141  1
  I  I25  1  0.264069  0.823636  0.695471  1
  I  I26  1  0.735931  0.176364  0.304529  1
  I  I27  1  0.759914  0.773655  0.566782  1
  I  I28  1  0.240086  0.226345  0.433218  1
  I  I29  1  0.660597  0.898721  0.808939  1
  I  I30  1  0.339403  0.101279  0.191061  1
  I  I31  1  0.342725  0.177939  0.724998  1
  I  I32  1  0.657275  0.822061  0.275002  1
  I  I33  1  0.944925  0.116913  0.565552  1
  I  I34  1  0.055075  0.883087  0.434448  1
  I  I35  1  0.629940  0.393874  0.485085  1
  I  I36  1  0.370060  0.606126  0.514915  1
  I  I37  1  0.048705  0.125572  0.879514  1
  I  I38  1  0.951295  0.874428  0.120486  1
  I  I39  1  0.610491  0.167030  0.988380  1
  I  I40  1  0.389509  0.832970  0.011620  1
  I  I41  1  0.004559  0.241580  0.152072  1
  I  I42  1  0.995441  0.758420  0.847928  1
  I  I43  1  0.301316  0.467223  0.914683  1
  I  I44  1  0.698684  0.532777  0.085317  1
  I  I45  1  0.024770  0.476075  0.650826  1
  I  I46  1  0.975230  0.523925  0.349174  1
  I  I47  1  0.601434  0.526980  0.770406  1
  I  I48  1  0.398566  0.473020  0.229594  1
