# generated using pymatgen
data_Dy4Y3Lu5InCo5
_symmetry_space_group_name_H-M   'P 1'
_cell_length_a   8.22951973
_cell_length_b   8.22951933
_cell_length_c   8.21211140
_cell_angle_alpha   110.82170611
_cell_angle_beta   110.53295623
_cell_angle_gamma   107.17473852
_symmetry_Int_Tables_number   1
_chemical_formula_structural   Dy4Y3Lu5InCo5
_chemical_formula_sum   'Dy4 Y3 Lu5 In1 Co5'
_cell_volume   427.12600582
_cell_formula_units_Z   1
loop_
 _symmetry_equiv_pos_site_id
 _symmetry_equiv_pos_as_xyz
  1  'x, y, z'
loop_
 _atom_site_type_symbol
 _atom_site_label
 _atom_site_symmetry_multiplicity
 _atom_site_fract_x
 _atom_site_fract_y
 _atom_site_fract_z
 _atom_site_occupancy
  Dy  Dy0  1  0.600153  0.792259  0.810483  1
  Dy  Dy1  1  0.406609  0.211687  0.192825  1
  Dy  Dy2  1  0.981138  0.786216  0.192825  1
  Dy  Dy3  1  0.018223  0.210330  0.810483  1
  Y  Y4  1  0.812573  0.708070  0.520646  1
  Y  Y5  1  0.185301  0.290011  0.475312  1
  Y  Y6  1  0.187200  0.707911  0.895109  1
  Lu  Lu7  1  0.814173  0.291414  0.105587  1
  Lu  Lu8  1  0.685066  0.376551  0.694180  1
  Lu  Lu9  1  0.315181  0.622691  0.307539  1
  Lu  Lu10  1  0.684851  0.992359  0.307539  1
  Lu  Lu11  1  0.317630  0.009114  0.694180  1
  In  In12  1  0.498609  0.500216  0.998824  1
  Co  Co13  1  0.620682  0.001823  0.622506  1
  Co  Co14  1  0.379159  0.999791  0.378950  1
  Co  Co15  1  0.109213  0.612098  0.493807  1
  Co  Co16  1  0.881709  0.384594  0.493807  1
  Co  Co17  1  0.002530  0.002865  0.005396  1
