# generated using pymatgen
data_DyLuRe2C3
_symmetry_space_group_name_H-M   'P 1'
_cell_length_a   6.03779614
_cell_length_b   6.03779545
_cell_length_c   5.63299328
_cell_angle_alpha   67.74829783
_cell_angle_beta   67.74829121
_cell_angle_gamma   31.53063003
_symmetry_Int_Tables_number   1
_chemical_formula_structural   DyLuRe2C3
_chemical_formula_sum   'Dy1 Lu1 Re2 C3'
_cell_volume   98.72637829
_cell_formula_units_Z   1
loop_
 _symmetry_equiv_pos_site_id
 _symmetry_equiv_pos_as_xyz
  1  'x, y, z'
loop_
 _atom_site_type_symbol
 _atom_site_label
 _atom_site_symmetry_multiplicity
 _atom_site_fract_x
 _atom_site_fract_y
 _atom_site_fract_z
 _atom_site_occupancy
  Dy  Dy0  1  0.392003  0.392003  0.816602  1
  Lu  Lu1  1  0.610998  0.610998  0.176800  1
  Re  Re2  1  0.844090  0.844090  0.322493  1
  Re  Re3  1  0.155345  0.155345  0.678025  1
  C  C4  1  0.751688  0.751688  0.734575  1
  C  C5  1  0.244555  0.244555  0.266391  1
  C  C6  1  0.001321  0.001321  0.005115  1
