# generated using pymatgen
data_SrHo2Ga8Ag3
_symmetry_space_group_name_H-M   'P 1'
_cell_length_a   4.38477155
_cell_length_b   8.47630356
_cell_length_c   8.47630367
_cell_angle_alpha   69.02537549
_cell_angle_beta   75.01009649
_cell_angle_gamma   75.01009965
_symmetry_Int_Tables_number   1
_chemical_formula_structural   SrHo2Ga8Ag3
_chemical_formula_sum   'Sr1 Ho2 Ga8 Ag3'
_cell_volume   279.29379798
_cell_formula_units_Z   1
loop_
 _symmetry_equiv_pos_site_id
 _symmetry_equiv_pos_as_xyz
  1  'x, y, z'
loop_
 _atom_site_type_symbol
 _atom_site_label
 _atom_site_symmetry_multiplicity
 _atom_site_fract_x
 _atom_site_fract_y
 _atom_site_fract_z
 _atom_site_occupancy
  Sr  Sr0  1  0.500000  0.500000  0.500000  1
  Ho  Ho1  1  0.200926  0.799074  0.799074  1
  Ho  Ho2  1  0.799074  0.200926  0.200926  1
  Ga  Ga3  1  0.353962  0.362456  0.929618  1
  Ga  Ga4  1  0.646038  0.637544  0.070382  1
  Ga  Ga5  1  0.353962  0.929618  0.362456  1
  Ga  Ga6  1  0.646038  0.070382  0.637544  1
  Ga  Ga7  1  0.162239  0.471074  0.204448  1
  Ga  Ga8  1  0.837761  0.528926  0.795552  1
  Ga  Ga9  1  0.162239  0.204448  0.471074  1
  Ga  Ga10  1  0.837761  0.795552  0.528926  1
  Ag  Ag11  1  0.500000  0.000000  0.000000  1
  Ag  Ag12  1  0.000000  0.810147  0.189853  1
  Ag  Ag13  1  0.000000  0.189853  0.810147  1
