# generated using pymatgen
data_Be10OsAu
_symmetry_space_group_name_H-M   'P 1'
_cell_length_a   4.25499800
_cell_length_b   4.25499769
_cell_length_c   7.00827500
_cell_angle_alpha   90.00000000
_cell_angle_beta   90.00000000
_cell_angle_gamma   120.00000243
_symmetry_Int_Tables_number   1
_chemical_formula_structural   Be10OsAu
_chemical_formula_sum   'Be10 Os1 Au1'
_cell_volume   109.88551417
_cell_formula_units_Z   1
loop_
 _symmetry_equiv_pos_site_id
 _symmetry_equiv_pos_as_xyz
  1  'x, y, z'
loop_
 _atom_site_type_symbol
 _atom_site_label
 _atom_site_symmetry_multiplicity
 _atom_site_fract_x
 _atom_site_fract_y
 _atom_site_fract_z
 _atom_site_occupancy
  Be  Be0  1  0.336771  0.168386  0.042405  1
  Be  Be1  1  0.831616  0.168386  0.042405  1
  Be  Be2  1  0.831615  0.663229  0.042405  1
  Be  Be3  1  0.000000  0.000000  0.295950  1
  Be  Be4  1  0.666667  0.333333  0.392954  1
  Be  Be5  1  0.166032  0.332063  0.559268  1
  Be  Be6  1  0.166031  0.833970  0.559268  1
  Be  Be7  1  0.667939  0.833970  0.559268  1
  Be  Be8  1  0.000000  0.000000  0.798605  1
  Be  Be9  1  0.333333  0.666666  0.842197  1
  Os  Os10  1  0.666667  0.333333  0.747347  1
  Au  Au11  1  0.333333  0.666666  0.246063  1
