# generated using pymatgen
data_Ba2(SrAu2)3
_symmetry_space_group_name_H-M   'P 1'
_cell_length_a   16.94797227
_cell_length_b   16.94797256
_cell_length_c   4.48943100
_cell_angle_alpha   90.00000000
_cell_angle_beta   90.00000000
_cell_angle_gamma   164.59147689
_symmetry_Int_Tables_number   1
_chemical_formula_structural   Ba2(SrAu2)3
_chemical_formula_sum   'Ba2 Sr3 Au6'
_cell_volume   342.62384451
_cell_formula_units_Z   1
loop_
 _symmetry_equiv_pos_site_id
 _symmetry_equiv_pos_as_xyz
  1  'x, y, z'
loop_
 _atom_site_type_symbol
 _atom_site_label
 _atom_site_symmetry_multiplicity
 _atom_site_fract_x
 _atom_site_fract_y
 _atom_site_fract_z
 _atom_site_occupancy
  Ba  Ba0  1  0.001008  0.998992  0.000000  1
  Ba  Ba1  1  0.801770  0.198229  0.500000  1
  Sr  Sr2  1  0.616385  0.383615  0.000000  1
  Sr  Sr3  1  0.385951  0.614049  0.000000  1
  Sr  Sr4  1  0.197197  0.802802  0.500000  1
  Au  Au5  1  0.716709  0.283291  0.000000  1
  Au  Au6  1  0.276896  0.723104  0.000000  1
  Au  Au7  1  0.903529  0.096471  0.500000  1
  Au  Au8  1  0.543973  0.456026  0.500000  1
  Au  Au9  1  0.457873  0.542126  0.500000  1
  Au  Au10  1  0.098707  0.901293  0.500000  1
