# generated using pymatgen
data_Ca12La8Si15Se
_symmetry_space_group_name_H-M   'P 1'
_cell_length_a   8.04792205
_cell_length_b   7.97099116
_cell_length_c   14.69977917
_cell_angle_alpha   90.09862299
_cell_angle_beta   88.64275247
_cell_angle_gamma   90.32562700
_symmetry_Int_Tables_number   1
_chemical_formula_structural   Ca12La8Si15Se
_chemical_formula_sum   'Ca12 La8 Si15 Se1'
_cell_volume   942.70861681
_cell_formula_units_Z   1
loop_
 _symmetry_equiv_pos_site_id
 _symmetry_equiv_pos_as_xyz
  1  'x, y, z'
loop_
 _atom_site_type_symbol
 _atom_site_label
 _atom_site_symmetry_multiplicity
 _atom_site_fract_x
 _atom_site_fract_y
 _atom_site_fract_z
 _atom_site_occupancy
  Ca  Ca0  1  0.359857  0.497044  0.383967  1
  Ca  Ca1  1  0.859132  0.010419  0.369345  1
  Ca  Ca2  1  0.988280  0.130856  0.125383  1
  Ca  Ca3  1  0.021232  0.864653  0.620259  1
  Ca  Ca4  1  0.634376  0.507905  0.874870  1
  Ca  Ca5  1  0.505187  0.364826  0.628310  1
  Ca  Ca6  1  0.502631  0.632277  0.123152  1
  Ca  Ca7  1  0.131048  0.991222  0.875051  1
  Ca  Ca8  1  0.680285  0.683581  0.502144  1
  Ca  Ca9  1  0.824468  0.185460  0.749540  1
  Ca  Ca10  1  0.179303  0.813402  0.247759  1
  Ca  Ca11  1  0.309498  0.315492  0.000127  1
  La  La12  1  0.989519  0.627561  0.044711  1
  La  La13  1  0.015924  0.377588  0.547183  1
  La  La14  1  0.625136  0.994236  0.951881  1
  La  La15  1  0.142390  0.515313  0.789842  1
  La  La16  1  0.853675  0.482798  0.286865  1
  La  La17  1  0.501106  0.123871  0.202162  1
  La  La18  1  0.502468  0.874235  0.707917  1
  La  La19  1  0.380744  0.009588  0.457815  1
  Si  Si20  1  0.920829  0.291988  0.942587  1
  Si  Si21  1  0.720970  0.079557  0.556032  1
  Si  Si22  1  0.202931  0.421993  0.195779  1
  Si  Si23  1  0.811868  0.577908  0.689918  1
  Si  Si24  1  0.419213  0.209162  0.809643  1
  Si  Si25  1  0.569395  0.791758  0.308778  1
  Si  Si26  1  0.289230  0.920813  0.058526  1
  Si  Si27  1  0.840634  0.793491  0.806702  1
  Si  Si28  1  0.163050  0.207484  0.313571  1
  Si  Si29  1  0.783318  0.837492  0.189344  1
  Si  Si30  1  0.319198  0.656347  0.583023  1
  Si  Si31  1  0.705737  0.337572  0.060418  1
  Si  Si32  1  0.662992  0.294747  0.441756  1
  Si  Si33  1  0.336298  0.707493  0.941650  1
  Si  Si34  1  0.212263  0.164948  0.690577  1
  Se  Se35  1  0.035814  0.704919  0.423414  1
