# generated using pymatgen
data_Tb3Nd3Al24(Ru3Pt)2
_symmetry_space_group_name_H-M   'P 1'
_cell_length_a   8.89041548
_cell_length_b   8.85061934
_cell_length_c   9.62250532
_cell_angle_alpha   89.99999842
_cell_angle_beta   90.05597114
_cell_angle_gamma   119.85204022
_symmetry_Int_Tables_number   1
_chemical_formula_structural   Tb3Nd3Al24(Ru3Pt)2
_chemical_formula_sum   'Tb3 Nd3 Al24 Ru6 Pt2'
_cell_volume   656.68911013
_cell_formula_units_Z   1
loop_
 _symmetry_equiv_pos_site_id
 _symmetry_equiv_pos_as_xyz
  1  'x, y, z'
loop_
 _atom_site_type_symbol
 _atom_site_label
 _atom_site_symmetry_multiplicity
 _atom_site_fract_x
 _atom_site_fract_y
 _atom_site_fract_z
 _atom_site_occupancy
  Tb  Tb0  1  0.616007  0.808004  0.750926  1
  Tb  Tb1  1  0.190975  0.805735  0.751580  1
  Tb  Tb2  1  0.190975  0.385242  0.751580  1
  Nd  Nd3  1  0.380966  0.190483  0.249679  1
  Nd  Nd4  1  0.810408  0.192039  0.248728  1
  Nd  Nd5  1  0.810408  0.618368  0.248728  1
  Al  Al6  1  0.436413  0.872343  0.246736  1
  Al  Al7  1  0.125016  0.562508  0.251171  1
  Al  Al8  1  0.436413  0.564070  0.246736  1
  Al  Al9  1  0.561849  0.124367  0.752424  1
  Al  Al10  1  0.878717  0.439358  0.749161  1
  Al  Al11  1  0.561849  0.437482  0.752424  1
  Al  Al12  1  0.158733  0.832615  0.425258  1
  Al  Al13  1  0.158733  0.326119  0.425258  1
  Al  Al14  1  0.675828  0.837915  0.424878  1
  Al  Al15  1  0.842708  0.166658  0.580546  1
  Al  Al16  1  0.842708  0.676049  0.580546  1
  Al  Al17  1  0.322044  0.161022  0.580733  1
  Al  Al18  1  0.836761  0.162866  0.921342  1
  Al  Al19  1  0.836761  0.673895  0.921342  1
  Al  Al20  1  0.325791  0.162895  0.922739  1
  Al  Al21  1  0.164015  0.835832  0.072708  1
  Al  Al22  1  0.164015  0.328184  0.072708  1
  Al  Al23  1  0.671975  0.835989  0.071397  1
  Al  Al24  1  0.327350  0.663676  0.525526  1
  Al  Al25  1  0.673025  0.336511  0.482958  1
  Al  Al26  1  0.666854  0.333426  0.016948  1
  Al  Al27  1  0.332926  0.666464  0.975469  1
  Al  Al28  1  0.002566  0.001282  0.249695  1
  Al  Al29  1  0.997650  0.998825  0.750520  1
  Ru  Ru30  1  0.999975  0.999988  0.500848  1
  Ru  Ru31  1  0.999895  0.999948  0.999515  1
  Ru  Ru32  1  0.001778  0.500889  0.502309  1
  Ru  Ru33  1  0.498989  0.998290  0.997466  1
  Ru  Ru34  1  0.001551  0.500775  0.997678  1
  Ru  Ru35  1  0.498989  0.500700  0.997466  1
  Pt  Pt36  1  0.499189  0.998205  0.502137  1
  Pt  Pt37  1  0.499189  0.500984  0.502137  1
