# generated using pymatgen
data_Dy7Th7Rh6
_symmetry_space_group_name_H-M   'P 1'
_cell_length_a   9.80018930
_cell_length_b   9.80018851
_cell_length_c   6.37680383
_cell_angle_alpha   89.87396169
_cell_angle_beta   90.12603905
_cell_angle_gamma   118.82307335
_symmetry_Int_Tables_number   1
_chemical_formula_structural   Dy7Th7Rh6
_chemical_formula_sum   'Dy7 Th7 Rh6'
_cell_volume   536.57503345
_cell_formula_units_Z   1
loop_
 _symmetry_equiv_pos_site_id
 _symmetry_equiv_pos_as_xyz
  1  'x, y, z'
loop_
 _atom_site_type_symbol
 _atom_site_label
 _atom_site_symmetry_multiplicity
 _atom_site_fract_x
 _atom_site_fract_y
 _atom_site_fract_z
 _atom_site_occupancy
  Dy  Dy0  1  0.127668  0.872332  0.253310  1
  Dy  Dy1  1  0.461614  0.923384  0.548549  1
  Dy  Dy2  1  0.076616  0.538386  0.548549  1
  Dy  Dy3  1  0.460646  0.539354  0.546610  1
  Dy  Dy4  1  0.535925  0.074767  0.051406  1
  Dy  Dy5  1  0.925233  0.464075  0.051406  1
  Dy  Dy6  1  0.537737  0.462263  0.049030  1
  Th  Th7  1  0.666422  0.333578  0.524485  1
  Th  Th8  1  0.332773  0.667227  0.024845  1
  Th  Th9  1  0.874607  0.745323  0.753035  1
  Th  Th10  1  0.254677  0.125393  0.753035  1
  Th  Th11  1  0.871873  0.128127  0.753643  1
  Th  Th12  1  0.129942  0.254744  0.255530  1
  Th  Th13  1  0.745256  0.870058  0.255530  1
  Rh  Rh14  1  0.186556  0.370316  0.802414  1
  Rh  Rh15  1  0.629684  0.813444  0.802414  1
  Rh  Rh16  1  0.185531  0.814469  0.796641  1
  Rh  Rh17  1  0.806352  0.624548  0.305480  1
  Rh  Rh18  1  0.375452  0.193648  0.305480  1
  Rh  Rh19  1  0.815437  0.184563  0.300046  1
