# generated using pymatgen
data_ZrCuNi3Au
_symmetry_space_group_name_H-M   'P 1'
_cell_length_a   4.87934984
_cell_length_b   4.87934973
_cell_length_c   4.85701558
_cell_angle_alpha   59.84775727
_cell_angle_beta   59.84775806
_cell_angle_gamma   59.99998557
_symmetry_Int_Tables_number   1
_chemical_formula_structural   ZrCuNi3Au
_chemical_formula_sum   'Zr1 Cu1 Ni3 Au1'
_cell_volume   81.57839194
_cell_formula_units_Z   1
loop_
 _symmetry_equiv_pos_site_id
 _symmetry_equiv_pos_as_xyz
  1  'x, y, z'
loop_
 _atom_site_type_symbol
 _atom_site_label
 _atom_site_symmetry_multiplicity
 _atom_site_fract_x
 _atom_site_fract_y
 _atom_site_fract_z
 _atom_site_occupancy
  Zr  Zr0  1  0.001897  0.001897  0.994309  1
  Cu  Cu1  1  0.624063  0.624063  0.127812  1
  Ni  Ni2  1  0.624319  0.125217  0.626144  1
  Ni  Ni3  1  0.125217  0.624319  0.626144  1
  Ni  Ni4  1  0.624319  0.624319  0.626144  1
  Au  Au5  1  0.250185  0.250185  0.249446  1
