# generated using pymatgen
data_Rb4MoIrBr12
_symmetry_space_group_name_H-M   'P 1'
_cell_length_a   7.54114200
_cell_length_b   7.54114200
_cell_length_c   10.87388900
_cell_angle_alpha   90.00000000
_cell_angle_beta   90.00000000
_cell_angle_gamma   90.00000000
_symmetry_Int_Tables_number   1
_chemical_formula_structural   Rb4MoIrBr12
_chemical_formula_sum   'Rb4 Mo1 Ir1 Br12'
_cell_volume   618.38526521
_cell_formula_units_Z   1
loop_
 _symmetry_equiv_pos_site_id
 _symmetry_equiv_pos_as_xyz
  1  'x, y, z'
loop_
 _atom_site_type_symbol
 _atom_site_label
 _atom_site_symmetry_multiplicity
 _atom_site_fract_x
 _atom_site_fract_y
 _atom_site_fract_z
 _atom_site_occupancy
  Rb  Rb0  1  0.500000  0.000000  0.769926  1
  Rb  Rb1  1  0.000000  0.500000  0.230074  1
  Rb  Rb2  1  0.500000  0.000000  0.230074  1
  Rb  Rb3  1  0.000000  0.500000  0.769926  1
  Mo  Mo4  1  0.500000  0.500000  0.500000  1
  Ir  Ir5  1  0.000000  0.000000  0.000000  1
  Br  Br6  1  0.000000  0.000000  0.768804  1
  Br  Br7  1  0.500000  0.500000  0.264638  1
  Br  Br8  1  0.738098  0.738098  0.500000  1
  Br  Br9  1  0.235644  0.235644  0.000000  1
  Br  Br10  1  0.738098  0.261902  0.500000  1
  Br  Br11  1  0.235644  0.764356  0.000000  1
  Br  Br12  1  0.000000  0.000000  0.231196  1
  Br  Br13  1  0.500000  0.500000  0.735362  1
  Br  Br14  1  0.261902  0.261902  0.500000  1
  Br  Br15  1  0.764356  0.764356  0.000000  1
  Br  Br16  1  0.261902  0.738098  0.500000  1
  Br  Br17  1  0.764356  0.235644  0.000000  1
