# generated using pymatgen
data_Sc4MnBe4ZnRh10
_symmetry_space_group_name_H-M   'P 1'
_cell_length_a   9.42248600
_cell_length_b   9.42248600
_cell_length_c   3.14362200
_cell_angle_alpha   90.00000000
_cell_angle_beta   90.00000000
_cell_angle_gamma   90.00000000
_symmetry_Int_Tables_number   1
_chemical_formula_structural   Sc4MnBe4ZnRh10
_chemical_formula_sum   'Sc4 Mn1 Be4 Zn1 Rh10'
_cell_volume   279.10095410
_cell_formula_units_Z   1
loop_
 _symmetry_equiv_pos_site_id
 _symmetry_equiv_pos_as_xyz
  1  'x, y, z'
loop_
 _atom_site_type_symbol
 _atom_site_label
 _atom_site_symmetry_multiplicity
 _atom_site_fract_x
 _atom_site_fract_y
 _atom_site_fract_z
 _atom_site_occupancy
  Sc  Sc0  1  0.824125  0.324713  0.000000  1
  Sc  Sc1  1  0.324713  0.175875  0.000000  1
  Sc  Sc2  1  0.675287  0.824125  0.000000  1
  Sc  Sc3  1  0.175875  0.675287  0.000000  1
  Mn  Mn4  1  0.500000  0.500000  0.000000  1
  Be  Be5  1  0.624940  0.122751  0.000000  1
  Be  Be6  1  0.122751  0.375060  0.000000  1
  Be  Be7  1  0.877249  0.624940  0.000000  1
  Be  Be8  1  0.375060  0.877249  0.000000  1
  Zn  Zn9  1  0.000000  0.000000  0.000000  1
  Rh  Rh10  1  0.070316  0.210155  0.500000  1
  Rh  Rh11  1  0.210155  0.929684  0.500000  1
  Rh  Rh12  1  0.789845  0.070316  0.500000  1
  Rh  Rh13  1  0.929684  0.789845  0.500000  1
  Rh  Rh14  1  0.430386  0.710058  0.500000  1
  Rh  Rh15  1  0.569614  0.289942  0.500000  1
  Rh  Rh16  1  0.710058  0.569614  0.500000  1
  Rh  Rh17  1  0.289942  0.430386  0.500000  1
  Rh  Rh18  1  0.500000  0.000000  0.500000  1
  Rh  Rh19  1  0.000000  0.500000  0.500000  1
