# generated using pymatgen
data_Ho3ScZn2Ir3
_symmetry_space_group_name_H-M   'P 1'
_cell_length_a   7.13146500
_cell_length_b   7.20849859
_cell_length_c   4.00893500
_cell_angle_alpha   90.00000000
_cell_angle_beta   90.00000000
_cell_angle_gamma   119.64711416
_symmetry_Int_Tables_number   1
_chemical_formula_structural   Ho3ScZn2Ir3
_chemical_formula_sum   'Ho3 Sc1 Zn2 Ir3'
_cell_volume   179.10865609
_cell_formula_units_Z   1
loop_
 _symmetry_equiv_pos_site_id
 _symmetry_equiv_pos_as_xyz
  1  'x, y, z'
loop_
 _atom_site_type_symbol
 _atom_site_label
 _atom_site_symmetry_multiplicity
 _atom_site_fract_x
 _atom_site_fract_y
 _atom_site_fract_z
 _atom_site_occupancy
  Ho  Ho0  1  0.391123  0.000000  0.000000  1
  Ho  Ho1  1  0.011560  0.428945  0.000000  1
  Ho  Ho2  1  0.582616  0.571054  0.000000  1
  Sc  Sc3  1  0.761859  0.000000  0.500000  1
  Zn  Zn4  1  0.247222  0.251363  0.500000  1
  Zn  Zn5  1  0.995859  0.748636  0.500000  1
  Ir  Ir6  1  0.998093  0.000000  0.000000  1
  Ir  Ir7  1  0.669154  0.326638  0.500000  1
  Ir  Ir8  1  0.342517  0.673363  0.500000  1
