# generated using pymatgen
data_Ce2Pu(B2C)3
_symmetry_space_group_name_H-M   'P 1'
_cell_length_a   5.32045348
_cell_length_b   5.32045364
_cell_length_c   5.32045425
_cell_angle_alpha   76.63084804
_cell_angle_beta   76.63084551
_cell_angle_gamma   76.63084602
_symmetry_Int_Tables_number   1
_chemical_formula_structural   Ce2Pu(B2C)3
_chemical_formula_sum   'Ce2 Pu1 B6 C3'
_cell_volume   140.01869290
_cell_formula_units_Z   1
loop_
 _symmetry_equiv_pos_site_id
 _symmetry_equiv_pos_as_xyz
  1  'x, y, z'
loop_
 _atom_site_type_symbol
 _atom_site_label
 _atom_site_symmetry_multiplicity
 _atom_site_fract_x
 _atom_site_fract_y
 _atom_site_fract_z
 _atom_site_occupancy
  Ce  Ce0  1  0.001142  0.001142  0.001142  1
  Ce  Ce1  1  0.688748  0.688748  0.688748  1
  Pu  Pu2  1  0.312020  0.312020  0.312020  1
  B  B3  1  0.224241  0.772959  0.497423  1
  B  B4  1  0.497423  0.224241  0.772959  1
  B  B5  1  0.772959  0.497423  0.224241  1
  B  B6  1  0.497423  0.772959  0.224241  1
  B  B7  1  0.224241  0.497423  0.772959  1
  B  B8  1  0.772959  0.224241  0.497423  1
  C  C9  1  0.003534  0.003534  0.501777  1
  C  C10  1  0.501777  0.003534  0.003534  1
  C  C11  1  0.003534  0.501777  0.003534  1
