# generated using pymatgen
data_Hf(GaCu)6
_symmetry_space_group_name_H-M   'P 1'
_cell_length_a   5.21242832
_cell_length_b   6.52133785
_cell_length_c   6.52133823
_cell_angle_alpha   79.61630725
_cell_angle_beta   66.44407900
_cell_angle_gamma   66.44407817
_symmetry_Int_Tables_number   1
_chemical_formula_structural   Hf(GaCu)6
_chemical_formula_sum   'Hf1 Ga6 Cu6'
_cell_volume   186.21317469
_cell_formula_units_Z   1
loop_
 _symmetry_equiv_pos_site_id
 _symmetry_equiv_pos_as_xyz
  1  'x, y, z'
loop_
 _atom_site_type_symbol
 _atom_site_label
 _atom_site_symmetry_multiplicity
 _atom_site_fract_x
 _atom_site_fract_y
 _atom_site_fract_z
 _atom_site_occupancy
  Hf  Hf0  1  0.000000  0.000000  0.000000  1
  Ga  Ga1  1  0.000000  0.653873  0.346127  1
  Ga  Ga2  1  0.000000  0.346127  0.653873  1
  Ga  Ga3  1  0.339667  0.660333  0.660333  1
  Ga  Ga4  1  0.660333  0.339667  0.339667  1
  Ga  Ga5  1  0.327083  0.172917  0.172917  1
  Ga  Ga6  1  0.672917  0.827083  0.827083  1
  Cu  Cu7  1  0.500000  0.243241  0.756759  1
  Cu  Cu8  1  0.500000  0.756759  0.243241  1
  Cu  Cu9  1  0.000000  0.500000  0.000000  1
  Cu  Cu10  1  0.500000  0.500000  0.000000  1
  Cu  Cu11  1  0.000000  0.000000  0.500000  1
  Cu  Cu12  1  0.500000  0.000000  0.500000  1
