# generated using pymatgen
data_Dy9Ho(SiB4)4
_symmetry_space_group_name_H-M   'P 1'
_cell_length_a   7.23026300
_cell_length_b   7.23026300
_cell_length_c   8.08435600
_cell_angle_alpha   90.00000000
_cell_angle_beta   90.00000000
_cell_angle_gamma   90.00000000
_symmetry_Int_Tables_number   1
_chemical_formula_structural   Dy9Ho(SiB4)4
_chemical_formula_sum   'Dy9 Ho1 Si4 B16'
_cell_volume   422.62347796
_cell_formula_units_Z   1
loop_
 _symmetry_equiv_pos_site_id
 _symmetry_equiv_pos_as_xyz
  1  'x, y, z'
loop_
 _atom_site_type_symbol
 _atom_site_label
 _atom_site_symmetry_multiplicity
 _atom_site_fract_x
 _atom_site_fract_y
 _atom_site_fract_z
 _atom_site_occupancy
  Dy  Dy0  1  0.680362  0.180259  0.224200  1
  Dy  Dy1  1  0.319638  0.819741  0.775800  1
  Dy  Dy2  1  0.319638  0.819741  0.224200  1
  Dy  Dy3  1  0.819741  0.680362  0.224200  1
  Dy  Dy4  1  0.819741  0.680362  0.775800  1
  Dy  Dy5  1  0.680362  0.180259  0.775800  1
  Dy  Dy6  1  0.180259  0.319638  0.775800  1
  Dy  Dy7  1  0.180259  0.319638  0.224200  1
  Dy  Dy8  1  0.500000  0.500000  0.500000  1
  Ho  Ho9  1  0.000000  0.000000  0.500000  1
  Si  Si10  1  0.114697  0.615317  0.500000  1
  Si  Si11  1  0.885303  0.384683  0.500000  1
  Si  Si12  1  0.384683  0.114697  0.500000  1
  Si  Si13  1  0.615317  0.885303  0.500000  1
  B  B14  1  0.172738  0.039127  0.000000  1
  B  B15  1  0.827262  0.960873  0.000000  1
  B  B16  1  0.960873  0.172738  0.000000  1
  B  B17  1  0.327262  0.539152  0.000000  1
  B  B18  1  0.039127  0.827262  0.000000  1
  B  B19  1  0.672738  0.460848  0.000000  1
  B  B20  1  0.539152  0.672738  0.000000  1
  B  B21  1  0.460848  0.327262  0.000000  1
  B  B22  1  0.089893  0.589866  0.000000  1
  B  B23  1  0.910107  0.410134  0.000000  1
  B  B24  1  0.410134  0.089893  0.000000  1
  B  B25  1  0.589866  0.910107  0.000000  1
  B  B26  1  0.000000  0.000000  0.162732  1
  B  B27  1  0.000000  0.000000  0.837268  1
  B  B28  1  0.500000  0.500000  0.837480  1
  B  B29  1  0.500000  0.500000  0.162520  1
