# generated using pymatgen
data_Pm(GaPd)2
_symmetry_space_group_name_H-M   'P 1'
_cell_length_a   6.05928949
_cell_length_b   6.05928906
_cell_length_c   6.05928945
_cell_angle_alpha   138.51320090
_cell_angle_beta   138.51319679
_cell_angle_gamma   60.11791483
_symmetry_Int_Tables_number   1
_chemical_formula_structural   Pm(GaPd)2
_chemical_formula_sum   'Pm1 Ga2 Pd2'
_cell_volume   96.61701136
_cell_formula_units_Z   1
loop_
 _symmetry_equiv_pos_site_id
 _symmetry_equiv_pos_as_xyz
  1  'x, y, z'
loop_
 _atom_site_type_symbol
 _atom_site_label
 _atom_site_symmetry_multiplicity
 _atom_site_fract_x
 _atom_site_fract_y
 _atom_site_fract_z
 _atom_site_occupancy
  Pm  Pm0  1  0.000000  0.000000  0.000000  1
  Ga  Ga1  1  0.377826  0.377826  0.000000  1
  Ga  Ga2  1  0.622173  0.622173  0.000000  1
  Pd  Pd3  1  0.750000  0.250000  0.500000  1
  Pd  Pd4  1  0.250000  0.750000  0.500000  1
