# generated using pymatgen
data_CsAcGeS4
_symmetry_space_group_name_H-M   'P 1'
_cell_length_a   6.90105785
_cell_length_b   7.02516600
_cell_length_c   19.95347909
_cell_angle_alpha   89.99936367
_cell_angle_beta   112.89902201
_cell_angle_gamma   90.00095569
_symmetry_Int_Tables_number   1
_chemical_formula_structural   CsAcGeS4
_chemical_formula_sum   'Cs4 Ac4 Ge4 S16'
_cell_volume   891.13000903
_cell_formula_units_Z   4
loop_
 _symmetry_equiv_pos_site_id
 _symmetry_equiv_pos_as_xyz
  1  'x, y, z'
loop_
 _atom_site_type_symbol
 _atom_site_label
 _atom_site_symmetry_multiplicity
 _atom_site_fract_x
 _atom_site_fract_y
 _atom_site_fract_z
 _atom_site_occupancy
  Cs  Cs0  1  0.790429  0.753899  0.034235  1
  Cs  Cs1  1  0.209564  0.253899  0.465764  1
  Cs  Cs2  1  0.790436  0.746101  0.534236  1
  Cs  Cs3  1  0.209571  0.246101  0.965765  1
  Ac  Ac4  1  0.684789  0.235136  0.225528  1
  Ac  Ac5  1  0.315204  0.735132  0.274471  1
  Ac  Ac6  1  0.684796  0.264867  0.725529  1
  Ac  Ac7  1  0.315211  0.764863  0.774472  1
  Ge  Ge8  1  0.116504  0.267615  0.162613  1
  Ge  Ge9  1  0.883490  0.767616  0.337388  1
  Ge  Ge10  1  0.116508  0.232385  0.662611  1
  Ge  Ge11  1  0.883497  0.732384  0.837387  1
  S  S12  1  0.779322  0.262889  0.090120  1
  S  S13  1  0.306013  0.502535  0.142008  1
  S  S14  1  0.281210  0.003838  0.149762  1
  S  S15  1  0.846173  0.814126  0.221424  1
  S  S16  1  0.153818  0.314124  0.278578  1
  S  S17  1  0.718772  0.503838  0.350235  1
  S  S18  1  0.693983  0.002533  0.357991  1
  S  S19  1  0.220675  0.762891  0.409879  1
  S  S20  1  0.779325  0.237110  0.590120  1
  S  S21  1  0.306016  0.997466  0.642008  1
  S  S22  1  0.281230  0.496163  0.649765  1
  S  S23  1  0.846181  0.685876  0.721422  1
  S  S24  1  0.153828  0.185873  0.778576  1
  S  S25  1  0.718790  0.996161  0.850238  1
  S  S26  1  0.693986  0.497465  0.857991  1
  S  S27  1  0.220677  0.737110  0.909880  1
