# generated using pymatgen
data_Y7HoSc11Si16Mo
_symmetry_space_group_name_H-M   'P 1'
_cell_length_a   7.08056128
_cell_length_b   7.33277165
_cell_length_c   13.90659202
_cell_angle_alpha   90.15508202
_cell_angle_beta   89.68985680
_cell_angle_gamma   89.72783407
_symmetry_Int_Tables_number   1
_chemical_formula_structural   Y7HoSc11Si16Mo
_chemical_formula_sum   'Y7 Ho1 Sc11 Si16 Mo1'
_cell_volume   722.01077159
_cell_formula_units_Z   1
loop_
 _symmetry_equiv_pos_site_id
 _symmetry_equiv_pos_as_xyz
  1  'x, y, z'
loop_
 _atom_site_type_symbol
 _atom_site_label
 _atom_site_symmetry_multiplicity
 _atom_site_fract_x
 _atom_site_fract_y
 _atom_site_fract_z
 _atom_site_occupancy
  Y  Y0  1  0.011731  0.174614  0.097203  1
  Y  Y1  1  0.989302  0.825615  0.898756  1
  Y  Y2  1  0.487446  0.677529  0.899429  1
  Y  Y3  1  0.992880  0.829175  0.595779  1
  Y  Y4  1  0.512869  0.323674  0.096526  1
  Y  Y5  1  0.009845  0.175041  0.403633  1
  Y  Y6  1  0.506966  0.323888  0.409765  1
  Ho  Ho7  1  0.487437  0.676064  0.596270  1
  Sc  Sc8  1  0.163674  0.495016  0.744860  1
  Sc  Sc9  1  0.837761  0.498171  0.251878  1
  Sc  Sc10  1  0.337082  0.002623  0.252372  1
  Sc  Sc11  1  0.658043  0.001987  0.747100  1
  Sc  Sc12  1  0.665598  0.825581  0.378990  1
  Sc  Sc13  1  0.168674  0.678251  0.377940  1
  Sc  Sc14  1  0.669203  0.824176  0.124667  1
  Sc  Sc15  1  0.832638  0.323613  0.623894  1
  Sc  Sc16  1  0.332602  0.176738  0.874918  1
  Sc  Sc17  1  0.830384  0.322688  0.871811  1
  Sc  Sc18  1  0.170032  0.676741  0.125854  1
  Si  Si19  1  0.042691  0.120542  0.745195  1
  Si  Si20  1  0.963775  0.884914  0.251427  1
  Si  Si21  1  0.466893  0.617372  0.250930  1
  Si  Si22  1  0.531189  0.375221  0.745680  1
  Si  Si23  1  0.286964  0.880043  0.745871  1
  Si  Si24  1  0.711251  0.126869  0.250936  1
  Si  Si25  1  0.215504  0.373498  0.250730  1
  Si  Si26  1  0.783871  0.623992  0.746694  1
  Si  Si27  1  0.174450  0.451545  0.540927  1
  Si  Si28  1  0.843197  0.532516  0.460789  1
  Si  Si29  1  0.334252  0.969435  0.471036  1
  Si  Si30  1  0.845122  0.535333  0.038839  1
  Si  Si31  1  0.646871  0.035039  0.544882  1
  Si  Si32  1  0.154542  0.466284  0.959013  1
  Si  Si33  1  0.660828  0.035915  0.958800  1
  Si  Si34  1  0.341500  0.962956  0.038494  1
  Mo  Mo35  1  0.332936  0.177336  0.628111  1
