# generated using pymatgen
data_Cs6YSe4Cl
_symmetry_space_group_name_H-M   'P 1'
_cell_length_a   11.60722100
_cell_length_b   11.60722240
_cell_length_c   8.70656900
_cell_angle_alpha   90.00000000
_cell_angle_beta   90.00000000
_cell_angle_gamma   120.00000457
_symmetry_Int_Tables_number   1
_chemical_formula_structural   Cs6YSe4Cl
_chemical_formula_sum   'Cs12 Y2 Se8 Cl2'
_cell_volume   1015.86083482
_cell_formula_units_Z   2
loop_
 _symmetry_equiv_pos_site_id
 _symmetry_equiv_pos_as_xyz
  1  'x, y, z'
loop_
 _atom_site_type_symbol
 _atom_site_label
 _atom_site_symmetry_multiplicity
 _atom_site_fract_x
 _atom_site_fract_y
 _atom_site_fract_z
 _atom_site_occupancy
  Cs  Cs0  1  0.131045  0.868955  0.512294  1
  Cs  Cs1  1  0.737908  0.868955  0.512294  1
  Cs  Cs2  1  0.939197  0.469598  0.317616  1
  Cs  Cs3  1  0.530402  0.469598  0.317616  1
  Cs  Cs4  1  0.868955  0.737908  0.012294  1
  Cs  Cs5  1  0.262092  0.131045  0.012294  1
  Cs  Cs6  1  0.530402  0.060803  0.317616  1
  Cs  Cs7  1  0.131045  0.262092  0.512294  1
  Cs  Cs8  1  0.868955  0.131045  0.012294  1
  Cs  Cs9  1  0.060803  0.530402  0.817616  1
  Cs  Cs10  1  0.469598  0.939197  0.817616  1
  Cs  Cs11  1  0.469598  0.530402  0.817616  1
  Y  Y12  1  0.666667  0.333333  0.716488  1
  Y  Y13  1  0.333333  0.666667  0.216488  1
  Se  Se14  1  0.411361  0.205681  0.609799  1
  Se  Se15  1  0.588639  0.794319  0.109799  1
  Se  Se16  1  0.666667  0.333333  0.032409  1
  Se  Se17  1  0.794319  0.588639  0.609799  1
  Se  Se18  1  0.205681  0.411361  0.109799  1
  Se  Se19  1  0.333333  0.666667  0.532409  1
  Se  Se20  1  0.205681  0.794319  0.109799  1
  Se  Se21  1  0.794319  0.205681  0.609799  1
  Cl  Cl22  1  0.000000  0.000000  0.272578  1
  Cl  Cl23  1  0.000000  0.000000  0.772578  1
