# generated using pymatgen
data_Tb6Dy4Si5As
_symmetry_space_group_name_H-M   'P 1'
_cell_length_a   8.47816000
_cell_length_b   8.48725148
_cell_length_c   6.35536100
_cell_angle_alpha   90.00000000
_cell_angle_beta   90.00000000
_cell_angle_gamma   119.96457156
_symmetry_Int_Tables_number   1
_chemical_formula_structural   Tb6Dy4Si5As
_chemical_formula_sum   'Tb6 Dy4 Si5 As1'
_cell_volume   396.18175169
_cell_formula_units_Z   1
loop_
 _symmetry_equiv_pos_site_id
 _symmetry_equiv_pos_as_xyz
  1  'x, y, z'
loop_
 _atom_site_type_symbol
 _atom_site_label
 _atom_site_symmetry_multiplicity
 _atom_site_fract_x
 _atom_site_fract_y
 _atom_site_fract_z
 _atom_site_occupancy
  Tb  Tb0  1  0.996728  0.753181  0.750000  1
  Tb  Tb1  1  0.000116  0.244462  0.250000  1
  Tb  Tb2  1  0.755654  0.755538  0.250000  1
  Tb  Tb3  1  0.757644  0.000000  0.750000  1
  Tb  Tb4  1  0.243547  0.246819  0.750000  1
  Tb  Tb5  1  0.243554  0.000000  0.250000  1
  Dy  Dy6  1  0.669033  0.335978  0.001164  1
  Dy  Dy7  1  0.333054  0.664022  0.498836  1
  Dy  Dy8  1  0.333054  0.664022  0.001164  1
  Dy  Dy9  1  0.669033  0.335978  0.498836  1
  Si  Si10  1  0.394110  0.393168  0.250000  1
  Si  Si11  1  0.000942  0.606832  0.250000  1
  Si  Si12  1  0.999773  0.393939  0.750000  1
  Si  Si13  1  0.605834  0.606061  0.750000  1
  Si  Si14  1  0.606927  0.000000  0.250000  1
  As  As15  1  0.390997  0.000000  0.750000  1
