# generated using pymatgen
data_Hf4Nb4GaP3
_symmetry_space_group_name_H-M   'P 1'
_cell_length_a   3.54963700
_cell_length_b   6.95461589
_cell_length_c   8.43753217
_cell_angle_alpha   89.28572800
_cell_angle_beta   90.00000000
_cell_angle_gamma   90.00000000
_symmetry_Int_Tables_number   1
_chemical_formula_structural   Hf4Nb4GaP3
_chemical_formula_sum   'Hf4 Nb4 Ga1 P3'
_cell_volume   208.27578728
_cell_formula_units_Z   1
loop_
 _symmetry_equiv_pos_site_id
 _symmetry_equiv_pos_as_xyz
  1  'x, y, z'
loop_
 _atom_site_type_symbol
 _atom_site_label
 _atom_site_symmetry_multiplicity
 _atom_site_fract_x
 _atom_site_fract_y
 _atom_site_fract_z
 _atom_site_occupancy
  Hf  Hf0  1  0.250000  0.037391  0.668863  1
  Hf  Hf1  1  0.250000  0.533464  0.829467  1
  Hf  Hf2  1  0.750000  0.470295  0.159716  1
  Hf  Hf3  1  0.750000  0.954780  0.332712  1
  Nb  Nb4  1  0.750000  0.855992  0.939257  1
  Nb  Nb5  1  0.250000  0.641245  0.443240  1
  Nb  Nb6  1  0.750000  0.369389  0.568404  1
  Nb  Nb7  1  0.250000  0.134892  0.053665  1
  Ga  Ga8  1  0.250000  0.257659  0.356988  1
  P  P9  1  0.250000  0.764118  0.147149  1
  P  P10  1  0.750000  0.744838  0.643687  1
  P  P11  1  0.750000  0.235937  0.856852  1
