# generated using pymatgen
data_Dy4HfPd14Au
_symmetry_space_group_name_H-M   'P 1'
_cell_length_a   4.12502400
_cell_length_b   4.08118300
_cell_length_c   20.53887500
_cell_angle_alpha   90.00000000
_cell_angle_beta   90.00000000
_cell_angle_gamma   90.00000000
_symmetry_Int_Tables_number   1
_chemical_formula_structural   Dy4HfPd14Au
_chemical_formula_sum   'Dy4 Hf1 Pd14 Au1'
_cell_volume   345.77150514
_cell_formula_units_Z   1
loop_
 _symmetry_equiv_pos_site_id
 _symmetry_equiv_pos_as_xyz
  1  'x, y, z'
loop_
 _atom_site_type_symbol
 _atom_site_label
 _atom_site_symmetry_multiplicity
 _atom_site_fract_x
 _atom_site_fract_y
 _atom_site_fract_z
 _atom_site_occupancy
  Dy  Dy0  1  0.000000  0.000000  0.197568  1
  Dy  Dy1  1  0.000000  0.000000  0.394930  1
  Dy  Dy2  1  0.000000  0.000000  0.605070  1
  Dy  Dy3  1  0.000000  0.000000  0.802432  1
  Hf  Hf4  1  0.000000  0.000000  0.000000  1
  Pd  Pd5  1  0.500000  0.500000  0.000000  1
  Pd  Pd6  1  0.500000  0.500000  0.196285  1
  Pd  Pd7  1  0.500000  0.500000  0.398337  1
  Pd  Pd8  1  0.500000  0.500000  0.601663  1
  Pd  Pd9  1  0.500000  0.500000  0.803715  1
  Pd  Pd10  1  0.500000  0.000000  0.094172  1
  Pd  Pd11  1  0.500000  0.000000  0.297545  1
  Pd  Pd12  1  0.500000  0.000000  0.702455  1
  Pd  Pd13  1  0.500000  0.000000  0.905828  1
  Pd  Pd14  1  0.000000  0.500000  0.094004  1
  Pd  Pd15  1  0.000000  0.500000  0.297406  1
  Pd  Pd16  1  0.000000  0.500000  0.500000  1
  Pd  Pd17  1  0.000000  0.500000  0.702594  1
  Pd  Pd18  1  0.000000  0.500000  0.905996  1
  Au  Au19  1  0.500000  0.000000  0.500000  1
