# generated using pymatgen
data_Tb5GdDy2(MoO6)4
_symmetry_space_group_name_H-M   'P 1'
_cell_length_a   9.99618088
_cell_length_b   9.99617952
_cell_length_c   5.42613108
_cell_angle_alpha   75.05103734
_cell_angle_beta   75.05102878
_cell_angle_gamma   68.15674149
_symmetry_Int_Tables_number   1
_chemical_formula_structural   Tb5GdDy2(MoO6)4
_chemical_formula_sum   'Tb5 Gd1 Dy2 Mo4 O24'
_cell_volume   478.24147915
_cell_formula_units_Z   1
loop_
 _symmetry_equiv_pos_site_id
 _symmetry_equiv_pos_as_xyz
  1  'x, y, z'
loop_
 _atom_site_type_symbol
 _atom_site_label
 _atom_site_symmetry_multiplicity
 _atom_site_fract_x
 _atom_site_fract_y
 _atom_site_fract_z
 _atom_site_occupancy
  Tb  Tb0  1  0.784020  0.552165  0.621389  1
  Tb  Tb1  1  0.447835  0.215980  0.878611  1
  Tb  Tb2  1  0.215983  0.447415  0.378774  1
  Tb  Tb3  1  0.552585  0.784017  0.121226  1
  Tb  Tb4  1  0.863635  0.136365  0.750000  1
  Gd  Gd5  1  0.136303  0.863697  0.250000  1
  Dy  Dy6  1  0.394174  0.605826  0.750000  1
  Dy  Dy7  1  0.606214  0.393786  0.250000  1
  Mo  Mo8  1  0.988695  0.703412  0.939140  1
  Mo  Mo9  1  0.296588  0.011305  0.560860  1
  Mo  Mo10  1  0.010890  0.296927  0.061130  1
  Mo  Mo11  1  0.703073  0.989110  0.438870  1
  O  O12  1  0.426923  0.391284  0.077898  1
  O  O13  1  0.608716  0.573077  0.422102  1
  O  O14  1  0.573189  0.608638  0.922226  1
  O  O15  1  0.391362  0.426811  0.577774  1
  O  O16  1  0.192606  0.661347  0.079217  1
  O  O17  1  0.338653  0.807394  0.420783  1
  O  O18  1  0.807516  0.337586  0.919678  1
  O  O19  1  0.662414  0.192484  0.580322  1
  O  O20  1  0.115819  0.672231  0.629972  1
  O  O21  1  0.327769  0.884181  0.870028  1
  O  O22  1  0.884329  0.326580  0.372056  1
  O  O23  1  0.673420  0.115671  0.127944  1
  O  O24  1  0.710561  0.817660  0.363492  1
  O  O25  1  0.182340  0.289439  0.136508  1
  O  O26  1  0.289490  0.182452  0.636647  1
  O  O27  1  0.817548  0.710510  0.863353  1
  O  O28  1  0.887423  0.952462  0.486342  1
  O  O29  1  0.047538  0.112577  0.013658  1
  O  O30  1  0.111199  0.048615  0.516274  1
  O  O31  1  0.951385  0.888801  0.983726  1
  O  O32  1  0.568759  0.975056  0.744005  1
  O  O33  1  0.024944  0.431241  0.755995  1
  O  O34  1  0.431156  0.025057  0.255784  1
  O  O35  1  0.974943  0.568844  0.244216  1
