# generated using pymatgen
data_Lu10Bi2Pd3Rh
_symmetry_space_group_name_H-M   'P 1'
_cell_length_a   8.73048428
_cell_length_b   8.73048314
_cell_length_c   8.66995150
_cell_angle_alpha   127.95171992
_cell_angle_beta   127.95171407
_cell_angle_gamma   77.20482002
_symmetry_Int_Tables_number   1
_chemical_formula_structural   Lu10Bi2Pd3Rh
_chemical_formula_sum   'Lu10 Bi2 Pd3 Rh1'
_cell_volume   397.62100809
_cell_formula_units_Z   1
loop_
 _symmetry_equiv_pos_site_id
 _symmetry_equiv_pos_as_xyz
  1  'x, y, z'
loop_
 _atom_site_type_symbol
 _atom_site_label
 _atom_site_symmetry_multiplicity
 _atom_site_fract_x
 _atom_site_fract_y
 _atom_site_fract_z
 _atom_site_occupancy
  Lu  Lu0  1  0.000934  0.998374  0.999308  1
  Lu  Lu1  1  0.498374  0.500934  0.999308  1
  Lu  Lu2  1  0.791958  0.291958  0.807412  1
  Lu  Lu3  1  0.199809  0.699809  0.175000  1
  Lu  Lu4  1  0.475192  0.975192  0.175000  1
  Lu  Lu5  1  0.291269  0.488295  0.506332  1
  Lu  Lu6  1  0.018038  0.215063  0.506332  1
  Lu  Lu7  1  0.515453  0.015453  0.807412  1
  Lu  Lu8  1  0.715063  0.518038  0.506332  1
  Lu  Lu9  1  0.988295  0.791269  0.506332  1
  Bi  Bi10  1  0.252329  0.252329  0.004658  1
  Bi  Bi11  1  0.752329  0.752329  0.004658  1
  Pd  Pd12  1  0.860635  0.360635  0.221269  1
  Pd  Pd13  1  0.636577  0.862419  0.498996  1
  Pd  Pd14  1  0.362419  0.136577  0.498996  1
  Rh  Rh15  1  0.141327  0.641327  0.782653  1
