# generated using pymatgen
data_La5Nd2Y3Si8O3
_symmetry_space_group_name_H-M   'P 1'
_cell_length_a   10.73499800
_cell_length_b   10.76249006
_cell_length_c   4.53398000
_cell_angle_alpha   90.00000000
_cell_angle_beta   90.00000000
_cell_angle_gamma   119.91554208
_symmetry_Int_Tables_number   1
_chemical_formula_structural   La5Nd2Y3Si8O3
_chemical_formula_sum   'La5 Nd2 Y3 Si8 O3'
_cell_volume   454.03981961
_cell_formula_units_Z   1
loop_
 _symmetry_equiv_pos_site_id
 _symmetry_equiv_pos_as_xyz
  1  'x, y, z'
loop_
 _atom_site_type_symbol
 _atom_site_label
 _atom_site_symmetry_multiplicity
 _atom_site_fract_x
 _atom_site_fract_y
 _atom_site_fract_z
 _atom_site_occupancy
  La  La0  1  0.788096  0.576194  0.000000  1
  La  La1  1  0.999611  0.999221  0.000000  1
  La  La2  1  0.212336  0.424671  0.000000  1
  La  La3  1  0.423925  0.211154  0.000000  1
  La  La4  1  0.787227  0.211154  0.000000  1
  Nd  Nd5  1  0.212095  0.789275  0.000000  1
  Nd  Nd6  1  0.577181  0.789275  0.000000  1
  Y  Y7  1  0.001205  0.501625  0.500000  1
  Y  Y8  1  0.500420  0.501625  0.500000  1
  Y  Y9  1  0.498709  0.997418  0.500000  1
  Si  Si10  1  0.000468  0.776216  0.500000  1
  Si  Si11  1  0.999562  0.222749  0.500000  1
  Si  Si12  1  0.223187  0.222749  0.500000  1
  Si  Si13  1  0.775630  0.999209  0.500000  1
  Si  Si14  1  0.334082  0.668165  0.500000  1
  Si  Si15  1  0.223579  0.999209  0.500000  1
  Si  Si16  1  0.666627  0.333252  0.500000  1
  Si  Si17  1  0.775748  0.776216  0.500000  1
  O  O18  1  0.000991  0.500790  0.000000  1
  O  O19  1  0.499799  0.500790  0.000000  1
  O  O20  1  0.499521  0.999042  0.000000  1
