# generated using pymatgen
data_TaRhSe4
_symmetry_space_group_name_H-M   'P 1'
_cell_length_a   3.61612500
_cell_length_b   11.92469300
_cell_length_c   13.76996800
_cell_angle_alpha   90.00000000
_cell_angle_beta   90.00000000
_cell_angle_gamma   90.00000000
_symmetry_Int_Tables_number   1
_chemical_formula_structural   TaRhSe4
_chemical_formula_sum   'Ta4 Rh4 Se16'
_cell_volume   593.77727526
_cell_formula_units_Z   4
loop_
 _symmetry_equiv_pos_site_id
 _symmetry_equiv_pos_as_xyz
  1  'x, y, z'
loop_
 _atom_site_type_symbol
 _atom_site_label
 _atom_site_symmetry_multiplicity
 _atom_site_fract_x
 _atom_site_fract_y
 _atom_site_fract_z
 _atom_site_occupancy
  Ta  Ta0  1  0.500000  0.949716  0.497568  1
  Ta  Ta1  1  0.000000  0.050284  0.997568  1
  Ta  Ta2  1  0.500000  0.734164  0.996811  1
  Ta  Ta3  1  0.000000  0.265836  0.496811  1
  Rh  Rh4  1  0.500000  0.468819  0.499584  1
  Rh  Rh5  1  0.000000  0.531181  0.999584  1
  Rh  Rh6  1  0.500000  0.253386  0.993772  1
  Rh  Rh7  1  0.000000  0.746614  0.493772  1
  Se  Se8  1  0.500000  0.936780  0.898868  1
  Se  Se9  1  0.000000  0.063220  0.398868  1
  Se  Se10  1  0.500000  0.803129  0.371295  1
  Se  Se11  1  0.000000  0.196871  0.871295  1
  Se  Se12  1  0.500000  0.652570  0.589517  1
  Se  Se13  1  0.000000  0.347430  0.089517  1
  Se  Se14  1  0.500000  0.586218  0.122193  1
  Se  Se15  1  0.000000  0.413782  0.622193  1
  Se  Se16  1  0.500000  0.437280  0.903882  1
  Se  Se17  1  0.000000  0.562720  0.403882  1
  Se  Se18  1  0.500000  0.316850  0.370194  1
  Se  Se19  1  0.000000  0.683150  0.870194  1
  Se  Se20  1  0.500000  0.152661  0.596301  1
  Se  Se21  1  0.000000  0.847339  0.096301  1
  Se  Se22  1  0.500000  0.102498  0.124014  1
  Se  Se23  1  0.000000  0.897502  0.624014  1
