# generated using pymatgen
data_SrNdTl2(Ir2O7)2
_symmetry_space_group_name_H-M   'P 1'
_cell_length_a   7.38397175
_cell_length_b   7.34359149
_cell_length_c   7.28334800
_cell_angle_alpha   60.27100211
_cell_angle_beta   60.44977352
_cell_angle_gamma   61.20799584
_symmetry_Int_Tables_number   1
_chemical_formula_structural   SrNdTl2(Ir2O7)2
_chemical_formula_sum   'Sr1 Nd1 Tl2 Ir4 O14'
_cell_volume   283.27556600
_cell_formula_units_Z   1
loop_
 _symmetry_equiv_pos_site_id
 _symmetry_equiv_pos_as_xyz
  1  'x, y, z'
loop_
 _atom_site_type_symbol
 _atom_site_label
 _atom_site_symmetry_multiplicity
 _atom_site_fract_x
 _atom_site_fract_y
 _atom_site_fract_z
 _atom_site_occupancy
  Sr  Sr0  1  0.125000  0.625000  0.125000  1
  Nd  Nd1  1  0.625000  0.125000  0.125000  1
  Tl  Tl2  1  0.125000  0.125000  0.625000  1
  Tl  Tl3  1  0.125000  0.125000  0.125000  1
  Ir  Ir4  1  0.125000  0.625000  0.625000  1
  Ir  Ir5  1  0.625000  0.125000  0.625000  1
  Ir  Ir6  1  0.625000  0.625000  0.125000  1
  Ir  Ir7  1  0.625000  0.625000  0.625000  1
  O  O8  1  0.698160  0.711794  0.295022  1
  O  O9  1  0.299330  0.297753  0.701459  1
  O  O10  1  0.701605  0.299146  0.699869  1
  O  O11  1  0.302447  0.707102  0.300880  1
  O  O12  1  0.302447  0.707102  0.689571  1
  O  O13  1  0.701605  0.299146  0.299381  1
  O  O14  1  0.551840  0.538206  0.954978  1
  O  O15  1  0.950670  0.952247  0.548541  1
  O  O16  1  0.548395  0.950854  0.550131  1
  O  O17  1  0.947553  0.542898  0.949120  1
  O  O18  1  0.947553  0.542898  0.560429  1
  O  O19  1  0.548395  0.950854  0.950619  1
  O  O20  1  0.249241  0.231433  0.259663  1
  O  O21  1  0.000759  0.018567  0.990337  1
