# generated using pymatgen
data_YbAs2F12
_symmetry_space_group_name_H-M   'P 1'
_cell_length_a   9.56453890
_cell_length_b   9.56453841
_cell_length_c   9.56453832
_cell_angle_alpha   131.52485490
_cell_angle_beta   131.52484957
_cell_angle_gamma   70.98051547
_symmetry_Int_Tables_number   1
_chemical_formula_structural   YbAs2F12
_chemical_formula_sum   'Yb2 As4 F24'
_cell_volume   480.24375657
_cell_formula_units_Z   2
loop_
 _symmetry_equiv_pos_site_id
 _symmetry_equiv_pos_as_xyz
  1  'x, y, z'
loop_
 _atom_site_type_symbol
 _atom_site_label
 _atom_site_symmetry_multiplicity
 _atom_site_fract_x
 _atom_site_fract_y
 _atom_site_fract_z
 _atom_site_occupancy
  Yb  Yb0  1  0.750000  0.250000  0.500000  1
  Yb  Yb1  1  0.000000  0.000000  0.000000  1
  As  As2  1  0.779385  0.779385  0.000000  1
  As  As3  1  0.220615  0.220615  0.000000  1
  As  As4  1  0.970615  0.470615  0.500000  1
  As  As5  1  0.529385  0.029385  0.500000  1
  F  F6  1  0.862496  0.742652  0.196070  1
  F  F7  1  0.546581  0.666426  0.803930  1
  F  F8  1  0.416426  0.796581  0.303930  1
  F  F9  1  0.333574  0.137504  0.880157  1
  F  F10  1  0.257348  0.453419  0.119843  1
  F  F11  1  0.203419  0.507348  0.619843  1
  F  F12  1  0.650523  0.263604  0.682163  1
  F  F13  1  0.736396  0.418559  0.386918  1
  F  F14  1  0.031642  0.349477  0.613082  1
  F  F15  1  0.099477  0.281642  0.113082  1
  F  F16  1  0.168559  0.986396  0.886918  1
  F  F17  1  0.581441  0.968358  0.317837  1
  F  F18  1  0.718358  0.831441  0.817837  1
  F  F19  1  0.013604  0.900523  0.182163  1
  F  F20  1  0.308315  0.085070  0.329181  1
  F  F21  1  0.914930  0.244111  0.223244  1
  F  F22  1  0.020867  0.691685  0.776756  1
  F  F23  1  0.441685  0.270867  0.276756  1
  F  F24  1  0.994111  0.164930  0.723244  1
  F  F25  1  0.755889  0.979133  0.670819  1
  F  F26  1  0.729133  0.005889  0.170819  1
  F  F27  1  0.835070  0.558315  0.829181  1
  F  F28  1  0.492652  0.112496  0.696070  1
  F  F29  1  0.887504  0.583574  0.380157  1
