# generated using pymatgen
data_Tb5DyHoFeI12
_symmetry_space_group_name_H-M   'P 1'
_cell_length_a   9.79681839
_cell_length_b   9.80380754
_cell_length_c   9.74231741
_cell_angle_alpha   106.97838563
_cell_angle_beta   106.91608654
_cell_angle_gamma   107.03951708
_symmetry_Int_Tables_number   1
_chemical_formula_structural   Tb5DyHoFeI12
_chemical_formula_sum   'Tb5 Dy1 Ho1 Fe1 I12'
_cell_volume   779.73631943
_cell_formula_units_Z   1
loop_
 _symmetry_equiv_pos_site_id
 _symmetry_equiv_pos_as_xyz
  1  'x, y, z'
loop_
 _atom_site_type_symbol
 _atom_site_label
 _atom_site_symmetry_multiplicity
 _atom_site_fract_x
 _atom_site_fract_y
 _atom_site_fract_z
 _atom_site_occupancy
  Tb  Tb0  1  0.021359  0.089923  0.280268  1
  Tb  Tb1  1  0.291828  0.022180  0.092675  1
  Tb  Tb2  1  0.906282  0.706852  0.978223  1
  Tb  Tb3  1  0.978957  0.911013  0.719936  1
  Tb  Tb4  1  0.708319  0.977813  0.907429  1
  Dy  Dy5  1  0.499990  0.500285  0.499806  1
  Ho  Ho6  1  0.092722  0.289565  0.021612  1
  Fe  Fe7  1  0.999915  0.999657  0.000092  1
  I  I8  1  0.461869  0.386381  0.160115  1
  I  I9  1  0.161422  0.461580  0.384487  1
  I  I10  1  0.384500  0.162254  0.463140  1
  I  I11  1  0.536150  0.613688  0.838822  1
  I  I12  1  0.838435  0.538587  0.613451  1
  I  I13  1  0.615609  0.838331  0.537018  1
  I  I14  1  0.776991  0.321098  0.928637  1
  I  I15  1  0.929106  0.777416  0.320197  1
  I  I16  1  0.318497  0.927451  0.773477  1
  I  I17  1  0.224969  0.678315  0.071750  1
  I  I18  1  0.071506  0.224627  0.682268  1
  I  I19  1  0.681573  0.072985  0.226599  1
