# generated using pymatgen
data_BaTm5(Si3Ru)8
_symmetry_space_group_name_H-M   'P 1'
_cell_length_a   10.14140554
_cell_length_b   10.14140495
_cell_length_c   8.18063325
_cell_angle_alpha   89.95995315
_cell_angle_beta   90.04003888
_cell_angle_gamma   132.37928034
_symmetry_Int_Tables_number   1
_chemical_formula_structural   BaTm5(Si3Ru)8
_chemical_formula_sum   'Ba1 Tm5 Si24 Ru8'
_cell_volume   621.51363842
_cell_formula_units_Z   1
loop_
 _symmetry_equiv_pos_site_id
 _symmetry_equiv_pos_as_xyz
  1  'x, y, z'
loop_
 _atom_site_type_symbol
 _atom_site_label
 _atom_site_symmetry_multiplicity
 _atom_site_fract_x
 _atom_site_fract_y
 _atom_site_fract_z
 _atom_site_occupancy
  Ba  Ba0  1  0.502411  0.002411  0.250000  1
  Tm  Tm1  1  0.000736  0.000448  0.000956  1
  Tm  Tm2  1  0.500448  0.500736  0.499044  1
  Tm  Tm3  1  0.003682  0.503682  0.250000  1
  Tm  Tm4  1  0.000656  0.500656  0.750000  1
  Tm  Tm5  1  0.497067  0.997067  0.750000  1
  Si  Si6  1  0.709858  0.301311  0.994257  1
  Si  Si7  1  0.290922  0.700373  0.996014  1
  Si  Si8  1  0.801311  0.209858  0.505743  1
  Si  Si9  1  0.200373  0.790922  0.503986  1
  Si  Si10  1  0.334006  0.332739  0.167394  1
  Si  Si11  1  0.667314  0.668575  0.833212  1
  Si  Si12  1  0.168575  0.167314  0.666788  1
  Si  Si13  1  0.832739  0.834006  0.332606  1
  Si  Si14  1  0.843970  0.613844  0.007809  1
  Si  Si15  1  0.156730  0.387527  0.996497  1
  Si  Si16  1  0.652752  0.887165  0.513733  1
  Si  Si17  1  0.113844  0.343970  0.492191  1
  Si  Si18  1  0.344167  0.111656  0.505707  1
  Si  Si19  1  0.887527  0.656730  0.503503  1
  Si  Si20  1  0.387165  0.152752  0.986267  1
  Si  Si21  1  0.611656  0.844167  0.994293  1
  Si  Si22  1  0.898232  0.131805  0.269667  1
  Si  Si23  1  0.110561  0.879525  0.727656  1
  Si  Si24  1  0.607785  0.376287  0.771147  1
  Si  Si25  1  0.631805  0.398232  0.230333  1
  Si  Si26  1  0.377817  0.611146  0.227628  1
  Si  Si27  1  0.379525  0.610561  0.772344  1
  Si  Si28  1  0.876287  0.107785  0.728853  1
  Si  Si29  1  0.111146  0.877817  0.272372  1
  Ru  Ru30  1  0.837240  0.175139  0.993262  1
  Ru  Ru31  1  0.161633  0.824825  0.993588  1
  Ru  Ru32  1  0.675139  0.337240  0.506738  1
  Ru  Ru33  1  0.324825  0.661633  0.506412  1
  Ru  Ru34  1  0.127619  0.125833  0.372340  1
  Ru  Ru35  1  0.872841  0.873802  0.626362  1
  Ru  Ru36  1  0.373802  0.372841  0.873638  1
  Ru  Ru37  1  0.625833  0.627619  0.127660  1
