# generated using pymatgen
data_Y2Ho4TaMoO14
_symmetry_space_group_name_H-M   'P 1'
_cell_length_a   6.47341857
_cell_length_b   6.47341682
_cell_length_c   7.45311401
_cell_angle_alpha   90.27041157
_cell_angle_beta   89.72958933
_cell_angle_gamma   108.47658918
_symmetry_Int_Tables_number   1
_chemical_formula_structural   Y2Ho4TaMoO14
_chemical_formula_sum   'Y2 Ho4 Ta1 Mo1 O14'
_cell_volume   296.21946852
_cell_formula_units_Z   1
loop_
 _symmetry_equiv_pos_site_id
 _symmetry_equiv_pos_as_xyz
  1  'x, y, z'
loop_
 _atom_site_type_symbol
 _atom_site_label
 _atom_site_symmetry_multiplicity
 _atom_site_fract_x
 _atom_site_fract_y
 _atom_site_fract_z
 _atom_site_occupancy
  Y  Y0  1  0.465881  0.465881  0.000000  1
  Y  Y1  1  0.535852  0.535852  0.500000  1
  Ho  Ho2  1  0.000191  0.536476  0.242544  1
  Ho  Ho3  1  0.999186  0.465150  0.740966  1
  Ho  Ho4  1  0.536476  0.000191  0.757456  1
  Ho  Ho5  1  0.465150  0.999186  0.259034  1
  Ta  Ta6  1  0.002870  0.002870  0.500000  1
  Mo  Mo7  1  0.999698  0.999698  0.000000  1
  O  O8  1  0.928765  0.072896  0.749494  1
  O  O9  1  0.072896  0.928765  0.250506  1
  O  O10  1  0.360080  0.640270  0.249339  1
  O  O11  1  0.640270  0.360080  0.750661  1
  O  O12  1  0.368899  0.630189  0.750046  1
  O  O13  1  0.630189  0.368899  0.249954  1
  O  O14  1  0.327966  0.081770  0.975887  1
  O  O15  1  0.671410  0.918293  0.475092  1
  O  O16  1  0.308351  0.049252  0.545085  1
  O  O17  1  0.690601  0.945953  0.040020  1
  O  O18  1  0.049252  0.308351  0.454915  1
  O  O19  1  0.945953  0.690601  0.959980  1
  O  O20  1  0.918293  0.671410  0.524908  1
  O  O21  1  0.081770  0.327966  0.024113  1
