# generated using pymatgen
data_Rb4CeThBr12
_symmetry_space_group_name_H-M   'P 1'
_cell_length_a   7.93277600
_cell_length_b   7.93277600
_cell_length_c   11.48900700
_cell_angle_alpha   90.00000000
_cell_angle_beta   90.00000000
_cell_angle_gamma   90.00000000
_symmetry_Int_Tables_number   1
_chemical_formula_structural   Rb4CeThBr12
_chemical_formula_sum   'Rb4 Ce1 Th1 Br12'
_cell_volume   722.99097548
_cell_formula_units_Z   1
loop_
 _symmetry_equiv_pos_site_id
 _symmetry_equiv_pos_as_xyz
  1  'x, y, z'
loop_
 _atom_site_type_symbol
 _atom_site_label
 _atom_site_symmetry_multiplicity
 _atom_site_fract_x
 _atom_site_fract_y
 _atom_site_fract_z
 _atom_site_occupancy
  Rb  Rb0  1  0.500000  0.000000  0.750184  1
  Rb  Rb1  1  0.500000  0.000000  0.249816  1
  Rb  Rb2  1  0.000000  0.500000  0.249816  1
  Rb  Rb3  1  0.000000  0.500000  0.750184  1
  Ce  Ce4  1  0.000000  0.000000  0.000000  1
  Th  Th5  1  0.500000  0.500000  0.500000  1
  Br  Br6  1  0.813649  0.298971  0.000000  1
  Br  Br7  1  0.186351  0.701029  0.000000  1
  Br  Br8  1  0.500000  0.500000  0.251547  1
  Br  Br9  1  0.310278  0.195535  0.500000  1
  Br  Br10  1  0.298971  0.186351  0.000000  1
  Br  Br11  1  0.804465  0.310278  0.500000  1
  Br  Br12  1  0.000000  0.000000  0.243926  1
  Br  Br13  1  0.689722  0.804465  0.500000  1
  Br  Br14  1  0.195535  0.689722  0.500000  1
  Br  Br15  1  0.500000  0.500000  0.748453  1
  Br  Br16  1  0.701029  0.813649  0.000000  1
  Br  Br17  1  0.000000  0.000000  0.756074  1
