# generated using pymatgen
data_La3Nd13Cd4Ni3Ir
_symmetry_space_group_name_H-M   'P 1'
_cell_length_a   9.93769938
_cell_length_b   9.93458716
_cell_length_c   9.93458738
_cell_angle_alpha   59.71634069
_cell_angle_beta   59.73638623
_cell_angle_gamma   59.73638648
_symmetry_Int_Tables_number   1
_chemical_formula_structural   La3Nd13Cd4Ni3Ir
_chemical_formula_sum   'La3 Nd13 Cd4 Ni3 Ir1'
_cell_volume   689.28098706
_cell_formula_units_Z   1
loop_
 _symmetry_equiv_pos_site_id
 _symmetry_equiv_pos_as_xyz
  1  'x, y, z'
loop_
 _atom_site_type_symbol
 _atom_site_label
 _atom_site_symmetry_multiplicity
 _atom_site_fract_x
 _atom_site_fract_y
 _atom_site_fract_z
 _atom_site_occupancy
  La  La0  1  0.595413  0.596904  0.596904  1
  La  La1  1  0.599269  0.600552  0.204107  1
  La  La2  1  0.599269  0.204107  0.600552  1
  Nd  Nd3  1  0.200209  0.601768  0.601768  1
  Nd  Nd4  1  0.060914  0.438907  0.438907  1
  Nd  Nd5  1  0.438059  0.060752  0.060752  1
  Nd  Nd6  1  0.438288  0.060567  0.438937  1
  Nd  Nd7  1  0.060817  0.437813  0.059313  1
  Nd  Nd8  1  0.438288  0.438937  0.060567  1
  Nd  Nd9  1  0.060817  0.059313  0.437813  1
  Nd  Nd10  1  0.189175  0.815013  0.815013  1
  Nd  Nd11  1  0.806732  0.188385  0.188385  1
  Nd  Nd12  1  0.814448  0.188516  0.814620  1
  Nd  Nd13  1  0.188273  0.807094  0.188656  1
  Nd  Nd14  1  0.814448  0.814620  0.188516  1
  Nd  Nd15  1  0.188273  0.188656  0.807094  1
  Cd  Cd16  1  0.832014  0.830328  0.830328  1
  Cd  Cd17  1  0.830520  0.829048  0.508845  1
  Cd  Cd18  1  0.830520  0.508845  0.829048  1
  Cd  Cd19  1  0.509333  0.829174  0.829174  1
  Ni  Ni20  1  0.393375  0.391429  0.824013  1
  Ni  Ni21  1  0.393375  0.824013  0.391429  1
  Ni  Ni22  1  0.824546  0.392213  0.392213  1
  Ir  Ir23  1  0.393631  0.393050  0.393050  1
