# generated using pymatgen
data_TbPr(TaSe2)8
_symmetry_space_group_name_H-M   'P 1'
_cell_length_a   7.02618700
_cell_length_b   7.02618601
_cell_length_c   14.58470800
_cell_angle_alpha   90.00000000
_cell_angle_beta   90.00000000
_cell_angle_gamma   120.00000938
_symmetry_Int_Tables_number   1
_chemical_formula_structural   TbPr(TaSe2)8
_chemical_formula_sum   'Tb1 Pr1 Ta8 Se16'
_cell_volume   623.54482092
_cell_formula_units_Z   1
loop_
 _symmetry_equiv_pos_site_id
 _symmetry_equiv_pos_as_xyz
  1  'x, y, z'
loop_
 _atom_site_type_symbol
 _atom_site_label
 _atom_site_symmetry_multiplicity
 _atom_site_fract_x
 _atom_site_fract_y
 _atom_site_fract_z
 _atom_site_occupancy
  Tb  Tb0  1  0.000000  0.000000  0.000000  1
  Pr  Pr1  1  0.000000  0.000000  0.500000  1
  Ta  Ta2  1  0.509051  0.490949  0.754364  1
  Ta  Ta3  1  0.018099  0.509051  0.245636  1
  Ta  Ta4  1  0.490949  0.981901  0.245636  1
  Ta  Ta5  1  0.509051  0.018099  0.754364  1
  Ta  Ta6  1  0.981901  0.490949  0.754364  1
  Ta  Ta7  1  0.490949  0.509051  0.245636  1
  Ta  Ta8  1  0.000000  0.000000  0.753834  1
  Ta  Ta9  1  0.000000  0.000000  0.246166  1
  Se  Se10  1  0.829071  0.170929  0.357942  1
  Se  Se11  1  0.829071  0.658144  0.357942  1
  Se  Se12  1  0.341856  0.170929  0.357942  1
  Se  Se13  1  0.659642  0.829820  0.866820  1
  Se  Se14  1  0.170929  0.341856  0.642058  1
  Se  Se15  1  0.170180  0.829820  0.866820  1
  Se  Se16  1  0.170180  0.340358  0.866820  1
  Se  Se17  1  0.829820  0.170180  0.133180  1
  Se  Se18  1  0.340358  0.170180  0.133180  1
  Se  Se19  1  0.658144  0.829071  0.642058  1
  Se  Se20  1  0.333333  0.666667  0.126199  1
  Se  Se21  1  0.666667  0.333333  0.634541  1
  Se  Se22  1  0.666667  0.333333  0.873801  1
  Se  Se23  1  0.333333  0.666667  0.365459  1
  Se  Se24  1  0.829820  0.659642  0.133180  1
  Se  Se25  1  0.170929  0.829071  0.642058  1
