# generated using pymatgen
data_Li2Pr8Tm9ScSi15Pd
_symmetry_space_group_name_H-M   'P 1'
_cell_length_a   7.32098500
_cell_length_b   7.76782512
_cell_length_c   14.68588300
_cell_angle_alpha   90.00000000
_cell_angle_beta   90.00000000
_cell_angle_gamma   90.04230896
_symmetry_Int_Tables_number   1
_chemical_formula_structural   Li2Pr8Tm9ScSi15Pd
_chemical_formula_sum   'Li2 Pr8 Tm9 Sc1 Si15 Pd1'
_cell_volume   835.15849310
_cell_formula_units_Z   1
loop_
 _symmetry_equiv_pos_site_id
 _symmetry_equiv_pos_as_xyz
  1  'x, y, z'
loop_
 _atom_site_type_symbol
 _atom_site_label
 _atom_site_symmetry_multiplicity
 _atom_site_fract_x
 _atom_site_fract_y
 _atom_site_fract_z
 _atom_site_occupancy
  Li  Li0  1  0.849614  0.487268  0.250000  1
  Li  Li1  1  0.155166  0.507866  0.750000  1
  Pr  Pr2  1  0.015496  0.183218  0.399746  1
  Pr  Pr3  1  0.519735  0.324822  0.399842  1
  Pr  Pr4  1  0.476794  0.676325  0.902446  1
  Pr  Pr5  1  0.476794  0.676325  0.597554  1
  Pr  Pr6  1  0.984937  0.814278  0.600155  1
  Pr  Pr7  1  0.984937  0.814278  0.899845  1
  Pr  Pr8  1  0.519735  0.324822  0.100158  1
  Pr  Pr9  1  0.015496  0.183218  0.100254  1
  Tm  Tm10  1  0.319813  0.185133  0.623840  1
  Tm  Tm11  1  0.676245  0.816635  0.372692  1
  Tm  Tm12  1  0.653797  0.991928  0.750000  1
  Tm  Tm13  1  0.176298  0.673919  0.372141  1
  Tm  Tm14  1  0.830431  0.325729  0.873977  1
  Tm  Tm15  1  0.830431  0.325729  0.626023  1
  Tm  Tm16  1  0.319813  0.185133  0.876160  1
  Tm  Tm17  1  0.176298  0.673919  0.127859  1
  Tm  Tm18  1  0.676245  0.816635  0.127308  1
  Sc  Sc19  1  0.347536  0.008684  0.250000  1
  Si  Si20  1  0.278216  0.887790  0.750000  1
  Si  Si21  1  0.027705  0.102542  0.750000  1
  Si  Si22  1  0.532340  0.388500  0.750000  1
  Si  Si23  1  0.149533  0.464503  0.533030  1
  Si  Si24  1  0.979862  0.901274  0.250000  1
  Si  Si25  1  0.720202  0.113849  0.250000  1
  Si  Si26  1  0.849276  0.535903  0.035316  1
  Si  Si27  1  0.350283  0.970955  0.039731  1
  Si  Si28  1  0.149533  0.464503  0.966970  1
  Si  Si29  1  0.648365  0.033112  0.537798  1
  Si  Si30  1  0.350283  0.970955  0.460269  1
  Si  Si31  1  0.849276  0.535903  0.464684  1
  Si  Si32  1  0.770372  0.620290  0.750000  1
  Si  Si33  1  0.226248  0.365501  0.250000  1
  Si  Si34  1  0.648365  0.033112  0.962202  1
  Pd  Pd35  1  0.464531  0.615444  0.250000  1
