# generated using pymatgen
data_Tm20GaSi3Bi8
_symmetry_space_group_name_H-M   'P 1'
_cell_length_a   7.96618923
_cell_length_b   9.11663900
_cell_length_c   11.86481925
_cell_angle_alpha   90.00000000
_cell_angle_beta   90.14316636
_cell_angle_gamma   90.00000000
_symmetry_Int_Tables_number   1
_chemical_formula_structural   Tm20GaSi3Bi8
_chemical_formula_sum   'Tm20 Ga1 Si3 Bi8'
_cell_volume   861.67828174
_cell_formula_units_Z   1
loop_
 _symmetry_equiv_pos_site_id
 _symmetry_equiv_pos_as_xyz
  1  'x, y, z'
loop_
 _atom_site_type_symbol
 _atom_site_label
 _atom_site_symmetry_multiplicity
 _atom_site_fract_x
 _atom_site_fract_y
 _atom_site_fract_z
 _atom_site_occupancy
  Tm  Tm0  1  0.679065  0.945404  0.438078  1
  Tm  Tm1  1  0.819679  0.552439  0.937472  1
  Tm  Tm2  1  0.321150  0.444761  0.562066  1
  Tm  Tm3  1  0.179262  0.056459  0.062325  1
  Tm  Tm4  1  0.321150  0.055239  0.562066  1
  Tm  Tm5  1  0.179262  0.443541  0.062325  1
  Tm  Tm6  1  0.679065  0.554596  0.438078  1
  Tm  Tm7  1  0.819679  0.947561  0.937472  1
  Tm  Tm8  1  0.331848  0.750000  0.286929  1
  Tm  Tm9  1  0.169489  0.750000  0.784339  1
  Tm  Tm10  1  0.668280  0.250000  0.712485  1
  Tm  Tm11  1  0.831732  0.250000  0.212666  1
  Tm  Tm12  1  0.038948  0.750000  0.497854  1
  Tm  Tm13  1  0.462975  0.750000  0.996661  1
  Tm  Tm14  1  0.961167  0.250000  0.502574  1
  Tm  Tm15  1  0.538568  0.250000  0.002232  1
  Tm  Tm16  1  0.860376  0.750000  0.207321  1
  Tm  Tm17  1  0.637112  0.750000  0.704917  1
  Tm  Tm18  1  0.136541  0.250000  0.794839  1
  Tm  Tm19  1  0.363295  0.250000  0.295406  1
  Ga  Ga20  1  0.092494  0.750000  0.024246  1
  Si  Si21  1  0.409057  0.750000  0.521935  1
  Si  Si22  1  0.909580  0.250000  0.978238  1
  Si  Si23  1  0.590122  0.250000  0.478330  1
  Bi  Bi24  1  0.566930  0.989035  0.175014  1
  Bi  Bi25  1  0.932723  0.511075  0.674096  1
  Bi  Bi26  1  0.433190  0.488292  0.824843  1
  Bi  Bi27  1  0.067208  0.011744  0.325620  1
  Bi  Bi28  1  0.433190  0.011708  0.824843  1
  Bi  Bi29  1  0.067208  0.488256  0.325620  1
  Bi  Bi30  1  0.566930  0.510965  0.175014  1
  Bi  Bi31  1  0.932723  0.988925  0.674096  1
