# generated using pymatgen
data_K4Mn5Pt3O16
_symmetry_space_group_name_H-M   'P 1'
_cell_length_a   6.12732096
_cell_length_b   5.26856995
_cell_length_c   13.35607100
_cell_angle_alpha   89.74244614
_cell_angle_beta   89.68952156
_cell_angle_gamma   89.49475487
_symmetry_Int_Tables_number   1
_chemical_formula_structural   K4Mn5Pt3O16
_chemical_formula_sum   'K4 Mn5 Pt3 O16'
_cell_volume   431.13625218
_cell_formula_units_Z   1
loop_
 _symmetry_equiv_pos_site_id
 _symmetry_equiv_pos_as_xyz
  1  'x, y, z'
loop_
 _atom_site_type_symbol
 _atom_site_label
 _atom_site_symmetry_multiplicity
 _atom_site_fract_x
 _atom_site_fract_y
 _atom_site_fract_z
 _atom_site_occupancy
  K  K0  1  0.006466  0.062387  0.249246  1
  K  K1  1  0.996804  0.369835  0.751152  1
  K  K2  1  0.503642  0.636937  0.248188  1
  K  K3  1  0.494961  0.942667  0.751846  1
  Mn  Mn4  1  0.003009  0.998045  0.994285  1
  Mn  Mn5  1  0.249250  0.499663  0.001512  1
  Mn  Mn6  1  0.250008  0.500597  0.500173  1
  Mn  Mn7  1  0.749817  0.500579  0.500153  1
  Mn  Mn8  1  0.750350  0.497311  0.998092  1
  Pt  Pt9  1  0.999789  0.998316  0.501619  1
  Pt  Pt10  1  0.496449  0.998472  0.003045  1
  Pt  Pt11  1  0.500111  0.002925  0.499041  1
  O  O12  1  0.999026  0.336561  0.426841  1
  O  O13  1  0.997608  0.330740  0.067792  1
  O  O14  1  0.000422  0.656317  0.574877  1
  O  O15  1  0.034150  0.681389  0.920824  1
  O  O16  1  0.251825  0.860908  0.413755  1
  O  O17  1  0.262592  0.803476  0.083990  1
  O  O18  1  0.247982  0.140449  0.586950  1
  O  O19  1  0.250704  0.176413  0.923051  1
  O  O20  1  0.499382  0.344637  0.425649  1
  O  O21  1  0.470198  0.326257  0.082573  1
  O  O22  1  0.500884  0.664423  0.573609  1
  O  O23  1  0.500330  0.655297  0.927513  1
  O  O24  1  0.752610  0.861327  0.413633  1
  O  O25  1  0.756766  0.830383  0.075055  1
  O  O26  1  0.747437  0.140115  0.586990  1
  O  O27  1  0.727525  0.183369  0.918551  1
