# generated using pymatgen
data_NdHo9(Bi2Sb)2
_symmetry_space_group_name_H-M   'P 1'
_cell_length_a   8.25418700
_cell_length_b   9.42619600
_cell_length_c   12.03535000
_cell_angle_alpha   90.00000000
_cell_angle_beta   90.00000000
_cell_angle_gamma   90.00000000
_symmetry_Int_Tables_number   1
_chemical_formula_structural   NdHo9(Bi2Sb)2
_chemical_formula_sum   'Nd2 Ho18 Bi8 Sb4'
_cell_volume   936.41744120
_cell_formula_units_Z   2
loop_
 _symmetry_equiv_pos_site_id
 _symmetry_equiv_pos_as_xyz
  1  'x, y, z'
loop_
 _atom_site_type_symbol
 _atom_site_label
 _atom_site_symmetry_multiplicity
 _atom_site_fract_x
 _atom_site_fract_y
 _atom_site_fract_z
 _atom_site_occupancy
  Nd  Nd0  1  0.174141  0.750000  0.226405  1
  Nd  Nd1  1  0.325859  0.750000  0.726405  1
  Ho  Ho2  1  0.814336  0.561607  0.063945  1
  Ho  Ho3  1  0.685664  0.938393  0.563945  1
  Ho  Ho4  1  0.187536  0.061799  0.936802  1
  Ho  Ho5  1  0.312464  0.438201  0.436802  1
  Ho  Ho6  1  0.187536  0.438201  0.936802  1
  Ho  Ho7  1  0.312464  0.061799  0.436802  1
  Ho  Ho8  1  0.814336  0.938393  0.063945  1
  Ho  Ho9  1  0.685664  0.561607  0.563945  1
  Ho  Ho10  1  0.826417  0.250000  0.774906  1
  Ho  Ho11  1  0.673583  0.250000  0.274906  1
  Ho  Ho12  1  0.475624  0.750000  0.004235  1
  Ho  Ho13  1  0.024376  0.750000  0.504235  1
  Ho  Ho14  1  0.526838  0.250000  0.995844  1
  Ho  Ho15  1  0.973162  0.250000  0.495844  1
  Ho  Ho16  1  0.658011  0.750000  0.290812  1
  Ho  Ho17  1  0.841989  0.750000  0.790812  1
  Ho  Ho18  1  0.344628  0.250000  0.708728  1
  Ho  Ho19  1  0.155372  0.250000  0.208728  1
  Bi  Bi20  1  0.931534  0.506253  0.326591  1
  Bi  Bi21  1  0.568466  0.993747  0.826591  1
  Bi  Bi22  1  0.061042  0.011102  0.674236  1
  Bi  Bi23  1  0.438958  0.488898  0.174236  1
  Bi  Bi24  1  0.061042  0.488898  0.674236  1
  Bi  Bi25  1  0.438958  0.011102  0.174236  1
  Bi  Bi26  1  0.931534  0.993747  0.326591  1
  Bi  Bi27  1  0.568466  0.506253  0.826591  1
  Sb  Sb28  1  0.401678  0.750000  0.469319  1
  Sb  Sb29  1  0.098322  0.750000  0.969319  1
  Sb  Sb30  1  0.598531  0.250000  0.526603  1
  Sb  Sb31  1  0.901469  0.250000  0.026603  1
