# generated using pymatgen
data_Nd4Y8Fe2I17
_symmetry_space_group_name_H-M   'P 1'
_cell_length_a   9.82299444
_cell_length_b   11.87900146
_cell_length_c   11.79372727
_cell_angle_alpha   74.49215011
_cell_angle_beta   75.68643132
_cell_angle_gamma   65.73979639
_symmetry_Int_Tables_number   1
_chemical_formula_structural   Nd4Y8Fe2I17
_chemical_formula_sum   'Nd4 Y8 Fe2 I17'
_cell_volume   1194.09801427
_cell_formula_units_Z   1
loop_
 _symmetry_equiv_pos_site_id
 _symmetry_equiv_pos_as_xyz
  1  'x, y, z'
loop_
 _atom_site_type_symbol
 _atom_site_label
 _atom_site_symmetry_multiplicity
 _atom_site_fract_x
 _atom_site_fract_y
 _atom_site_fract_z
 _atom_site_occupancy
  Nd  Nd0  1  0.585043  0.759911  0.280157  1
  Nd  Nd1  1  0.819012  0.189463  0.586909  1
  Nd  Nd2  1  0.176233  0.811193  0.420772  1
  Nd  Nd3  1  0.146194  0.714099  0.150006  1
  Y  Y4  1  0.451788  0.493931  0.319151  1
  Y  Y5  1  0.548000  0.672643  0.013059  1
  Y  Y6  1  0.275820  0.981092  0.107175  1
  Y  Y7  1  0.855022  0.287732  0.849478  1
  Y  Y8  1  0.412610  0.240489  0.719168  1
  Y  Y9  1  0.720002  0.026223  0.890618  1
  Y  Y10  1  0.551758  0.497977  0.681137  1
  Y  Y11  1  0.457920  0.327311  0.978567  1
  Fe  Fe12  1  0.364709  0.738669  0.213941  1
  Fe  Fe13  1  0.635528  0.261245  0.785299  1
  I  I14  1  0.058066  0.105876  0.319087  1
  I  I15  1  0.465771  0.946868  0.844854  1
  I  I16  1  0.434429  0.803228  0.547355  1
  I  I17  1  0.559743  0.191922  0.459736  1
  I  I18  1  0.833618  0.717941  0.037837  1
  I  I19  1  0.234398  0.415459  0.232390  1
  I  I20  1  0.687210  0.374687  0.102202  1
  I  I21  1  0.528618  0.055707  0.154553  1
  I  I22  1  0.739601  0.472113  0.417072  1
  I  I23  1  0.884444  0.785215  0.370229  1
  I  I24  1  0.943487  0.892660  0.683922  1
  I  I25  1  0.164580  0.285244  0.954816  1
  I  I26  1  0.319028  0.628179  0.894504  1
  I  I27  1  0.996732  0.004615  0.002415  1
  I  I28  1  0.115067  0.217242  0.639199  1
  I  I29  1  0.774561  0.578577  0.765257  1
  I  I30  1  0.261008  0.522489  0.579132  1
