# generated using pymatgen
data_Dy4ErInGa2
_symmetry_space_group_name_H-M   'P 1'
_cell_length_a   7.74203400
_cell_length_b   7.74203400
_cell_length_c   14.35866800
_cell_angle_alpha   90.00000000
_cell_angle_beta   90.00000000
_cell_angle_gamma   90.00000000
_symmetry_Int_Tables_number   1
_chemical_formula_structural   Dy4ErInGa2
_chemical_formula_sum   'Dy16 Er4 In4 Ga8'
_cell_volume   860.64550010
_cell_formula_units_Z   4
loop_
 _symmetry_equiv_pos_site_id
 _symmetry_equiv_pos_as_xyz
  1  'x, y, z'
loop_
 _atom_site_type_symbol
 _atom_site_label
 _atom_site_symmetry_multiplicity
 _atom_site_fract_x
 _atom_site_fract_y
 _atom_site_fract_z
 _atom_site_occupancy
  Dy  Dy0  1  0.673492  0.661138  0.606151  1
  Dy  Dy1  1  0.673492  0.338862  0.106151  1
  Dy  Dy2  1  0.826508  0.838862  0.393849  1
  Dy  Dy3  1  0.173492  0.838862  0.893849  1
  Dy  Dy4  1  0.326508  0.338862  0.606151  1
  Dy  Dy5  1  0.326508  0.661138  0.106151  1
  Dy  Dy6  1  0.173492  0.161138  0.393849  1
  Dy  Dy7  1  0.826508  0.161138  0.893849  1
  Dy  Dy8  1  0.661138  0.326508  0.393849  1
  Dy  Dy9  1  0.338862  0.326508  0.893849  1
  Dy  Dy10  1  0.161138  0.826508  0.606151  1
  Dy  Dy11  1  0.838862  0.826508  0.106151  1
  Dy  Dy12  1  0.338862  0.673492  0.393849  1
  Dy  Dy13  1  0.661138  0.673492  0.893849  1
  Dy  Dy14  1  0.838862  0.173492  0.606151  1
  Dy  Dy15  1  0.161138  0.173492  0.106151  1
  Er  Er16  1  0.000000  0.500000  0.759904  1
  Er  Er17  1  0.000000  0.500000  0.259904  1
  Er  Er18  1  0.500000  0.000000  0.240096  1
  Er  Er19  1  0.500000  0.000000  0.740096  1
  In  In20  1  0.000000  0.500000  0.496093  1
  In  In21  1  0.000000  0.500000  0.996093  1
  In  In22  1  0.500000  0.000000  0.503907  1
  In  In23  1  0.500000  0.000000  0.003907  1
  Ga  Ga24  1  0.875691  0.875691  0.750000  1
  Ga  Ga25  1  0.875691  0.124309  0.250000  1
  Ga  Ga26  1  0.624309  0.624309  0.250000  1
  Ga  Ga27  1  0.375691  0.624309  0.750000  1
  Ga  Ga28  1  0.124309  0.124309  0.750000  1
  Ga  Ga29  1  0.124309  0.875691  0.250000  1
  Ga  Ga30  1  0.375691  0.375691  0.250000  1
  Ga  Ga31  1  0.624309  0.375691  0.750000  1
