# generated using pymatgen
data_Dy8Lu4InCo4Cu
_symmetry_space_group_name_H-M   'P 1'
_cell_length_a   8.24471263
_cell_length_b   8.24469252
_cell_length_c   8.24471303
_cell_angle_alpha   111.12536336
_cell_angle_beta   110.58359978
_cell_angle_gamma   106.73932707
_symmetry_Int_Tables_number   1
_chemical_formula_structural   Dy8Lu4InCo4Cu
_chemical_formula_sum   'Dy8 Lu4 In1 Co4 Cu1'
_cell_volume   430.68157414
_cell_formula_units_Z   1
loop_
 _symmetry_equiv_pos_site_id
 _symmetry_equiv_pos_as_xyz
  1  'x, y, z'
loop_
 _atom_site_type_symbol
 _atom_site_label
 _atom_site_symmetry_multiplicity
 _atom_site_fract_x
 _atom_site_fract_y
 _atom_site_fract_z
 _atom_site_occupancy
  Dy  Dy0  1  0.420035  0.220946  0.199095  1
  Dy  Dy1  1  0.579965  0.779054  0.800905  1
  Dy  Dy2  1  0.021851  0.220946  0.800911  1
  Dy  Dy3  1  0.978149  0.779054  0.199089  1
  Dy  Dy4  1  0.184888  0.287680  0.472572  1
  Dy  Dy5  1  0.815112  0.712320  0.527428  1
  Dy  Dy6  1  0.184892  0.712320  0.897209  1
  Dy  Dy7  1  0.815108  0.287680  0.102791  1
  Lu  Lu8  1  0.317478  0.624623  0.307143  1
  Lu  Lu9  1  0.682522  0.375377  0.692857  1
  Lu  Lu10  1  0.317483  0.010341  0.692857  1
  Lu  Lu11  1  0.682517  0.989659  0.307143  1
  In  In12  1  0.500000  0.500000  0.000000  1
  Co  Co13  1  0.376258  0.000000  0.376258  1
  Co  Co14  1  0.623742  0.000000  0.623742  1
  Co  Co15  1  0.113959  0.613959  0.500000  1
  Co  Co16  1  0.886041  0.386041  0.500000  1
  Cu  Cu17  1  0.000000  0.000000  0.000000  1
