# generated using pymatgen
data_Th3U(NiB4)4
_symmetry_space_group_name_H-M   'P 1'
_cell_length_a   6.93205245
_cell_length_b   6.93205337
_cell_length_c   6.93205296
_cell_angle_alpha   112.84026421
_cell_angle_beta   112.84027281
_cell_angle_gamma   102.92487429
_symmetry_Int_Tables_number   1
_chemical_formula_structural   Th3U(NiB4)4
_chemical_formula_sum   'Th3 U1 Ni4 B16'
_cell_volume   253.95591601
_cell_formula_units_Z   1
loop_
 _symmetry_equiv_pos_site_id
 _symmetry_equiv_pos_as_xyz
  1  'x, y, z'
loop_
 _atom_site_type_symbol
 _atom_site_label
 _atom_site_symmetry_multiplicity
 _atom_site_fract_x
 _atom_site_fract_y
 _atom_site_fract_z
 _atom_site_occupancy
  Th  Th0  1  0.203662  0.203662  0.000000  1
  Th  Th1  1  0.796338  0.796338  0.000000  1
  Th  Th2  1  0.750000  0.250000  0.500000  1
  U  U3  1  0.250000  0.750000  0.500000  1
  Ni  Ni4  1  0.497774  0.268231  0.770457  1
  Ni  Ni5  1  0.497774  0.727316  0.229543  1
  Ni  Ni6  1  0.731769  0.502226  0.229543  1
  Ni  Ni7  1  0.272684  0.502226  0.770457  1
  B  B8  1  0.111838  0.276039  0.386589  1
  B  B9  1  0.889450  0.725249  0.613411  1
  B  B10  1  0.889450  0.276039  0.164201  1
  B  B11  1  0.111838  0.725249  0.835799  1
  B  B12  1  0.723961  0.888162  0.613411  1
  B  B13  1  0.274751  0.110550  0.386589  1
  B  B14  1  0.723961  0.110550  0.835799  1
  B  B15  1  0.274751  0.888162  0.164201  1
  B  B16  1  0.414072  0.422158  0.530307  1
  B  B17  1  0.891851  0.883765  0.469693  1
  B  B18  1  0.577842  0.108149  0.991914  1
  B  B19  1  0.116235  0.585928  0.008086  1
  B  B20  1  0.577842  0.585928  0.469693  1
  B  B21  1  0.116235  0.108149  0.530307  1
  B  B22  1  0.891851  0.422158  0.008086  1
  B  B23  1  0.414072  0.883765  0.991914  1
