# generated using pymatgen
data_KEu(AuO2)4
_symmetry_space_group_name_H-M   'P 1'
_cell_length_a   6.23311400
_cell_length_b   7.19317600
_cell_length_c   5.68701900
_cell_angle_alpha   90.00000000
_cell_angle_beta   90.00000000
_cell_angle_gamma   90.00000000
_symmetry_Int_Tables_number   1
_chemical_formula_structural   KEu(AuO2)4
_chemical_formula_sum   'K1 Eu1 Au4 O8'
_cell_volume   254.98253573
_cell_formula_units_Z   1
loop_
 _symmetry_equiv_pos_site_id
 _symmetry_equiv_pos_as_xyz
  1  'x, y, z'
loop_
 _atom_site_type_symbol
 _atom_site_label
 _atom_site_symmetry_multiplicity
 _atom_site_fract_x
 _atom_site_fract_y
 _atom_site_fract_z
 _atom_site_occupancy
  K  K0  1  0.000000  0.500000  0.500000  1
  Eu  Eu1  1  0.500000  0.000000  0.000000  1
  Au  Au2  1  0.000000  0.804332  0.000000  1
  Au  Au3  1  0.000000  0.195668  0.000000  1
  Au  Au4  1  0.227851  0.000000  0.500000  1
  Au  Au5  1  0.772149  0.000000  0.500000  1
  O  O6  1  0.245647  0.196424  0.239591  1
  O  O7  1  0.245647  0.196424  0.760409  1
  O  O8  1  0.245647  0.803576  0.239591  1
  O  O9  1  0.245647  0.803576  0.760409  1
  O  O10  1  0.754353  0.803576  0.239591  1
  O  O11  1  0.754353  0.196424  0.760409  1
  O  O12  1  0.754353  0.803576  0.760409  1
  O  O13  1  0.754353  0.196424  0.239591  1
