# generated using pymatgen
data_LiYb4Os7
_symmetry_space_group_name_H-M   'P 1'
_cell_length_a   5.37885178
_cell_length_b   5.37885209
_cell_length_c   8.70520700
_cell_angle_alpha   90.00000000
_cell_angle_beta   90.00000000
_cell_angle_gamma   122.21649947
_symmetry_Int_Tables_number   1
_chemical_formula_structural   LiYb4Os7
_chemical_formula_sum   'Li1 Yb4 Os7'
_cell_volume   213.08310310
_cell_formula_units_Z   1
loop_
 _symmetry_equiv_pos_site_id
 _symmetry_equiv_pos_as_xyz
  1  'x, y, z'
loop_
 _atom_site_type_symbol
 _atom_site_label
 _atom_site_symmetry_multiplicity
 _atom_site_fract_x
 _atom_site_fract_y
 _atom_site_fract_z
 _atom_site_occupancy
  Li  Li0  1  0.823699  0.176301  0.250000  1
  Yb  Yb1  1  0.333867  0.666133  0.439293  1
  Yb  Yb2  1  0.668483  0.331517  0.566854  1
  Yb  Yb3  1  0.668483  0.331517  0.933146  1
  Yb  Yb4  1  0.333867  0.666133  0.060707  1
  Os  Os5  1  0.018767  0.981233  0.494376  1
  Os  Os6  1  0.018767  0.981233  0.005624  1
  Os  Os7  1  0.803921  0.665236  0.250000  1
  Os  Os8  1  0.334764  0.196079  0.250000  1
  Os  Os9  1  0.167371  0.832629  0.750000  1
  Os  Os10  1  0.172811  0.344802  0.750000  1
  Os  Os11  1  0.655198  0.827189  0.750000  1
