# generated using pymatgen
data_BaTeRuO6
_symmetry_space_group_name_H-M   'P 1'
_cell_length_a   5.34255300
_cell_length_b   5.34252523
_cell_length_c   11.67281400
_cell_angle_alpha   90.00012435
_cell_angle_beta   89.99980675
_cell_angle_gamma   120.00010879
_symmetry_Int_Tables_number   1
_chemical_formula_structural   BaTeRuO6
_chemical_formula_sum   'Ba2 Te2 Ru2 O12'
_cell_volume   288.53675429
_cell_formula_units_Z   2
loop_
 _symmetry_equiv_pos_site_id
 _symmetry_equiv_pos_as_xyz
  1  'x, y, z'
loop_
 _atom_site_type_symbol
 _atom_site_label
 _atom_site_symmetry_multiplicity
 _atom_site_fract_x
 _atom_site_fract_y
 _atom_site_fract_z
 _atom_site_occupancy
  Ba  Ba0  1  0.999999  0.000000  0.250092  1
  Ba  Ba1  1  0.000002  0.000001  0.749906  1
  Te  Te2  1  0.666669  0.333335  0.000000  1
  Te  Te3  1  0.666662  0.333324  0.500000  1
  Ru  Ru4  1  0.333332  0.666666  0.000000  1
  Ru  Ru5  1  0.333343  0.666686  0.500000  1
  O  O6  1  0.388303  0.003242  0.096075  1
  O  O7  1  0.614939  0.611698  0.096075  1
  O  O8  1  0.996757  0.385060  0.096075  1
  O  O9  1  0.996672  0.385256  0.403885  1
  O  O10  1  0.614742  0.611417  0.403885  1
  O  O11  1  0.388582  0.003325  0.403886  1
  O  O12  1  0.614742  0.003321  0.596114  1
  O  O13  1  0.996673  0.611417  0.596115  1
  O  O14  1  0.388582  0.385256  0.596115  1
  O  O15  1  0.388301  0.385059  0.903925  1
  O  O16  1  0.996761  0.611700  0.903925  1
  O  O17  1  0.614941  0.003241  0.903925  1
