# generated using pymatgen
data_Li3Dy2YInSi2
_symmetry_space_group_name_H-M   'P 1'
_cell_length_a   7.23729315
_cell_length_b   7.23729336
_cell_length_c   4.21669300
_cell_angle_alpha   90.00000000
_cell_angle_beta   90.00000000
_cell_angle_gamma   120.02330329
_symmetry_Int_Tables_number   1
_chemical_formula_structural   Li3Dy2YInSi2
_chemical_formula_sum   'Li3 Dy2 Y1 In1 Si2'
_cell_volume   191.22863588
_cell_formula_units_Z   1
loop_
 _symmetry_equiv_pos_site_id
 _symmetry_equiv_pos_as_xyz
  1  'x, y, z'
loop_
 _atom_site_type_symbol
 _atom_site_label
 _atom_site_symmetry_multiplicity
 _atom_site_fract_x
 _atom_site_fract_y
 _atom_site_fract_z
 _atom_site_occupancy
  Li  Li0  1  0.254506  0.999947  0.500000  1
  Li  Li1  1  0.745543  0.745543  0.500000  1
  Li  Li2  1  0.999947  0.254506  0.500000  1
  Dy  Dy3  1  0.000023  0.558260  0.000000  1
  Dy  Dy4  1  0.558260  0.000023  0.000000  1
  Y  Y5  1  0.441932  0.441932  0.000000  1
  In  In6  1  0.999707  0.999707  0.000000  1
  Si  Si7  1  0.333132  0.666950  0.500000  1
  Si  Si8  1  0.666950  0.333132  0.500000  1
