# generated using pymatgen
data_Tb2Mg2SnPb
_symmetry_space_group_name_H-M   'P 1'
_cell_length_a   8.61442538
_cell_length_b   8.61442582
_cell_length_c   8.61442541
_cell_angle_alpha   150.07224315
_cell_angle_beta   150.07224963
_cell_angle_gamma   42.83536669
_symmetry_Int_Tables_number   1
_chemical_formula_structural   Tb2Mg2SnPb
_chemical_formula_sum   'Tb2 Mg2 Sn1 Pb1'
_cell_volume   158.71145077
_cell_formula_units_Z   1
loop_
 _symmetry_equiv_pos_site_id
 _symmetry_equiv_pos_as_xyz
  1  'x, y, z'
loop_
 _atom_site_type_symbol
 _atom_site_label
 _atom_site_symmetry_multiplicity
 _atom_site_fract_x
 _atom_site_fract_y
 _atom_site_fract_z
 _atom_site_occupancy
  Tb  Tb0  1  0.664423  0.664423  0.000000  1
  Tb  Tb1  1  0.334021  0.334021  0.000000  1
  Mg  Mg2  1  0.001199  0.501199  0.500000  1
  Mg  Mg3  1  0.501199  0.001199  0.500000  1
  Sn  Sn4  1  0.136243  0.136243  0.000000  1
  Pb  Pb5  1  0.862914  0.862914  0.000000  1
