# generated using pymatgen
data_ErLuNb2(SbIr)4
_symmetry_space_group_name_H-M   'P 1'
_cell_length_a   4.50753800
_cell_length_b   6.36170924
_cell_length_c   8.99810434
_cell_angle_alpha   90.03159127
_cell_angle_beta   90.00000000
_cell_angle_gamma   90.00000000
_symmetry_Int_Tables_number   1
_chemical_formula_structural   ErLuNb2(SbIr)4
_chemical_formula_sum   'Er1 Lu1 Nb2 Sb4 Ir4'
_cell_volume   258.02641693
_cell_formula_units_Z   1
loop_
 _symmetry_equiv_pos_site_id
 _symmetry_equiv_pos_as_xyz
  1  'x, y, z'
loop_
 _atom_site_type_symbol
 _atom_site_label
 _atom_site_symmetry_multiplicity
 _atom_site_fract_x
 _atom_site_fract_y
 _atom_site_fract_z
 _atom_site_occupancy
  Er  Er0  1  0.000000  0.005413  0.374485  1
  Lu  Lu1  1  0.499999  0.505661  0.625550  1
  Nb  Nb2  1  0.499999  0.494665  0.122037  1
  Nb  Nb3  1  0.000000  0.994372  0.877830  1
  Sb  Sb4  1  0.499999  0.987242  0.126731  1
  Sb  Sb5  1  0.000000  0.510040  0.376349  1
  Sb  Sb6  1  0.499999  0.009825  0.624571  1
  Sb  Sb7  1  0.000000  0.486798  0.872311  1
  Ir  Ir8  1  0.000000  0.733569  0.111794  1
  Ir  Ir9  1  0.499999  0.270604  0.357245  1
  Ir  Ir10  1  0.000000  0.767501  0.643738  1
  Ir  Ir11  1  0.499999  0.234302  0.887357  1
