# generated using pymatgen
data_Pr5YAl24(Os3Rh)2
_symmetry_space_group_name_H-M   'P 1'
_cell_length_a   8.88585982
_cell_length_b   8.93394489
_cell_length_c   9.70677000
_cell_angle_alpha   90.00000000
_cell_angle_beta   90.00000000
_cell_angle_gamma   120.01892322
_symmetry_Int_Tables_number   1
_chemical_formula_structural   Pr5YAl24(Os3Rh)2
_chemical_formula_sum   'Pr5 Y1 Al24 Os6 Rh2'
_cell_volume   667.21415813
_cell_formula_units_Z   1
loop_
 _symmetry_equiv_pos_site_id
 _symmetry_equiv_pos_as_xyz
  1  'x, y, z'
loop_
 _atom_site_type_symbol
 _atom_site_label
 _atom_site_symmetry_multiplicity
 _atom_site_fract_x
 _atom_site_fract_y
 _atom_site_fract_z
 _atom_site_occupancy
  Pr  Pr0  1  0.195217  0.382276  0.250000  1
  Pr  Pr1  1  0.805200  0.618494  0.750000  1
  Pr  Pr2  1  0.616217  0.809480  0.250000  1
  Pr  Pr3  1  0.383967  0.190740  0.750000  1
  Pr  Pr4  1  0.195538  0.812163  0.250000  1
  Y  Y5  1  0.800835  0.187380  0.750000  1
  Al  Al6  1  0.334772  0.667912  0.013580  1
  Al  Al7  1  0.666708  0.332028  0.983096  1
  Al  Al8  1  0.666708  0.332028  0.516904  1
  Al  Al9  1  0.334772  0.667912  0.486420  1
  Al  Al10  1  0.163208  0.325814  0.577324  1
  Al  Al11  1  0.834752  0.673017  0.424919  1
  Al  Al12  1  0.672023  0.837022  0.576045  1
  Al  Al13  1  0.834752  0.673017  0.075081  1
  Al  Al14  1  0.329179  0.164635  0.426220  1
  Al  Al15  1  0.163208  0.325814  0.922676  1
  Al  Al16  1  0.165128  0.837984  0.575328  1
  Al  Al17  1  0.329179  0.164635  0.073780  1
  Al  Al18  1  0.835304  0.162136  0.428634  1
  Al  Al19  1  0.672023  0.837022  0.923955  1
  Al  Al20  1  0.835304  0.162136  0.071366  1
  Al  Al21  1  0.165128  0.837984  0.924672  1
  Al  Al22  1  0.564939  0.127393  0.250000  1
  Al  Al23  1  0.438201  0.874579  0.750000  1
  Al  Al24  1  0.877188  0.437840  0.250000  1
  Al  Al25  1  0.119456  0.558234  0.750000  1
  Al  Al26  1  0.565162  0.437512  0.250000  1
  Al  Al27  1  0.435230  0.562632  0.750000  1
  Al  Al28  1  0.002724  0.001497  0.250000  1
  Al  Al29  1  0.995474  0.000926  0.750000  1
  Os  Os30  1  0.501661  0.001077  0.998741  1
  Os  Os31  1  0.501661  0.001077  0.501259  1
  Os  Os32  1  0.500244  0.499396  0.999394  1
  Os  Os33  1  0.500244  0.499396  0.500606  1
  Os  Os34  1  0.999989  0.000001  0.999832  1
  Os  Os35  1  0.999989  0.000001  0.500168  1
  Rh  Rh36  1  0.999357  0.498406  0.998967  1
  Rh  Rh37  1  0.999357  0.498406  0.501033  1
