# generated using pymatgen
data_DyTm3(Mn5P3)4
_symmetry_space_group_name_H-M   'P 1'
_cell_length_a   3.57584600
_cell_length_b   10.71159700
_cell_length_c   12.19814800
_cell_angle_alpha   90.00106971
_cell_angle_beta   90.00000000
_cell_angle_gamma   90.00000000
_symmetry_Int_Tables_number   1
_chemical_formula_structural   DyTm3(Mn5P3)4
_chemical_formula_sum   'Dy1 Tm3 Mn20 P12'
_cell_volume   467.22592245
_cell_formula_units_Z   1
loop_
 _symmetry_equiv_pos_site_id
 _symmetry_equiv_pos_as_xyz
  1  'x, y, z'
loop_
 _atom_site_type_symbol
 _atom_site_label
 _atom_site_symmetry_multiplicity
 _atom_site_fract_x
 _atom_site_fract_y
 _atom_site_fract_z
 _atom_site_occupancy
  Dy  Dy0  1  0.250000  0.913494  0.205771  1
  Tm  Tm1  1  0.250000  0.586259  0.705927  1
  Tm  Tm2  1  0.750000  0.413682  0.294171  1
  Tm  Tm3  1  0.750000  0.086443  0.794241  1
  Mn  Mn4  1  0.250000  0.410152  0.492965  1
  Mn  Mn5  1  0.750000  0.711663  0.319918  1
  Mn  Mn6  1  0.750000  0.787612  0.819501  1
  Mn  Mn7  1  0.250000  0.287790  0.680590  1
  Mn  Mn8  1  0.250000  0.616814  0.193102  1
  Mn  Mn9  1  0.750000  0.382343  0.806865  1
  Mn  Mn10  1  0.750000  0.118453  0.307186  1
  Mn  Mn11  1  0.250000  0.882254  0.693229  1
  Mn  Mn12  1  0.250000  0.034733  0.434897  1
  Mn  Mn13  1  0.750000  0.965847  0.566612  1
  Mn  Mn14  1  0.750000  0.533456  0.065470  1
  Mn  Mn15  1  0.250000  0.465671  0.934055  1
  Mn  Mn16  1  0.750000  0.910119  0.006140  1
  Mn  Mn17  1  0.250000  0.090120  0.992300  1
  Mn  Mn18  1  0.250000  0.717153  0.982192  1
  Mn  Mn19  1  0.750000  0.283246  0.017320  1
  Mn  Mn20  1  0.750000  0.217226  0.517658  1
  Mn  Mn21  1  0.250000  0.782772  0.482296  1
  Mn  Mn22  1  0.250000  0.212928  0.180439  1
  Mn  Mn23  1  0.750000  0.589869  0.507126  1
  P  P24  1  0.250000  0.590134  0.383187  1
  P  P25  1  0.750000  0.409582  0.616841  1
  P  P26  1  0.750000  0.091866  0.116036  1
  P  P27  1  0.250000  0.909792  0.882899  1
  P  P28  1  0.750000  0.763011  0.625188  1
  P  P29  1  0.250000  0.237113  0.374913  1
  P  P30  1  0.250000  0.410736  0.116416  1
  P  P31  1  0.750000  0.589143  0.883478  1
  P  P32  1  0.750000  0.910721  0.384914  1
  P  P33  1  0.250000  0.089393  0.616882  1
  P  P34  1  0.250000  0.263153  0.874840  1
  P  P35  1  0.750000  0.735258  0.124436  1
