# generated using pymatgen
data_Dy4TmV3(P3Ir4)4
_symmetry_space_group_name_H-M   'P 1'
_cell_length_a   12.68146000
_cell_length_b   12.68146042
_cell_length_c   3.95576300
_cell_angle_alpha   90.00000000
_cell_angle_beta   90.00000000
_cell_angle_gamma   119.99999891
_symmetry_Int_Tables_number   1
_chemical_formula_structural   Dy4TmV3(P3Ir4)4
_chemical_formula_sum   'Dy4 Tm1 V3 P12 Ir16'
_cell_volume   550.93381247
_cell_formula_units_Z   1
loop_
 _symmetry_equiv_pos_site_id
 _symmetry_equiv_pos_as_xyz
  1  'x, y, z'
loop_
 _atom_site_type_symbol
 _atom_site_label
 _atom_site_symmetry_multiplicity
 _atom_site_fract_x
 _atom_site_fract_y
 _atom_site_fract_z
 _atom_site_occupancy
  Dy  Dy0  1  0.666667  0.333333  0.500000  1
  Dy  Dy1  1  0.999980  0.811438  0.000000  1
  Dy  Dy2  1  0.188562  0.188543  0.000000  1
  Dy  Dy3  1  0.811457  0.000020  0.000000  1
  Tm  Tm4  1  0.333333  0.666667  0.500000  1
  V  V5  1  0.000042  0.450917  0.500000  1
  V  V6  1  0.549083  0.549125  0.500000  1
  V  V7  1  0.450875  0.999958  0.500000  1
  P  P8  1  0.999911  0.635837  0.500000  1
  P  P9  1  0.364163  0.364074  0.500000  1
  P  P10  1  0.635926  0.000089  0.500000  1
  P  P11  1  0.516290  0.683770  0.000000  1
  P  P12  1  0.316230  0.832519  0.000000  1
  P  P13  1  0.167481  0.483710  0.000000  1
  P  P14  1  0.483275  0.166981  0.000000  1
  P  P15  1  0.683705  0.516725  0.000000  1
  P  P16  1  0.833019  0.316295  0.000000  1
  P  P17  1  0.000047  0.177225  0.500000  1
  P  P18  1  0.822775  0.822822  0.500000  1
  P  P19  1  0.177178  0.999953  0.500000  1
  Ir  Ir20  1  0.508653  0.866533  0.000000  1
  Ir  Ir21  1  0.133467  0.642121  0.000000  1
  Ir  Ir22  1  0.357879  0.491347  0.000000  1
  Ir  Ir23  1  0.490467  0.358033  0.000000  1
  Ir  Ir24  1  0.867567  0.509533  0.000000  1
  Ir  Ir25  1  0.641967  0.132433  0.000000  1
  Ir  Ir26  1  0.000130  0.285402  0.000000  1
  Ir  Ir27  1  0.714598  0.714729  0.000000  1
  Ir  Ir28  1  0.285271  0.999870  0.000000  1
  Ir  Ir29  1  0.625008  0.803858  0.500000  1
  Ir  Ir30  1  0.196142  0.821150  0.500000  1
  Ir  Ir31  1  0.178850  0.374992  0.500000  1
  Ir  Ir32  1  0.374673  0.178635  0.500000  1
  Ir  Ir33  1  0.803962  0.625327  0.500000  1
  Ir  Ir34  1  0.821365  0.196038  0.500000  1
  Ir  Ir35  1  0.000000  0.000000  0.500000  1
