# generated using pymatgen
data_Sc4GaFe4Os3
_symmetry_space_group_name_H-M   'P 1'
_cell_length_a   5.07551882
_cell_length_b   5.07551909
_cell_length_c   8.45053700
_cell_angle_alpha   90.00000000
_cell_angle_beta   90.00000000
_cell_angle_gamma   121.55951050
_symmetry_Int_Tables_number   1
_chemical_formula_structural   Sc4GaFe4Os3
_chemical_formula_sum   'Sc4 Ga1 Fe4 Os3'
_cell_volume   185.49587534
_cell_formula_units_Z   1
loop_
 _symmetry_equiv_pos_site_id
 _symmetry_equiv_pos_as_xyz
  1  'x, y, z'
loop_
 _atom_site_type_symbol
 _atom_site_label
 _atom_site_symmetry_multiplicity
 _atom_site_fract_x
 _atom_site_fract_y
 _atom_site_fract_z
 _atom_site_occupancy
  Sc  Sc0  1  0.333447  0.666553  0.433778  1
  Sc  Sc1  1  0.661074  0.338926  0.557800  1
  Sc  Sc2  1  0.661074  0.338926  0.942200  1
  Sc  Sc3  1  0.333447  0.666553  0.066222  1
  Ga  Ga4  1  0.179489  0.820511  0.750000  1
  Fe  Fe5  1  0.832984  0.659777  0.250000  1
  Fe  Fe6  1  0.340223  0.167016  0.250000  1
  Fe  Fe7  1  0.170982  0.330094  0.750000  1
  Fe  Fe8  1  0.669906  0.829018  0.750000  1
  Os  Os9  1  0.993338  0.006662  0.503579  1
  Os  Os10  1  0.993338  0.006662  0.996421  1
  Os  Os11  1  0.830697  0.169303  0.250000  1
