# generated using pymatgen
data_LiCe2Y2Zn7Ru2
_symmetry_space_group_name_H-M   'P 1'
_cell_length_a   7.17250246
_cell_length_b   7.17250216
_cell_length_c   5.11891149
_cell_angle_alpha   90.39112522
_cell_angle_beta   90.39112448
_cell_angle_gamma   90.62575639
_symmetry_Int_Tables_number   1
_chemical_formula_structural   LiCe2Y2Zn7Ru2
_chemical_formula_sum   'Li1 Ce2 Y2 Zn7 Ru2'
_cell_volume   263.31321188
_cell_formula_units_Z   1
loop_
 _symmetry_equiv_pos_site_id
 _symmetry_equiv_pos_as_xyz
  1  'x, y, z'
loop_
 _atom_site_type_symbol
 _atom_site_label
 _atom_site_symmetry_multiplicity
 _atom_site_fract_x
 _atom_site_fract_y
 _atom_site_fract_z
 _atom_site_occupancy
  Li  Li0  1  0.185974  0.685974  0.291254  1
  Ce  Ce1  1  0.002848  0.996974  0.004969  1
  Ce  Ce2  1  0.496974  0.502848  0.004969  1
  Y  Y3  1  0.998114  0.498114  0.764434  1
  Y  Y4  1  0.503762  0.003762  0.230098  1
  Zn  Zn5  1  0.816725  0.685873  0.289458  1
  Zn  Zn6  1  0.815917  0.315917  0.284015  1
  Zn  Zn7  1  0.314251  0.183371  0.711748  1
  Zn  Zn8  1  0.185873  0.316725  0.289458  1
  Zn  Zn9  1  0.686667  0.186667  0.714418  1
  Zn  Zn10  1  0.683371  0.814251  0.711748  1
  Zn  Zn11  1  0.309907  0.809907  0.711379  1
  Ru  Ru12  1  0.503358  0.496259  0.496026  1
  Ru  Ru13  1  0.996259  0.003358  0.496026  1
