# generated using pymatgen
data_LiNd4Fe2CoO12
_symmetry_space_group_name_H-M   'P 1'
_cell_length_a   5.43156232
_cell_length_b   5.61372461
_cell_length_c   7.72186249
_cell_angle_alpha   90.09674755
_cell_angle_beta   90.39341705
_cell_angle_gamma   90.70635321
_symmetry_Int_Tables_number   1
_chemical_formula_structural   LiNd4Fe2CoO12
_chemical_formula_sum   'Li1 Nd4 Fe2 Co1 O12'
_cell_volume   235.42577563
_cell_formula_units_Z   1
loop_
 _symmetry_equiv_pos_site_id
 _symmetry_equiv_pos_as_xyz
  1  'x, y, z'
loop_
 _atom_site_type_symbol
 _atom_site_label
 _atom_site_symmetry_multiplicity
 _atom_site_fract_x
 _atom_site_fract_y
 _atom_site_fract_z
 _atom_site_occupancy
  Li  Li0  1  0.000000  0.500000  0.500000  1
  Nd  Nd1  1  0.015579  0.940199  0.737625  1
  Nd  Nd2  1  0.511292  0.555347  0.261322  1
  Nd  Nd3  1  0.488708  0.444653  0.738678  1
  Nd  Nd4  1  0.984421  0.059801  0.262375  1
  Fe  Fe5  1  0.500000  0.000000  0.000000  1
  Fe  Fe6  1  0.000000  0.500000  0.000000  1
  Co  Co7  1  0.500000  0.000000  0.500000  1
  O  O8  1  0.693824  0.278018  0.460000  1
  O  O9  1  0.224106  0.193620  0.538581  1
  O  O10  1  0.787447  0.798370  0.050906  1
  O  O11  1  0.292003  0.704478  0.954391  1
  O  O12  1  0.306176  0.721982  0.540000  1
  O  O13  1  0.775894  0.806380  0.461419  1
  O  O14  1  0.212553  0.201630  0.949094  1
  O  O15  1  0.707997  0.295522  0.045609  1
  O  O16  1  0.079115  0.481692  0.237925  1
  O  O17  1  0.586693  0.019045  0.745241  1
  O  O18  1  0.413307  0.980955  0.254759  1
  O  O19  1  0.920885  0.518308  0.762075  1
