# generated using pymatgen
data_CaDy3Fe2(SbO7)2
_symmetry_space_group_name_H-M   'P 1'
_cell_length_a   7.32905193
_cell_length_b   7.37575844
_cell_length_c   7.26415875
_cell_angle_alpha   59.49047578
_cell_angle_beta   58.87054622
_cell_angle_gamma   59.78895049
_symmetry_Int_Tables_number   1
_chemical_formula_structural   CaDy3Fe2(SbO7)2
_chemical_formula_sum   'Ca1 Dy3 Fe2 Sb2 O14'
_cell_volume   273.73317049
_cell_formula_units_Z   1
loop_
 _symmetry_equiv_pos_site_id
 _symmetry_equiv_pos_as_xyz
  1  'x, y, z'
loop_
 _atom_site_type_symbol
 _atom_site_label
 _atom_site_symmetry_multiplicity
 _atom_site_fract_x
 _atom_site_fract_y
 _atom_site_fract_z
 _atom_site_occupancy
  Ca  Ca0  1  0.125000  0.125000  0.625000  1
  Dy  Dy1  1  0.125000  0.625000  0.125000  1
  Dy  Dy2  1  0.625000  0.125000  0.125000  1
  Dy  Dy3  1  0.125000  0.125000  0.125000  1
  Fe  Fe4  1  0.125000  0.625000  0.625000  1
  Fe  Fe5  1  0.625000  0.625000  0.125000  1
  Sb  Sb6  1  0.625000  0.625000  0.625000  1
  Sb  Sb7  1  0.625000  0.125000  0.625000  1
  O  O8  1  0.296460  0.700773  0.708752  1
  O  O9  1  0.539924  0.958143  0.959987  1
  O  O10  1  0.702720  0.293651  0.709977  1
  O  O11  1  0.296460  0.294014  0.708752  1
  O  O12  1  0.710076  0.708054  0.290013  1
  O  O13  1  0.997471  0.995523  0.011484  1
  O  O14  1  0.293470  0.703278  0.299972  1
  O  O15  1  0.956530  0.546722  0.950028  1
  O  O16  1  0.953540  0.955986  0.541248  1
  O  O17  1  0.539924  0.541946  0.959987  1
  O  O18  1  0.252529  0.254477  0.238516  1
  O  O19  1  0.547280  0.956349  0.540023  1
  O  O20  1  0.710076  0.291857  0.290013  1
  O  O21  1  0.953540  0.549227  0.541248  1
