# generated using pymatgen
data_TbSmEr4(Co3P2)6
_symmetry_space_group_name_H-M   'P 1'
_cell_length_a   3.69473400
_cell_length_b   10.50494600
_cell_length_c   12.17255900
_cell_angle_alpha   90.00000000
_cell_angle_beta   90.00000000
_cell_angle_gamma   90.00000000
_symmetry_Int_Tables_number   1
_chemical_formula_structural   TbSmEr4(Co3P2)6
_chemical_formula_sum   'Tb1 Sm1 Er4 Co18 P12'
_cell_volume   472.45330307
_cell_formula_units_Z   1
loop_
 _symmetry_equiv_pos_site_id
 _symmetry_equiv_pos_as_xyz
  1  'x, y, z'
loop_
 _atom_site_type_symbol
 _atom_site_label
 _atom_site_symmetry_multiplicity
 _atom_site_fract_x
 _atom_site_fract_y
 _atom_site_fract_z
 _atom_site_occupancy
  Tb  Tb0  1  0.250000  0.750000  0.521456  1
  Sm  Sm1  1  0.750000  0.250000  0.478234  1
  Er  Er2  1  0.250000  0.931886  0.794253  1
  Er  Er3  1  0.250000  0.568114  0.794253  1
  Er  Er4  1  0.750000  0.067605  0.205420  1
  Er  Er5  1  0.750000  0.432395  0.205420  1
  Co  Co6  1  0.250000  0.250000  0.842990  1
  Co  Co7  1  0.750000  0.750000  0.158020  1
  Co  Co8  1  0.250000  0.250000  0.294403  1
  Co  Co9  1  0.750000  0.750000  0.704570  1
  Co  Co10  1  0.750000  0.250000  0.013436  1
  Co  Co11  1  0.250000  0.750000  0.986109  1
  Co  Co12  1  0.250000  0.417004  0.005299  1
  Co  Co13  1  0.250000  0.082996  0.005299  1
  Co  Co14  1  0.750000  0.583405  0.994705  1
  Co  Co15  1  0.750000  0.916595  0.994705  1
  Co  Co16  1  0.250000  0.454304  0.570372  1
  Co  Co17  1  0.250000  0.045696  0.570372  1
  Co  Co18  1  0.750000  0.548256  0.429748  1
  Co  Co19  1  0.750000  0.951744  0.429748  1
  Co  Co20  1  0.250000  0.870711  0.288803  1
  Co  Co21  1  0.250000  0.629289  0.288803  1
  Co  Co22  1  0.750000  0.128566  0.711541  1
  Co  Co23  1  0.750000  0.371434  0.711541  1
  P  P24  1  0.250000  0.250000  0.116850  1
  P  P25  1  0.750000  0.750000  0.882685  1
  P  P26  1  0.250000  0.250000  0.659170  1
  P  P27  1  0.750000  0.750000  0.342727  1
  P  P28  1  0.250000  0.441207  0.382697  1
  P  P29  1  0.250000  0.058793  0.382697  1
  P  P30  1  0.750000  0.560666  0.616698  1
  P  P31  1  0.750000  0.939334  0.616698  1
  P  P32  1  0.250000  0.903078  0.106754  1
  P  P33  1  0.250000  0.596922  0.106754  1
  P  P34  1  0.750000  0.096209  0.893385  1
  P  P35  1  0.750000  0.403791  0.893385  1
