# generated using pymatgen
data_Tb3DyAl4PtRh3
_symmetry_space_group_name_H-M   'P 1'
_cell_length_a   4.28731800
_cell_length_b   6.89539784
_cell_length_c   7.93414398
_cell_angle_alpha   89.99769656
_cell_angle_beta   90.00000000
_cell_angle_gamma   90.00000000
_symmetry_Int_Tables_number   1
_chemical_formula_structural   Tb3DyAl4PtRh3
_chemical_formula_sum   'Tb3 Dy1 Al4 Pt1 Rh3'
_cell_volume   234.55521992
_cell_formula_units_Z   1
loop_
 _symmetry_equiv_pos_site_id
 _symmetry_equiv_pos_as_xyz
  1  'x, y, z'
loop_
 _atom_site_type_symbol
 _atom_site_label
 _atom_site_symmetry_multiplicity
 _atom_site_fract_x
 _atom_site_fract_y
 _atom_site_fract_z
 _atom_site_occupancy
  Tb  Tb0  1  0.250000  0.466301  0.183034  1
  Tb  Tb1  1  0.750000  0.537686  0.818843  1
  Tb  Tb2  1  0.250000  0.964916  0.320166  1
  Dy  Dy3  1  0.750000  0.033351  0.678234  1
  Al  Al4  1  0.250000  0.860917  0.937498  1
  Al  Al5  1  0.750000  0.135918  0.063491  1
  Al  Al6  1  0.750000  0.637183  0.438690  1
  Al  Al7  1  0.250000  0.363829  0.561818  1
  Pt  Pt8  1  0.250000  0.231966  0.879634  1
  Rh  Rh9  1  0.250000  0.735670  0.618228  1
  Rh  Rh10  1  0.750000  0.266294  0.383120  1
  Rh  Rh11  1  0.750000  0.765970  0.117245  1
