# generated using pymatgen
data_Li2PrAgSb2
_symmetry_space_group_name_H-M   'P 1'
_cell_length_a   4.64510100
_cell_length_b   4.64510084
_cell_length_c   7.39135100
_cell_angle_alpha   90.00000000
_cell_angle_beta   90.00000000
_cell_angle_gamma   120.00000823
_symmetry_Int_Tables_number   1
_chemical_formula_structural   Li2PrAgSb2
_chemical_formula_sum   'Li2 Pr1 Ag1 Sb2'
_cell_volume   138.11623479
_cell_formula_units_Z   1
loop_
 _symmetry_equiv_pos_site_id
 _symmetry_equiv_pos_as_xyz
  1  'x, y, z'
loop_
 _atom_site_type_symbol
 _atom_site_label
 _atom_site_symmetry_multiplicity
 _atom_site_fract_x
 _atom_site_fract_y
 _atom_site_fract_z
 _atom_site_occupancy
  Li  Li0  1  0.333333  0.666667  0.649215  1
  Li  Li1  1  0.000000  0.000000  0.501545  1
  Pr  Pr2  1  0.000000  0.000000  0.004025  1
  Ag  Ag3  1  0.666667  0.333333  0.356300  1
  Sb  Sb4  1  0.666667  0.333333  0.745753  1
  Sb  Sb5  1  0.333333  0.666667  0.243163  1
