# generated using pymatgen
data_SrCaNd2Al6O14
_symmetry_space_group_name_H-M   'P 1'
_cell_length_a   7.86311853
_cell_length_b   5.20314570
_cell_length_c   7.88292174
_cell_angle_alpha   89.80569457
_cell_angle_beta   89.23411744
_cell_angle_gamma   89.69139387
_symmetry_Int_Tables_number   1
_chemical_formula_structural   SrCaNd2Al6O14
_chemical_formula_sum   'Sr1 Ca1 Nd2 Al6 O14'
_cell_volume   322.47832628
_cell_formula_units_Z   1
loop_
 _symmetry_equiv_pos_site_id
 _symmetry_equiv_pos_as_xyz
  1  'x, y, z'
loop_
 _atom_site_type_symbol
 _atom_site_label
 _atom_site_symmetry_multiplicity
 _atom_site_fract_x
 _atom_site_fract_y
 _atom_site_fract_z
 _atom_site_occupancy
  Sr  Sr0  1  0.162264  0.511318  0.419096  1
  Ca  Ca1  1  0.660088  0.479463  0.576602  1
  Nd  Nd2  1  0.839131  0.508182  0.093175  1
  Nd  Nd3  1  0.344191  0.492297  0.907380  1
  Al  Al4  1  0.364303  0.962958  0.610774  1
  Al  Al5  1  0.850166  0.035417  0.392070  1
  Al  Al6  1  0.645923  0.957505  0.893017  1
  Al  Al7  1  0.140962  0.040564  0.101808  1
  Al  Al8  1  0.498958  0.002613  0.243176  1
  Al  Al9  1  0.000694  0.004886  0.755378  1
  O  O10  1  0.369120  0.297732  0.629197  1
  O  O11  1  0.846655  0.700141  0.378580  1
  O  O12  1  0.640110  0.293244  0.904877  1
  O  O13  1  0.138699  0.704915  0.096361  1
  O  O14  1  0.998825  0.176168  0.250101  1
  O  O15  1  0.514838  0.810003  0.742849  1
  O  O16  1  0.404707  0.827372  0.409823  1
  O  O17  1  0.898794  0.175841  0.590254  1
  O  O18  1  0.579893  0.791639  0.083055  1
  O  O19  1  0.081089  0.214348  0.913898  1
  O  O20  1  0.338879  0.190114  0.143529  1
  O  O21  1  0.847076  0.811036  0.859707  1
  O  O22  1  0.662358  0.199815  0.324306  1
  O  O23  1  0.172280  0.812427  0.680988  1
