# generated using pymatgen
data_Y4Ho4ReTc3C8
_symmetry_space_group_name_H-M   'P 1'
_cell_length_a   5.09432200
_cell_length_b   6.58678930
_cell_length_c   9.86921911
_cell_angle_alpha   90.04464794
_cell_angle_beta   90.00000000
_cell_angle_gamma   90.00000000
_symmetry_Int_Tables_number   1
_chemical_formula_structural   Y4Ho4ReTc3C8
_chemical_formula_sum   'Y4 Ho4 Re1 Tc3 C8'
_cell_volume   331.16377349
_cell_formula_units_Z   1
loop_
 _symmetry_equiv_pos_site_id
 _symmetry_equiv_pos_as_xyz
  1  'x, y, z'
loop_
 _atom_site_type_symbol
 _atom_site_label
 _atom_site_symmetry_multiplicity
 _atom_site_fract_x
 _atom_site_fract_y
 _atom_site_fract_z
 _atom_site_occupancy
  Y  Y0  1  0.250000  0.465438  0.784319  1
  Y  Y1  1  0.750000  0.033546  0.284638  1
  Y  Y2  1  0.250000  0.965937  0.715095  1
  Y  Y3  1  0.750000  0.533359  0.215026  1
  Ho  Ho4  1  0.250000  0.823656  0.057620  1
  Ho  Ho5  1  0.750000  0.675516  0.557381  1
  Ho  Ho6  1  0.250000  0.324194  0.441864  1
  Ho  Ho7  1  0.750000  0.177147  0.941892  1
  Re  Re8  1  0.750000  0.719263  0.866044  1
  Tc  Tc9  1  0.250000  0.280768  0.133955  1
  Tc  Tc10  1  0.750000  0.219711  0.634096  1
  Tc  Tc11  1  0.250000  0.781034  0.365692  1
  C  C12  1  0.250000  0.176164  0.952139  1
  C  C13  1  0.750000  0.823180  0.048976  1
  C  C14  1  0.250000  0.676626  0.547571  1
  C  C15  1  0.750000  0.323290  0.452369  1
  C  C16  1  0.250000  0.048545  0.258652  1
  C  C17  1  0.750000  0.452787  0.760010  1
  C  C18  1  0.250000  0.548760  0.241005  1
  C  C19  1  0.750000  0.951075  0.741658  1
