# generated using pymatgen
data_Tb4HoCo2Au
_symmetry_space_group_name_H-M   'P 1'
_cell_length_a   8.52600692
_cell_length_b   8.52600622
_cell_length_c   8.52582440
_cell_angle_alpha   127.70971875
_cell_angle_beta   127.71015658
_cell_angle_gamma   77.09692285
_symmetry_Int_Tables_number   1
_chemical_formula_structural   Tb4HoCo2Au
_chemical_formula_sum   'Tb8 Ho2 Co4 Au2'
_cell_volume   376.45839752
_cell_formula_units_Z   2
loop_
 _symmetry_equiv_pos_site_id
 _symmetry_equiv_pos_as_xyz
  1  'x, y, z'
loop_
 _atom_site_type_symbol
 _atom_site_label
 _atom_site_symmetry_multiplicity
 _atom_site_fract_x
 _atom_site_fract_y
 _atom_site_fract_z
 _atom_site_occupancy
  Tb  Tb0  1  0.698932  0.530240  0.499999  1
  Tb  Tb1  1  0.469754  0.969754  0.168687  1
  Tb  Tb2  1  0.801067  0.301067  0.831312  1
  Tb  Tb3  1  0.530246  0.030246  0.831313  1
  Tb  Tb4  1  0.030240  0.198932  0.499999  1
  Tb  Tb5  1  0.301068  0.469760  0.500001  1
  Tb  Tb6  1  0.198933  0.698933  0.168688  1
  Tb  Tb7  1  0.969760  0.801068  0.500001  1
  Ho  Ho8  1  0.000000  0.000000  0.000000  1
  Ho  Ho9  1  0.500000  0.500000  0.000000  1
  Co  Co10  1  0.128343  0.628347  0.756688  1
  Co  Co11  1  0.871657  0.371653  0.243312  1
  Co  Co12  1  0.628349  0.871652  0.500001  1
  Co  Co13  1  0.371651  0.128348  0.499999  1
  Au  Au14  1  0.250000  0.250000  0.000000  1
  Au  Au15  1  0.750000  0.750000  0.000000  1
