# generated using pymatgen
data_Er7Tm6Th3Cd3HgIr4
_symmetry_space_group_name_H-M   'P 1'
_cell_length_a   9.63746540
_cell_length_b   9.65196121
_cell_length_c   9.67017000
_cell_angle_alpha   59.93535190
_cell_angle_beta   59.88592136
_cell_angle_gamma   59.87077758
_symmetry_Int_Tables_number   1
_chemical_formula_structural   Er7Tm6Th3Cd3HgIr4
_chemical_formula_sum   'Er7 Tm6 Th3 Cd3 Hg1 Ir4'
_cell_volume   634.57744695
_cell_formula_units_Z   1
loop_
 _symmetry_equiv_pos_site_id
 _symmetry_equiv_pos_as_xyz
  1  'x, y, z'
loop_
 _atom_site_type_symbol
 _atom_site_label
 _atom_site_symmetry_multiplicity
 _atom_site_fract_x
 _atom_site_fract_y
 _atom_site_fract_z
 _atom_site_occupancy
  Er  Er0  1  0.062375  0.060730  0.438397  1
  Er  Er1  1  0.186256  0.813401  0.813522  1
  Er  Er2  1  0.815821  0.185095  0.183578  1
  Er  Er3  1  0.815626  0.184532  0.815298  1
  Er  Er4  1  0.187118  0.813530  0.185502  1
  Er  Er5  1  0.816246  0.815825  0.183124  1
  Er  Er6  1  0.186882  0.187154  0.812865  1
  Tm  Tm7  1  0.196912  0.601480  0.600933  1
  Tm  Tm8  1  0.061848  0.438481  0.439091  1
  Tm  Tm9  1  0.435440  0.063597  0.063792  1
  Tm  Tm10  1  0.435525  0.063682  0.436793  1
  Tm  Tm11  1  0.061524  0.438698  0.060244  1
  Tm  Tm12  1  0.435990  0.437071  0.063418  1
  Th  Th13  1  0.598412  0.600506  0.599856  1
  Th  Th14  1  0.598710  0.600882  0.200394  1
  Th  Th15  1  0.599158  0.198789  0.601222  1
  Cd  Cd16  1  0.835104  0.830306  0.502388  1
  Cd  Cd17  1  0.834507  0.501685  0.831544  1
  Cd  Cd18  1  0.499976  0.832031  0.833648  1
  Hg  Hg19  1  0.838128  0.832512  0.833822  1
  Ir  Ir20  1  0.391583  0.392015  0.392636  1
  Ir  Ir21  1  0.391694  0.391947  0.823660  1
  Ir  Ir22  1  0.392269  0.823488  0.392042  1
  Ir  Ir23  1  0.822896  0.392560  0.392229  1
