# generated using pymatgen
data_LaEr9(Bi2Sb)2
_symmetry_space_group_name_H-M   'P 1'
_cell_length_a   8.24322100
_cell_length_b   9.41527900
_cell_length_c   12.03751600
_cell_angle_alpha   90.00000000
_cell_angle_beta   90.00000000
_cell_angle_gamma   90.00000000
_symmetry_Int_Tables_number   1
_chemical_formula_structural   LaEr9(Bi2Sb)2
_chemical_formula_sum   'La2 Er18 Bi8 Sb4'
_cell_volume   934.25840714
_cell_formula_units_Z   2
loop_
 _symmetry_equiv_pos_site_id
 _symmetry_equiv_pos_as_xyz
  1  'x, y, z'
loop_
 _atom_site_type_symbol
 _atom_site_label
 _atom_site_symmetry_multiplicity
 _atom_site_fract_x
 _atom_site_fract_y
 _atom_site_fract_z
 _atom_site_occupancy
  La  La0  1  0.172704  0.750000  0.225083  1
  La  La1  1  0.327296  0.750000  0.725083  1
  Er  Er2  1  0.816766  0.562509  0.063105  1
  Er  Er3  1  0.683234  0.937491  0.563105  1
  Er  Er4  1  0.188331  0.063152  0.937842  1
  Er  Er5  1  0.311669  0.436848  0.437842  1
  Er  Er6  1  0.188331  0.436848  0.937842  1
  Er  Er7  1  0.311669  0.063152  0.437842  1
  Er  Er8  1  0.816766  0.937491  0.063105  1
  Er  Er9  1  0.683234  0.562509  0.563105  1
  Er  Er10  1  0.828207  0.250000  0.777420  1
  Er  Er11  1  0.671793  0.250000  0.277420  1
  Er  Er12  1  0.479145  0.750000  0.004114  1
  Er  Er13  1  0.020855  0.750000  0.504114  1
  Er  Er14  1  0.528744  0.250000  0.996274  1
  Er  Er15  1  0.971256  0.250000  0.496274  1
  Er  Er16  1  0.661352  0.750000  0.289439  1
  Er  Er17  1  0.838648  0.750000  0.789439  1
  Er  Er18  1  0.342547  0.250000  0.709850  1
  Er  Er19  1  0.157453  0.250000  0.209850  1
  Bi  Bi20  1  0.929389  0.504032  0.327551  1
  Bi  Bi21  1  0.570611  0.995968  0.827551  1
  Bi  Bi22  1  0.058498  0.012165  0.673726  1
  Bi  Bi23  1  0.441502  0.487835  0.173726  1
  Bi  Bi24  1  0.058498  0.487835  0.673726  1
  Bi  Bi25  1  0.441502  0.012165  0.173726  1
  Bi  Bi26  1  0.929389  0.995968  0.327551  1
  Bi  Bi27  1  0.570611  0.504032  0.827551  1
  Sb  Sb28  1  0.400389  0.750000  0.464860  1
  Sb  Sb29  1  0.099611  0.750000  0.964860  1
  Sb  Sb30  1  0.597611  0.250000  0.528515  1
  Sb  Sb31  1  0.902389  0.250000  0.028515  1
