# generated using pymatgen
data_Tm3Lu17FeBi11
_symmetry_space_group_name_H-M   'P 1'
_cell_length_a   8.00951438
_cell_length_b   9.35103900
_cell_length_c   11.82270076
_cell_angle_alpha   90.00000000
_cell_angle_beta   89.60893003
_cell_angle_gamma   90.00000000
_symmetry_Int_Tables_number   1
_chemical_formula_structural   Tm3Lu17FeBi11
_chemical_formula_sum   'Tm3 Lu17 Fe1 Bi11'
_cell_volume   885.46751883
_cell_formula_units_Z   1
loop_
 _symmetry_equiv_pos_site_id
 _symmetry_equiv_pos_as_xyz
  1  'x, y, z'
loop_
 _atom_site_type_symbol
 _atom_site_label
 _atom_site_symmetry_multiplicity
 _atom_site_fract_x
 _atom_site_fract_y
 _atom_site_fract_z
 _atom_site_occupancy
  Tm  Tm0  1  0.810151  0.750000  0.217524  1
  Tm  Tm1  1  0.315829  0.750000  0.280305  1
  Tm  Tm2  1  0.635263  0.250000  0.697620  1
  Lu  Lu3  1  0.051645  0.250000  0.506159  1
  Lu  Lu4  1  0.987490  0.750000  0.493549  1
  Lu  Lu5  1  0.479049  0.750000  0.012205  1
  Lu  Lu6  1  0.527745  0.250000  0.990351  1
  Lu  Lu7  1  0.357006  0.250000  0.309620  1
  Lu  Lu8  1  0.658198  0.750000  0.719016  1
  Lu  Lu9  1  0.143496  0.750000  0.777897  1
  Lu  Lu10  1  0.849213  0.250000  0.215510  1
  Lu  Lu11  1  0.205540  0.250000  0.769485  1
  Lu  Lu12  1  0.193806  0.067070  0.066284  1
  Lu  Lu13  1  0.808016  0.934023  0.940650  1
  Lu  Lu14  1  0.318064  0.977419  0.558160  1
  Lu  Lu15  1  0.808016  0.565977  0.940650  1
  Lu  Lu16  1  0.675179  0.076461  0.445868  1
  Lu  Lu17  1  0.193806  0.432930  0.066284  1
  Lu  Lu18  1  0.675179  0.423539  0.445868  1
  Lu  Lu19  1  0.318064  0.522581  0.558160  1
  Fe  Fe20  1  0.414897  0.250000  0.529575  1
  Bi  Bi21  1  0.594909  0.750000  0.461608  1
  Bi  Bi22  1  0.097842  0.750000  0.041073  1
  Bi  Bi23  1  0.912485  0.250000  0.951314  1
  Bi  Bi24  1  0.057397  0.999740  0.323255  1
  Bi  Bi25  1  0.930219  0.002538  0.674259  1
  Bi  Bi26  1  0.432813  0.991174  0.829942  1
  Bi  Bi27  1  0.930219  0.497462  0.674259  1
  Bi  Bi28  1  0.564126  0.005485  0.175176  1
  Bi  Bi29  1  0.057397  0.500260  0.323255  1
  Bi  Bi30  1  0.564126  0.494515  0.175176  1
  Bi  Bi31  1  0.432813  0.508826  0.829942  1
