# generated using pymatgen
data_K3In5I16
_symmetry_space_group_name_H-M   'P 1'
_cell_length_a   8.61456500
_cell_length_b   11.51619737
_cell_length_c   11.77363163
_cell_angle_alpha   89.87889916
_cell_angle_beta   90.00000000
_cell_angle_gamma   90.00000000
_symmetry_Int_Tables_number   1
_chemical_formula_structural   K3In5I16
_chemical_formula_sum   'K3 In5 I16'
_cell_volume   1168.02442742
_cell_formula_units_Z   1
loop_
 _symmetry_equiv_pos_site_id
 _symmetry_equiv_pos_as_xyz
  1  'x, y, z'
loop_
 _atom_site_type_symbol
 _atom_site_label
 _atom_site_symmetry_multiplicity
 _atom_site_fract_x
 _atom_site_fract_y
 _atom_site_fract_z
 _atom_site_occupancy
  K  K0  1  0.665882  0.250000  0.750000  1
  K  K1  1  0.833795  0.750000  0.750000  1
  K  K2  1  0.334028  0.750000  0.250000  1
  In  In3  1  0.249954  0.000729  0.674102  1
  In  In4  1  0.249954  0.499271  0.825898  1
  In  In5  1  0.749875  0.000946  0.323629  1
  In  In6  1  0.749875  0.499054  0.176371  1
  In  In7  1  0.153479  0.250000  0.250000  1
  I  I8  1  0.503313  0.957376  0.814100  1
  I  I9  1  0.503313  0.542624  0.685900  1
  I  I10  1  0.996535  0.457233  0.686126  1
  I  I11  1  0.996535  0.042767  0.813874  1
  I  I12  1  0.495018  0.044674  0.186460  1
  I  I13  1  0.495018  0.455326  0.313540  1
  I  I14  1  0.006266  0.539273  0.314303  1
  I  I15  1  0.006266  0.960727  0.185697  1
  I  I16  1  0.340227  0.188993  0.544665  1
  I  I17  1  0.340227  0.311007  0.955335  1
  I  I18  1  0.159004  0.688693  0.952481  1
  I  I19  1  0.159004  0.811307  0.547519  1
  I  I20  1  0.660098  0.811770  0.452479  1
  I  I21  1  0.660098  0.688230  0.047521  1
  I  I22  1  0.846120  0.310029  0.050636  1
  I  I23  1  0.846120  0.189971  0.449364  1
