# generated using pymatgen
data_Mg3VGa2(Co5B2)2
_symmetry_space_group_name_H-M   'P 1'
_cell_length_a   8.74882399
_cell_length_b   8.74882399
_cell_length_c   2.80741600
_cell_angle_alpha   90.00000000
_cell_angle_beta   90.00000000
_cell_angle_gamma   90.73709157
_symmetry_Int_Tables_number   1
_chemical_formula_structural   Mg3VGa2(Co5B2)2
_chemical_formula_sum   'Mg3 V1 Ga2 Co10 B4'
_cell_volume   214.86723282
_cell_formula_units_Z   1
loop_
 _symmetry_equiv_pos_site_id
 _symmetry_equiv_pos_as_xyz
  1  'x, y, z'
loop_
 _atom_site_type_symbol
 _atom_site_label
 _atom_site_symmetry_multiplicity
 _atom_site_fract_x
 _atom_site_fract_y
 _atom_site_fract_z
 _atom_site_occupancy
  Mg  Mg0  1  0.176231  0.676231  0.000000  1
  Mg  Mg1  1  0.322873  0.177425  0.000000  1
  Mg  Mg2  1  0.677425  0.822873  0.000000  1
  V  V3  1  0.825996  0.325996  0.000000  1
  Ga  Ga4  1  0.495295  0.501464  0.000000  1
  Ga  Ga5  1  0.001464  0.995295  0.000000  1
  Co  Co6  1  0.504155  0.004155  0.500000  1
  Co  Co7  1  0.993190  0.493190  0.500000  1
  Co  Co8  1  0.722206  0.553893  0.500000  1
  Co  Co9  1  0.274513  0.430205  0.500000  1
  Co  Co10  1  0.222301  0.931691  0.500000  1
  Co  Co11  1  0.786076  0.084044  0.500000  1
  Co  Co12  1  0.431691  0.722301  0.500000  1
  Co  Co13  1  0.584044  0.286076  0.500000  1
  Co  Co14  1  0.053893  0.222206  0.500000  1
  Co  Co15  1  0.930205  0.774513  0.500000  1
  B  B16  1  0.625898  0.125898  0.000000  1
  B  B17  1  0.378579  0.878579  0.000000  1
  B  B18  1  0.118850  0.375113  0.000000  1
  B  B19  1  0.875113  0.618850  0.000000  1
