# generated using pymatgen
data_Y16CdHg3Rh4
_symmetry_space_group_name_H-M   'P 1'
_cell_length_a   9.64155062
_cell_length_b   9.64154967
_cell_length_c   9.64155021
_cell_angle_alpha   59.89041925
_cell_angle_beta   59.89042485
_cell_angle_gamma   59.89041560
_symmetry_Int_Tables_number   1
_chemical_formula_structural   Y16CdHg3Rh4
_chemical_formula_sum   'Y16 Cd1 Hg3 Rh4'
_cell_volume   632.18549567
_cell_formula_units_Z   1
loop_
 _symmetry_equiv_pos_site_id
 _symmetry_equiv_pos_as_xyz
  1  'x, y, z'
loop_
 _atom_site_type_symbol
 _atom_site_label
 _atom_site_symmetry_multiplicity
 _atom_site_fract_x
 _atom_site_fract_y
 _atom_site_fract_z
 _atom_site_occupancy
  Y  Y0  1  0.302360  0.898486  0.898486  1
  Y  Y1  1  0.686732  0.312027  0.686732  1
  Y  Y2  1  0.313314  0.686448  0.313314  1
  Y  Y3  1  0.061723  0.439197  0.439197  1
  Y  Y4  1  0.686448  0.313314  0.313314  1
  Y  Y5  1  0.439197  0.061723  0.439197  1
  Y  Y6  1  0.440918  0.059932  0.059932  1
  Y  Y7  1  0.898577  0.898577  0.898577  1
  Y  Y8  1  0.059932  0.440918  0.059932  1
  Y  Y9  1  0.898486  0.302360  0.898486  1
  Y  Y10  1  0.312027  0.686732  0.686732  1
  Y  Y11  1  0.898486  0.898486  0.302360  1
  Y  Y12  1  0.439197  0.439197  0.061723  1
  Y  Y13  1  0.313314  0.313314  0.686448  1
  Y  Y14  1  0.686732  0.686732  0.312027  1
  Y  Y15  1  0.059932  0.059932  0.440918  1
  Cd  Cd16  1  0.670872  0.670872  0.670872  1
  Hg  Hg17  1  0.005047  0.664451  0.664451  1
  Hg  Hg18  1  0.664451  0.005047  0.664451  1
  Hg  Hg19  1  0.664451  0.664451  0.005047  1
  Rh  Rh20  1  0.106324  0.106324  0.677749  1
  Rh  Rh21  1  0.106324  0.677749  0.106324  1
  Rh  Rh22  1  0.107404  0.107404  0.107404  1
  Rh  Rh23  1  0.677749  0.106324  0.106324  1
