# generated using pymatgen
data_Na2Ni9MoAs7Ru2
_symmetry_space_group_name_H-M   'P 1'
_cell_length_a   9.48565380
_cell_length_b   9.49056184
_cell_length_c   3.77597100
_cell_angle_alpha   90.00000000
_cell_angle_beta   90.00000000
_cell_angle_gamma   120.31037299
_symmetry_Int_Tables_number   1
_chemical_formula_structural   Na2Ni9MoAs7Ru2
_chemical_formula_sum   'Na2 Ni9 Mo1 As7 Ru2'
_cell_volume   293.46187964
_cell_formula_units_Z   1
loop_
 _symmetry_equiv_pos_site_id
 _symmetry_equiv_pos_as_xyz
  1  'x, y, z'
loop_
 _atom_site_type_symbol
 _atom_site_label
 _atom_site_symmetry_multiplicity
 _atom_site_fract_x
 _atom_site_fract_y
 _atom_site_fract_z
 _atom_site_occupancy
  Na  Na0  1  0.333215  0.667538  0.000000  1
  Na  Na1  1  0.667703  0.334067  0.500000  1
  Ni  Ni2  1  0.123038  0.284676  0.000000  1
  Ni  Ni3  1  0.712588  0.836574  0.000000  1
  Ni  Ni4  1  0.160556  0.877165  0.000000  1
  Ni  Ni5  1  0.429405  0.374910  0.000000  1
  Ni  Ni6  1  0.625199  0.055943  0.000000  1
  Ni  Ni7  1  0.944568  0.567785  0.000000  1
  Ni  Ni8  1  0.049753  0.434399  0.500000  1
  Ni  Ni9  1  0.566532  0.615519  0.500000  1
  Ni  Ni10  1  0.382356  0.946492  0.500000  1
  Mo  Mo11  1  0.215949  0.118970  0.500000  1
  As  As12  1  0.291630  0.414659  0.500000  1
  As  As13  1  0.589115  0.880783  0.500000  1
  As  As14  1  0.118093  0.707057  0.500000  1
  As  As15  1  0.416190  0.120148  0.000000  1
  As  As16  1  0.879214  0.292641  0.000000  1
  As  As17  1  0.708429  0.587247  0.000000  1
  As  As18  1  0.994827  0.998081  0.000000  1
  Ru  Ru19  1  0.883895  0.097178  0.500000  1
  Ru  Ru20  1  0.907745  0.788170  0.500000  1
