# generated using pymatgen
data_Lu3In3HgPt2
_symmetry_space_group_name_H-M   'P 1'
_cell_length_a   7.84659600
_cell_length_b   7.84659683
_cell_length_c   3.70514100
_cell_angle_alpha   90.00000000
_cell_angle_beta   90.00000000
_cell_angle_gamma   119.99999539
_symmetry_Int_Tables_number   1
_chemical_formula_structural   Lu3In3HgPt2
_chemical_formula_sum   'Lu3 In3 Hg1 Pt2'
_cell_volume   197.55954736
_cell_formula_units_Z   1
loop_
 _symmetry_equiv_pos_site_id
 _symmetry_equiv_pos_as_xyz
  1  'x, y, z'
loop_
 _atom_site_type_symbol
 _atom_site_label
 _atom_site_symmetry_multiplicity
 _atom_site_fract_x
 _atom_site_fract_y
 _atom_site_fract_z
 _atom_site_occupancy
  Lu  Lu0  1  0.023305  0.614682  0.500000  1
  Lu  Lu1  1  0.591377  0.976695  0.500000  1
  Lu  Lu2  1  0.385318  0.408623  0.500000  1
  In  In3  1  0.999487  0.263231  0.000000  1
  In  In4  1  0.263744  0.000513  0.000000  1
  In  In5  1  0.736769  0.736256  0.000000  1
  Hg  Hg6  1  0.666667  0.333333  0.000000  1
  Pt  Pt7  1  0.000000  0.000000  0.500000  1
  Pt  Pt8  1  0.333333  0.666667  0.000000  1
