# generated using pymatgen
data_YTmReB6
_symmetry_space_group_name_H-M   'P 1'
_cell_length_a   3.66373200
_cell_length_b   9.14664800
_cell_length_c   11.54315500
_cell_angle_alpha   90.00000000
_cell_angle_beta   90.00000000
_cell_angle_gamma   90.00000000
_symmetry_Int_Tables_number   1
_chemical_formula_structural   YTmReB6
_chemical_formula_sum   'Y4 Tm4 Re4 B24'
_cell_volume   386.82113162
_cell_formula_units_Z   4
loop_
 _symmetry_equiv_pos_site_id
 _symmetry_equiv_pos_as_xyz
  1  'x, y, z'
loop_
 _atom_site_type_symbol
 _atom_site_label
 _atom_site_symmetry_multiplicity
 _atom_site_fract_x
 _atom_site_fract_y
 _atom_site_fract_z
 _atom_site_occupancy
  Y  Y0  1  0.000000  0.323086  0.414023  1
  Y  Y1  1  0.000000  0.676914  0.585977  1
  Y  Y2  1  0.000000  0.823086  0.085977  1
  Y  Y3  1  0.000000  0.176914  0.914023  1
  Tm  Tm4  1  0.000000  0.943480  0.370499  1
  Tm  Tm5  1  0.000000  0.056520  0.629501  1
  Tm  Tm6  1  0.000000  0.443480  0.129501  1
  Tm  Tm7  1  0.000000  0.556520  0.870499  1
  Re  Re8  1  0.000000  0.639313  0.320099  1
  Re  Re9  1  0.000000  0.360687  0.679901  1
  Re  Re10  1  0.000000  0.139313  0.179901  1
  Re  Re11  1  0.000000  0.860687  0.820099  1
  B  B12  1  0.500000  0.553596  0.432463  1
  B  B13  1  0.500000  0.446404  0.567537  1
  B  B14  1  0.500000  0.053596  0.067537  1
  B  B15  1  0.500000  0.946404  0.932463  1
  B  B16  1  0.500000  0.750097  0.418182  1
  B  B17  1  0.500000  0.249903  0.581818  1
  B  B18  1  0.500000  0.250097  0.081818  1
  B  B19  1  0.500000  0.749903  0.918182  1
  B  B20  1  0.500000  0.792805  0.265624  1
  B  B21  1  0.500000  0.207195  0.734376  1
  B  B22  1  0.500000  0.292805  0.234376  1
  B  B23  1  0.500000  0.707195  0.765624  1
  B  B24  1  0.500000  0.630215  0.185272  1
  B  B25  1  0.500000  0.369785  0.814728  1
  B  B26  1  0.500000  0.130215  0.314728  1
  B  B27  1  0.500000  0.869785  0.685272  1
  B  B28  1  0.500000  0.981921  0.212568  1
  B  B29  1  0.500000  0.018079  0.787432  1
  B  B30  1  0.500000  0.481921  0.287432  1
  B  B31  1  0.500000  0.518079  0.712568  1
  B  B32  1  0.500000  0.598655  0.027403  1
  B  B33  1  0.500000  0.401345  0.972597  1
  B  B34  1  0.500000  0.098655  0.472597  1
  B  B35  1  0.500000  0.901345  0.527403  1
