# generated using pymatgen
data_Ce5P12Ru16Pt3
_symmetry_space_group_name_H-M   'P 1'
_cell_length_a   12.66586400
_cell_length_b   12.66586401
_cell_length_c   3.99463100
_cell_angle_alpha   90.00000000
_cell_angle_beta   90.00000000
_cell_angle_gamma   119.99999997
_symmetry_Int_Tables_number   1
_chemical_formula_structural   Ce5P12Ru16Pt3
_chemical_formula_sum   'Ce5 P12 Ru16 Pt3'
_cell_volume   554.97949988
_cell_formula_units_Z   1
loop_
 _symmetry_equiv_pos_site_id
 _symmetry_equiv_pos_as_xyz
  1  'x, y, z'
loop_
 _atom_site_type_symbol
 _atom_site_label
 _atom_site_symmetry_multiplicity
 _atom_site_fract_x
 _atom_site_fract_y
 _atom_site_fract_z
 _atom_site_occupancy
  Ce  Ce0  1  0.184215  0.184215  0.500000  1
  Ce  Ce1  1  0.815785  0.000000  0.500000  1
  Ce  Ce2  1  0.000000  0.815785  0.500000  1
  Ce  Ce3  1  0.333333  0.666667  0.000000  1
  Ce  Ce4  1  0.666667  0.333333  0.000000  1
  P  P5  1  0.814501  0.814501  0.000000  1
  P  P6  1  0.185499  0.000000  0.000000  1
  P  P7  1  0.000000  0.185499  0.000000  1
  P  P8  1  0.179722  0.478992  0.500000  1
  P  P9  1  0.521008  0.700729  0.500000  1
  P  P10  1  0.299271  0.820278  0.500000  1
  P  P11  1  0.700729  0.521008  0.500000  1
  P  P12  1  0.820278  0.299271  0.500000  1
  P  P13  1  0.478992  0.179722  0.500000  1
  P  P14  1  0.366576  0.366576  0.000000  1
  P  P15  1  0.633424  0.000000  0.000000  1
  P  P16  1  0.000000  0.633424  0.000000  1
  Ru  Ru17  1  0.710728  0.710728  0.500000  1
  Ru  Ru18  1  0.289272  0.000000  0.500000  1
  Ru  Ru19  1  0.000000  0.289272  0.500000  1
  Ru  Ru20  1  0.184135  0.378804  0.000000  1
  Ru  Ru21  1  0.621196  0.805331  0.000000  1
  Ru  Ru22  1  0.194669  0.815865  0.000000  1
  Ru  Ru23  1  0.805331  0.621196  0.000000  1
  Ru  Ru24  1  0.815865  0.194669  0.000000  1
  Ru  Ru25  1  0.378804  0.184135  0.000000  1
  Ru  Ru26  1  0.369980  0.494277  0.500000  1
  Ru  Ru27  1  0.505723  0.875704  0.500000  1
  Ru  Ru28  1  0.124296  0.630020  0.500000  1
  Ru  Ru29  1  0.875704  0.505723  0.500000  1
  Ru  Ru30  1  0.630020  0.124296  0.500000  1
  Ru  Ru31  1  0.494277  0.369980  0.500000  1
  Ru  Ru32  1  0.000000  0.000000  0.000000  1
  Pt  Pt33  1  0.552108  0.552108  0.000000  1
  Pt  Pt34  1  0.447892  0.000000  0.000000  1
  Pt  Pt35  1  0.000000  0.447892  0.000000  1
