# generated using pymatgen
data_Cs4Fe3MoSe8
_symmetry_space_group_name_H-M   'P 1'
_cell_length_a   5.72944578
_cell_length_b   7.65678139
_cell_length_c   13.17163331
_cell_angle_alpha   88.94100069
_cell_angle_beta   83.36000514
_cell_angle_gamma   79.43630109
_symmetry_Int_Tables_number   1
_chemical_formula_structural   Cs4Fe3MoSe8
_chemical_formula_sum   'Cs4 Fe3 Mo1 Se8'
_cell_volume   564.22228537
_cell_formula_units_Z   1
loop_
 _symmetry_equiv_pos_site_id
 _symmetry_equiv_pos_as_xyz
  1  'x, y, z'
loop_
 _atom_site_type_symbol
 _atom_site_label
 _atom_site_symmetry_multiplicity
 _atom_site_fract_x
 _atom_site_fract_y
 _atom_site_fract_z
 _atom_site_occupancy
  Cs  Cs0  1  0.077282  0.027037  0.667714  1
  Cs  Cs1  1  0.569800  0.531552  0.185058  1
  Cs  Cs2  1  0.431130  0.466849  0.814583  1
  Cs  Cs3  1  0.921306  0.973020  0.332062  1
  Fe  Fe4  1  0.249805  0.495021  0.498763  1
  Fe  Fe5  1  0.750396  0.505053  0.501284  1
  Fe  Fe6  1  0.250029  0.001083  0.000114  1
  Mo  Mo7  1  0.750181  0.998919  0.999837  1
  Se  Se8  1  0.955492  0.545704  0.641823  1
  Se  Se9  1  0.444317  0.065547  0.141626  1
  Se  Se10  1  0.951163  0.245347  0.962644  1
  Se  Se11  1  0.449281  0.734924  0.453394  1
  Se  Se12  1  0.549827  0.935649  0.858167  1
  Se  Se13  1  0.044600  0.454188  0.358171  1
  Se  Se14  1  0.550940  0.265323  0.546901  1
  Se  Se15  1  0.054453  0.754780  0.037857  1
