# generated using pymatgen
data_Mo2P3PbO12
_symmetry_space_group_name_H-M   'P 1'
_cell_length_a   8.80641855
_cell_length_b   8.80641774
_cell_length_c   9.35152738
_cell_angle_alpha   61.71175296
_cell_angle_beta   61.71174633
_cell_angle_gamma   60.32722305
_symmetry_Int_Tables_number   1
_chemical_formula_structural   Mo2P3PbO12
_chemical_formula_sum   'Mo4 P6 Pb2 O24'
_cell_volume   527.04263931
_cell_formula_units_Z   2
loop_
 _symmetry_equiv_pos_site_id
 _symmetry_equiv_pos_as_xyz
  1  'x, y, z'
loop_
 _atom_site_type_symbol
 _atom_site_label
 _atom_site_symmetry_multiplicity
 _atom_site_fract_x
 _atom_site_fract_y
 _atom_site_fract_z
 _atom_site_occupancy
  Mo  Mo0  1  0.651653  0.143183  0.805320  1
  Mo  Mo1  1  0.856817  0.348347  0.194680  1
  Mo  Mo2  1  0.151474  0.643975  0.305924  1
  Mo  Mo3  1  0.356025  0.848526  0.694076  1
  P  P4  1  0.257152  0.456005  0.001460  1
  P  P5  1  0.460413  0.245432  0.503656  1
  P  P6  1  0.045242  0.954758  0.500000  1
  P  P7  1  0.965550  0.034450  0.000000  1
  P  P8  1  0.543995  0.742848  0.998540  1
  P  P9  1  0.754568  0.539587  0.496344  1
  Pb  Pb10  1  0.008886  0.485430  0.756719  1
  Pb  Pb11  1  0.514570  0.991114  0.243281  1
  O  O12  1  0.029587  0.120496  0.339141  1
  O  O13  1  0.774064  0.524870  0.331802  1
  O  O14  1  0.425046  0.276021  0.993832  1
  O  O15  1  0.302179  0.613229  0.836226  1
  O  O16  1  0.224930  0.916911  0.527844  1
  O  O17  1  0.625279  0.263721  0.343410  1
  O  O18  1  0.475130  0.225936  0.668198  1
  O  O19  1  0.087683  0.439980  0.005554  1
  O  O20  1  0.431272  0.071578  0.525612  1
  O  O21  1  0.280118  0.410906  0.480496  1
  O  O22  1  0.879504  0.970413  0.660859  1
  O  O23  1  0.083089  0.775070  0.472156  1
  O  O24  1  0.945434  0.216446  0.007653  1
  O  O25  1  0.121624  0.004139  0.835429  1
  O  O26  1  0.560020  0.912317  0.994446  1
  O  O27  1  0.723979  0.574954  0.006168  1
  O  O28  1  0.928422  0.568728  0.474388  1
  O  O29  1  0.511758  0.783743  0.833693  1
  O  O30  1  0.386771  0.697821  0.163774  1
  O  O31  1  0.783554  0.054566  0.992347  1
  O  O32  1  0.736279  0.374721  0.656590  1
  O  O33  1  0.589094  0.719882  0.519504  1
  O  O34  1  0.216257  0.488242  0.166307  1
  O  O35  1  0.995861  0.878376  0.164571  1
