# generated using pymatgen
data_Na5Si9P3Ir19
_symmetry_space_group_name_H-M   'P 1'
_cell_length_a   12.73212400
_cell_length_b   12.73212451
_cell_length_c   3.96041500
_cell_angle_alpha   90.00000000
_cell_angle_beta   90.00000000
_cell_angle_gamma   119.99999347
_symmetry_Int_Tables_number   1
_chemical_formula_structural   Na5Si9P3Ir19
_chemical_formula_sum   'Na5 Si9 P3 Ir19'
_cell_volume   555.99782648
_cell_formula_units_Z   1
loop_
 _symmetry_equiv_pos_site_id
 _symmetry_equiv_pos_as_xyz
  1  'x, y, z'
loop_
 _atom_site_type_symbol
 _atom_site_label
 _atom_site_symmetry_multiplicity
 _atom_site_fract_x
 _atom_site_fract_y
 _atom_site_fract_z
 _atom_site_occupancy
  Na  Na0  1  0.333333  0.666667  0.500000  1
  Na  Na1  1  0.666667  0.333333  0.500000  1
  Na  Na2  1  0.000000  0.817851  0.000000  1
  Na  Na3  1  0.182149  0.182149  0.000000  1
  Na  Na4  1  0.817851  0.000000  0.000000  1
  Si  Si5  1  0.000000  0.631429  0.500000  1
  Si  Si6  1  0.368571  0.368571  0.500000  1
  Si  Si7  1  0.631429  0.000000  0.500000  1
  Si  Si8  1  0.519709  0.685918  0.000000  1
  Si  Si9  1  0.314082  0.833792  0.000000  1
  Si  Si10  1  0.166208  0.480291  0.000000  1
  Si  Si11  1  0.480291  0.166208  0.000000  1
  Si  Si12  1  0.685918  0.519709  0.000000  1
  Si  Si13  1  0.833792  0.314082  0.000000  1
  P  P14  1  0.000000  0.179303  0.500000  1
  P  P15  1  0.820697  0.820697  0.500000  1
  P  P16  1  0.179303  0.000000  0.500000  1
  Ir  Ir17  1  0.514915  0.873951  0.000000  1
  Ir  Ir18  1  0.126049  0.640964  0.000000  1
  Ir  Ir19  1  0.359036  0.485085  0.000000  1
  Ir  Ir20  1  0.485085  0.359036  0.000000  1
  Ir  Ir21  1  0.873951  0.514915  0.000000  1
  Ir  Ir22  1  0.640964  0.126049  0.000000  1
  Ir  Ir23  1  0.000000  0.445919  0.500000  1
  Ir  Ir24  1  0.554081  0.554081  0.500000  1
  Ir  Ir25  1  0.445919  0.000000  0.500000  1
  Ir  Ir26  1  0.000000  0.278545  0.000000  1
  Ir  Ir27  1  0.721455  0.721455  0.000000  1
  Ir  Ir28  1  0.278545  0.000000  0.000000  1
  Ir  Ir29  1  0.624804  0.806661  0.500000  1
  Ir  Ir30  1  0.193339  0.818143  0.500000  1
  Ir  Ir31  1  0.181857  0.375196  0.500000  1
  Ir  Ir32  1  0.375196  0.181857  0.500000  1
  Ir  Ir33  1  0.806661  0.624804  0.500000  1
  Ir  Ir34  1  0.818143  0.193339  0.500000  1
  Ir  Ir35  1  0.000000  0.000000  0.500000  1
