# generated using pymatgen
data_LiCrHgF6
_symmetry_space_group_name_H-M   'P 1'
_cell_length_a   5.26157000
_cell_length_b   5.26156975
_cell_length_c   9.85607000
_cell_angle_alpha   90.00000000
_cell_angle_beta   90.00000000
_cell_angle_gamma   120.00000155
_symmetry_Int_Tables_number   1
_chemical_formula_structural   LiCrHgF6
_chemical_formula_sum   'Li2 Cr2 Hg2 F12'
_cell_volume   236.30074410
_cell_formula_units_Z   2
loop_
 _symmetry_equiv_pos_site_id
 _symmetry_equiv_pos_as_xyz
  1  'x, y, z'
loop_
 _atom_site_type_symbol
 _atom_site_label
 _atom_site_symmetry_multiplicity
 _atom_site_fract_x
 _atom_site_fract_y
 _atom_site_fract_z
 _atom_site_occupancy
  Li  Li0  1  0.333333  0.666667  0.750000  1
  Li  Li1  1  0.666667  0.333333  0.250000  1
  Cr  Cr2  1  0.666667  0.333333  0.750000  1
  Cr  Cr3  1  0.333333  0.666667  0.250000  1
  Hg  Hg4  1  0.000000  0.000000  0.500000  1
  Hg  Hg5  1  0.000000  0.000000  0.000000  1
  F  F6  1  0.646454  0.014465  0.640788  1
  F  F7  1  0.353546  0.985535  0.359212  1
  F  F8  1  0.985535  0.631989  0.640788  1
  F  F9  1  0.646454  0.631989  0.859212  1
  F  F10  1  0.014465  0.368011  0.359212  1
  F  F11  1  0.353546  0.368011  0.140788  1
  F  F12  1  0.368011  0.353546  0.640788  1
  F  F13  1  0.985535  0.353546  0.859212  1
  F  F14  1  0.631989  0.646454  0.359212  1
  F  F15  1  0.014465  0.646454  0.140788  1
  F  F16  1  0.368011  0.014465  0.859212  1
  F  F17  1  0.631989  0.985535  0.140788  1
