# generated using pymatgen
data_Ho3Mg2CdRhPb2
_symmetry_space_group_name_H-M   'P 1'
_cell_length_a   7.50634900
_cell_length_b   7.46897776
_cell_length_c   4.53010600
_cell_angle_alpha   90.00000000
_cell_angle_beta   90.00000000
_cell_angle_gamma   120.16565829
_symmetry_Int_Tables_number   1
_chemical_formula_structural   Ho3Mg2CdRhPb2
_chemical_formula_sum   'Ho3 Mg2 Cd1 Rh1 Pb2'
_cell_volume   219.58442452
_cell_formula_units_Z   1
loop_
 _symmetry_equiv_pos_site_id
 _symmetry_equiv_pos_as_xyz
  1  'x, y, z'
loop_
 _atom_site_type_symbol
 _atom_site_label
 _atom_site_symmetry_multiplicity
 _atom_site_fract_x
 _atom_site_fract_y
 _atom_site_fract_z
 _atom_site_occupancy
  Ho  Ho0  1  0.608286  0.000000  0.000000  1
  Ho  Ho1  1  0.003430  0.614670  0.000000  1
  Ho  Ho2  1  0.388760  0.385330  0.000000  1
  Mg  Mg3  1  0.999797  0.224560  0.500000  1
  Mg  Mg4  1  0.775236  0.775440  0.500000  1
  Cd  Cd5  1  0.229054  0.000000  0.500000  1
  Rh  Rh6  1  0.987307  0.000000  0.000000  1
  Pb  Pb7  1  0.334695  0.661261  0.500000  1
  Pb  Pb8  1  0.673435  0.338739  0.500000  1
