# generated using pymatgen
data_Ba12SrCa3(Os2O9)4
_symmetry_space_group_name_H-M   'P 1'
_cell_length_a   6.02064500
_cell_length_b   6.02064430
_cell_length_c   29.46150800
_cell_angle_alpha   90.00000000
_cell_angle_beta   90.00000000
_cell_angle_gamma   119.99999834
_symmetry_Int_Tables_number   1
_chemical_formula_structural   Ba12SrCa3(Os2O9)4
_chemical_formula_sum   'Ba12 Sr1 Ca3 Os8 O36'
_cell_volume   924.85064096
_cell_formula_units_Z   1
loop_
 _symmetry_equiv_pos_site_id
 _symmetry_equiv_pos_as_xyz
  1  'x, y, z'
loop_
 _atom_site_type_symbol
 _atom_site_label
 _atom_site_symmetry_multiplicity
 _atom_site_fract_x
 _atom_site_fract_y
 _atom_site_fract_z
 _atom_site_occupancy
  Ba  Ba0  1  0.333333  0.666667  0.945235  1
  Ba  Ba1  1  0.333333  0.666667  0.453485  1
  Ba  Ba2  1  0.666667  0.333333  0.206601  1
  Ba  Ba3  1  0.666667  0.333333  0.701963  1
  Ba  Ba4  1  0.666667  0.333333  0.054765  1
  Ba  Ba5  1  0.666667  0.333333  0.546515  1
  Ba  Ba6  1  0.333333  0.666667  0.793399  1
  Ba  Ba7  1  0.333333  0.666667  0.298037  1
  Ba  Ba8  1  0.000000  0.000000  0.871286  1
  Ba  Ba9  1  0.000000  0.000000  0.375966  1
  Ba  Ba10  1  0.000000  0.000000  0.128714  1
  Ba  Ba11  1  0.000000  0.000000  0.624034  1
  Sr  Sr12  1  0.000000  0.000000  0.000000  1
  Ca  Ca13  1  0.000000  0.000000  0.500000  1
  Ca  Ca14  1  0.000000  0.000000  0.252218  1
  Ca  Ca15  1  0.000000  0.000000  0.747782  1
  Os  Os16  1  0.333333  0.666667  0.086283  1
  Os  Os17  1  0.333333  0.666667  0.581541  1
  Os  Os18  1  0.666667  0.333333  0.828792  1
  Os  Os19  1  0.666667  0.333333  0.333510  1
  Os  Os20  1  0.666667  0.333333  0.913717  1
  Os  Os21  1  0.666667  0.333333  0.418459  1
  Os  Os22  1  0.333333  0.666667  0.171208  1
  Os  Os23  1  0.333333  0.666667  0.666490  1
  O  O24  1  0.013986  0.506993  0.128932  1
  O  O25  1  0.015625  0.507813  0.624071  1
  O  O26  1  0.493007  0.986014  0.128932  1
  O  O27  1  0.492187  0.984375  0.624071  1
  O  O28  1  0.493007  0.506993  0.128932  1
  O  O29  1  0.492187  0.507813  0.624071  1
  O  O30  1  0.986014  0.493007  0.871068  1
  O  O31  1  0.984375  0.492187  0.375929  1
  O  O32  1  0.506993  0.013986  0.871068  1
  O  O33  1  0.507813  0.015625  0.375929  1
  O  O34  1  0.506993  0.493007  0.871068  1
  O  O35  1  0.507813  0.492187  0.375929  1
  O  O36  1  0.359880  0.179939  0.949533  1
  O  O37  1  0.358262  0.179131  0.454819  1
  O  O38  1  0.820061  0.640120  0.949533  1
  O  O39  1  0.820869  0.641738  0.454819  1
  O  O40  1  0.820061  0.179939  0.949533  1
  O  O41  1  0.820869  0.179131  0.454819  1
  O  O42  1  0.641377  0.820688  0.207512  1
  O  O43  1  0.641305  0.820652  0.702987  1
  O  O44  1  0.179312  0.358623  0.207512  1
  O  O45  1  0.179348  0.358695  0.702987  1
  O  O46  1  0.179312  0.820688  0.207512  1
  O  O47  1  0.179348  0.820652  0.702987  1
  O  O48  1  0.640120  0.820061  0.050467  1
  O  O49  1  0.641738  0.820869  0.545181  1
  O  O50  1  0.179939  0.359880  0.050467  1
  O  O51  1  0.179131  0.358262  0.545181  1
  O  O52  1  0.179939  0.820061  0.050467  1
  O  O53  1  0.179131  0.820869  0.545181  1
  O  O54  1  0.358623  0.179312  0.792488  1
  O  O55  1  0.358695  0.179348  0.297013  1
  O  O56  1  0.820688  0.641377  0.792488  1
  O  O57  1  0.820652  0.641305  0.297013  1
  O  O58  1  0.820688  0.179312  0.792488  1
  O  O59  1  0.820652  0.179348  0.297013  1
