# generated using pymatgen
data_Ho6Ir11Rh7
_symmetry_space_group_name_H-M   'P 1'
_cell_length_a   5.27292000
_cell_length_b   5.29070622
_cell_length_c   17.49039607
_cell_angle_alpha   90.01897410
_cell_angle_beta   90.00000000
_cell_angle_gamma   119.88884272
_symmetry_Int_Tables_number   1
_chemical_formula_structural   Ho6Ir11Rh7
_chemical_formula_sum   'Ho6 Ir11 Rh7'
_cell_volume   423.03902746
_cell_formula_units_Z   1
loop_
 _symmetry_equiv_pos_site_id
 _symmetry_equiv_pos_as_xyz
  1  'x, y, z'
loop_
 _atom_site_type_symbol
 _atom_site_label
 _atom_site_symmetry_multiplicity
 _atom_site_fract_x
 _atom_site_fract_y
 _atom_site_fract_z
 _atom_site_occupancy
  Ho  Ho0  1  0.333287  0.666577  0.541982  1
  Ho  Ho1  1  0.666866  0.333730  0.041841  1
  Ho  Ho2  1  0.666429  0.332857  0.458072  1
  Ho  Ho3  1  0.333230  0.666460  0.958144  1
  Ho  Ho4  1  0.333384  0.666769  0.750039  1
  Ho  Ho5  1  0.666648  0.333295  0.249495  1
  Ir  Ir6  1  0.167127  0.334255  0.126091  1
  Ir  Ir7  1  0.832699  0.665398  0.625256  1
  Ir  Ir8  1  0.664325  0.832321  0.125712  1
  Ir  Ir9  1  0.167996  0.832321  0.125712  1
  Ir  Ir10  1  0.832718  0.168329  0.625687  1
  Ir  Ir11  1  0.335611  0.168329  0.625687  1
  Ir  Ir12  1  0.832597  0.665193  0.874370  1
  Ir  Ir13  1  0.832004  0.167543  0.874282  1
  Ir  Ir14  1  0.335539  0.167543  0.874282  1
  Ir  Ir15  1  0.665415  0.834407  0.374321  1
  Ir  Ir16  1  0.168992  0.834407  0.374321  1
  Rh  Rh17  1  0.167860  0.335720  0.374886  1
  Rh  Rh18  1  0.000384  0.000766  0.249992  1
  Rh  Rh19  1  0.998601  0.997201  0.749931  1
  Rh  Rh20  1  0.332012  0.664025  0.250178  1
  Rh  Rh21  1  0.667842  0.335683  0.749853  1
  Rh  Rh22  1  0.000275  0.000551  0.999946  1
  Rh  Rh23  1  0.998161  0.996322  0.499919  1
