# generated using pymatgen
data_Zr9TiRe3Rh
_symmetry_space_group_name_H-M   'P 1'
_cell_length_a   8.78634300
_cell_length_b   8.78634304
_cell_length_c   8.54397700
_cell_angle_alpha   90.00000000
_cell_angle_beta   90.00000000
_cell_angle_gamma   120.00000362
_symmetry_Int_Tables_number   1
_chemical_formula_structural   Zr9TiRe3Rh
_chemical_formula_sum   'Zr18 Ti2 Re6 Rh2'
_cell_volume   571.22472164
_cell_formula_units_Z   2
loop_
 _symmetry_equiv_pos_site_id
 _symmetry_equiv_pos_as_xyz
  1  'x, y, z'
loop_
 _atom_site_type_symbol
 _atom_site_label
 _atom_site_symmetry_multiplicity
 _atom_site_fract_x
 _atom_site_fract_y
 _atom_site_fract_z
 _atom_site_occupancy
  Zr  Zr0  1  0.196312  0.803688  0.445941  1
  Zr  Zr1  1  0.196312  0.392622  0.445941  1
  Zr  Zr2  1  0.607378  0.803688  0.445941  1
  Zr  Zr3  1  0.803688  0.196312  0.554059  1
  Zr  Zr4  1  0.803688  0.607378  0.554059  1
  Zr  Zr5  1  0.392622  0.196312  0.554059  1
  Zr  Zr6  1  0.803688  0.196312  0.945941  1
  Zr  Zr7  1  0.803688  0.607378  0.945941  1
  Zr  Zr8  1  0.392622  0.196312  0.945941  1
  Zr  Zr9  1  0.196312  0.803688  0.054059  1
  Zr  Zr10  1  0.196312  0.392622  0.054059  1
  Zr  Zr11  1  0.607378  0.803688  0.054059  1
  Zr  Zr12  1  0.543116  0.456884  0.250000  1
  Zr  Zr13  1  0.543116  0.086234  0.250000  1
  Zr  Zr14  1  0.913766  0.456884  0.250000  1
  Zr  Zr15  1  0.456884  0.543116  0.750000  1
  Zr  Zr16  1  0.456884  0.913766  0.750000  1
  Zr  Zr17  1  0.086234  0.543116  0.750000  1
  Ti  Ti18  1  0.000000  0.000000  0.500000  1
  Ti  Ti19  1  0.000000  0.000000  0.000000  1
  Re  Re20  1  0.889439  0.110561  0.250000  1
  Re  Re21  1  0.889439  0.778877  0.250000  1
  Re  Re22  1  0.221123  0.110561  0.250000  1
  Re  Re23  1  0.110561  0.889439  0.750000  1
  Re  Re24  1  0.110561  0.221123  0.750000  1
  Re  Re25  1  0.778877  0.889439  0.750000  1
  Rh  Rh26  1  0.333333  0.666667  0.250000  1
  Rh  Rh27  1  0.666667  0.333333  0.750000  1
