# generated using pymatgen
data_Li4YbCe3Ir4
_symmetry_space_group_name_H-M   'P 1'
_cell_length_a   7.04173619
_cell_length_b   3.89656700
_cell_length_c   8.50450808
_cell_angle_alpha   90.00000000
_cell_angle_beta   91.12694721
_cell_angle_gamma   90.00000000
_symmetry_Int_Tables_number   1
_chemical_formula_structural   Li4YbCe3Ir4
_chemical_formula_sum   'Li4 Yb1 Ce3 Ir4'
_cell_volume   233.30663225
_cell_formula_units_Z   1
loop_
 _symmetry_equiv_pos_site_id
 _symmetry_equiv_pos_as_xyz
  1  'x, y, z'
loop_
 _atom_site_type_symbol
 _atom_site_label
 _atom_site_symmetry_multiplicity
 _atom_site_fract_x
 _atom_site_fract_y
 _atom_site_fract_z
 _atom_site_occupancy
  Li  Li0  1  0.870879  0.250000  0.550949  1
  Li  Li1  1  0.384843  0.250000  0.946875  1
  Li  Li2  1  0.119122  0.750000  0.443238  1
  Li  Li3  1  0.636403  0.750000  0.051316  1
  Yb  Yb4  1  0.951557  0.250000  0.182087  1
  Ce  Ce5  1  0.446549  0.250000  0.311619  1
  Ce  Ce6  1  0.048153  0.750000  0.826159  1
  Ce  Ce7  1  0.540556  0.750000  0.679414  1
  Ir  Ir8  1  0.769060  0.250000  0.854873  1
  Ir  Ir9  1  0.257959  0.250000  0.642573  1
  Ir  Ir10  1  0.261212  0.750000  0.132479  1
  Ir  Ir11  1  0.713707  0.750000  0.378419  1
