# generated using pymatgen
data_Hf18Re7SiMoP
_symmetry_space_group_name_H-M   'P 1'
_cell_length_a   8.55935202
_cell_length_b   8.55935086
_cell_length_c   8.65974400
_cell_angle_alpha   90.00000000
_cell_angle_beta   90.00000000
_cell_angle_gamma   120.03809955
_symmetry_Int_Tables_number   1
_chemical_formula_structural   Hf18Re7SiMoP
_chemical_formula_sum   'Hf18 Re7 Si1 Mo1 P1'
_cell_volume   549.22530826
_cell_formula_units_Z   1
loop_
 _symmetry_equiv_pos_site_id
 _symmetry_equiv_pos_as_xyz
  1  'x, y, z'
loop_
 _atom_site_type_symbol
 _atom_site_label
 _atom_site_symmetry_multiplicity
 _atom_site_fract_x
 _atom_site_fract_y
 _atom_site_fract_z
 _atom_site_occupancy
  Hf  Hf0  1  0.196267  0.803733  0.451931  1
  Hf  Hf1  1  0.196817  0.392943  0.452648  1
  Hf  Hf2  1  0.607057  0.803183  0.452648  1
  Hf  Hf3  1  0.804546  0.195454  0.548495  1
  Hf  Hf4  1  0.804756  0.609684  0.547744  1
  Hf  Hf5  1  0.390316  0.195244  0.547744  1
  Hf  Hf6  1  0.804546  0.195454  0.951505  1
  Hf  Hf7  1  0.804756  0.609684  0.952256  1
  Hf  Hf8  1  0.390316  0.195244  0.952256  1
  Hf  Hf9  1  0.196267  0.803733  0.048069  1
  Hf  Hf10  1  0.196817  0.392943  0.047352  1
  Hf  Hf11  1  0.607057  0.803183  0.047352  1
  Hf  Hf12  1  0.539582  0.460418  0.250000  1
  Hf  Hf13  1  0.538667  0.078778  0.250000  1
  Hf  Hf14  1  0.921222  0.461333  0.250000  1
  Hf  Hf15  1  0.460506  0.539494  0.750000  1
  Hf  Hf16  1  0.460210  0.920965  0.750000  1
  Hf  Hf17  1  0.079035  0.539790  0.750000  1
  Re  Re18  1  0.890086  0.780582  0.250000  1
  Re  Re19  1  0.219418  0.109914  0.250000  1
  Re  Re20  1  0.109399  0.890601  0.750000  1
  Re  Re21  1  0.109626  0.218758  0.750000  1
  Re  Re22  1  0.781242  0.890374  0.750000  1
  Re  Re23  1  0.000285  0.999715  0.500459  1
  Re  Re24  1  0.000285  0.999715  0.999541  1
  Si  Si25  1  0.666517  0.333483  0.750000  1
  Mo  Mo26  1  0.891444  0.108556  0.250000  1
  P  P27  1  0.332960  0.667040  0.250000  1
