# generated using pymatgen
data_HoEr(TcRu)2
_symmetry_space_group_name_H-M   'P 1'
_cell_length_a   5.19905301
_cell_length_b   5.19904322
_cell_length_c   9.12175300
_cell_angle_alpha   89.99607672
_cell_angle_beta   90.00403348
_cell_angle_gamma   117.10069770
_symmetry_Int_Tables_number   1
_chemical_formula_structural   HoEr(TcRu)2
_chemical_formula_sum   'Ho2 Er2 Tc4 Ru4'
_cell_volume   219.49119888
_cell_formula_units_Z   2
loop_
 _symmetry_equiv_pos_site_id
 _symmetry_equiv_pos_as_xyz
  1  'x, y, z'
loop_
 _atom_site_type_symbol
 _atom_site_label
 _atom_site_symmetry_multiplicity
 _atom_site_fract_x
 _atom_site_fract_y
 _atom_site_fract_z
 _atom_site_occupancy
  Ho  Ho0  1  0.332124  0.667886  0.436484  1
  Ho  Ho1  1  0.670971  0.329030  0.566862  1
  Er  Er2  1  0.670982  0.329012  0.933242  1
  Er  Er3  1  0.332019  0.667983  0.063635  1
  Tc  Tc4  1  0.826850  0.173152  0.249753  1
  Tc  Tc5  1  0.829755  0.659805  0.249761  1
  Tc  Tc6  1  0.340195  0.170244  0.249760  1
  Tc  Tc7  1  0.163161  0.836823  0.750246  1
  Ru  Ru8  1  0.007114  0.992897  0.502501  1
  Ru  Ru9  1  0.007136  0.992871  0.997555  1
  Ru  Ru10  1  0.170233  0.350526  0.750102  1
  Ru  Ru11  1  0.649460  0.829771  0.750101  1
