# generated using pymatgen
data_Nd3CdIrRh3O14
_symmetry_space_group_name_H-M   'P 1'
_cell_length_a   7.42655475
_cell_length_b   7.27769071
_cell_length_c   7.43236700
_cell_angle_alpha   59.29440964
_cell_angle_beta   59.97410294
_cell_angle_gamma   59.29077176
_symmetry_Int_Tables_number   1
_chemical_formula_structural   Nd3CdIrRh3O14
_chemical_formula_sum   'Nd3 Cd1 Ir1 Rh3 O14'
_cell_volume   280.91991220
_cell_formula_units_Z   1
loop_
 _symmetry_equiv_pos_site_id
 _symmetry_equiv_pos_as_xyz
  1  'x, y, z'
loop_
 _atom_site_type_symbol
 _atom_site_label
 _atom_site_symmetry_multiplicity
 _atom_site_fract_x
 _atom_site_fract_y
 _atom_site_fract_z
 _atom_site_occupancy
  Nd  Nd0  1  0.625000  0.125000  0.125000  1
  Nd  Nd1  1  0.125000  0.125000  0.625000  1
  Nd  Nd2  1  0.125000  0.125000  0.125000  1
  Cd  Cd3  1  0.125000  0.625000  0.125000  1
  Ir  Ir4  1  0.125000  0.625000  0.625000  1
  Rh  Rh5  1  0.625000  0.125000  0.625000  1
  Rh  Rh6  1  0.625000  0.625000  0.125000  1
  Rh  Rh7  1  0.625000  0.625000  0.625000  1
  O  O8  1  0.701900  0.700769  0.298666  1
  O  O9  1  0.292558  0.293622  0.706909  1
  O  O10  1  0.712098  0.288159  0.708008  1
  O  O11  1  0.298260  0.700204  0.304820  1
  O  O12  1  0.298260  0.700204  0.696715  1
  O  O13  1  0.712098  0.288159  0.291733  1
  O  O14  1  0.548100  0.549231  0.951334  1
  O  O15  1  0.957442  0.956378  0.543091  1
  O  O16  1  0.537902  0.961841  0.541992  1
  O  O17  1  0.951740  0.549796  0.945180  1
  O  O18  1  0.951740  0.549796  0.553285  1
  O  O19  1  0.537902  0.961841  0.958267  1
  O  O20  1  0.244524  0.261486  0.246996  1
  O  O21  1  0.005476  0.988514  0.003004  1
