# generated using pymatgen
data_Tm3LuAl18(NiOs2)2
_symmetry_space_group_name_H-M   'P 1'
_cell_length_a   7.51600487
_cell_length_b   7.51608662
_cell_length_c   9.44126200
_cell_angle_alpha   90.00000000
_cell_angle_beta   90.00000000
_cell_angle_gamma   120.36801865
_symmetry_Int_Tables_number   1
_chemical_formula_structural   Tm3LuAl18(NiOs2)2
_chemical_formula_sum   'Tm3 Lu1 Al18 Ni2 Os4'
_cell_volume   460.16861883
_cell_formula_units_Z   1
loop_
 _symmetry_equiv_pos_site_id
 _symmetry_equiv_pos_as_xyz
  1  'x, y, z'
loop_
 _atom_site_type_symbol
 _atom_site_label
 _atom_site_symmetry_multiplicity
 _atom_site_fract_x
 _atom_site_fract_y
 _atom_site_fract_z
 _atom_site_occupancy
  Tm  Tm0  1  0.005451  0.340409  0.750000  1
  Tm  Tm1  1  0.659631  0.994676  0.250000  1
  Tm  Tm2  1  0.340464  0.005583  0.750000  1
  Lu  Lu3  1  0.995010  0.659188  0.250000  1
  Al  Al4  1  0.115263  0.114992  0.250000  1
  Al  Al5  1  0.883989  0.883883  0.750000  1
  Al  Al6  1  0.000226  0.329811  0.072235  1
  Al  Al7  1  0.999920  0.670432  0.928483  1
  Al  Al8  1  0.999920  0.670432  0.571517  1
  Al  Al9  1  0.329301  0.999976  0.427717  1
  Al  Al10  1  0.000226  0.329811  0.427765  1
  Al  Al11  1  0.670368  0.999700  0.571881  1
  Al  Al12  1  0.670368  0.999700  0.928119  1
  Al  Al13  1  0.329301  0.999976  0.072283  1
  Al  Al14  1  0.332582  0.332490  0.547613  1
  Al  Al15  1  0.667845  0.667602  0.451693  1
  Al  Al16  1  0.667845  0.667602  0.048307  1
  Al  Al17  1  0.332582  0.332490  0.952387  1
  Al  Al18  1  0.334328  0.543179  0.250000  1
  Al  Al19  1  0.665702  0.456957  0.750000  1
  Al  Al20  1  0.543723  0.334841  0.250000  1
  Al  Al21  1  0.456868  0.665608  0.750000  1
  Ni  Ni22  1  0.999360  0.000163  0.999898  1
  Ni  Ni23  1  0.999360  0.000163  0.500102  1
  Os  Os24  1  0.672719  0.327459  0.000179  1
  Os  Os25  1  0.327465  0.672710  0.000285  1
  Os  Os26  1  0.327465  0.672710  0.499715  1
  Os  Os27  1  0.672719  0.327459  0.499821  1
