# generated using pymatgen
data_Ca2La3Sb3O14
_symmetry_space_group_name_H-M   'P 1'
_cell_length_a   7.58345392
_cell_length_b   7.58344598
_cell_length_c   7.58339262
_cell_angle_alpha   119.17014362
_cell_angle_beta   60.82941605
_cell_angle_gamma   119.17010310
_symmetry_Int_Tables_number   1
_chemical_formula_structural   Ca2La3Sb3O14
_chemical_formula_sum   'Ca2 La3 Sb3 O14'
_cell_volume   314.14714475
_cell_formula_units_Z   1
loop_
 _symmetry_equiv_pos_site_id
 _symmetry_equiv_pos_as_xyz
  1  'x, y, z'
loop_
 _atom_site_type_symbol
 _atom_site_label
 _atom_site_symmetry_multiplicity
 _atom_site_fract_x
 _atom_site_fract_y
 _atom_site_fract_z
 _atom_site_occupancy
  Ca  Ca0  1  0.500003  0.500007  0.000001  1
  Ca  Ca1  1  0.000001  0.000002  0.499999  1
  La  La2  1  0.000009  0.500002  0.999988  1
  La  La3  1  0.500003  0.999999  0.000007  1
  La  La4  1  0.500006  0.500006  0.500009  1
  Sb  Sb5  1  0.499998  0.999999  0.499999  1
  Sb  Sb6  1  0.000001  0.499995  0.500005  1
  Sb  Sb7  1  0.999996  0.999995  0.000001  1
  O  O8  1  0.622499  0.377498  0.122502  1
  O  O9  1  0.377497  0.622508  0.877496  1
  O  O10  1  0.084517  0.316205  0.183793  1
  O  O11  1  0.683793  0.915477  0.183793  1
  O  O12  1  0.683791  0.316204  0.584515  1
  O  O13  1  0.915481  0.683791  0.816205  1
  O  O14  1  0.316210  0.084520  0.816203  1
  O  O15  1  0.316201  0.683793  0.415490  1
  O  O16  1  0.633784  0.906929  0.593077  1
  O  O17  1  0.093069  0.366213  0.593072  1
  O  O18  1  0.093072  0.906925  0.133778  1
  O  O19  1  0.366218  0.093071  0.406923  1
  O  O20  1  0.906925  0.633784  0.406924  1
  O  O21  1  0.906926  0.093076  0.866220  1
