# generated using pymatgen
data_Y4ScPa2Co17P12
_symmetry_space_group_name_H-M   'P 1'
_cell_length_a   3.73154500
_cell_length_b   10.61091800
_cell_length_c   12.23831600
_cell_angle_alpha   90.00000000
_cell_angle_beta   90.00000000
_cell_angle_gamma   90.00000000
_symmetry_Int_Tables_number   1
_chemical_formula_structural   Y4ScPa2Co17P12
_chemical_formula_sum   'Y4 Sc1 Pa2 Co17 P12'
_cell_volume   484.57756624
_cell_formula_units_Z   1
loop_
 _symmetry_equiv_pos_site_id
 _symmetry_equiv_pos_as_xyz
  1  'x, y, z'
loop_
 _atom_site_type_symbol
 _atom_site_label
 _atom_site_symmetry_multiplicity
 _atom_site_fract_x
 _atom_site_fract_y
 _atom_site_fract_z
 _atom_site_occupancy
  Y  Y0  1  0.500000  0.819263  0.206372  1
  Y  Y1  1  0.500000  0.180737  0.206372  1
  Y  Y2  1  0.000000  0.684979  0.796564  1
  Y  Y3  1  0.000000  0.315021  0.796564  1
  Sc  Sc4  1  0.500000  0.500000  0.152370  1
  Pa  Pa5  1  0.000000  0.500000  0.534853  1
  Pa  Pa6  1  0.500000  0.000000  0.470579  1
  Co  Co7  1  0.000000  0.000000  0.837645  1
  Co  Co8  1  0.500000  0.500000  0.696130  1
  Co  Co9  1  0.000000  0.000000  0.303286  1
  Co  Co10  1  0.000000  0.500000  0.984715  1
  Co  Co11  1  0.500000  0.000000  0.013527  1
  Co  Co12  1  0.500000  0.327855  0.989211  1
  Co  Co13  1  0.500000  0.672145  0.989211  1
  Co  Co14  1  0.000000  0.161409  0.002308  1
  Co  Co15  1  0.000000  0.838591  0.002308  1
  Co  Co16  1  0.500000  0.297067  0.435749  1
  Co  Co17  1  0.500000  0.702933  0.435749  1
  Co  Co18  1  0.000000  0.197670  0.568434  1
  Co  Co19  1  0.000000  0.802330  0.568434  1
  Co  Co20  1  0.500000  0.881278  0.707813  1
  Co  Co21  1  0.500000  0.118722  0.707813  1
  Co  Co22  1  0.000000  0.621410  0.297076  1
  Co  Co23  1  0.000000  0.378590  0.297076  1
  P  P24  1  0.500000  0.500000  0.879689  1
  P  P25  1  0.000000  0.000000  0.118972  1
  P  P26  1  0.500000  0.500000  0.358930  1
  P  P27  1  0.000000  0.000000  0.655050  1
  P  P28  1  0.500000  0.305726  0.618377  1
  P  P29  1  0.500000  0.694274  0.618377  1
  P  P30  1  0.000000  0.192004  0.384710  1
  P  P31  1  0.000000  0.807996  0.384710  1
  P  P32  1  0.500000  0.851759  0.890172  1
  P  P33  1  0.500000  0.148241  0.890172  1
  P  P34  1  0.000000  0.663248  0.100341  1
  P  P35  1  0.000000  0.336752  0.100341  1
