# generated using pymatgen
data_Ac2ReO5
_symmetry_space_group_name_H-M   'P 1'
_cell_length_a   7.23023669
_cell_length_b   7.23023602
_cell_length_c   7.23023560
_cell_angle_alpha   100.72663046
_cell_angle_beta   100.72662499
_cell_angle_gamma   128.88457220
_symmetry_Int_Tables_number   1
_chemical_formula_structural   Ac2ReO5
_chemical_formula_sum   'Ac4 Re2 O10'
_cell_volume   265.42779408
_cell_formula_units_Z   2
loop_
 _symmetry_equiv_pos_site_id
 _symmetry_equiv_pos_as_xyz
  1  'x, y, z'
loop_
 _atom_site_type_symbol
 _atom_site_label
 _atom_site_symmetry_multiplicity
 _atom_site_fract_x
 _atom_site_fract_y
 _atom_site_fract_z
 _atom_site_occupancy
  Ac  Ac0  1  0.816646  0.392073  0.208718  1
  Ac  Ac1  1  0.392073  0.183354  0.575428  1
  Ac  Ac2  1  0.607927  0.816646  0.424572  1
  Ac  Ac3  1  0.183354  0.607927  0.791282  1
  Re  Re4  1  0.183597  0.183597  0.000000  1
  Re  Re5  1  0.816403  0.816403  0.000000  1
  O  O6  1  0.348100  0.071786  0.909044  1
  O  O7  1  0.071786  0.162742  0.723686  1
  O  O8  1  0.439056  0.348100  0.276314  1
  O  O9  1  0.162742  0.439056  0.090956  1
  O  O10  1  0.651900  0.928214  0.090956  1
  O  O11  1  0.928214  0.837258  0.276314  1
  O  O12  1  0.250000  0.750000  0.500000  1
  O  O13  1  0.750000  0.250000  0.500000  1
  O  O14  1  0.837258  0.560944  0.909044  1
  O  O15  1  0.560944  0.651900  0.723686  1
