# generated using pymatgen
data_Y19HoCo3Bi8Os
_symmetry_space_group_name_H-M   'P 1'
_cell_length_a   8.01989703
_cell_length_b   8.98527210
_cell_length_c   12.45539607
_cell_angle_alpha   90.00095115
_cell_angle_beta   89.73805432
_cell_angle_gamma   89.98293627
_symmetry_Int_Tables_number   1
_chemical_formula_structural   Y19HoCo3Bi8Os
_chemical_formula_sum   'Y19 Ho1 Co3 Bi8 Os1'
_cell_volume   897.53834147
_cell_formula_units_Z   1
loop_
 _symmetry_equiv_pos_site_id
 _symmetry_equiv_pos_as_xyz
  1  'x, y, z'
loop_
 _atom_site_type_symbol
 _atom_site_label
 _atom_site_symmetry_multiplicity
 _atom_site_fract_x
 _atom_site_fract_y
 _atom_site_fract_z
 _atom_site_occupancy
  Y  Y0  1  0.345244  0.750117  0.702220  1
  Y  Y1  1  0.653371  0.249915  0.299865  1
  Y  Y2  1  0.847118  0.249434  0.798700  1
  Y  Y3  1  0.155377  0.750254  0.206713  1
  Y  Y4  1  0.879543  0.750394  0.804457  1
  Y  Y5  1  0.117081  0.249529  0.190492  1
  Y  Y6  1  0.382802  0.249774  0.689608  1
  Y  Y7  1  0.616746  0.749981  0.311673  1
  Y  Y8  1  0.675809  0.535991  0.563875  1
  Y  Y9  1  0.323260  0.462293  0.436211  1
  Y  Y10  1  0.177103  0.458680  0.934737  1
  Y  Y11  1  0.323239  0.037632  0.436210  1
  Y  Y12  1  0.824287  0.537670  0.064069  1
  Y  Y13  1  0.675861  0.963926  0.563919  1
  Y  Y14  1  0.823724  0.962518  0.064293  1
  Y  Y15  1  0.049874  0.749992  0.498114  1
  Y  Y16  1  0.949858  0.249945  0.502481  1
  Y  Y17  1  0.552524  0.249279  0.002973  1
  Y  Y18  1  0.445815  0.750967  0.996515  1
  Ho  Ho19  1  0.175011  0.041551  0.935558  1
  Co  Co20  1  0.932248  0.249161  0.008693  1
  Co  Co21  1  0.564350  0.249950  0.508236  1
  Co  Co22  1  0.433683  0.749993  0.492372  1
  Bi  Bi23  1  0.572054  0.507949  0.826613  1
  Bi  Bi24  1  0.429584  0.491233  0.173096  1
  Bi  Bi25  1  0.072211  0.490609  0.672011  1
  Bi  Bi26  1  0.429845  0.008794  0.173602  1
  Bi  Bi27  1  0.927592  0.508322  0.327518  1
  Bi  Bi28  1  0.571647  0.991990  0.826306  1
  Bi  Bi29  1  0.927408  0.991521  0.327671  1
  Bi  Bi30  1  0.072592  0.009332  0.672023  1
  Os  Os31  1  0.073137  0.751303  0.989177  1
