# generated using pymatgen
data_LaThP2(OsO)2
_symmetry_space_group_name_H-M   'P 1'
_cell_length_a   4.08349900
_cell_length_b   4.08349900
_cell_length_c   8.16298700
_cell_angle_alpha   90.00000000
_cell_angle_beta   90.00000000
_cell_angle_gamma   90.00000000
_symmetry_Int_Tables_number   1
_chemical_formula_structural   LaThP2(OsO)2
_chemical_formula_sum   'La1 Th1 P2 Os2 O2'
_cell_volume   136.11751504
_cell_formula_units_Z   1
loop_
 _symmetry_equiv_pos_site_id
 _symmetry_equiv_pos_as_xyz
  1  'x, y, z'
loop_
 _atom_site_type_symbol
 _atom_site_label
 _atom_site_symmetry_multiplicity
 _atom_site_fract_x
 _atom_site_fract_y
 _atom_site_fract_z
 _atom_site_occupancy
  La  La0  1  0.000000  0.500001  0.157179  1
  Th  Th1  1  0.500001  0.000000  0.846004  1
  P  P2  1  0.500001  0.000000  0.360044  1
  P  P3  1  0.000000  0.500001  0.647831  1
  Os  Os4  1  0.000000  0.000000  0.504765  1
  Os  Os5  1  0.500001  0.500001  0.504765  1
  O  O6  1  0.000000  0.000000  0.989707  1
  O  O7  1  0.500001  0.500001  0.989707  1
