# generated using pymatgen
data_La7Nd9Cd4TcPd3
_symmetry_space_group_name_H-M   'P 1'
_cell_length_a   10.11867674
_cell_length_b   10.11122476
_cell_length_c   10.14346215
_cell_angle_alpha   59.29462871
_cell_angle_beta   59.43874499
_cell_angle_gamma   59.53435273
_symmetry_Int_Tables_number   1
_chemical_formula_structural   La7Nd9Cd4TcPd3
_chemical_formula_sum   'La7 Nd9 Cd4 Tc1 Pd3'
_cell_volume   724.18756100
_cell_formula_units_Z   1
loop_
 _symmetry_equiv_pos_site_id
 _symmetry_equiv_pos_as_xyz
  1  'x, y, z'
loop_
 _atom_site_type_symbol
 _atom_site_label
 _atom_site_symmetry_multiplicity
 _atom_site_fract_x
 _atom_site_fract_y
 _atom_site_fract_z
 _atom_site_occupancy
  La  La0  1  0.352450  0.352369  0.353468  1
  La  La1  1  0.346306  0.344905  0.953877  1
  La  La2  1  0.347580  0.952733  0.346253  1
  La  La3  1  0.952298  0.347228  0.347125  1
  La  La4  1  0.819643  0.188477  0.186575  1
  La  La5  1  0.188786  0.808252  0.807320  1
  La  La6  1  0.188321  0.819871  0.187933  1
  Nd  Nd7  1  0.806633  0.190552  0.807312  1
  Nd  Nd8  1  0.189380  0.191053  0.813793  1
  Nd  Nd9  1  0.805395  0.807017  0.190294  1
  Nd  Nd10  1  0.932166  0.565477  0.567117  1
  Nd  Nd11  1  0.559756  0.936653  0.935018  1
  Nd  Nd12  1  0.566385  0.932996  0.566318  1
  Nd  Nd13  1  0.936378  0.558774  0.935814  1
  Nd  Nd14  1  0.566795  0.565127  0.932752  1
  Nd  Nd15  1  0.935773  0.936925  0.559340  1
  Cd  Cd16  1  0.581287  0.579406  0.579398  1
  Cd  Cd17  1  0.581396  0.581273  0.256626  1
  Cd  Cd18  1  0.579969  0.256696  0.581858  1
  Cd  Cd19  1  0.256735  0.579361  0.581454  1
  Tc  Tc20  1  0.140517  0.140003  0.146543  1
  Pd  Pd21  1  0.146028  0.145064  0.572877  1
  Pd  Pd22  1  0.146612  0.573385  0.145166  1
  Pd  Pd23  1  0.573412  0.146404  0.145771  1
