# generated using pymatgen
data_Tb4Lu4Re(TcB8)3
_symmetry_space_group_name_H-M   'P 1'
_cell_length_a   3.65322900
_cell_length_b   9.11065874
_cell_length_c   11.50506900
_cell_angle_alpha   90.02146245
_cell_angle_beta   90.00000000
_cell_angle_gamma   90.00000000
_symmetry_Int_Tables_number   1
_chemical_formula_structural   Tb4Lu4Re(TcB8)3
_chemical_formula_sum   'Tb4 Lu4 Re1 Tc3 B24'
_cell_volume   382.92689755
_cell_formula_units_Z   1
loop_
 _symmetry_equiv_pos_site_id
 _symmetry_equiv_pos_as_xyz
  1  'x, y, z'
loop_
 _atom_site_type_symbol
 _atom_site_label
 _atom_site_symmetry_multiplicity
 _atom_site_fract_x
 _atom_site_fract_y
 _atom_site_fract_z
 _atom_site_occupancy
  Tb  Tb0  1  0.000000  0.323248  0.414383  1
  Tb  Tb1  1  0.000000  0.676936  0.585523  1
  Tb  Tb2  1  0.000000  0.823083  0.085815  1
  Tb  Tb3  1  0.000000  0.177214  0.914456  1
  Lu  Lu4  1  0.000000  0.942823  0.369237  1
  Lu  Lu5  1  0.000000  0.057763  0.629871  1
  Lu  Lu6  1  0.000000  0.442787  0.130815  1
  Lu  Lu7  1  0.000000  0.556085  0.869699  1
  Re  Re8  1  0.000000  0.860703  0.819536  1
  Tc  Tc9  1  0.000000  0.639497  0.319412  1
  Tc  Tc10  1  0.000000  0.360586  0.680545  1
  Tc  Tc11  1  0.000000  0.139464  0.180629  1
  B  B12  1  0.500000  0.553985  0.432300  1
  B  B13  1  0.500000  0.446237  0.567770  1
  B  B14  1  0.500000  0.053919  0.067827  1
  B  B15  1  0.500000  0.946260  0.932464  1
  B  B16  1  0.500000  0.750840  0.417793  1
  B  B17  1  0.500000  0.249461  0.582131  1
  B  B18  1  0.500000  0.250723  0.082250  1
  B  B19  1  0.500000  0.748839  0.918006  1
  B  B20  1  0.500000  0.792580  0.264970  1
  B  B21  1  0.500000  0.207460  0.734858  1
  B  B22  1  0.500000  0.292554  0.235110  1
  B  B23  1  0.500000  0.707048  0.765013  1
  B  B24  1  0.500000  0.629563  0.184712  1
  B  B25  1  0.500000  0.370224  0.815290  1
  B  B26  1  0.500000  0.129639  0.315385  1
  B  B27  1  0.500000  0.870527  0.684422  1
  B  B28  1  0.500000  0.981742  0.212602  1
  B  B29  1  0.500000  0.018606  0.787198  1
  B  B30  1  0.500000  0.481742  0.287464  1
  B  B31  1  0.500000  0.518151  0.712686  1
  B  B32  1  0.500000  0.597163  0.026996  1
  B  B33  1  0.500000  0.402301  0.973242  1
  B  B34  1  0.500000  0.097519  0.472826  1
  B  B35  1  0.500000  0.902729  0.526762  1
