# generated using pymatgen
data_NdMnSb12OsRu2
_symmetry_space_group_name_H-M   'P 1'
_cell_length_a   8.14019902
_cell_length_b   8.14249344
_cell_length_c   8.13356177
_cell_angle_alpha   109.46379520
_cell_angle_beta   109.46537063
_cell_angle_gamma   109.49581495
_symmetry_Int_Tables_number   1
_chemical_formula_structural   NdMnSb12OsRu2
_chemical_formula_sum   'Nd1 Mn1 Sb12 Os1 Ru2'
_cell_volume   414.94506664
_cell_formula_units_Z   1
loop_
 _symmetry_equiv_pos_site_id
 _symmetry_equiv_pos_as_xyz
  1  'x, y, z'
loop_
 _atom_site_type_symbol
 _atom_site_label
 _atom_site_symmetry_multiplicity
 _atom_site_fract_x
 _atom_site_fract_y
 _atom_site_fract_z
 _atom_site_occupancy
  Nd  Nd0  1  0.000000  0.000000  0.000000  1
  Mn  Mn1  1  0.000000  0.500000  0.000000  1
  Sb  Sb2  1  0.661673  0.842084  0.504858  1
  Sb  Sb3  1  0.338327  0.157916  0.495142  1
  Sb  Sb4  1  0.841988  0.180479  0.337299  1
  Sb  Sb5  1  0.817923  0.660783  0.156364  1
  Sb  Sb6  1  0.842772  0.504586  0.661429  1
  Sb  Sb7  1  0.182077  0.339217  0.843636  1
  Sb  Sb8  1  0.158012  0.819521  0.662701  1
  Sb  Sb9  1  0.504745  0.662564  0.842176  1
  Sb  Sb10  1  0.495255  0.337436  0.157824  1
  Sb  Sb11  1  0.157228  0.495414  0.338571  1
  Sb  Sb12  1  0.338592  0.843068  0.181400  1
  Sb  Sb13  1  0.661408  0.156932  0.818600  1
  Os  Os14  1  0.000000  0.000000  0.500000  1
  Ru  Ru15  1  0.500000  0.500000  0.500000  1
  Ru  Ru16  1  0.500000  0.000000  0.000000  1
