# generated using pymatgen
data_Eu3Ag2PtPb3
_symmetry_space_group_name_H-M   'P 1'
_cell_length_a   8.23556500
_cell_length_b   8.23556431
_cell_length_c   4.14677700
_cell_angle_alpha   90.00000000
_cell_angle_beta   90.00000000
_cell_angle_gamma   119.99999874
_symmetry_Int_Tables_number   1
_chemical_formula_structural   Eu3Ag2PtPb3
_chemical_formula_sum   'Eu3 Ag2 Pt1 Pb3'
_cell_volume   243.57240289
_cell_formula_units_Z   1
loop_
 _symmetry_equiv_pos_site_id
 _symmetry_equiv_pos_as_xyz
  1  'x, y, z'
loop_
 _atom_site_type_symbol
 _atom_site_label
 _atom_site_symmetry_multiplicity
 _atom_site_fract_x
 _atom_site_fract_y
 _atom_site_fract_z
 _atom_site_occupancy
  Eu  Eu0  1  0.393120  0.975801  0.000000  1
  Eu  Eu1  1  0.024199  0.417318  0.000000  1
  Eu  Eu2  1  0.582682  0.606880  0.000000  1
  Ag  Ag3  1  0.000000  0.000000  0.000000  1
  Ag  Ag4  1  0.666667  0.333334  0.500000  1
  Pt  Pt5  1  0.333333  0.666667  0.500000  1
  Pb  Pb6  1  0.737595  0.002176  0.500000  1
  Pb  Pb7  1  0.264581  0.262405  0.500000  1
  Pb  Pb8  1  0.997824  0.735418  0.500000  1
