# generated using pymatgen
data_Tb6TmLu3(In2Pt)4
_symmetry_space_group_name_H-M   'P 1'
_cell_length_a   3.63734700
_cell_length_b   8.13901645
_cell_length_c   18.10229926
_cell_angle_alpha   89.99450760
_cell_angle_beta   90.00000000
_cell_angle_gamma   90.00000000
_symmetry_Int_Tables_number   1
_chemical_formula_structural   Tb6TmLu3(In2Pt)4
_chemical_formula_sum   'Tb6 Tm1 Lu3 In8 Pt4'
_cell_volume   535.90819557
_cell_formula_units_Z   1
loop_
 _symmetry_equiv_pos_site_id
 _symmetry_equiv_pos_as_xyz
  1  'x, y, z'
loop_
 _atom_site_type_symbol
 _atom_site_label
 _atom_site_symmetry_multiplicity
 _atom_site_fract_x
 _atom_site_fract_y
 _atom_site_fract_z
 _atom_site_occupancy
  Tb  Tb0  1  0.000000  0.240865  0.218114  1
  Tb  Tb1  1  0.000000  0.759913  0.782142  1
  Tb  Tb2  1  0.000000  0.260053  0.717154  1
  Tb  Tb3  1  0.000000  0.739991  0.282804  1
  Tb  Tb4  1  0.000000  0.999718  0.999648  1
  Tb  Tb5  1  0.000000  0.499818  0.500282  1
  Tm  Tm6  1  0.000000  0.616344  0.085905  1
  Lu  Lu7  1  0.000000  0.115553  0.413811  1
  Lu  Lu8  1  0.000000  0.884091  0.586239  1
  Lu  Lu9  1  0.000000  0.383859  0.913324  1
  In  In10  1  0.500000  0.416397  0.351064  1
  In  In11  1  0.500000  0.583819  0.649308  1
  In  In12  1  0.500000  0.082815  0.849989  1
  In  In13  1  0.500000  0.918898  0.149959  1
  In  In14  1  0.500000  0.297192  0.063532  1
  In  In15  1  0.500000  0.701645  0.935989  1
  In  In16  1  0.500000  0.201855  0.563102  1
  In  In17  1  0.500000  0.797681  0.437112  1
  Pt  Pt18  1  0.500000  0.025599  0.305706  1
  Pt  Pt19  1  0.500000  0.974456  0.694306  1
  Pt  Pt20  1  0.500000  0.473953  0.805078  1
  Pt  Pt21  1  0.500000  0.525485  0.195434  1
