# generated using pymatgen
data_YAlCdPt3
_symmetry_space_group_name_H-M   'P 1'
_cell_length_a   5.19000124
_cell_length_b   5.19000020
_cell_length_c   5.19000043
_cell_angle_alpha   64.39768745
_cell_angle_beta   64.39769008
_cell_angle_gamma   64.39767292
_symmetry_Int_Tables_number   1
_chemical_formula_structural   YAlCdPt3
_chemical_formula_sum   'Y1 Al1 Cd1 Pt3'
_cell_volume   108.39482280
_cell_formula_units_Z   1
loop_
 _symmetry_equiv_pos_site_id
 _symmetry_equiv_pos_as_xyz
  1  'x, y, z'
loop_
 _atom_site_type_symbol
 _atom_site_label
 _atom_site_symmetry_multiplicity
 _atom_site_fract_x
 _atom_site_fract_y
 _atom_site_fract_z
 _atom_site_occupancy
  Y  Y0  1  0.246620  0.246620  0.246620  1
  Al  Al1  1  0.627130  0.627130  0.627130  1
  Cd  Cd2  1  0.996565  0.996565  0.996565  1
  Pt  Pt3  1  0.627209  0.627209  0.125270  1
  Pt  Pt4  1  0.627209  0.125270  0.627209  1
  Pt  Pt5  1  0.125270  0.627209  0.627209  1
