# generated using pymatgen
data_Dy7HoLu2(BiAu2)2
_symmetry_space_group_name_H-M   'P 1'
_cell_length_a   8.68370930
_cell_length_b   8.68258986
_cell_length_c   8.68427279
_cell_angle_alpha   124.24582154
_cell_angle_beta   124.24972180
_cell_angle_gamma   82.77932935
_symmetry_Int_Tables_number   1
_chemical_formula_structural   Dy7HoLu2(BiAu2)2
_chemical_formula_sum   'Dy7 Ho1 Lu2 Bi2 Au4'
_cell_volume   429.55603441
_cell_formula_units_Z   1
loop_
 _symmetry_equiv_pos_site_id
 _symmetry_equiv_pos_as_xyz
  1  'x, y, z'
loop_
 _atom_site_type_symbol
 _atom_site_label
 _atom_site_symmetry_multiplicity
 _atom_site_fract_x
 _atom_site_fract_y
 _atom_site_fract_z
 _atom_site_occupancy
  Dy  Dy0  1  0.015211  0.515150  0.810509  1
  Dy  Dy1  1  0.704702  0.204641  0.189491  1
  Dy  Dy2  1  0.515324  0.704734  0.500000  1
  Dy  Dy3  1  0.204555  0.015289  0.500000  1
  Dy  Dy4  1  0.984657  0.484689  0.189393  1
  Dy  Dy5  1  0.295264  0.795296  0.810607  1
  Dy  Dy6  1  0.484845  0.295186  0.500000  1
  Ho  Ho7  1  0.794815  0.984520  0.500000  1
  Lu  Lu8  1  0.999922  0.999943  0.999757  1
  Lu  Lu9  1  0.500165  0.500186  0.000243  1
  Bi  Bi10  1  0.750091  0.750111  0.000223  1
  Bi  Bi11  1  0.249869  0.249888  0.999777  1
  Au  Au12  1  0.638948  0.138661  0.777305  1
  Au  Au13  1  0.361644  0.861356  0.222695  1
  Au  Au14  1  0.138789  0.361265  0.500000  1
  Au  Au15  1  0.861198  0.639085  0.500000  1
