# generated using pymatgen
data_Nb4Co2NiS12
_symmetry_space_group_name_H-M   'P 1'
_cell_length_a   6.78858882
_cell_length_b   6.78858855
_cell_length_c   18.45895279
_cell_angle_alpha   70.40265373
_cell_angle_beta   70.40265421
_cell_angle_gamma   28.06235623
_symmetry_Int_Tables_number   1
_chemical_formula_structural   Nb4Co2NiS12
_chemical_formula_sum   'Nb4 Co2 Ni1 S12'
_cell_volume   375.51023612
_cell_formula_units_Z   1
loop_
 _symmetry_equiv_pos_site_id
 _symmetry_equiv_pos_as_xyz
  1  'x, y, z'
loop_
 _atom_site_type_symbol
 _atom_site_label
 _atom_site_symmetry_multiplicity
 _atom_site_fract_x
 _atom_site_fract_y
 _atom_site_fract_z
 _atom_site_occupancy
  Nb  Nb0  1  0.740488  0.740488  0.590477  1
  Nb  Nb1  1  0.259512  0.259512  0.409523  1
  Nb  Nb2  1  0.616866  0.616866  0.854480  1
  Nb  Nb3  1  0.383134  0.383134  0.145520  1
  Co  Co4  1  0.772220  0.772220  0.279848  1
  Co  Co5  1  0.227780  0.227780  0.720152  1
  Ni  Ni6  1  0.000000  0.000000  0.000000  1
  S  S7  1  0.870465  0.870465  0.451782  1
  S  S8  1  0.033305  0.033305  0.109156  1
  S  S9  1  0.802947  0.802947  0.767934  1
  S  S10  1  0.393734  0.393734  0.278530  1
  S  S11  1  0.175601  0.175601  0.933018  1
  S  S12  1  0.606266  0.606266  0.721470  1
  S  S13  1  0.129535  0.129535  0.548218  1
  S  S14  1  0.824399  0.824399  0.066982  1
  S  S15  1  0.366834  0.366834  0.609897  1
  S  S16  1  0.966695  0.966695  0.890844  1
  S  S17  1  0.197053  0.197053  0.232066  1
  S  S18  1  0.633166  0.633166  0.390103  1
