# generated using pymatgen
data_TbDyGaNiI2
_symmetry_space_group_name_H-M   'P 1'
_cell_length_a   4.15653400
_cell_length_b   4.15653397
_cell_length_c   11.55604400
_cell_angle_alpha   90.00000000
_cell_angle_beta   90.00000000
_cell_angle_gamma   120.00000025
_symmetry_Int_Tables_number   1
_chemical_formula_structural   TbDyGaNiI2
_chemical_formula_sum   'Tb1 Dy1 Ga1 Ni1 I2'
_cell_volume   172.90298413
_cell_formula_units_Z   1
loop_
 _symmetry_equiv_pos_site_id
 _symmetry_equiv_pos_as_xyz
  1  'x, y, z'
loop_
 _atom_site_type_symbol
 _atom_site_label
 _atom_site_symmetry_multiplicity
 _atom_site_fract_x
 _atom_site_fract_y
 _atom_site_fract_z
 _atom_site_occupancy
  Tb  Tb0  1  0.000000  0.000000  0.839761  1
  Dy  Dy1  1  0.000000  0.000000  0.159017  1
  Ga  Ga2  1  0.666667  0.333333  0.997762  1
  Ni  Ni3  1  0.333333  0.666667  0.004213  1
  I  I4  1  0.333333  0.666667  0.658581  1
  I  I5  1  0.666667  0.333333  0.340667  1
