# generated using pymatgen
data_Dy3Pa(CdPt2)2
_symmetry_space_group_name_H-M   'P 1'
_cell_length_a   7.78933604
_cell_length_b   7.78933592
_cell_length_c   3.67778900
_cell_angle_alpha   90.00000000
_cell_angle_beta   90.00000000
_cell_angle_gamma   91.59106891
_symmetry_Int_Tables_number   1
_chemical_formula_structural   Dy3Pa(CdPt2)2
_chemical_formula_sum   'Dy3 Pa1 Cd2 Pt4'
_cell_volume   223.05923639
_cell_formula_units_Z   1
loop_
 _symmetry_equiv_pos_site_id
 _symmetry_equiv_pos_as_xyz
  1  'x, y, z'
loop_
 _atom_site_type_symbol
 _atom_site_label
 _atom_site_symmetry_multiplicity
 _atom_site_fract_x
 _atom_site_fract_y
 _atom_site_fract_z
 _atom_site_occupancy
  Dy  Dy0  1  0.830378  0.666755  0.500000  1
  Dy  Dy1  1  0.166755  0.330378  0.500000  1
  Dy  Dy2  1  0.672634  0.172634  0.500000  1
  Pa  Pa3  1  0.333876  0.833876  0.500000  1
  Cd  Cd4  1  0.993940  0.000700  0.000000  1
  Cd  Cd5  1  0.500700  0.493940  0.000000  1
  Pt  Pt6  1  0.363800  0.120444  0.000000  1
  Pt  Pt7  1  0.875637  0.375637  0.000000  1
  Pt  Pt8  1  0.141836  0.641836  0.000000  1
  Pt  Pt9  1  0.620444  0.863800  0.000000  1
