# generated using pymatgen
data_Pa2IrPd5
_symmetry_space_group_name_H-M   'P 1'
_cell_length_a   5.78474715
_cell_length_b   5.78474663
_cell_length_c   4.98857500
_cell_angle_alpha   90.00000000
_cell_angle_beta   90.00000000
_cell_angle_gamma   121.02882026
_symmetry_Int_Tables_number   1
_chemical_formula_structural   Pa2IrPd5
_chemical_formula_sum   'Pa2 Ir1 Pd5'
_cell_volume   143.04724186
_cell_formula_units_Z   1
loop_
 _symmetry_equiv_pos_site_id
 _symmetry_equiv_pos_as_xyz
  1  'x, y, z'
loop_
 _atom_site_type_symbol
 _atom_site_label
 _atom_site_symmetry_multiplicity
 _atom_site_fract_x
 _atom_site_fract_y
 _atom_site_fract_z
 _atom_site_occupancy
  Pa  Pa0  1  0.674540  0.325460  0.250000  1
  Pa  Pa1  1  0.329586  0.670414  0.750000  1
  Ir  Ir2  1  0.829669  0.170331  0.750000  1
  Pd  Pd3  1  0.322828  0.168739  0.750000  1
  Pd  Pd4  1  0.831261  0.677172  0.750000  1
  Pd  Pd5  1  0.166473  0.833527  0.250000  1
  Pd  Pd6  1  0.674369  0.828725  0.250000  1
  Pd  Pd7  1  0.171275  0.325631  0.250000  1
