# generated using pymatgen
data_Tb8Zr12Si15As
_symmetry_space_group_name_H-M   'P 1'
_cell_length_a   7.35235504
_cell_length_b   7.36044588
_cell_length_c   13.53348672
_cell_angle_alpha   89.76484944
_cell_angle_beta   89.95148138
_cell_angle_gamma   89.93086371
_symmetry_Int_Tables_number   1
_chemical_formula_structural   Tb8Zr12Si15As
_chemical_formula_sum   'Tb8 Zr12 Si15 As1'
_cell_volume   732.37948035
_cell_formula_units_Z   1
loop_
 _symmetry_equiv_pos_site_id
 _symmetry_equiv_pos_as_xyz
  1  'x, y, z'
loop_
 _atom_site_type_symbol
 _atom_site_label
 _atom_site_symmetry_multiplicity
 _atom_site_fract_x
 _atom_site_fract_y
 _atom_site_fract_z
 _atom_site_occupancy
  Tb  Tb0  1  0.996394  0.346476  0.213967  1
  Tb  Tb1  1  0.004511  0.654926  0.714485  1
  Tb  Tb2  1  0.151751  0.499694  0.465561  1
  Tb  Tb3  1  0.506171  0.843765  0.034665  1
  Tb  Tb4  1  0.845678  0.502929  0.964078  1
  Tb  Tb5  1  0.496650  0.153803  0.536491  1
  Tb  Tb6  1  0.346299  0.996493  0.786235  1
  Tb  Tb7  1  0.653026  0.003940  0.285002  1
  Zr  Zr8  1  0.174937  0.175307  0.000097  1
  Zr  Zr9  1  0.825589  0.826092  0.500013  1
  Zr  Zr10  1  0.324730  0.677326  0.249818  1
  Zr  Zr11  1  0.675132  0.325017  0.750143  1
  Zr  Zr12  1  0.148120  0.995771  0.373101  1
  Zr  Zr13  1  0.852333  0.004042  0.875035  1
  Zr  Zr14  1  0.503550  0.648620  0.624963  1
  Zr  Zr15  1  0.352680  0.496027  0.875306  1
  Zr  Zr16  1  0.494406  0.349406  0.125665  1
  Zr  Zr17  1  0.651305  0.506521  0.376316  1
  Zr  Zr18  1  0.996467  0.148643  0.625347  1
  Zr  Zr19  1  0.001416  0.849669  0.124085  1
  Si  Si20  1  0.638408  0.706626  0.816314  1
  Si  Si21  1  0.205440  0.862597  0.565631  1
  Si  Si22  1  0.138170  0.793404  0.932973  1
  Si  Si23  1  0.793563  0.139001  0.066706  1
  Si  Si24  1  0.861657  0.205933  0.433280  1
  Si  Si25  1  0.294171  0.361519  0.683555  1
  Si  Si26  1  0.704830  0.637047  0.183921  1
  Si  Si27  1  0.294227  0.039976  0.180714  1
  Si  Si28  1  0.705116  0.949520  0.686971  1
  Si  Si29  1  0.449781  0.796418  0.436855  1
  Si  Si30  1  0.204360  0.549340  0.063353  1
  Si  Si31  1  0.550734  0.204492  0.937158  1
  Si  Si32  1  0.794872  0.449750  0.563915  1
  Si  Si33  1  0.051029  0.295522  0.813130  1
  Si  Si34  1  0.950049  0.704873  0.313406  1
  As  As35  1  0.362446  0.299513  0.321744  1
