# generated using pymatgen
data_BaInIO6
_symmetry_space_group_name_H-M   'P 1'
_cell_length_a   5.51259600
_cell_length_b   5.51259585
_cell_length_c   5.74628900
_cell_angle_alpha   90.00000000
_cell_angle_beta   90.00000000
_cell_angle_gamma   120.00000092
_symmetry_Int_Tables_number   1
_chemical_formula_structural   BaInIO6
_chemical_formula_sum   'Ba1 In1 I1 O6'
_cell_volume   151.22737411
_cell_formula_units_Z   1
loop_
 _symmetry_equiv_pos_site_id
 _symmetry_equiv_pos_as_xyz
  1  'x, y, z'
loop_
 _atom_site_type_symbol
 _atom_site_label
 _atom_site_symmetry_multiplicity
 _atom_site_fract_x
 _atom_site_fract_y
 _atom_site_fract_z
 _atom_site_occupancy
  Ba  Ba0  1  0.000000  0.000000  0.000000  1
  In  In1  1  0.333333  0.666667  0.500000  1
  I  I2  1  0.666667  0.333333  0.500000  1
  O  O3  1  0.396673  0.037772  0.693399  1
  O  O4  1  0.962228  0.358901  0.693399  1
  O  O5  1  0.641099  0.603327  0.693399  1
  O  O6  1  0.962228  0.603327  0.306601  1
  O  O7  1  0.641099  0.037772  0.306601  1
  O  O8  1  0.396673  0.358901  0.306601  1
