# generated using pymatgen
data_Er5Tm15(SiBi2)4
_symmetry_space_group_name_H-M   'P 1'
_cell_length_a   11.88093906
_cell_length_b   9.09762000
_cell_length_c   7.96867804
_cell_angle_alpha   90.00000000
_cell_angle_beta   89.98833359
_cell_angle_gamma   90.00000000
_symmetry_Int_Tables_number   1
_chemical_formula_structural   Er5Tm15(SiBi2)4
_chemical_formula_sum   'Er5 Tm15 Si4 Bi8'
_cell_volume   861.32059646
_cell_formula_units_Z   1
loop_
 _symmetry_equiv_pos_site_id
 _symmetry_equiv_pos_as_xyz
  1  'x, y, z'
loop_
 _atom_site_type_symbol
 _atom_site_label
 _atom_site_symmetry_multiplicity
 _atom_site_fract_x
 _atom_site_fract_y
 _atom_site_fract_z
 _atom_site_occupancy
  Er  Er0  1  0.289053  0.250000  0.666149  1
  Er  Er1  1  0.294145  0.750000  0.639168  1
  Er  Er2  1  0.794183  0.750000  0.860854  1
  Er  Er3  1  0.705877  0.250000  0.360828  1
  Er  Er4  1  0.205792  0.250000  0.139236  1
  Tm  Tm5  1  0.061289  0.555274  0.821110  1
  Tm  Tm6  1  0.561300  0.944811  0.678903  1
  Tm  Tm7  1  0.938670  0.055210  0.178902  1
  Tm  Tm8  1  0.438716  0.444776  0.321105  1
  Tm  Tm9  1  0.938670  0.444790  0.178902  1
  Tm  Tm10  1  0.438716  0.055224  0.321105  1
  Tm  Tm11  1  0.061289  0.944726  0.821110  1
  Tm  Tm12  1  0.561300  0.555189  0.678903  1
  Tm  Tm13  1  0.001095  0.750000  0.460636  1
  Tm  Tm14  1  0.501108  0.750000  0.039341  1
  Tm  Tm15  1  0.998856  0.250000  0.539275  1
  Tm  Tm16  1  0.498978  0.250000  0.960742  1
  Tm  Tm17  1  0.210789  0.750000  0.166123  1
  Tm  Tm18  1  0.710815  0.750000  0.333905  1
  Tm  Tm19  1  0.789139  0.250000  0.833864  1
  Si  Si20  1  0.476743  0.750000  0.409578  1
  Si  Si21  1  0.976723  0.750000  0.090431  1
  Si  Si22  1  0.523535  0.250000  0.590319  1
  Si  Si23  1  0.023325  0.250000  0.909554  1
  Bi  Bi24  1  0.324934  0.510803  0.934070  1
  Bi  Bi25  1  0.824922  0.989294  0.566087  1
  Bi  Bi26  1  0.675091  0.010704  0.066064  1
  Bi  Bi27  1  0.175000  0.489442  0.433759  1
  Bi  Bi28  1  0.675091  0.489296  0.066064  1
  Bi  Bi29  1  0.175000  0.010558  0.433759  1
  Bi  Bi30  1  0.324934  0.989197  0.934070  1
  Bi  Bi31  1  0.824922  0.510706  0.566087  1
