# generated using pymatgen
data_Y2Tl(AsRh2)6
_symmetry_space_group_name_H-M   'P 1'
_cell_length_a   10.06730100
_cell_length_b   10.06730089
_cell_length_c   3.95089400
_cell_angle_alpha   90.00000000
_cell_angle_beta   90.00000000
_cell_angle_gamma   120.00000364
_symmetry_Int_Tables_number   1
_chemical_formula_structural   Y2Tl(AsRh2)6
_chemical_formula_sum   'Y2 Tl1 As6 Rh12'
_cell_volume   346.77844629
_cell_formula_units_Z   1
loop_
 _symmetry_equiv_pos_site_id
 _symmetry_equiv_pos_as_xyz
  1  'x, y, z'
loop_
 _atom_site_type_symbol
 _atom_site_label
 _atom_site_symmetry_multiplicity
 _atom_site_fract_x
 _atom_site_fract_y
 _atom_site_fract_z
 _atom_site_occupancy
  Y  Y0  1  0.333333  0.666667  0.756396  1
  Y  Y1  1  0.000000  0.000000  0.244901  1
  Tl  Tl2  1  0.666667  0.333333  0.589211  1
  As  As3  1  0.955667  0.216055  0.745731  1
  As  As4  1  0.783945  0.739612  0.745731  1
  As  As5  1  0.260388  0.044333  0.745731  1
  As  As6  1  0.377874  0.449197  0.255868  1
  As  As7  1  0.550803  0.928677  0.255868  1
  As  As8  1  0.071323  0.622126  0.255868  1
  Rh  Rh9  1  0.733824  0.950696  0.750152  1
  Rh  Rh10  1  0.049304  0.783128  0.750152  1
  Rh  Rh11  1  0.216872  0.266176  0.750152  1
  Rh  Rh12  1  0.603333  0.720872  0.251826  1
  Rh  Rh13  1  0.279128  0.882462  0.251826  1
  Rh  Rh14  1  0.117538  0.396667  0.251826  1
  Rh  Rh15  1  0.962160  0.463079  0.759431  1
  Rh  Rh16  1  0.536921  0.499081  0.759431  1
  Rh  Rh17  1  0.500919  0.037840  0.759431  1
  Rh  Rh18  1  0.385410  0.207097  0.241551  1
  Rh  Rh19  1  0.792903  0.178313  0.241551  1
  Rh  Rh20  1  0.821687  0.614590  0.241551  1
