# generated using pymatgen
data_Nd3Mg3Ag2Os
_symmetry_space_group_name_H-M   'P 1'
_cell_length_a   7.86333600
_cell_length_b   7.86333623
_cell_length_c   4.10515500
_cell_angle_alpha   90.00000000
_cell_angle_beta   90.00000000
_cell_angle_gamma   119.99999903
_symmetry_Int_Tables_number   1
_chemical_formula_structural   Nd3Mg3Ag2Os
_chemical_formula_sum   'Nd3 Mg3 Ag2 Os1'
_cell_volume   219.82337688
_cell_formula_units_Z   1
loop_
 _symmetry_equiv_pos_site_id
 _symmetry_equiv_pos_as_xyz
  1  'x, y, z'
loop_
 _atom_site_type_symbol
 _atom_site_label
 _atom_site_symmetry_multiplicity
 _atom_site_fract_x
 _atom_site_fract_y
 _atom_site_fract_z
 _atom_site_occupancy
  Nd  Nd0  1  0.567399  0.969162  0.000000  1
  Nd  Nd1  1  0.030838  0.598237  0.000000  1
  Nd  Nd2  1  0.401763  0.432601  0.000000  1
  Mg  Mg3  1  0.249178  0.995486  0.500000  1
  Mg  Mg4  1  0.004514  0.253692  0.500000  1
  Mg  Mg5  1  0.746308  0.750822  0.500000  1
  Ag  Ag6  1  0.666667  0.333333  0.500000  1
  Ag  Ag7  1  0.000000  0.000000  0.000000  1
  Os  Os8  1  0.333333  0.666667  0.500000  1
