# generated using pymatgen
data_YbDy3(Os3Ru)2
_symmetry_space_group_name_H-M   'P 1'
_cell_length_a   5.24577800
_cell_length_b   5.24612272
_cell_length_c   9.05419900
_cell_angle_alpha   90.00017226
_cell_angle_beta   89.99893326
_cell_angle_gamma   119.99763097
_symmetry_Int_Tables_number   1
_chemical_formula_structural   YbDy3(Os3Ru)2
_chemical_formula_sum   'Yb1 Dy3 Os6 Ru2'
_cell_volume   215.79401113
_cell_formula_units_Z   1
loop_
 _symmetry_equiv_pos_site_id
 _symmetry_equiv_pos_as_xyz
  1  'x, y, z'
loop_
 _atom_site_type_symbol
 _atom_site_label
 _atom_site_symmetry_multiplicity
 _atom_site_fract_x
 _atom_site_fract_y
 _atom_site_fract_z
 _atom_site_occupancy
  Yb  Yb0  1  0.666664  0.333328  0.936255  1
  Dy  Dy1  1  0.666665  0.333329  0.571020  1
  Dy  Dy2  1  0.333337  0.666668  0.433013  1
  Dy  Dy3  1  0.333332  0.666668  0.061644  1
  Os  Os4  1  0.169942  0.339903  0.749574  1
  Os  Os5  1  0.169924  0.830073  0.749576  1
  Os  Os6  1  0.660099  0.830055  0.749574  1
  Os  Os7  1  0.829746  0.659469  0.250270  1
  Os  Os8  1  0.829757  0.170253  0.250269  1
  Os  Os9  1  0.340529  0.170257  0.250269  1
  Ru  Ru10  1  0.000003  0.999996  0.499325  1
  Ru  Ru11  1  0.000000  0.000000  0.999212  1
