# generated using pymatgen
data_La2(HoAu2)5
_symmetry_space_group_name_H-M   'P 1'
_cell_length_a   8.79517500
_cell_length_b   8.79517443
_cell_length_c   10.41334900
_cell_angle_alpha   90.00000000
_cell_angle_beta   90.00000000
_cell_angle_gamma   107.16230682
_symmetry_Int_Tables_number   1
_chemical_formula_structural   La2(HoAu2)5
_chemical_formula_sum   'La4 Ho10 Au20'
_cell_volume   769.65774811
_cell_formula_units_Z   2
loop_
 _symmetry_equiv_pos_site_id
 _symmetry_equiv_pos_as_xyz
  1  'x, y, z'
loop_
 _atom_site_type_symbol
 _atom_site_label
 _atom_site_symmetry_multiplicity
 _atom_site_fract_x
 _atom_site_fract_y
 _atom_site_fract_z
 _atom_site_occupancy
  La  La0  1  0.308074  0.308074  0.193183  1
  La  La1  1  0.691926  0.691926  0.806817  1
  La  La2  1  0.191926  0.191926  0.693183  1
  La  La3  1  0.808074  0.808074  0.306817  1
  Ho  Ho4  1  0.695535  0.304465  0.000000  1
  Ho  Ho5  1  0.304465  0.695535  0.000000  1
  Ho  Ho6  1  0.804465  0.195535  0.500000  1
  Ho  Ho7  1  0.195535  0.804465  0.500000  1
  Ho  Ho8  1  0.000000  0.000000  0.000000  1
  Ho  Ho9  1  0.500000  0.500000  0.500000  1
  Ho  Ho10  1  0.001264  0.501264  0.250000  1
  Ho  Ho11  1  0.998736  0.498736  0.750000  1
  Ho  Ho12  1  0.498736  0.998736  0.750000  1
  Ho  Ho13  1  0.501264  0.001264  0.250000  1
  Au  Au14  1  0.859277  0.154628  0.207865  1
  Au  Au15  1  0.140723  0.845372  0.792135  1
  Au  Au16  1  0.640723  0.345372  0.707865  1
  Au  Au17  1  0.654628  0.359277  0.292135  1
  Au  Au18  1  0.359277  0.654628  0.292135  1
  Au  Au19  1  0.345372  0.640723  0.707865  1
  Au  Au20  1  0.845372  0.140723  0.792135  1
  Au  Au21  1  0.154628  0.859277  0.207865  1
  Au  Au22  1  0.941285  0.644259  0.006824  1
  Au  Au23  1  0.058715  0.355741  0.993176  1
  Au  Au24  1  0.558715  0.855741  0.506824  1
  Au  Au25  1  0.144259  0.441285  0.493176  1
  Au  Au26  1  0.441285  0.144259  0.493176  1
  Au  Au27  1  0.855741  0.558715  0.506824  1
  Au  Au28  1  0.355741  0.058715  0.993176  1
  Au  Au29  1  0.644259  0.941285  0.006824  1
  Au  Au30  1  0.100308  0.100308  0.401115  1
  Au  Au31  1  0.899692  0.899692  0.598885  1
  Au  Au32  1  0.399692  0.399692  0.901115  1
  Au  Au33  1  0.600308  0.600308  0.098885  1
