# generated using pymatgen
data_Ac4I5N2Cl
_symmetry_space_group_name_H-M   'P 1'
_cell_length_a   9.14201823
_cell_length_b   9.40085264
_cell_length_c   9.40085227
_cell_angle_alpha   137.23518638
_cell_angle_beta   128.82112481
_cell_angle_gamma   69.29778172
_symmetry_Int_Tables_number   1
_chemical_formula_structural   Ac4I5N2Cl
_chemical_formula_sum   'Ac4 I5 N2 Cl1'
_cell_volume   418.61542918
_cell_formula_units_Z   1
loop_
 _symmetry_equiv_pos_site_id
 _symmetry_equiv_pos_as_xyz
  1  'x, y, z'
loop_
 _atom_site_type_symbol
 _atom_site_label
 _atom_site_symmetry_multiplicity
 _atom_site_fract_x
 _atom_site_fract_y
 _atom_site_fract_z
 _atom_site_occupancy
  Ac  Ac0  1  0.926789  0.585379  0.341410  1
  Ac  Ac1  1  0.052263  0.410362  0.641900  1
  Ac  Ac2  1  0.751705  0.916459  0.835246  1
  Ac  Ac3  1  0.254190  0.089471  0.164718  1
  I  I4  1  0.493937  0.248261  0.746928  1
  I  I5  1  0.493937  0.747009  0.245676  1
  I  I6  1  0.987234  0.803170  0.184063  1
  I  I7  1  0.011274  0.197051  0.814224  1
  I  I8  1  0.398219  0.698237  0.699982  1
  N  N9  1  0.998653  0.250113  0.246524  1
  N  N10  1  0.998653  0.752130  0.748540  1
  Cl  Cl11  1  0.633147  0.302357  0.330790  1
