# generated using pymatgen
data_Nb10CuPt4
_symmetry_space_group_name_H-M   'P 1'
_cell_length_a   9.95449900
_cell_length_b   9.95449900
_cell_length_c   5.18936600
_cell_angle_alpha   90.00000000
_cell_angle_beta   90.00000000
_cell_angle_gamma   90.00000000
_symmetry_Int_Tables_number   1
_chemical_formula_structural   Nb10CuPt4
_chemical_formula_sum   'Nb20 Cu2 Pt8'
_cell_volume   514.22491691
_cell_formula_units_Z   2
loop_
 _symmetry_equiv_pos_site_id
 _symmetry_equiv_pos_as_xyz
  1  'x, y, z'
loop_
 _atom_site_type_symbol
 _atom_site_label
 _atom_site_symmetry_multiplicity
 _atom_site_fract_x
 _atom_site_fract_y
 _atom_site_fract_z
 _atom_site_occupancy
  Nb  Nb0  1  0.395816  0.395816  0.000000  1
  Nb  Nb1  1  0.895816  0.104184  0.500000  1
  Nb  Nb2  1  0.104184  0.895816  0.500000  1
  Nb  Nb3  1  0.604184  0.604184  0.000000  1
  Nb  Nb4  1  0.127028  0.463178  0.000000  1
  Nb  Nb5  1  0.963178  0.372972  0.500000  1
  Nb  Nb6  1  0.036822  0.627028  0.500000  1
  Nb  Nb7  1  0.872972  0.536822  0.000000  1
  Nb  Nb8  1  0.372972  0.963178  0.500000  1
  Nb  Nb9  1  0.627028  0.036822  0.500000  1
  Nb  Nb10  1  0.463178  0.127028  0.000000  1
  Nb  Nb11  1  0.536822  0.872972  0.000000  1
  Nb  Nb12  1  0.179334  0.179334  0.253076  1
  Nb  Nb13  1  0.679334  0.320666  0.753076  1
  Nb  Nb14  1  0.320666  0.679334  0.753076  1
  Nb  Nb15  1  0.820666  0.820666  0.253076  1
  Nb  Nb16  1  0.320666  0.679334  0.246924  1
  Nb  Nb17  1  0.679334  0.320666  0.246924  1
  Nb  Nb18  1  0.179334  0.179334  0.746924  1
  Nb  Nb19  1  0.820666  0.820666  0.746924  1
  Cu  Cu20  1  0.000000  0.000000  0.000000  1
  Cu  Cu21  1  0.500000  0.500000  0.500000  1
  Pt  Pt22  1  0.261569  0.935976  0.000000  1
  Pt  Pt23  1  0.435976  0.238431  0.500000  1
  Pt  Pt24  1  0.564024  0.761569  0.500000  1
  Pt  Pt25  1  0.738431  0.064024  0.000000  1
  Pt  Pt26  1  0.238431  0.435976  0.500000  1
  Pt  Pt27  1  0.761569  0.564024  0.500000  1
  Pt  Pt28  1  0.935976  0.261569  0.000000  1
  Pt  Pt29  1  0.064024  0.738431  0.000000  1
