# generated using pymatgen
data_Hf2Mg2Sb4Pt3Rh
_symmetry_space_group_name_H-M   'P 1'
_cell_length_a   6.36391954
_cell_length_b   6.35984337
_cell_length_c   7.76874542
_cell_angle_alpha   65.87164679
_cell_angle_beta   66.14771644
_cell_angle_gamma   89.95971953
_symmetry_Int_Tables_number   1
_chemical_formula_structural   Hf2Mg2Sb4Pt3Rh
_chemical_formula_sum   'Hf2 Mg2 Sb4 Pt3 Rh1'
_cell_volume   257.29516058
_cell_formula_units_Z   1
loop_
 _symmetry_equiv_pos_site_id
 _symmetry_equiv_pos_as_xyz
  1  'x, y, z'
loop_
 _atom_site_type_symbol
 _atom_site_label
 _atom_site_symmetry_multiplicity
 _atom_site_fract_x
 _atom_site_fract_y
 _atom_site_fract_z
 _atom_site_occupancy
  Hf  Hf0  1  0.500546  0.499458  0.001850  1
  Hf  Hf1  1  0.749253  0.251624  0.498085  1
  Mg  Mg2  1  0.999473  0.998417  0.999790  1
  Mg  Mg3  1  0.249981  0.748521  0.500702  1
  Sb  Sb4  1  0.497918  0.990952  0.012892  1
  Sb  Sb5  1  0.752137  0.754119  0.486720  1
  Sb  Sb6  1  0.250112  0.253089  0.505158  1
  Sb  Sb7  1  0.000405  0.508138  0.994169  1
  Pt  Pt8  1  0.125121  0.135534  0.250280  1
  Pt  Pt9  1  0.386859  0.876487  0.749774  1
  Pt  Pt10  1  0.863427  0.375473  0.750506  1
  Rh  Rh11  1  0.624768  0.608188  0.250073  1
