# generated using pymatgen
data_NaU5O12
_symmetry_space_group_name_H-M   'P 1'
_cell_length_a   6.59102541
_cell_length_b   6.59102510
_cell_length_c   6.57871849
_cell_angle_alpha   80.38585381
_cell_angle_beta   80.38584817
_cell_angle_gamma   120.07704288
_symmetry_Int_Tables_number   1
_chemical_formula_structural   NaU5O12
_chemical_formula_sum   'Na1 U5 O12'
_cell_volume   233.07065380
_cell_formula_units_Z   1
loop_
 _symmetry_equiv_pos_site_id
 _symmetry_equiv_pos_as_xyz
  1  'x, y, z'
loop_
 _atom_site_type_symbol
 _atom_site_label
 _atom_site_symmetry_multiplicity
 _atom_site_fract_x
 _atom_site_fract_y
 _atom_site_fract_z
 _atom_site_occupancy
  Na  Na0  1  0.500000  0.500000  0.500000  1
  U  U1  1  0.832940  0.167060  0.500000  1
  U  U2  1  0.167060  0.832940  0.500000  1
  U  U3  1  0.664206  0.335794  0.000000  1
  U  U4  1  0.000000  0.000000  0.000000  1
  U  U5  1  0.335794  0.664206  0.000000  1
  O  O6  1  0.097998  0.097998  0.639272  1
  O  O7  1  0.705713  0.044672  0.881607  1
  O  O8  1  0.955328  0.294287  0.118393  1
  O  O9  1  0.362026  0.362026  0.898995  1
  O  O10  1  0.044672  0.705713  0.881607  1
  O  O11  1  0.542829  0.192580  0.362927  1
  O  O12  1  0.902002  0.902002  0.360728  1
  O  O13  1  0.457171  0.807420  0.637073  1
  O  O14  1  0.637974  0.637974  0.101005  1
  O  O15  1  0.294287  0.955328  0.118393  1
  O  O16  1  0.807420  0.457171  0.637073  1
  O  O17  1  0.192580  0.542829  0.362927  1
