# generated using pymatgen
data_YHo4P12Ru18Pt
_symmetry_space_group_name_H-M   'P 1'
_cell_length_a   12.58138284
_cell_length_b   12.47849860
_cell_length_c   3.98496000
_cell_angle_alpha   90.00000000
_cell_angle_beta   90.00000000
_cell_angle_gamma   119.72985327
_symmetry_Int_Tables_number   1
_chemical_formula_structural   YHo4P12Ru18Pt
_chemical_formula_sum   'Y1 Ho4 P12 Ru18 Pt1'
_cell_volume   543.27674098
_cell_formula_units_Z   1
loop_
 _symmetry_equiv_pos_site_id
 _symmetry_equiv_pos_as_xyz
  1  'x, y, z'
loop_
 _atom_site_type_symbol
 _atom_site_label
 _atom_site_symmetry_multiplicity
 _atom_site_fract_x
 _atom_site_fract_y
 _atom_site_fract_z
 _atom_site_occupancy
  Y  Y0  1  0.000000  0.182773  0.500000  1
  Ho  Ho1  1  0.816523  0.816295  0.500000  1
  Ho  Ho2  1  0.183477  0.999772  0.500000  1
  Ho  Ho3  1  0.662419  0.330380  0.000000  1
  Ho  Ho4  1  0.337581  0.667963  0.000000  1
  P  P5  1  0.000000  0.813568  0.000000  1
  P  P6  1  0.183720  0.184069  0.000000  1
  P  P7  1  0.816280  0.000349  0.000000  1
  P  P8  1  0.693082  0.172984  0.500000  1
  P  P9  1  0.819093  0.519649  0.500000  1
  P  P10  1  0.475590  0.305905  0.500000  1
  P  P11  1  0.180907  0.700555  0.500000  1
  P  P12  1  0.524410  0.830315  0.500000  1
  P  P13  1  0.306918  0.479902  0.500000  1
  P  P14  1  0.000000  0.364481  0.000000  1
  P  P15  1  0.627320  0.627330  0.000000  1
  P  P16  1  0.372680  0.000010  0.000000  1
  Ru  Ru17  1  0.445079  0.446192  0.000000  1
  Ru  Ru18  1  0.554921  0.001113  0.000000  1
  Ru  Ru19  1  0.000000  0.711818  0.500000  1
  Ru  Ru20  1  0.282072  0.283447  0.500000  1
  Ru  Ru21  1  0.717928  0.001375  0.500000  1
  Ru  Ru22  1  0.806813  0.185955  0.000000  1
  Ru  Ru23  1  0.814947  0.621591  0.000000  1
  Ru  Ru24  1  0.374842  0.190728  0.000000  1
  Ru  Ru25  1  0.185053  0.806645  0.000000  1
  Ru  Ru26  1  0.625158  0.815886  0.000000  1
  Ru  Ru27  1  0.193187  0.379142  0.000000  1
  Ru  Ru28  1  0.872647  0.367444  0.500000  1
  Ru  Ru29  1  0.630787  0.508102  0.500000  1
  Ru  Ru30  1  0.492583  0.127793  0.500000  1
  Ru  Ru31  1  0.369213  0.877315  0.500000  1
  Ru  Ru32  1  0.507417  0.635210  0.500000  1
  Ru  Ru33  1  0.127353  0.494797  0.500000  1
  Ru  Ru34  1  0.000000  0.998270  0.000000  1
  Pt  Pt35  1  0.000000  0.550877  0.000000  1
