# generated using pymatgen
data_PrTm2(TaSn)18
_symmetry_space_group_name_H-M   'P 1'
_cell_length_a   5.79382182
_cell_length_b   9.62698056
_cell_length_c   16.00188900
_cell_angle_alpha   107.50325200
_cell_angle_beta   100.32290550
_cell_angle_gamma   90.05247470
_symmetry_Int_Tables_number   1
_chemical_formula_structural   PrTm2(TaSn)18
_chemical_formula_sum   'Pr1 Tm2 Ta18 Sn18'
_cell_volume   836.00463031
_cell_formula_units_Z   1
loop_
 _symmetry_equiv_pos_site_id
 _symmetry_equiv_pos_as_xyz
  1  'x, y, z'
loop_
 _atom_site_type_symbol
 _atom_site_label
 _atom_site_symmetry_multiplicity
 _atom_site_fract_x
 _atom_site_fract_y
 _atom_site_fract_z
 _atom_site_occupancy
  Pr  Pr0  1  0.667533  0.167405  0.335919  1
  Tm  Tm1  1  0.331618  0.830753  0.664599  1
  Tm  Tm2  1  0.999351  0.998869  0.999890  1
  Ta  Ta3  1  0.165947  0.415820  0.333781  1
  Ta  Ta4  1  0.332304  0.832927  0.166600  1
  Ta  Ta5  1  0.666497  0.667552  0.834240  1
  Ta  Ta6  1  0.499911  0.750508  0.999960  1
  Ta  Ta7  1  0.166431  0.165181  0.833782  1
  Ta  Ta8  1  0.833910  0.331358  0.166326  1
  Ta  Ta9  1  0.832769  0.082323  0.667320  1
  Ta  Ta10  1  0.165714  0.667113  0.833748  1
  Ta  Ta11  1  0.499334  0.998466  0.500899  1
  Ta  Ta12  1  0.499102  0.247705  0.000091  1
  Ta  Ta13  1  0.000346  0.998535  0.500950  1
  Ta  Ta14  1  0.000413  0.500134  0.500872  1
  Ta  Ta15  1  0.832940  0.832519  0.166296  1
  Ta  Ta16  1  0.833537  0.583374  0.667265  1
  Ta  Ta17  1  0.332138  0.330960  0.165840  1
  Ta  Ta18  1  0.166458  0.915020  0.333619  1
  Ta  Ta19  1  0.666162  0.164728  0.833444  1
  Ta  Ta20  1  0.499491  0.500120  0.500871  1
  Sn  Sn21  1  0.998966  0.327048  0.999618  1
  Sn  Sn22  1  0.888076  0.887760  0.777286  1
  Sn  Sn23  1  0.110513  0.109989  0.222153  1
  Sn  Sn24  1  0.222833  0.221968  0.446225  1
  Sn  Sn25  1  0.443579  0.443837  0.889385  1
  Sn  Sn26  1  0.109794  0.609093  0.220754  1
  Sn  Sn27  1  0.779077  0.278688  0.559016  1
  Sn  Sn28  1  0.889710  0.389390  0.780187  1
  Sn  Sn29  1  0.221077  0.720232  0.443190  1
  Sn  Sn30  1  0.334175  0.500638  0.667742  1
  Sn  Sn31  1  0.555778  0.054434  0.110905  1
  Sn  Sn32  1  0.665140  0.503682  0.333179  1
  Sn  Sn33  1  0.442519  0.943184  0.887976  1
  Sn  Sn34  1  0.332150  0.165028  0.667461  1
  Sn  Sn35  1  0.777214  0.776850  0.555931  1
  Sn  Sn36  1  0.667042  0.827271  0.333377  1
  Sn  Sn37  1  0.555555  0.554662  0.111305  1
  Sn  Sn38  1  0.000153  0.670924  0.000363  1
