# generated using pymatgen
data_Y3Lu13(InIr)4
_symmetry_space_group_name_H-M   'P 1'
_cell_length_a   9.51724139
_cell_length_b   9.51656939
_cell_length_c   9.50587314
_cell_angle_alpha   60.04185936
_cell_angle_beta   59.98144097
_cell_angle_gamma   59.92331657
_symmetry_Int_Tables_number   1
_chemical_formula_structural   Y3Lu13(InIr)4
_chemical_formula_sum   'Y3 Lu13 In4 Ir4'
_cell_volume   608.54447242
_cell_formula_units_Z   1
loop_
 _symmetry_equiv_pos_site_id
 _symmetry_equiv_pos_as_xyz
  1  'x, y, z'
loop_
 _atom_site_type_symbol
 _atom_site_label
 _atom_site_symmetry_multiplicity
 _atom_site_fract_x
 _atom_site_fract_y
 _atom_site_fract_z
 _atom_site_occupancy
  Y  Y0  1  0.191167  0.808833  0.191167  1
  Y  Y1  1  0.812855  0.814063  0.186038  1
  Y  Y2  1  0.186038  0.187044  0.812855  1
  Lu  Lu3  1  0.601147  0.597097  0.596313  1
  Lu  Lu4  1  0.600477  0.600183  0.203812  1
  Lu  Lu5  1  0.596313  0.205443  0.601147  1
  Lu  Lu6  1  0.203812  0.595527  0.600477  1
  Lu  Lu7  1  0.059150  0.439562  0.440297  1
  Lu  Lu8  1  0.440297  0.060991  0.059150  1
  Lu  Lu9  1  0.440439  0.059561  0.440439  1
  Lu  Lu10  1  0.059262  0.440738  0.059262  1
  Lu  Lu11  1  0.441989  0.440980  0.057755  1
  Lu  Lu12  1  0.057755  0.059276  0.441989  1
  Lu  Lu13  1  0.194374  0.805543  0.805216  1
  Lu  Lu14  1  0.805216  0.194866  0.194374  1
  Lu  Lu15  1  0.808814  0.191186  0.808814  1
  In  In16  1  0.833792  0.833757  0.832777  1
  In  In17  1  0.832174  0.833766  0.501532  1
  In  In18  1  0.832777  0.499675  0.833792  1
  In  In19  1  0.501532  0.832529  0.832174  1
  Ir  Ir20  1  0.393802  0.390767  0.388342  1
  Ir  Ir21  1  0.391246  0.393642  0.827233  1
  Ir  Ir22  1  0.388342  0.827090  0.393802  1
  Ir  Ir23  1  0.827233  0.387880  0.391246  1
