# generated using pymatgen
data_Ho7Th13(Ir2Ru)4
_symmetry_space_group_name_H-M   'P 1'
_cell_length_a   11.23617274
_cell_length_b   11.13612756
_cell_length_c   6.38677282
_cell_angle_alpha   89.65561712
_cell_angle_beta   90.08661773
_cell_angle_gamma   89.88640465
_symmetry_Int_Tables_number   1
_chemical_formula_structural   Ho7Th13(Ir2Ru)4
_chemical_formula_sum   'Ho7 Th13 Ir8 Ru4'
_cell_volume   799.14368139
_cell_formula_units_Z   1
loop_
 _symmetry_equiv_pos_site_id
 _symmetry_equiv_pos_as_xyz
  1  'x, y, z'
loop_
 _atom_site_type_symbol
 _atom_site_label
 _atom_site_symmetry_multiplicity
 _atom_site_fract_x
 _atom_site_fract_y
 _atom_site_fract_z
 _atom_site_occupancy
  Ho  Ho0  1  0.914123  0.287284  0.615284  1
  Ho  Ho1  1  0.088052  0.711842  0.616772  1
  Ho  Ho2  1  0.086605  0.288488  0.116357  1
  Ho  Ho3  1  0.999108  0.999969  0.499836  1
  Ho  Ho4  1  0.001640  0.004041  0.998500  1
  Ho  Ho5  1  0.501697  0.499464  0.007661  1
  Ho  Ho6  1  0.498541  0.500203  0.507364  1
  Th  Th7  1  0.287186  0.091771  0.380011  1
  Th  Th8  1  0.288246  0.908848  0.879791  1
  Th  Th9  1  0.711676  0.091784  0.880290  1
  Th  Th10  1  0.712441  0.910599  0.380804  1
  Th  Th11  1  0.590020  0.788810  0.882315  1
  Th  Th12  1  0.588793  0.212271  0.382771  1
  Th  Th13  1  0.409826  0.789278  0.382267  1
  Th  Th14  1  0.408748  0.212235  0.883127  1
  Th  Th15  1  0.200850  0.410616  0.616899  1
  Th  Th16  1  0.208000  0.587070  0.117169  1
  Th  Th17  1  0.797135  0.405140  0.116722  1
  Th  Th18  1  0.795309  0.585181  0.618064  1
  Th  Th19  1  0.915159  0.710940  0.117203  1
  Ir  Ir20  1  0.844393  0.151248  0.246272  1
  Ir  Ir21  1  0.845021  0.846956  0.753188  1
  Ir  Ir22  1  0.155200  0.152744  0.744398  1
  Ir  Ir23  1  0.154750  0.846702  0.244446  1
  Ir  Ir24  1  0.653945  0.343895  0.755653  1
  Ir  Ir25  1  0.655239  0.655775  0.254300  1
  Ir  Ir26  1  0.344814  0.344541  0.256848  1
  Ir  Ir27  1  0.346272  0.656063  0.755344  1
  Ru  Ru28  1  0.499003  0.999951  0.113853  1
  Ru  Ru29  1  0.500403  0.000034  0.613550  1
  Ru  Ru30  1  0.999835  0.502543  0.883671  1
  Ru  Ru31  1  0.997969  0.503715  0.379273  1
