# generated using pymatgen
data_Ta12Al8Co3PtN4
_symmetry_space_group_name_H-M   'P 1'
_cell_length_a   8.19802166
_cell_length_b   8.18741194
_cell_length_c   8.18783625
_cell_angle_alpha   60.01641190
_cell_angle_beta   60.05778375
_cell_angle_gamma   60.05757052
_symmetry_Int_Tables_number   1
_chemical_formula_structural   Ta12Al8Co3PtN4
_chemical_formula_sum   'Ta12 Al8 Co3 Pt1 N4'
_cell_volume   388.99305683
_cell_formula_units_Z   1
loop_
 _symmetry_equiv_pos_site_id
 _symmetry_equiv_pos_as_xyz
  1  'x, y, z'
loop_
 _atom_site_type_symbol
 _atom_site_label
 _atom_site_symmetry_multiplicity
 _atom_site_fract_x
 _atom_site_fract_y
 _atom_site_fract_z
 _atom_site_occupancy
  Ta  Ta0  1  0.561514  0.936058  0.566343  1
  Ta  Ta1  1  0.310108  0.689346  0.689294  1
  Ta  Ta2  1  0.688438  0.313951  0.313946  1
  Ta  Ta3  1  0.310150  0.689276  0.311269  1
  Ta  Ta4  1  0.688441  0.683665  0.313958  1
  Ta  Ta5  1  0.310137  0.311249  0.689267  1
  Ta  Ta6  1  0.561559  0.566335  0.936042  1
  Ta  Ta7  1  0.939892  0.560654  0.560706  1
  Ta  Ta8  1  0.561562  0.936049  0.936054  1
  Ta  Ta9  1  0.939863  0.938751  0.560733  1
  Ta  Ta10  1  0.688486  0.313942  0.683657  1
  Ta  Ta11  1  0.939850  0.560724  0.938731  1
  Al  Al12  1  0.926096  0.912805  0.912920  1
  Al  Al13  1  0.004145  0.332172  0.332003  1
  Al  Al14  1  0.324058  0.001777  0.337259  1
  Al  Al15  1  0.324051  0.337336  0.001746  1
  Al  Al16  1  0.925942  0.248223  0.912741  1
  Al  Al17  1  0.925949  0.912664  0.248254  1
  Al  Al18  1  0.245855  0.917828  0.917997  1
  Al  Al19  1  0.323904  0.337195  0.337080  1
  Co  Co20  1  0.125000  0.125000  0.125000  1
  Co  Co21  1  0.125000  0.625000  0.125000  1
  Co  Co22  1  0.125000  0.125000  0.625000  1
  Pt  Pt23  1  0.625000  0.125000  0.125000  1
  N  N24  1  0.625000  0.625000  0.625000  1
  N  N25  1  0.125000  0.625000  0.625000  1
  N  N26  1  0.625000  0.125000  0.625000  1
  N  N27  1  0.625000  0.625000  0.125000  1
