# generated using pymatgen
data_Hf10Sn3Sb4
_symmetry_space_group_name_H-M   'P 1'
_cell_length_a   5.84637102
_cell_length_b   8.58984139
_cell_length_c   8.58964405
_cell_angle_alpha   119.99959121
_cell_angle_beta   90.00168771
_cell_angle_gamma   89.99843122
_symmetry_Int_Tables_number   1
_chemical_formula_structural   Hf10Sn3Sb4
_chemical_formula_sum   'Hf10 Sn3 Sb4'
_cell_volume   373.57611871
_cell_formula_units_Z   1
loop_
 _symmetry_equiv_pos_site_id
 _symmetry_equiv_pos_as_xyz
  1  'x, y, z'
loop_
 _atom_site_type_symbol
 _atom_site_label
 _atom_site_symmetry_multiplicity
 _atom_site_fract_x
 _atom_site_fract_y
 _atom_site_fract_z
 _atom_site_occupancy
  Hf  Hf0  1  0.499821  0.333333  0.666664  1
  Hf  Hf1  1  0.499815  0.666666  0.333334  1
  Hf  Hf2  1  0.002413  0.666676  0.333340  1
  Hf  Hf3  1  0.002411  0.333319  0.666655  1
  Hf  Hf4  1  0.774780  0.267843  0.000014  1
  Hf  Hf5  1  0.774783  0.732170  0.732167  1
  Hf  Hf6  1  0.774790  0.999988  0.267822  1
  Hf  Hf7  1  0.223974  0.730147  0.000015  1
  Hf  Hf8  1  0.223961  0.269863  0.269860  1
  Hf  Hf9  1  0.223928  0.999990  0.730142  1
  Sn  Sn10  1  0.258501  0.385489  0.999955  1
  Sn  Sn11  1  0.258499  0.614470  0.614517  1
  Sn  Sn12  1  0.258512  0.000045  0.385537  1
  Sb  Sb13  1  0.742454  0.611642  0.999995  1
  Sb  Sb14  1  0.742439  0.388355  0.388360  1
  Sb  Sb15  1  0.742433  0.000004  0.611633  1
  Sb  Sb16  1  0.496484  0.000003  0.999990  1
