# generated using pymatgen
data_Ba4CeSe6
_symmetry_space_group_name_H-M   'P 1'
_cell_length_a   9.08084802
_cell_length_b   9.08084629
_cell_length_c   9.08084796
_cell_angle_alpha   89.48003513
_cell_angle_beta   89.48003914
_cell_angle_gamma   89.48003904
_symmetry_Int_Tables_number   1
_chemical_formula_structural   Ba4CeSe6
_chemical_formula_sum   'Ba8 Ce2 Se12'
_cell_volume   748.73098243
_cell_formula_units_Z   2
loop_
 _symmetry_equiv_pos_site_id
 _symmetry_equiv_pos_as_xyz
  1  'x, y, z'
loop_
 _atom_site_type_symbol
 _atom_site_label
 _atom_site_symmetry_multiplicity
 _atom_site_fract_x
 _atom_site_fract_y
 _atom_site_fract_z
 _atom_site_occupancy
  Ba  Ba0  1  0.874885  0.625115  0.250000  1
  Ba  Ba1  1  0.250000  0.874885  0.625115  1
  Ba  Ba2  1  0.625115  0.250000  0.874885  1
  Ba  Ba3  1  0.750000  0.125115  0.374885  1
  Ba  Ba4  1  0.374885  0.750000  0.125115  1
  Ba  Ba5  1  0.125115  0.374885  0.750000  1
  Ba  Ba6  1  0.250000  0.250000  0.250000  1
  Ba  Ba7  1  0.750000  0.750000  0.750000  1
  Ce  Ce8  1  0.500000  0.500000  0.500000  1
  Ce  Ce9  1  0.000000  0.000000  0.000000  1
  Se  Se10  1  0.200535  0.561359  0.423087  1
  Se  Se11  1  0.423087  0.200535  0.561359  1
  Se  Se12  1  0.561359  0.423087  0.200535  1
  Se  Se13  1  0.923087  0.061359  0.700535  1
  Se  Se14  1  0.700535  0.923087  0.061359  1
  Se  Se15  1  0.061359  0.700535  0.923087  1
  Se  Se16  1  0.799465  0.438641  0.576913  1
  Se  Se17  1  0.576913  0.799465  0.438641  1
  Se  Se18  1  0.438641  0.576913  0.799465  1
  Se  Se19  1  0.076913  0.938641  0.299465  1
  Se  Se20  1  0.299465  0.076913  0.938641  1
  Se  Se21  1  0.938641  0.299465  0.076913  1
