# generated using pymatgen
data_CeHo2Mg3Ir2Pd
_symmetry_space_group_name_H-M   'P 1'
_cell_length_a   7.32796547
_cell_length_b   7.32796423
_cell_length_c   3.98036300
_cell_angle_alpha   90.00000000
_cell_angle_beta   90.00000000
_cell_angle_gamma   117.79184565
_symmetry_Int_Tables_number   1
_chemical_formula_structural   CeHo2Mg3Ir2Pd
_chemical_formula_sum   'Ce1 Ho2 Mg3 Ir2 Pd1'
_cell_volume   189.08610363
_cell_formula_units_Z   1
loop_
 _symmetry_equiv_pos_site_id
 _symmetry_equiv_pos_as_xyz
  1  'x, y, z'
loop_
 _atom_site_type_symbol
 _atom_site_label
 _atom_site_symmetry_multiplicity
 _atom_site_fract_x
 _atom_site_fract_y
 _atom_site_fract_z
 _atom_site_occupancy
  Ce  Ce0  1  0.430421  0.430421  0.500000  1
  Ho  Ho1  1  0.999082  0.584077  0.500000  1
  Ho  Ho2  1  0.584077  0.999082  0.500000  1
  Mg  Mg3  1  0.760064  0.760064  0.000000  1
  Mg  Mg4  1  0.247034  0.996594  0.000000  1
  Mg  Mg5  1  0.996594  0.247034  0.000000  1
  Ir  Ir6  1  0.654372  0.332440  0.000000  1
  Ir  Ir7  1  0.332440  0.654372  0.000000  1
  Pd  Pd8  1  0.995917  0.995917  0.500000  1
