# generated using pymatgen
data_Y10IrRu3
_symmetry_space_group_name_H-M   'P 1'
_cell_length_a   6.39513943
_cell_length_b   7.33757292
_cell_length_c   8.52861549
_cell_angle_alpha   96.81779280
_cell_angle_beta   112.11948727
_cell_angle_gamma   89.98718718
_symmetry_Int_Tables_number   1
_chemical_formula_structural   Y10IrRu3
_chemical_formula_sum   'Y10 Ir1 Ru3'
_cell_volume   367.69660460
_cell_formula_units_Z   1
loop_
 _symmetry_equiv_pos_site_id
 _symmetry_equiv_pos_as_xyz
  1  'x, y, z'
loop_
 _atom_site_type_symbol
 _atom_site_label
 _atom_site_symmetry_multiplicity
 _atom_site_fract_x
 _atom_site_fract_y
 _atom_site_fract_z
 _atom_site_occupancy
  Y  Y0  1  0.979893  0.916989  0.185779  1
  Y  Y1  1  0.792461  0.585683  0.812610  1
  Y  Y2  1  0.020561  0.085381  0.813634  1
  Y  Y3  1  0.208439  0.413844  0.185761  1
  Y  Y4  1  0.641110  0.816182  0.435015  1
  Y  Y5  1  0.207967  0.684413  0.566494  1
  Y  Y6  1  0.358286  0.184718  0.565651  1
  Y  Y7  1  0.792717  0.314261  0.435739  1
  Y  Y8  1  0.421150  0.750081  0.999938  1
  Y  Y9  1  0.577666  0.248757  0.998764  1
  Ir  Ir10  1  0.822794  0.576365  0.221544  1
  Ru  Ru11  1  0.604159  0.922931  0.779385  1
  Ru  Ru12  1  0.175302  0.424362  0.778970  1
  Ru  Ru13  1  0.397496  0.076033  0.220716  1
