# generated using pymatgen
data_Hf3Zn3RhAu2
_symmetry_space_group_name_H-M   'P 1'
_cell_length_a   7.36236800
_cell_length_b   7.36236861
_cell_length_c   3.43344900
_cell_angle_alpha   90.00000000
_cell_angle_beta   90.00000000
_cell_angle_gamma   119.99998828
_symmetry_Int_Tables_number   1
_chemical_formula_structural   Hf3Zn3RhAu2
_chemical_formula_sum   'Hf3 Zn3 Rh1 Au2'
_cell_volume   161.17451146
_cell_formula_units_Z   1
loop_
 _symmetry_equiv_pos_site_id
 _symmetry_equiv_pos_as_xyz
  1  'x, y, z'
loop_
 _atom_site_type_symbol
 _atom_site_label
 _atom_site_symmetry_multiplicity
 _atom_site_fract_x
 _atom_site_fract_y
 _atom_site_fract_z
 _atom_site_occupancy
  Hf  Hf0  1  0.407121  0.021539  0.000000  1
  Hf  Hf1  1  0.978461  0.385583  0.000000  1
  Hf  Hf2  1  0.614417  0.592879  0.000000  1
  Zn  Zn3  1  0.721752  0.997942  0.500000  1
  Zn  Zn4  1  0.276192  0.278248  0.500000  1
  Zn  Zn5  1  0.002058  0.723809  0.500000  1
  Rh  Rh6  1  0.666667  0.333334  0.500000  1
  Au  Au7  1  0.000000  0.000000  0.000000  1
  Au  Au8  1  0.333333  0.666666  0.500000  1
