# generated using pymatgen
data_Ho16In4PdPt2Rh
_symmetry_space_group_name_H-M   'P 1'
_cell_length_a   9.67681062
_cell_length_b   9.66406858
_cell_length_c   9.66234034
_cell_angle_alpha   59.93106874
_cell_angle_beta   59.95044922
_cell_angle_gamma   59.95637907
_symmetry_Int_Tables_number   1
_chemical_formula_structural   Ho16In4PdPt2Rh
_chemical_formula_sum   'Ho16 In4 Pd1 Pt2 Rh1'
_cell_volume   638.15617081
_cell_formula_units_Z   1
loop_
 _symmetry_equiv_pos_site_id
 _symmetry_equiv_pos_as_xyz
  1  'x, y, z'
loop_
 _atom_site_type_symbol
 _atom_site_label
 _atom_site_symmetry_multiplicity
 _atom_site_fract_x
 _atom_site_fract_y
 _atom_site_fract_z
 _atom_site_occupancy
  Ho  Ho0  1  0.187964  0.186626  0.813417  1
  Ho  Ho1  1  0.603259  0.600616  0.192867  1
  Ho  Ho2  1  0.440079  0.061328  0.440388  1
  Ho  Ho3  1  0.439383  0.439626  0.058055  1
  Ho  Ho4  1  0.811993  0.186626  0.813417  1
  Ho  Ho5  1  0.187848  0.811536  0.187322  1
  Ho  Ho6  1  0.439705  0.064682  0.055908  1
  Ho  Ho7  1  0.186832  0.811617  0.814719  1
  Ho  Ho8  1  0.062934  0.439626  0.058055  1
  Ho  Ho9  1  0.813295  0.811536  0.187322  1
  Ho  Ho10  1  0.197663  0.598063  0.604038  1
  Ho  Ho11  1  0.059886  0.440166  0.440060  1
  Ho  Ho12  1  0.058206  0.061328  0.440388  1
  Ho  Ho13  1  0.811784  0.187808  0.188623  1
  Ho  Ho14  1  0.599447  0.198134  0.602972  1
  Ho  Ho15  1  0.600237  0.598063  0.604038  1
  In  In16  1  0.833020  0.833332  0.833327  1
  In  In17  1  0.833106  0.833574  0.500214  1
  In  In18  1  0.500320  0.833332  0.833327  1
  In  In19  1  0.833145  0.500399  0.833310  1
  Pd  Pd20  1  0.393435  0.820609  0.392519  1
  Pt  Pt21  1  0.393321  0.394076  0.392190  1
  Pt  Pt22  1  0.820413  0.394076  0.392190  1
  Rh  Rh23  1  0.392721  0.393225  0.821332  1
