# generated using pymatgen
data_TbTh(BeCo12)2
_symmetry_space_group_name_H-M   'P 1'
_cell_length_a   7.84834376
_cell_length_b   7.84834322
_cell_length_c   7.84834300
_cell_angle_alpha   59.99999671
_cell_angle_beta   59.99999897
_cell_angle_gamma   59.99999461
_symmetry_Int_Tables_number   1
_chemical_formula_structural   TbTh(BeCo12)2
_chemical_formula_sum   'Tb1 Th1 Be2 Co24'
_cell_volume   341.83690613
_cell_formula_units_Z   1
loop_
 _symmetry_equiv_pos_site_id
 _symmetry_equiv_pos_as_xyz
  1  'x, y, z'
loop_
 _atom_site_type_symbol
 _atom_site_label
 _atom_site_symmetry_multiplicity
 _atom_site_fract_x
 _atom_site_fract_y
 _atom_site_fract_z
 _atom_site_occupancy
  Tb  Tb0  1  0.750000  0.750000  0.750000  1
  Th  Th1  1  0.250000  0.250000  0.250000  1
  Be  Be2  1  0.500000  0.500000  0.500000  1
  Be  Be3  1  0.000000  0.000000  0.000000  1
  Co  Co4  1  0.440774  0.793400  0.559840  1
  Co  Co5  1  0.294013  0.940160  0.059226  1
  Co  Co6  1  0.940160  0.294013  0.706600  1
  Co  Co7  1  0.706600  0.940160  0.294013  1
  Co  Co8  1  0.294013  0.059226  0.706600  1
  Co  Co9  1  0.940160  0.059226  0.294013  1
  Co  Co10  1  0.706600  0.294013  0.059226  1
  Co  Co11  1  0.559840  0.440774  0.793400  1
  Co  Co12  1  0.793400  0.559840  0.440774  1
  Co  Co13  1  0.440774  0.205987  0.793400  1
  Co  Co14  1  0.440774  0.559840  0.205987  1
  Co  Co15  1  0.793400  0.205987  0.559840  1
  Co  Co16  1  0.205987  0.440774  0.559840  1
  Co  Co17  1  0.205987  0.793400  0.440774  1
  Co  Co18  1  0.559840  0.793400  0.205987  1
  Co  Co19  1  0.059226  0.294013  0.940160  1
  Co  Co20  1  0.059226  0.706600  0.294013  1
  Co  Co21  1  0.294013  0.706600  0.940160  1
  Co  Co22  1  0.059226  0.940160  0.706600  1
  Co  Co23  1  0.706600  0.059226  0.940160  1
  Co  Co24  1  0.940160  0.706600  0.059226  1
  Co  Co25  1  0.793400  0.440774  0.205987  1
  Co  Co26  1  0.559840  0.205987  0.440774  1
  Co  Co27  1  0.205987  0.559840  0.793400  1
