# generated using pymatgen
data_RuRhF7
_symmetry_space_group_name_H-M   'P 1'
_cell_length_a   7.43615042
_cell_length_b   7.43615132
_cell_length_c   7.43612862
_cell_angle_alpha   122.76739570
_cell_angle_beta   120.27070021
_cell_angle_gamma   87.40287617
_symmetry_Int_Tables_number   1
_chemical_formula_structural   RuRhF7
_chemical_formula_sum   'Ru2 Rh2 F14'
_cell_volume   283.58430358
_cell_formula_units_Z   2
loop_
 _symmetry_equiv_pos_site_id
 _symmetry_equiv_pos_as_xyz
  1  'x, y, z'
loop_
 _atom_site_type_symbol
 _atom_site_label
 _atom_site_symmetry_multiplicity
 _atom_site_fract_x
 _atom_site_fract_y
 _atom_site_fract_z
 _atom_site_occupancy
  Ru  Ru0  1  0.000000  0.500000  0.500000  1
  Ru  Ru1  1  0.500000  0.000000  0.500000  1
  Rh  Rh2  1  0.500000  0.500000  0.500000  1
  Rh  Rh3  1  0.000000  0.500000  0.000000  1
  F  F4  1  0.053348  0.802797  0.749457  1
  F  F5  1  0.580537  0.827207  0.647432  1
  F  F6  1  0.179777  0.827206  0.246671  1
  F  F7  1  0.553340  0.803891  0.250543  1
  F  F8  1  0.249999  0.390877  0.140876  1
  F  F9  1  0.080536  0.433106  0.753329  1
  F  F10  1  0.679775  0.433105  0.352568  1
  F  F11  1  0.320225  0.566895  0.647432  1
  F  F12  1  0.919464  0.566894  0.246671  1
  F  F13  1  0.750001  0.609123  0.859124  1
  F  F14  1  0.446660  0.196109  0.749457  1
  F  F15  1  0.820223  0.172794  0.753329  1
  F  F16  1  0.419463  0.172793  0.352568  1
  F  F17  1  0.946652  0.197203  0.250543  1
