# generated using pymatgen
data_Co2SiSe5
_symmetry_space_group_name_H-M   'P 1'
_cell_length_a   3.53668700
_cell_length_b   7.44266408
_cell_length_c   12.51622900
_cell_angle_alpha   78.23195580
_cell_angle_beta   90.00000000
_cell_angle_gamma   90.00000000
_symmetry_Int_Tables_number   1
_chemical_formula_structural   Co2SiSe5
_chemical_formula_sum   'Co4 Si2 Se10'
_cell_volume   322.53209406
_cell_formula_units_Z   2
loop_
 _symmetry_equiv_pos_site_id
 _symmetry_equiv_pos_as_xyz
  1  'x, y, z'
loop_
 _atom_site_type_symbol
 _atom_site_label
 _atom_site_symmetry_multiplicity
 _atom_site_fract_x
 _atom_site_fract_y
 _atom_site_fract_z
 _atom_site_occupancy
  Co  Co0  1  0.000000  0.249194  0.150176  1
  Co  Co1  1  0.000000  0.750806  0.849824  1
  Co  Co2  1  0.500000  0.747633  0.147245  1
  Co  Co3  1  0.500000  0.252367  0.852755  1
  Si  Si4  1  0.500000  0.159670  0.688936  1
  Si  Si5  1  0.500000  0.840330  0.311064  1
  Se  Se6  1  0.000000  0.952606  0.106634  1
  Se  Se7  1  0.000000  0.047394  0.893366  1
  Se  Se8  1  0.000000  0.465893  0.782369  1
  Se  Se9  1  0.000000  0.534107  0.217631  1
  Se  Se10  1  0.500000  0.670097  0.973086  1
  Se  Se11  1  0.500000  0.329903  0.026914  1
  Se  Se12  1  0.500000  0.166549  0.282072  1
  Se  Se13  1  0.500000  0.833451  0.717928  1
  Se  Se14  1  0.000000  0.236599  0.567448  1
  Se  Se15  1  0.000000  0.763401  0.432552  1
