# generated using pymatgen
data_NdMnRuO5
_symmetry_space_group_name_H-M   'P 1'
_cell_length_a   5.70202300
_cell_length_b   7.83522400
_cell_length_c   8.94592400
_cell_angle_alpha   90.00000000
_cell_angle_beta   90.00000000
_cell_angle_gamma   90.00000000
_symmetry_Int_Tables_number   1
_chemical_formula_structural   NdMnRuO5
_chemical_formula_sum   'Nd4 Mn4 Ru4 O20'
_cell_volume   399.67371382
_cell_formula_units_Z   4
loop_
 _symmetry_equiv_pos_site_id
 _symmetry_equiv_pos_as_xyz
  1  'x, y, z'
loop_
 _atom_site_type_symbol
 _atom_site_label
 _atom_site_symmetry_multiplicity
 _atom_site_fract_x
 _atom_site_fract_y
 _atom_site_fract_z
 _atom_site_occupancy
  Nd  Nd0  1  0.000000  0.355731  0.672881  1
  Nd  Nd1  1  0.000000  0.644269  0.327119  1
  Nd  Nd2  1  0.000000  0.855731  0.827119  1
  Nd  Nd3  1  0.000000  0.144269  0.172881  1
  Mn  Mn4  1  0.500000  0.081024  0.853175  1
  Mn  Mn5  1  0.500000  0.918976  0.146825  1
  Mn  Mn6  1  0.500000  0.581024  0.646825  1
  Mn  Mn7  1  0.500000  0.418976  0.353175  1
  Ru  Ru8  1  0.278939  0.500000  0.000000  1
  Ru  Ru9  1  0.721061  0.000000  0.500000  1
  Ru  Ru10  1  0.721061  0.500000  0.000000  1
  Ru  Ru11  1  0.278939  0.000000  0.500000  1
  O  O12  1  0.249580  0.902271  0.288688  1
  O  O13  1  0.249580  0.097729  0.711312  1
  O  O14  1  0.750420  0.402271  0.211312  1
  O  O15  1  0.750420  0.597729  0.788688  1
  O  O16  1  0.750420  0.097729  0.711312  1
  O  O17  1  0.750420  0.902271  0.288688  1
  O  O18  1  0.249580  0.597729  0.788688  1
  O  O19  1  0.249580  0.402271  0.211312  1
  O  O20  1  0.500000  0.328834  0.926026  1
  O  O21  1  0.500000  0.671166  0.073974  1
  O  O22  1  0.500000  0.828834  0.573974  1
  O  O23  1  0.500000  0.171166  0.426026  1
  O  O24  1  0.267109  0.000000  0.000000  1
  O  O25  1  0.732891  0.500000  0.500000  1
  O  O26  1  0.732891  0.000000  0.000000  1
  O  O27  1  0.267109  0.500000  0.500000  1
  O  O28  1  0.000000  0.154229  0.447646  1
  O  O29  1  0.000000  0.845771  0.552354  1
  O  O30  1  0.000000  0.654229  0.052354  1
  O  O31  1  0.000000  0.345771  0.947646  1
