# generated using pymatgen
data_Pu4TcMo(WC4)2
_symmetry_space_group_name_H-M   'P 1'
_cell_length_a   3.28548300
_cell_length_b   5.67834542
_cell_length_c   10.89919400
_cell_angle_alpha   90.09965539
_cell_angle_beta   90.00000000
_cell_angle_gamma   90.00000000
_symmetry_Int_Tables_number   1
_chemical_formula_structural   Pu4TcMo(WC4)2
_chemical_formula_sum   'Pu4 Tc1 Mo1 W2 C8'
_cell_volume   203.33622572
_cell_formula_units_Z   1
loop_
 _symmetry_equiv_pos_site_id
 _symmetry_equiv_pos_as_xyz
  1  'x, y, z'
loop_
 _atom_site_type_symbol
 _atom_site_label
 _atom_site_symmetry_multiplicity
 _atom_site_fract_x
 _atom_site_fract_y
 _atom_site_fract_z
 _atom_site_occupancy
  Pu  Pu0  1  0.250000  0.584474  0.861205  1
  Pu  Pu1  1  0.750000  0.418515  0.140090  1
  Pu  Pu2  1  0.750000  0.915283  0.358069  1
  Pu  Pu3  1  0.250000  0.084107  0.639896  1
  Tc  Tc4  1  0.250000  0.913466  0.105567  1
  Mo  Mo5  1  0.750000  0.586391  0.606213  1
  W  W6  1  0.750000  0.085125  0.896333  1
  W  W7  1  0.250000  0.414856  0.393373  1
  C  C8  1  0.250000  0.663882  0.245552  1
  C  C9  1  0.750000  0.334102  0.755294  1
  C  C10  1  0.750000  0.837439  0.747067  1
  C  C11  1  0.250000  0.161910  0.251911  1
  C  C12  1  0.250000  0.737194  0.509850  1
  C  C13  1  0.750000  0.262947  0.487488  1
  C  C14  1  0.750000  0.765607  0.013077  1
  C  C15  1  0.250000  0.234702  0.989012  1
