# generated using pymatgen
data_Rb8Dy4Lu2BBr20
_symmetry_space_group_name_H-M   'P 1'
_cell_length_a   12.30940939
_cell_length_b   12.30940932
_cell_length_c   12.36629500
_cell_angle_alpha   59.84700726
_cell_angle_beta   59.84700746
_cell_angle_gamma   60.30598561
_symmetry_Int_Tables_number   1
_chemical_formula_structural   Rb8Dy4Lu2BBr20
_chemical_formula_sum   'Rb8 Dy4 Lu2 B1 Br20'
_cell_volume   1324.89175489
_cell_formula_units_Z   1
loop_
 _symmetry_equiv_pos_site_id
 _symmetry_equiv_pos_as_xyz
  1  'x, y, z'
loop_
 _atom_site_type_symbol
 _atom_site_label
 _atom_site_symmetry_multiplicity
 _atom_site_fract_x
 _atom_site_fract_y
 _atom_site_fract_z
 _atom_site_occupancy
  Rb  Rb0  1  0.360276  0.360276  0.358765  1
  Rb  Rb1  1  0.639724  0.639724  0.641235  1
  Rb  Rb2  1  0.360276  0.360276  0.920685  1
  Rb  Rb3  1  0.358765  0.920685  0.360276  1
  Rb  Rb4  1  0.639724  0.639724  0.079315  1
  Rb  Rb5  1  0.641235  0.079315  0.639724  1
  Rb  Rb6  1  0.920685  0.358765  0.360276  1
  Rb  Rb7  1  0.079315  0.641235  0.639724  1
  Dy  Dy8  1  0.850665  0.149335  0.149335  1
  Dy  Dy9  1  0.149335  0.850665  0.850665  1
  Dy  Dy10  1  0.149335  0.850665  0.149335  1
  Dy  Dy11  1  0.850665  0.149335  0.850665  1
  Lu  Lu12  1  0.148114  0.148114  0.851886  1
  Lu  Lu13  1  0.851886  0.851886  0.148114  1
  B  B14  1  0.000000  0.000000  0.000000  1
  Br  Br15  1  0.325045  0.004059  0.995941  1
  Br  Br16  1  0.674955  0.995941  0.004059  1
  Br  Br17  1  0.004059  0.325045  0.674955  1
  Br  Br18  1  0.995941  0.674955  0.325045  1
  Br  Br19  1  0.004059  0.325045  0.995941  1
  Br  Br20  1  0.674955  0.995941  0.325045  1
  Br  Br21  1  0.995941  0.674955  0.004059  1
  Br  Br22  1  0.325045  0.004059  0.674955  1
  Br  Br23  1  0.000000  0.000000  0.327611  1
  Br  Br24  1  0.000000  0.000000  0.672389  1
  Br  Br25  1  0.672389  0.327611  0.000000  1
  Br  Br26  1  0.327611  0.672389  0.000000  1
  Br  Br27  1  0.683461  0.316539  0.316539  1
  Br  Br28  1  0.316539  0.683461  0.683461  1
  Br  Br29  1  0.316539  0.683461  0.316539  1
  Br  Br30  1  0.683461  0.316539  0.683461  1
  Br  Br31  1  0.312859  0.312859  0.687141  1
  Br  Br32  1  0.687141  0.687141  0.312859  1
  Br  Br33  1  0.250000  0.250000  0.250000  1
  Br  Br34  1  0.750000  0.750000  0.750000  1
