# generated using pymatgen
data_Zr7Nb3Ge6O
_symmetry_space_group_name_H-M   'P 1'
_cell_length_a   7.97652200
_cell_length_b   7.97652177
_cell_length_c   5.50024200
_cell_angle_alpha   90.00000000
_cell_angle_beta   90.00000000
_cell_angle_gamma   119.99999265
_symmetry_Int_Tables_number   1
_chemical_formula_structural   Zr7Nb3Ge6O
_chemical_formula_sum   'Zr7 Nb3 Ge6 O1'
_cell_volume   303.06765192
_cell_formula_units_Z   1
loop_
 _symmetry_equiv_pos_site_id
 _symmetry_equiv_pos_as_xyz
  1  'x, y, z'
loop_
 _atom_site_type_symbol
 _atom_site_label
 _atom_site_symmetry_multiplicity
 _atom_site_fract_x
 _atom_site_fract_y
 _atom_site_fract_z
 _atom_site_occupancy
  Zr  Zr0  1  0.999913  0.755686  0.255136  1
  Zr  Zr1  1  0.244314  0.244228  0.255136  1
  Zr  Zr2  1  0.755772  0.000087  0.255136  1
  Zr  Zr3  1  0.999913  0.244228  0.744864  1
  Zr  Zr4  1  0.755772  0.755686  0.744864  1
  Zr  Zr5  1  0.244314  0.000087  0.744864  1
  Zr  Zr6  1  0.333333  0.666667  0.000000  1
  Nb  Nb7  1  0.666667  0.333333  0.000000  1
  Nb  Nb8  1  0.666667  0.333333  0.500000  1
  Nb  Nb9  1  0.333333  0.666667  0.500000  1
  Ge  Ge10  1  0.997000  0.397287  0.248921  1
  Ge  Ge11  1  0.602713  0.599713  0.248921  1
  Ge  Ge12  1  0.400287  0.003000  0.248921  1
  Ge  Ge13  1  0.997000  0.599713  0.751079  1
  Ge  Ge14  1  0.400287  0.397287  0.751079  1
  Ge  Ge15  1  0.602713  0.003000  0.751079  1
  O  O16  1  0.000000  0.000000  0.500000  1
