# generated using pymatgen
data_Sr4Ga3IrBr2
_symmetry_space_group_name_H-M   'P 1'
_cell_length_a   4.37104700
_cell_length_b   4.37104747
_cell_length_c   17.63458300
_cell_angle_alpha   90.00000000
_cell_angle_beta   90.00000000
_cell_angle_gamma   120.00000399
_symmetry_Int_Tables_number   1
_chemical_formula_structural   Sr4Ga3IrBr2
_chemical_formula_sum   'Sr4 Ga3 Ir1 Br2'
_cell_volume   291.78758412
_cell_formula_units_Z   1
loop_
 _symmetry_equiv_pos_site_id
 _symmetry_equiv_pos_as_xyz
  1  'x, y, z'
loop_
 _atom_site_type_symbol
 _atom_site_label
 _atom_site_symmetry_multiplicity
 _atom_site_fract_x
 _atom_site_fract_y
 _atom_site_fract_z
 _atom_site_occupancy
  Sr  Sr0  1  0.000000  0.000000  0.115252  1
  Sr  Sr1  1  0.000000  0.000000  0.377176  1
  Sr  Sr2  1  0.000000  0.000000  0.622611  1
  Sr  Sr3  1  0.000000  0.000000  0.884540  1
  Ga  Ga4  1  0.333334  0.666667  0.490608  1
  Ga  Ga5  1  0.666667  0.333332  0.509496  1
  Ga  Ga6  1  0.666667  0.333332  0.999512  1
  Ir  Ir7  1  0.333334  0.666667  0.000390  1
  Br  Br8  1  0.666667  0.333332  0.252585  1
  Br  Br9  1  0.333334  0.666667  0.747831  1
