# generated using pymatgen
data_Cs6Tm(AsBr6)3
_symmetry_space_group_name_H-M   'P 1'
_cell_length_a   7.93093800
_cell_length_b   7.93093819
_cell_length_c   20.00949600
_cell_angle_alpha   90.00000000
_cell_angle_beta   90.00000000
_cell_angle_gamma   119.99999922
_symmetry_Int_Tables_number   1
_chemical_formula_structural   Cs6Tm(AsBr6)3
_chemical_formula_sum   'Cs6 Tm1 As3 Br18'
_cell_volume   1089.97341325
_cell_formula_units_Z   1
loop_
 _symmetry_equiv_pos_site_id
 _symmetry_equiv_pos_as_xyz
  1  'x, y, z'
loop_
 _atom_site_type_symbol
 _atom_site_label
 _atom_site_symmetry_multiplicity
 _atom_site_fract_x
 _atom_site_fract_y
 _atom_site_fract_z
 _atom_site_occupancy
  Cs  Cs0  1  0.333333  0.666667  0.074009  1
  Cs  Cs1  1  0.666667  0.333333  0.924973  1
  Cs  Cs2  1  0.666667  0.333333  0.574489  1
  Cs  Cs3  1  0.333333  0.666667  0.417566  1
  Cs  Cs4  1  0.000000  0.000000  0.250227  1
  Cs  Cs5  1  0.000000  0.000000  0.756311  1
  Tm  Tm6  1  0.333333  0.666667  0.840762  1
  As  As7  1  0.333333  0.666667  0.654058  1
  As  As8  1  0.666667  0.333333  0.341852  1
  As  As9  1  0.666667  0.333333  0.157786  1
  Br  Br10  1  0.176873  0.353747  0.587785  1
  Br  Br11  1  0.823480  0.646960  0.411615  1
  Br  Br12  1  0.646253  0.823127  0.587785  1
  Br  Br13  1  0.822566  0.645133  0.089807  1
  Br  Br14  1  0.353040  0.176520  0.411615  1
  Br  Br15  1  0.167510  0.335020  0.912391  1
  Br  Br16  1  0.176873  0.823127  0.587785  1
  Br  Br17  1  0.354867  0.177434  0.089807  1
  Br  Br18  1  0.823480  0.176520  0.411615  1
  Br  Br19  1  0.664980  0.832490  0.912391  1
  Br  Br20  1  0.822566  0.177434  0.089807  1
  Br  Br21  1  0.167510  0.832490  0.912391  1
  Br  Br22  1  0.506260  0.012519  0.251669  1
  Br  Br23  1  0.493426  0.986851  0.749389  1
  Br  Br24  1  0.987481  0.493740  0.251669  1
  Br  Br25  1  0.013149  0.506574  0.749389  1
  Br  Br26  1  0.506260  0.493740  0.251669  1
  Br  Br27  1  0.493426  0.506574  0.749389  1
