# generated using pymatgen
data_TbHo3GaBr6
_symmetry_space_group_name_H-M   'P 1'
_cell_length_a   4.04308400
_cell_length_b   13.32042164
_cell_length_c   14.08666572
_cell_angle_alpha   90.17418392
_cell_angle_beta   90.00000000
_cell_angle_gamma   90.00000000
_symmetry_Int_Tables_number   1
_chemical_formula_structural   TbHo3GaBr6
_chemical_formula_sum   'Tb2 Ho6 Ga2 Br12'
_cell_volume   758.64209784
_cell_formula_units_Z   2
loop_
 _symmetry_equiv_pos_site_id
 _symmetry_equiv_pos_as_xyz
  1  'x, y, z'
loop_
 _atom_site_type_symbol
 _atom_site_label
 _atom_site_symmetry_multiplicity
 _atom_site_fract_x
 _atom_site_fract_y
 _atom_site_fract_z
 _atom_site_occupancy
  Tb  Tb0  1  0.000000  0.622276  0.918876  1
  Tb  Tb1  1  0.000000  0.377724  0.081124  1
  Ho  Ho2  1  0.500000  0.118298  0.340328  1
  Ho  Ho3  1  0.500000  0.881702  0.659672  1
  Ho  Ho4  1  0.500000  0.619047  0.160487  1
  Ho  Ho5  1  0.500000  0.380953  0.839513  1
  Ho  Ho6  1  0.000000  0.120337  0.579873  1
  Ho  Ho7  1  0.000000  0.879663  0.420127  1
  Ga  Ga8  1  0.500000  0.000000  0.500000  1
  Ga  Ga9  1  0.500000  0.500000  0.000000  1
  Br  Br10  1  0.500000  0.242953  0.165338  1
  Br  Br11  1  0.500000  0.757047  0.834662  1
  Br  Br12  1  0.500000  0.745742  0.336143  1
  Br  Br13  1  0.500000  0.254258  0.663857  1
  Br  Br14  1  0.000000  0.254372  0.411069  1
  Br  Br15  1  0.000000  0.745628  0.588931  1
  Br  Br16  1  0.000000  0.755105  0.090809  1
  Br  Br17  1  0.000000  0.244895  0.909191  1
  Br  Br18  1  0.000000  0.002085  0.243754  1
  Br  Br19  1  0.000000  0.997915  0.756246  1
  Br  Br20  1  0.000000  0.504183  0.257640  1
  Br  Br21  1  0.000000  0.495817  0.742360  1
