# generated using pymatgen
data_Sr28Tl11
_symmetry_space_group_name_H-M   'P 1'
_cell_length_a   5.85696586
_cell_length_b   8.30861303
_cell_length_c   33.99467700
_cell_angle_alpha   97.01935531
_cell_angle_beta   94.94189634
_cell_angle_gamma   89.99999832
_symmetry_Int_Tables_number   1
_chemical_formula_structural   Sr28Tl11
_chemical_formula_sum   'Sr28 Tl11'
_cell_volume   1635.69653267
_cell_formula_units_Z   1
loop_
 _symmetry_equiv_pos_site_id
 _symmetry_equiv_pos_as_xyz
  1  'x, y, z'
loop_
 _atom_site_type_symbol
 _atom_site_label
 _atom_site_symmetry_multiplicity
 _atom_site_fract_x
 _atom_site_fract_y
 _atom_site_fract_z
 _atom_site_occupancy
  Sr  Sr0  1  0.824019  0.651446  0.648038  1
  Sr  Sr1  1  0.237812  0.986075  0.475626  1
  Sr  Sr2  1  0.224190  0.440241  0.448380  1
  Sr  Sr3  1  0.862981  0.072328  0.725962  1
  Sr  Sr4  1  0.137019  0.346366  0.274038  1
  Sr  Sr5  1  0.596297  0.254398  0.192594  1
  Sr  Sr6  1  0.353078  0.385884  0.706155  1
  Sr  Sr7  1  0.293871  0.359919  0.587742  1
  Sr  Sr8  1  0.762188  0.510449  0.524374  1
  Sr  Sr9  1  0.956431  0.576898  0.912863  1
  Sr  Sr10  1  0.775810  0.991862  0.551620  1
  Sr  Sr11  1  0.582842  0.716838  0.165684  1
  Sr  Sr12  1  0.706129  0.772178  0.412258  1
  Sr  Sr13  1  0.681977  0.330779  0.363953  1
  Sr  Sr14  1  0.940154  0.012359  0.880308  1
  Sr  Sr15  1  0.318023  0.966826  0.636047  1
  Sr  Sr16  1  0.117095  0.891241  0.234190  1
  Sr  Sr17  1  0.059846  0.132051  0.119692  1
  Sr  Sr18  1  0.500000  0.684409  0.000000  1
  Sr  Sr19  1  0.000000  0.005962  0.000000  1
  Sr  Sr20  1  0.043569  0.664035  0.087137  1
  Sr  Sr21  1  0.470187  0.258428  0.940374  1
  Sr  Sr22  1  0.529813  0.318054  0.059625  1
  Sr  Sr23  1  0.175981  0.003408  0.351962  1
  Sr  Sr24  1  0.646922  0.679729  0.293845  1
  Sr  Sr25  1  0.882905  0.657051  0.765810  1
  Sr  Sr26  1  0.403703  0.061805  0.807406  1
  Sr  Sr27  1  0.417158  0.551155  0.834316  1
  Tl  Tl28  1  0.090726  0.498024  0.181451  1
  Tl  Tl29  1  0.000000  0.409641  0.000000  1
  Tl  Tl30  1  0.273023  0.724458  0.546045  1
  Tl  Tl31  1  0.360961  0.795739  0.721922  1
  Tl  Tl32  1  0.639039  0.073816  0.278078  1
  Tl  Tl33  1  0.909274  0.316573  0.818549  1
  Tl  Tl34  1  0.726977  0.178413  0.453955  1
  Tl  Tl35  1  0.180102  0.603817  0.360204  1
  Tl  Tl36  1  0.543385  0.935799  0.086770  1
  Tl  Tl37  1  0.456615  0.849029  0.913230  1
  Tl  Tl38  1  0.819898  0.243613  0.639796  1
