# generated using pymatgen
data_Ho3Sc2SnSb2
_symmetry_space_group_name_H-M   'P 1'
_cell_length_a   8.75379392
_cell_length_b   8.74684291
_cell_length_c   6.16646400
_cell_angle_alpha   90.00000000
_cell_angle_beta   90.00000000
_cell_angle_gamma   119.97372291
_symmetry_Int_Tables_number   1
_chemical_formula_structural   Ho3Sc2SnSb2
_chemical_formula_sum   'Ho6 Sc4 Sn2 Sb4'
_cell_volume   409.00574765
_cell_formula_units_Z   2
loop_
 _symmetry_equiv_pos_site_id
 _symmetry_equiv_pos_as_xyz
  1  'x, y, z'
loop_
 _atom_site_type_symbol
 _atom_site_label
 _atom_site_symmetry_multiplicity
 _atom_site_fract_x
 _atom_site_fract_y
 _atom_site_fract_z
 _atom_site_occupancy
  Ho  Ho0  1  0.999430  0.757186  0.750000  1
  Ho  Ho1  1  0.999430  0.242244  0.250000  1
  Ho  Ho2  1  0.757846  0.759384  0.250000  1
  Ho  Ho3  1  0.757846  0.998462  0.750000  1
  Ho  Ho4  1  0.243080  0.242326  0.750000  1
  Ho  Ho5  1  0.243080  0.000754  0.250000  1
  Sc  Sc6  1  0.333433  0.666717  0.500000  1
  Sc  Sc7  1  0.666234  0.333117  0.000000  1
  Sc  Sc8  1  0.666234  0.333117  0.500000  1
  Sc  Sc9  1  0.333433  0.666717  0.000000  1
  Sn  Sn10  1  0.602098  0.601562  0.750000  1
  Sn  Sn11  1  0.602098  0.000536  0.250000  1
  Sb  Sb12  1  0.397626  0.999876  0.750000  1
  Sb  Sb13  1  0.397626  0.397750  0.250000  1
  Sb  Sb14  1  0.000253  0.603813  0.250000  1
  Sb  Sb15  1  0.000253  0.396440  0.750000  1
