# generated using pymatgen
data_Li3Tm8Sc8Si16Ag
_symmetry_space_group_name_H-M   'P 1'
_cell_length_a   6.81279936
_cell_length_b   7.35956020
_cell_length_c   14.00759400
_cell_angle_alpha   90.00000000
_cell_angle_beta   90.00000000
_cell_angle_gamma   89.93304276
_symmetry_Int_Tables_number   1
_chemical_formula_structural   Li3Tm8Sc8Si16Ag
_chemical_formula_sum   'Li3 Tm8 Sc8 Si16 Ag1'
_cell_volume   702.32917612
_cell_formula_units_Z   1
loop_
 _symmetry_equiv_pos_site_id
 _symmetry_equiv_pos_as_xyz
  1  'x, y, z'
loop_
 _atom_site_type_symbol
 _atom_site_label
 _atom_site_symmetry_multiplicity
 _atom_site_fract_x
 _atom_site_fract_y
 _atom_site_fract_z
 _atom_site_occupancy
  Li  Li0  1  0.840613  0.492611  0.250000  1
  Li  Li1  1  0.341035  0.008183  0.250000  1
  Li  Li2  1  0.657239  0.992602  0.750000  1
  Tm  Tm3  1  0.012161  0.181750  0.098178  1
  Tm  Tm4  1  0.988443  0.816289  0.902183  1
  Tm  Tm5  1  0.488952  0.680435  0.902618  1
  Tm  Tm6  1  0.988443  0.816289  0.597817  1
  Tm  Tm7  1  0.512182  0.317223  0.097688  1
  Tm  Tm8  1  0.012161  0.181750  0.401822  1
  Tm  Tm9  1  0.512182  0.317223  0.402312  1
  Tm  Tm10  1  0.488952  0.680435  0.597382  1
  Sc  Sc11  1  0.327229  0.178785  0.627282  1
  Sc  Sc12  1  0.670090  0.822124  0.373284  1
  Sc  Sc13  1  0.170038  0.679985  0.372718  1
  Sc  Sc14  1  0.670090  0.822124  0.126716  1
  Sc  Sc15  1  0.831812  0.322577  0.626941  1
  Sc  Sc16  1  0.327229  0.178785  0.872718  1
  Sc  Sc17  1  0.831812  0.322577  0.873059  1
  Sc  Sc18  1  0.170038  0.679985  0.127282  1
  Si  Si19  1  0.024209  0.092864  0.750000  1
  Si  Si20  1  0.970067  0.900174  0.250000  1
  Si  Si21  1  0.471269  0.600191  0.250000  1
  Si  Si22  1  0.531133  0.396742  0.750000  1
  Si  Si23  1  0.285524  0.879080  0.750000  1
  Si  Si24  1  0.716161  0.123499  0.250000  1
  Si  Si25  1  0.217418  0.377780  0.250000  1
  Si  Si26  1  0.778901  0.626077  0.750000  1
  Si  Si27  1  0.163139  0.461239  0.532097  1
  Si  Si28  1  0.839854  0.536414  0.464690  1
  Si  Si29  1  0.339374  0.962979  0.465515  1
  Si  Si30  1  0.839854  0.536414  0.035310  1
  Si  Si31  1  0.660322  0.036101  0.536028  1
  Si  Si32  1  0.163139  0.461239  0.967903  1
  Si  Si33  1  0.660322  0.036101  0.963972  1
  Si  Si34  1  0.339374  0.962979  0.034485  1
  Ag  Ag35  1  0.159235  0.518398  0.750000  1
