# generated using pymatgen
data_Dy6Tm4(SnSb)3
_symmetry_space_group_name_H-M   'P 1'
_cell_length_a   6.35833500
_cell_length_b   8.94288608
_cell_length_c   8.94286900
_cell_angle_alpha   120.00007080
_cell_angle_beta   89.99992249
_cell_angle_gamma   90.00013551
_symmetry_Int_Tables_number   1
_chemical_formula_structural   Dy6Tm4(SnSb)3
_chemical_formula_sum   'Dy6 Tm4 Sn3 Sb3'
_cell_volume   440.38071773
_cell_formula_units_Z   1
loop_
 _symmetry_equiv_pos_site_id
 _symmetry_equiv_pos_as_xyz
  1  'x, y, z'
loop_
 _atom_site_type_symbol
 _atom_site_label
 _atom_site_symmetry_multiplicity
 _atom_site_fract_x
 _atom_site_fract_y
 _atom_site_fract_z
 _atom_site_occupancy
  Dy  Dy0  1  0.749998  0.241386  0.000000  1
  Dy  Dy1  1  0.750002  0.758620  0.758609  1
  Dy  Dy2  1  0.750002  0.000012  0.241391  1
  Dy  Dy3  1  0.249998  0.758048  0.000000  1
  Dy  Dy4  1  0.250002  0.241956  0.241964  1
  Dy  Dy5  1  0.250002  0.999993  0.758036  1
  Tm  Tm6  1  0.502082  0.333333  0.666676  1
  Tm  Tm7  1  0.502082  0.666657  0.333324  1
  Tm  Tm8  1  0.997917  0.666658  0.333325  1
  Tm  Tm9  1  0.997917  0.333333  0.666675  1
  Sn  Sn10  1  0.749999  0.605676  0.000000  1
  Sn  Sn11  1  0.749999  0.394344  0.394344  1
  Sn  Sn12  1  0.749999  0.999999  0.605656  1
  Sb  Sb13  1  0.249995  0.392979  0.000000  1
  Sb  Sb14  1  0.250003  0.607013  0.607018  1
  Sb  Sb15  1  0.250003  0.999995  0.392982  1
