# generated using pymatgen
data_Pr7Er(Sc3Pb4)4
_symmetry_space_group_name_H-M   'P 1'
_cell_length_a   8.06285393
_cell_length_b   15.35026769
_cell_length_c   8.12489700
_cell_angle_alpha   89.81857867
_cell_angle_beta   90.13363111
_cell_angle_gamma   90.32462659
_symmetry_Int_Tables_number   1
_chemical_formula_structural   Pr7Er(Sc3Pb4)4
_chemical_formula_sum   'Pr7 Er1 Sc12 Pb16'
_cell_volume   1005.56997773
_cell_formula_units_Z   1
loop_
 _symmetry_equiv_pos_site_id
 _symmetry_equiv_pos_as_xyz
  1  'x, y, z'
loop_
 _atom_site_type_symbol
 _atom_site_label
 _atom_site_symmetry_multiplicity
 _atom_site_fract_x
 _atom_site_fract_y
 _atom_site_fract_z
 _atom_site_occupancy
  Pr  Pr0  1  0.480868  0.595478  0.676642  1
  Pr  Pr1  1  0.983280  0.905930  0.825426  1
  Pr  Pr2  1  0.519209  0.094939  0.325583  1
  Pr  Pr3  1  0.020308  0.405797  0.173898  1
  Pr  Pr4  1  0.518298  0.406273  0.323548  1
  Pr  Pr5  1  0.018316  0.094781  0.174990  1
  Pr  Pr6  1  0.479954  0.902882  0.675511  1
  Er  Er7  1  0.975571  0.596253  0.823921  1
  Sc  Sc8  1  0.641786  0.624734  0.154723  1
  Sc  Sc9  1  0.143193  0.872321  0.344664  1
  Sc  Sc10  1  0.356006  0.125750  0.842631  1
  Sc  Sc11  1  0.857649  0.374902  0.658103  1
  Sc  Sc12  1  0.359903  0.375708  0.844000  1
  Sc  Sc13  1  0.856225  0.125931  0.656502  1
  Sc  Sc14  1  0.645219  0.873528  0.156860  1
  Sc  Sc15  1  0.143632  0.626075  0.343242  1
  Sc  Sc16  1  0.811197  0.748972  0.492586  1
  Sc  Sc17  1  0.309618  0.748632  0.005536  1
  Sc  Sc18  1  0.189525  0.250411  0.507549  1
  Sc  Sc19  1  0.690564  0.250900  0.992944  1
  Pb  Pb20  1  0.698213  0.457462  0.950517  1
  Pb  Pb21  1  0.191423  0.044539  0.547368  1
  Pb  Pb22  1  0.310546  0.954282  0.049514  1
  Pb  Pb23  1  0.810018  0.545716  0.456297  1
  Pb  Pb24  1  0.299407  0.546682  0.042433  1
  Pb  Pb25  1  0.808608  0.954378  0.452962  1
  Pb  Pb26  1  0.690281  0.045044  0.951735  1
  Pb  Pb27  1  0.190571  0.455792  0.548835  1
  Pb  Pb28  1  0.450260  0.749031  0.362823  1
  Pb  Pb29  1  0.949991  0.749205  0.134439  1
  Pb  Pb30  1  0.550094  0.251034  0.637045  1
  Pb  Pb31  1  0.050946  0.250039  0.863562  1
  Pb  Pb32  1  0.672882  0.749215  0.851901  1
  Pb  Pb33  1  0.164931  0.747125  0.652062  1
  Pb  Pb34  1  0.331063  0.250067  0.147620  1
  Pb  Pb35  1  0.830448  0.250190  0.352028  1
