# generated using pymatgen
data_Pr4Zn8Cd3In
_symmetry_space_group_name_H-M   'P 1'
_cell_length_a   4.60362900
_cell_length_b   7.48330103
_cell_length_c   10.14171202
_cell_angle_alpha   90.02883253
_cell_angle_beta   90.00000000
_cell_angle_gamma   90.00000000
_symmetry_Int_Tables_number   1
_chemical_formula_structural   Pr4Zn8Cd3In
_chemical_formula_sum   'Pr4 Zn8 Cd3 In1'
_cell_volume   349.38539964
_cell_formula_units_Z   1
loop_
 _symmetry_equiv_pos_site_id
 _symmetry_equiv_pos_as_xyz
  1  'x, y, z'
loop_
 _atom_site_type_symbol
 _atom_site_label
 _atom_site_symmetry_multiplicity
 _atom_site_fract_x
 _atom_site_fract_y
 _atom_site_fract_z
 _atom_site_occupancy
  Pr  Pr0  1  0.250000  0.314897  0.673598  1
  Pr  Pr1  1  0.250000  0.813003  0.826587  1
  Pr  Pr2  1  0.750000  0.685425  0.325926  1
  Pr  Pr3  1  0.750000  0.187470  0.171462  1
  Zn  Zn4  1  0.250000  0.901462  0.146303  1
  Zn  Zn5  1  0.250000  0.401439  0.354628  1
  Zn  Zn6  1  0.750000  0.100382  0.856537  1
  Zn  Zn7  1  0.750000  0.597991  0.646082  1
  Zn  Zn8  1  0.250000  0.183739  0.964056  1
  Zn  Zn9  1  0.250000  0.680579  0.533977  1
  Zn  Zn10  1  0.750000  0.814552  0.035459  1
  Zn  Zn11  1  0.750000  0.315579  0.464449  1
  Cd  Cd12  1  0.250000  0.526001  0.095435  1
  Cd  Cd13  1  0.250000  0.025295  0.404749  1
  Cd  Cd14  1  0.750000  0.475034  0.903640  1
  In  In15  1  0.750000  0.977152  0.597112  1
