# generated using pymatgen
data_Tb3Y2Ho(B7W)2
_symmetry_space_group_name_H-M   'P 1'
_cell_length_a   8.20443101
_cell_length_b   8.20443264
_cell_length_c   9.50345437
_cell_angle_alpha   90.07883328
_cell_angle_beta   89.92116721
_cell_angle_gamma   155.62803040
_symmetry_Int_Tables_number   1
_chemical_formula_structural   Tb3Y2Ho(B7W)2
_chemical_formula_sum   'Tb3 Y2 Ho1 B14 W2'
_cell_volume   263.97892230
_cell_formula_units_Z   1
loop_
 _symmetry_equiv_pos_site_id
 _symmetry_equiv_pos_as_xyz
  1  'x, y, z'
loop_
 _atom_site_type_symbol
 _atom_site_label
 _atom_site_symmetry_multiplicity
 _atom_site_fract_x
 _atom_site_fract_y
 _atom_site_fract_z
 _atom_site_occupancy
  Tb  Tb0  1  0.107398  0.892602  0.560912  1
  Tb  Tb1  1  0.892641  0.107359  0.061149  1
  Tb  Tb2  1  0.107221  0.892779  0.938956  1
  Y  Y3  1  0.244752  0.755248  0.250045  1
  Y  Y4  1  0.755584  0.244416  0.749854  1
  Ho  Ho5  1  0.893157  0.106843  0.439898  1
  B  B6  1  0.728087  0.271913  0.466747  1
  B  B7  1  0.272921  0.727079  0.532425  1
  B  B8  1  0.727544  0.272456  0.032997  1
  B  B9  1  0.272425  0.727575  0.966995  1
  B  B10  1  0.634948  0.365052  0.147317  1
  B  B11  1  0.364990  0.635010  0.852914  1
  B  B12  1  0.635049  0.364951  0.352688  1
  B  B13  1  0.365176  0.634824  0.646165  1
  B  B14  1  0.519877  0.480123  0.092145  1
  B  B15  1  0.479841  0.520159  0.908115  1
  B  B16  1  0.519638  0.480362  0.408513  1
  B  B17  1  0.479662  0.520338  0.591369  1
  B  B18  1  0.456161  0.543839  0.250912  1
  B  B19  1  0.543182  0.456818  0.749826  1
  W  W20  1  0.053317  0.946683  0.250260  1
  W  W21  1  0.946428  0.053572  0.749801  1
