# generated using pymatgen
data_Tb17Y3Cd3Hg3Ru2
_symmetry_space_group_name_H-M   'P 1'
_cell_length_a   9.64905406
_cell_length_b   9.64678931
_cell_length_c   9.83673700
_cell_angle_alpha   90.00000000
_cell_angle_beta   90.00000000
_cell_angle_gamma   119.99550069
_symmetry_Int_Tables_number   1
_chemical_formula_structural   Tb17Y3Cd3Hg3Ru2
_chemical_formula_sum   'Tb17 Y3 Cd3 Hg3 Ru2'
_cell_volume   792.99219545
_cell_formula_units_Z   1
loop_
 _symmetry_equiv_pos_site_id
 _symmetry_equiv_pos_as_xyz
  1  'x, y, z'
loop_
 _atom_site_type_symbol
 _atom_site_label
 _atom_site_symmetry_multiplicity
 _atom_site_fract_x
 _atom_site_fract_y
 _atom_site_fract_z
 _atom_site_occupancy
  Tb  Tb0  1  0.000002  0.000001  0.491284  1
  Tb  Tb1  1  0.000002  0.000001  0.008716  1
  Tb  Tb2  1  0.209396  0.790586  0.439311  1
  Tb  Tb3  1  0.209396  0.418811  0.439310  1
  Tb  Tb4  1  0.581195  0.790598  0.439317  1
  Tb  Tb5  1  0.790286  0.209729  0.559753  1
  Tb  Tb6  1  0.790287  0.580556  0.559751  1
  Tb  Tb7  1  0.419446  0.209722  0.559757  1
  Tb  Tb8  1  0.790286  0.209729  0.940247  1
  Tb  Tb9  1  0.790287  0.580556  0.940249  1
  Tb  Tb10  1  0.419446  0.209722  0.940243  1
  Tb  Tb11  1  0.209396  0.790586  0.060689  1
  Tb  Tb12  1  0.209396  0.418811  0.060690  1
  Tb  Tb13  1  0.581195  0.790598  0.060683  1
  Tb  Tb14  1  0.541294  0.458727  0.250000  1
  Tb  Tb15  1  0.541294  0.082567  0.250000  1
  Tb  Tb16  1  0.917444  0.458722  0.250000  1
  Y  Y17  1  0.458732  0.541219  0.750000  1
  Y  Y18  1  0.458733  0.917517  0.750000  1
  Y  Y19  1  0.082497  0.541250  0.750000  1
  Cd  Cd20  1  0.113295  0.886724  0.750000  1
  Cd  Cd21  1  0.113295  0.226571  0.750000  1
  Cd  Cd22  1  0.773451  0.886725  0.750000  1
  Hg  Hg23  1  0.879811  0.120199  0.250000  1
  Hg  Hg24  1  0.879813  0.759613  0.250000  1
  Hg  Hg25  1  0.240364  0.120181  0.250000  1
  Ru  Ru26  1  0.333277  0.666644  0.250000  1
  Ru  Ru27  1  0.666682  0.333338  0.750000  1
