# generated using pymatgen
data_Hf8V12Si15P
_symmetry_space_group_name_H-M   'P 1'
_cell_length_a   6.59377737
_cell_length_b   6.59004663
_cell_length_c   12.19026514
_cell_angle_alpha   89.98668969
_cell_angle_beta   89.97002037
_cell_angle_gamma   90.03151986
_symmetry_Int_Tables_number   1
_chemical_formula_structural   Hf8V12Si15P
_chemical_formula_sum   'Hf8 V12 Si15 P1'
_cell_volume   529.70708551
_cell_formula_units_Z   1
loop_
 _symmetry_equiv_pos_site_id
 _symmetry_equiv_pos_as_xyz
  1  'x, y, z'
loop_
 _atom_site_type_symbol
 _atom_site_label
 _atom_site_symmetry_multiplicity
 _atom_site_fract_x
 _atom_site_fract_y
 _atom_site_fract_z
 _atom_site_occupancy
  Hf  Hf0  1  0.004233  0.664177  0.029933  1
  Hf  Hf1  1  0.838148  0.502371  0.279869  1
  Hf  Hf2  1  0.161016  0.496942  0.779637  1
  Hf  Hf3  1  0.502621  0.838405  0.720566  1
  Hf  Hf4  1  0.495285  0.159881  0.218717  1
  Hf  Hf5  1  0.997515  0.338180  0.529894  1
  Hf  Hf6  1  0.658593  0.002071  0.970826  1
  Hf  Hf7  1  0.337866  0.997766  0.470054  1
  V  V8  1  0.332952  0.330166  0.000776  1
  V  V9  1  0.167904  0.835449  0.247670  1
  V  V10  1  0.833489  0.166459  0.750058  1
  V  V11  1  0.666334  0.666012  0.499726  1
  V  V12  1  0.007535  0.156677  0.125606  1
  V  V13  1  0.340593  0.503284  0.376948  1
  V  V14  1  0.660949  0.496825  0.877028  1
  V  V15  1  0.502724  0.340353  0.623148  1
  V  V16  1  0.493527  0.665125  0.122401  1
  V  V17  1  0.996831  0.840655  0.627121  1
  V  V18  1  0.162126  0.001872  0.877039  1
  V  V19  1  0.840432  0.996685  0.373312  1
  Si  Si20  1  0.539415  0.790838  0.314914  1
  Si  Si21  1  0.461409  0.209862  0.814459  1
  Si  Si22  1  0.790576  0.539593  0.685258  1
  Si  Si23  1  0.209091  0.460888  0.185554  1
  Si  Si24  1  0.709186  0.038907  0.564620  1
  Si  Si25  1  0.959674  0.291353  0.935348  1
  Si  Si26  1  0.039539  0.709477  0.434771  1
  Si  Si27  1  0.705296  0.374284  0.071773  1
  Si  Si28  1  0.126542  0.205927  0.321231  1
  Si  Si29  1  0.873491  0.795879  0.821739  1
  Si  Si30  1  0.204748  0.126408  0.679591  1
  Si  Si31  1  0.794300  0.873413  0.179193  1
  Si  Si32  1  0.294232  0.627285  0.571232  1
  Si  Si33  1  0.374400  0.701559  0.927323  1
  Si  Si34  1  0.626695  0.294010  0.428351  1
  P  P35  1  0.290733  0.960963  0.064315  1
