# generated using pymatgen
data_Be4VMo
_symmetry_space_group_name_H-M   'P 1'
_cell_length_a   4.41506300
_cell_length_b   4.41506213
_cell_length_c   7.15858700
_cell_angle_alpha   90.00000000
_cell_angle_beta   90.00000000
_cell_angle_gamma   119.99999904
_symmetry_Int_Tables_number   1
_chemical_formula_structural   Be4VMo
_chemical_formula_sum   'Be8 V2 Mo2'
_cell_volume   120.84582968
_cell_formula_units_Z   2
loop_
 _symmetry_equiv_pos_site_id
 _symmetry_equiv_pos_as_xyz
  1  'x, y, z'
loop_
 _atom_site_type_symbol
 _atom_site_label
 _atom_site_symmetry_multiplicity
 _atom_site_fract_x
 _atom_site_fract_y
 _atom_site_fract_z
 _atom_site_occupancy
  Be  Be0  1  0.000000  0.000000  0.000436  1
  Be  Be1  1  0.000000  0.000000  0.500436  1
  Be  Be2  1  0.829264  0.658528  0.249937  1
  Be  Be3  1  0.170736  0.829264  0.749937  1
  Be  Be4  1  0.658528  0.829264  0.749937  1
  Be  Be5  1  0.341472  0.170736  0.249937  1
  Be  Be6  1  0.829264  0.170736  0.249937  1
  Be  Be7  1  0.170736  0.341472  0.749937  1
  V  V8  1  0.666667  0.333333  0.934874  1
  V  V9  1  0.333333  0.666667  0.434874  1
  Mo  Mo10  1  0.333333  0.666667  0.064879  1
  Mo  Mo11  1  0.666667  0.333333  0.564879  1
