# generated using pymatgen
data_HoMg3P7N12
_symmetry_space_group_name_H-M   'P 1'
_cell_length_a   7.32200549
_cell_length_b   7.32200531
_cell_length_c   7.32200480
_cell_angle_alpha   109.51134288
_cell_angle_beta   109.51134042
_cell_angle_gamma   109.51132571
_symmetry_Int_Tables_number   1
_chemical_formula_structural   HoMg3P7N12
_chemical_formula_sum   'Ho1 Mg3 P7 N12'
_cell_volume   301.73208503
_cell_formula_units_Z   1
loop_
 _symmetry_equiv_pos_site_id
 _symmetry_equiv_pos_as_xyz
  1  'x, y, z'
loop_
 _atom_site_type_symbol
 _atom_site_label
 _atom_site_symmetry_multiplicity
 _atom_site_fract_x
 _atom_site_fract_y
 _atom_site_fract_z
 _atom_site_occupancy
  Ho  Ho0  1  0.332839  0.332839  0.332839  1
  Mg  Mg1  1  0.001985  0.654985  0.001985  1
  Mg  Mg2  1  0.654985  0.001985  0.001985  1
  Mg  Mg3  1  0.001985  0.001985  0.654985  1
  P  P4  1  0.504057  0.251023  0.755716  1
  P  P5  1  0.504057  0.755716  0.251023  1
  P  P6  1  0.755716  0.251023  0.504057  1
  P  P7  1  0.251023  0.504057  0.755716  1
  P  P8  1  0.755716  0.504057  0.251023  1
  P  P9  1  0.251023  0.755716  0.504057  1
  P  P10  1  0.972941  0.972941  0.972941  1
  N  N11  1  0.002033  0.726388  0.432484  1
  N  N12  1  0.281392  0.704781  0.281392  1
  N  N13  1  0.281148  0.571575  0.571575  1
  N  N14  1  0.571575  0.571575  0.281148  1
  N  N15  1  0.571575  0.281148  0.571575  1
  N  N16  1  0.726388  0.002033  0.432484  1
  N  N17  1  0.432484  0.002033  0.726388  1
  N  N18  1  0.726388  0.432484  0.002033  1
  N  N19  1  0.281392  0.281392  0.704781  1
  N  N20  1  0.704781  0.281392  0.281392  1
  N  N21  1  0.002033  0.432484  0.726388  1
  N  N22  1  0.432484  0.726388  0.002033  1
