# generated using pymatgen
data_Ba6Tm3Pu2ScO18
_symmetry_space_group_name_H-M   'P 1'
_cell_length_a   6.15417873
_cell_length_b   8.69934606
_cell_length_c   10.65719000
_cell_angle_alpha   65.91109625
_cell_angle_beta   73.21726460
_cell_angle_gamma   90.00038368
_symmetry_Int_Tables_number   1
_chemical_formula_structural   Ba6Tm3Pu2ScO18
_chemical_formula_sum   'Ba6 Tm3 Pu2 Sc1 O18'
_cell_volume   494.12924900
_cell_formula_units_Z   1
loop_
 _symmetry_equiv_pos_site_id
 _symmetry_equiv_pos_as_xyz
  1  'x, y, z'
loop_
 _atom_site_type_symbol
 _atom_site_label
 _atom_site_symmetry_multiplicity
 _atom_site_fract_x
 _atom_site_fract_y
 _atom_site_fract_z
 _atom_site_occupancy
  Ba  Ba0  1  0.499975  0.272103  0.999977  1
  Ba  Ba1  1  0.843596  0.579965  0.313608  1
  Ba  Ba2  1  0.156506  0.893553  0.686404  1
  Ba  Ba3  1  0.500025  0.727897  0.000023  1
  Ba  Ba4  1  0.843494  0.106447  0.313596  1
  Ba  Ba5  1  0.156404  0.420035  0.686392  1
  Tm  Tm6  1  0.000001  0.000000  0.000000  1
  Tm  Tm7  1  0.333244  0.334409  0.331153  1
  Tm  Tm8  1  0.666756  0.665592  0.668846  1
  Pu  Pu9  1  0.333500  0.833420  0.333132  1
  Pu  Pu10  1  0.666499  0.166580  0.666869  1
  Sc  Sc11  1  0.999999  0.500000  0.000000  1
  O  O12  1  0.999974  0.252092  0.999982  1
  O  O13  1  0.332962  0.591290  0.334696  1
  O  O14  1  0.667039  0.926012  0.665278  1
  O  O15  1  0.162807  0.415989  0.168047  1
  O  O16  1  0.489826  0.755108  0.489723  1
  O  O17  1  0.826553  0.088014  0.823891  1
  O  O18  1  0.330886  0.584570  0.830913  1
  O  O19  1  0.654786  0.912934  0.174071  1
  O  O20  1  0.984555  0.245918  0.508235  1
  O  O21  1  0.000026  0.747908  0.000019  1
  O  O22  1  0.332962  0.073988  0.334721  1
  O  O23  1  0.667038  0.408710  0.665304  1
  O  O24  1  0.837193  0.584011  0.831953  1
  O  O25  1  0.173447  0.911986  0.176109  1
  O  O26  1  0.510174  0.244892  0.510277  1
  O  O27  1  0.669114  0.415430  0.169087  1
  O  O28  1  0.015445  0.754082  0.491765  1
  O  O29  1  0.345214  0.087066  0.825929  1
