# generated using pymatgen
data_Ac2Pr2As7Ir8
_symmetry_space_group_name_H-M   'P 1'
_cell_length_a   4.16517700
_cell_length_b   13.42066106
_cell_length_c   13.74250481
_cell_angle_alpha   81.76526042
_cell_angle_beta   90.00000000
_cell_angle_gamma   90.00000000
_symmetry_Int_Tables_number   1
_chemical_formula_structural   Ac2Pr2As7Ir8
_chemical_formula_sum   'Ac4 Pr4 As14 Ir16'
_cell_volume   760.27771532
_cell_formula_units_Z   2
loop_
 _symmetry_equiv_pos_site_id
 _symmetry_equiv_pos_as_xyz
  1  'x, y, z'
loop_
 _atom_site_type_symbol
 _atom_site_label
 _atom_site_symmetry_multiplicity
 _atom_site_fract_x
 _atom_site_fract_y
 _atom_site_fract_z
 _atom_site_occupancy
  Ac  Ac0  1  0.250000  0.102949  0.789832  1
  Ac  Ac1  1  0.750000  0.897051  0.210168  1
  Ac  Ac2  1  0.250000  0.286427  0.105285  1
  Ac  Ac3  1  0.750000  0.713573  0.894715  1
  Pr  Pr4  1  0.250000  0.518824  0.294390  1
  Pr  Pr5  1  0.750000  0.481176  0.705610  1
  Pr  Pr6  1  0.250000  0.207791  0.440985  1
  Pr  Pr7  1  0.750000  0.792209  0.559015  1
  As  As8  1  0.250000  0.057468  0.098741  1
  As  As9  1  0.750000  0.942532  0.901259  1
  As  As10  1  0.250000  0.316252  0.684986  1
  As  As11  1  0.750000  0.683748  0.315014  1
  As  As12  1  0.250000  0.606717  0.565887  1
  As  As13  1  0.750000  0.393283  0.434113  1
  As  As14  1  0.250000  0.845872  0.717483  1
  As  As15  1  0.750000  0.154128  0.282517  1
  As  As16  1  0.750000  0.256954  0.916001  1
  As  As17  1  0.250000  0.743046  0.083999  1
  As  As18  1  0.750000  0.094781  0.586380  1
  As  As19  1  0.250000  0.905219  0.413620  1
  As  As20  1  0.750000  0.473764  0.128486  1
  As  As21  1  0.250000  0.526236  0.871514  1
  Ir  Ir22  1  0.250000  0.988531  0.573888  1
  Ir  Ir23  1  0.750000  0.011469  0.426112  1
  Ir  Ir24  1  0.250000  0.663027  0.731763  1
  Ir  Ir25  1  0.750000  0.336973  0.268237  1
  Ir  Ir26  1  0.250000  0.552092  0.048373  1
  Ir  Ir27  1  0.750000  0.447908  0.951627  1
  Ir  Ir28  1  0.250000  0.057361  0.279673  1
  Ir  Ir29  1  0.750000  0.942639  0.720327  1
  Ir  Ir30  1  0.250000  0.426064  0.524402  1
  Ir  Ir31  1  0.750000  0.573936  0.475598  1
  Ir  Ir32  1  0.250000  0.919318  0.998292  1
  Ir  Ir33  1  0.750000  0.080682  0.001708  1
  Ir  Ir34  1  0.250000  0.721459  0.402317  1
  Ir  Ir35  1  0.750000  0.278541  0.597683  1
  Ir  Ir36  1  0.250000  0.344867  0.859334  1
  Ir  Ir37  1  0.750000  0.655133  0.140666  1
