# generated using pymatgen
data_SmTm2Pa(ReB6)2
_symmetry_space_group_name_H-M   'P 1'
_cell_length_a   3.69957400
_cell_length_b   9.15846115
_cell_length_c   11.55280014
_cell_angle_alpha   90.29548007
_cell_angle_beta   90.00000000
_cell_angle_gamma   90.00000000
_symmetry_Int_Tables_number   1
_chemical_formula_structural   SmTm2Pa(ReB6)2
_chemical_formula_sum   'Sm2 Tm4 Pa2 Re4 B24'
_cell_volume   391.43144507
_cell_formula_units_Z   2
loop_
 _symmetry_equiv_pos_site_id
 _symmetry_equiv_pos_as_xyz
  1  'x, y, z'
loop_
 _atom_site_type_symbol
 _atom_site_label
 _atom_site_symmetry_multiplicity
 _atom_site_fract_x
 _atom_site_fract_y
 _atom_site_fract_z
 _atom_site_occupancy
  Sm  Sm0  1  0.000000  0.823260  0.085917  1
  Sm  Sm1  1  0.000000  0.176740  0.914083  1
  Tm  Tm2  1  0.000000  0.944841  0.372992  1
  Tm  Tm3  1  0.000000  0.055159  0.627008  1
  Tm  Tm4  1  0.000000  0.444012  0.127068  1
  Tm  Tm5  1  0.000000  0.555988  0.872932  1
  Pa  Pa6  1  0.000000  0.321142  0.413459  1
  Pa  Pa7  1  0.000000  0.678858  0.586541  1
  Re  Re8  1  0.000000  0.635009  0.324814  1
  Re  Re9  1  0.000000  0.364991  0.675186  1
  Re  Re10  1  0.000000  0.142035  0.183652  1
  Re  Re11  1  0.000000  0.857965  0.816348  1
  B  B12  1  0.500000  0.553638  0.432979  1
  B  B13  1  0.500000  0.446362  0.567021  1
  B  B14  1  0.500000  0.054600  0.068817  1
  B  B15  1  0.500000  0.945400  0.931183  1
  B  B16  1  0.500000  0.749019  0.419735  1
  B  B17  1  0.500000  0.250981  0.580265  1
  B  B18  1  0.500000  0.249711  0.081891  1
  B  B19  1  0.500000  0.750289  0.918109  1
  B  B20  1  0.500000  0.791265  0.266749  1
  B  B21  1  0.500000  0.208735  0.733251  1
  B  B22  1  0.500000  0.292679  0.234686  1
  B  B23  1  0.500000  0.707321  0.765314  1
  B  B24  1  0.500000  0.629937  0.186042  1
  B  B25  1  0.500000  0.370063  0.813958  1
  B  B26  1  0.500000  0.131998  0.315189  1
  B  B27  1  0.500000  0.868002  0.684811  1
  B  B28  1  0.500000  0.983111  0.213868  1
  B  B29  1  0.500000  0.016889  0.786132  1
  B  B30  1  0.500000  0.482404  0.286875  1
  B  B31  1  0.500000  0.517596  0.713125  1
  B  B32  1  0.500000  0.600860  0.028203  1
  B  B33  1  0.500000  0.399140  0.971797  1
  B  B34  1  0.500000  0.108092  0.470303  1
  B  B35  1  0.500000  0.891908  0.529697  1
