# generated using pymatgen
data_Te12AsIrBr6
_symmetry_space_group_name_H-M   'P 1'
_cell_length_a   9.54943001
_cell_length_b   9.54943023
_cell_length_c   9.54943068
_cell_angle_alpha   108.64033271
_cell_angle_beta   108.64033887
_cell_angle_gamma   108.64032539
_symmetry_Int_Tables_number   1
_chemical_formula_structural   Te12AsIrBr6
_chemical_formula_sum   'Te12 As1 Ir1 Br6'
_cell_volume   690.21576491
_cell_formula_units_Z   1
loop_
 _symmetry_equiv_pos_site_id
 _symmetry_equiv_pos_as_xyz
  1  'x, y, z'
loop_
 _atom_site_type_symbol
 _atom_site_label
 _atom_site_symmetry_multiplicity
 _atom_site_fract_x
 _atom_site_fract_y
 _atom_site_fract_z
 _atom_site_occupancy
  Te  Te0  1  0.905744  0.164800  0.186769  1
  Te  Te1  1  0.186769  0.905744  0.164800  1
  Te  Te2  1  0.164800  0.186769  0.905744  1
  Te  Te3  1  0.679779  0.668707  0.428648  1
  Te  Te4  1  0.428648  0.679779  0.668707  1
  Te  Te5  1  0.668707  0.428648  0.679779  1
  Te  Te6  1  0.071352  0.831293  0.820221  1
  Te  Te7  1  0.820221  0.071352  0.831293  1
  Te  Te8  1  0.831293  0.820221  0.071352  1
  Te  Te9  1  0.313231  0.335200  0.594256  1
  Te  Te10  1  0.594256  0.313231  0.335200  1
  Te  Te11  1  0.335200  0.594256  0.313231  1
  As  As12  1  0.250000  0.250000  0.250000  1
  Ir  Ir13  1  0.750000  0.750000  0.750000  1
  Br  Br14  1  0.985294  0.514706  0.250000  1
  Br  Br15  1  0.250000  0.985294  0.514706  1
  Br  Br16  1  0.514706  0.250000  0.985294  1
  Br  Br17  1  0.750000  0.013629  0.486371  1
  Br  Br18  1  0.486371  0.750000  0.013629  1
  Br  Br19  1  0.013629  0.486371  0.750000  1
