# generated using pymatgen
data_Pr11In9CuRu3
_symmetry_space_group_name_H-M   'P 1'
_cell_length_a   13.42192125
_cell_length_b   13.47042810
_cell_length_c   3.88135500
_cell_angle_alpha   90.00000000
_cell_angle_beta   90.00000000
_cell_angle_gamma   111.89536088
_symmetry_Int_Tables_number   1
_chemical_formula_structural   Pr11In9CuRu3
_chemical_formula_sum   'Pr11 In9 Cu1 Ru3'
_cell_volume   651.12582825
_cell_formula_units_Z   1
loop_
 _symmetry_equiv_pos_site_id
 _symmetry_equiv_pos_as_xyz
  1  'x, y, z'
loop_
 _atom_site_type_symbol
 _atom_site_label
 _atom_site_symmetry_multiplicity
 _atom_site_fract_x
 _atom_site_fract_y
 _atom_site_fract_z
 _atom_site_occupancy
  Pr  Pr0  1  0.499681  0.500614  0.500000  1
  Pr  Pr1  1  0.819397  0.806689  0.500000  1
  Pr  Pr2  1  0.186648  0.186947  0.500000  1
  Pr  Pr3  1  0.571272  0.917618  0.500000  1
  Pr  Pr4  1  0.418610  0.079717  0.500000  1
  Pr  Pr5  1  0.920148  0.578855  0.500000  1
  Pr  Pr6  1  0.081073  0.420742  0.500000  1
  Pr  Pr7  1  0.127703  0.876065  0.500000  1
  Pr  Pr8  1  0.879328  0.134259  0.500000  1
  Pr  Pr9  1  0.339554  0.661033  0.500000  1
  Pr  Pr10  1  0.660008  0.339324  0.500000  1
  In  In11  1  0.338277  0.868124  0.000000  1
  In  In12  1  0.659733  0.131500  0.000000  1
  In  In13  1  0.866161  0.336161  0.000000  1
  In  In14  1  0.135352  0.663683  0.000000  1
  In  In15  1  0.576755  0.720245  0.000000  1
  In  In16  1  0.420462  0.278975  0.000000  1
  In  In17  1  0.721593  0.579574  0.000000  1
  In  In18  1  0.279262  0.420562  0.000000  1
  In  In19  1  0.998000  0.001382  0.000000  1
  Cu  Cu20  1  0.749545  0.948754  0.000000  1
  Ru  Ru21  1  0.250147  0.052117  0.000000  1
  Ru  Ru22  1  0.948272  0.743762  0.000000  1
  Ru  Ru23  1  0.053016  0.253297  0.000000  1
