# generated using pymatgen
data_NaSr20Ag11
_symmetry_space_group_name_H-M   'P 1'
_cell_length_a   8.66984900
_cell_length_b   8.66984900
_cell_length_c   16.03924200
_cell_angle_alpha   90.00000000
_cell_angle_beta   90.00000000
_cell_angle_gamma   90.00000000
_symmetry_Int_Tables_number   1
_chemical_formula_structural   NaSr20Ag11
_chemical_formula_sum   'Na1 Sr20 Ag11'
_cell_volume   1205.61018215
_cell_formula_units_Z   1
loop_
 _symmetry_equiv_pos_site_id
 _symmetry_equiv_pos_as_xyz
  1  'x, y, z'
loop_
 _atom_site_type_symbol
 _atom_site_label
 _atom_site_symmetry_multiplicity
 _atom_site_fract_x
 _atom_site_fract_y
 _atom_site_fract_z
 _atom_site_occupancy
  Na  Na0  1  0.000000  0.000000  0.000000  1
  Sr  Sr1  1  0.657114  0.181946  0.112883  1
  Sr  Sr2  1  0.167088  0.671349  0.605776  1
  Sr  Sr3  1  0.342886  0.818054  0.112883  1
  Sr  Sr4  1  0.832912  0.328651  0.605776  1
  Sr  Sr5  1  0.818054  0.657114  0.112883  1
  Sr  Sr6  1  0.328651  0.167088  0.605776  1
  Sr  Sr7  1  0.181946  0.342886  0.112883  1
  Sr  Sr8  1  0.671349  0.832912  0.605776  1
  Sr  Sr9  1  0.818054  0.342886  0.887117  1
  Sr  Sr10  1  0.328651  0.832912  0.394224  1
  Sr  Sr11  1  0.181946  0.657114  0.887117  1
  Sr  Sr12  1  0.671349  0.167088  0.394224  1
  Sr  Sr13  1  0.657114  0.818054  0.887117  1
  Sr  Sr14  1  0.167088  0.328651  0.394224  1
  Sr  Sr15  1  0.342886  0.181946  0.887117  1
  Sr  Sr16  1  0.832912  0.671349  0.394224  1
  Sr  Sr17  1  0.500000  0.500000  0.737796  1
  Sr  Sr18  1  0.000000  0.000000  0.252751  1
  Sr  Sr19  1  0.000000  0.000000  0.747249  1
  Sr  Sr20  1  0.500000  0.500000  0.262204  1
  Ag  Ag21  1  0.500000  0.500000  0.500000  1
  Ag  Ag22  1  0.500000  0.500000  0.000000  1
  Ag  Ag23  1  0.000000  0.000000  0.500000  1
  Ag  Ag24  1  0.621140  0.119893  0.746997  1
  Ag  Ag25  1  0.119893  0.621140  0.253003  1
  Ag  Ag26  1  0.880107  0.378860  0.253003  1
  Ag  Ag27  1  0.378860  0.880107  0.746997  1
  Ag  Ag28  1  0.880107  0.621140  0.746997  1
  Ag  Ag29  1  0.378860  0.119893  0.253003  1
  Ag  Ag30  1  0.119893  0.378860  0.746997  1
  Ag  Ag31  1  0.621140  0.880107  0.253003  1
