# generated using pymatgen
data_Nd4Ga18PtRh5
_symmetry_space_group_name_H-M   'P 1'
_cell_length_a   7.66375589
_cell_length_b   7.66375598
_cell_length_c   9.63644355
_cell_angle_alpha   90.01932322
_cell_angle_beta   90.01932143
_cell_angle_gamma   119.67094156
_symmetry_Int_Tables_number   1
_chemical_formula_structural   Nd4Ga18PtRh5
_chemical_formula_sum   'Nd4 Ga18 Pt1 Rh5'
_cell_volume   491.76900848
_cell_formula_units_Z   1
loop_
 _symmetry_equiv_pos_site_id
 _symmetry_equiv_pos_as_xyz
  1  'x, y, z'
loop_
 _atom_site_type_symbol
 _atom_site_label
 _atom_site_symmetry_multiplicity
 _atom_site_fract_x
 _atom_site_fract_y
 _atom_site_fract_z
 _atom_site_occupancy
  Nd  Nd0  1  0.997741  0.668966  0.250122  1
  Nd  Nd1  1  0.002259  0.331034  0.749878  1
  Nd  Nd2  1  0.668966  0.997741  0.250122  1
  Nd  Nd3  1  0.331034  0.002259  0.749878  1
  Ga  Ga4  1  0.129119  0.129119  0.252105  1
  Ga  Ga5  1  0.870881  0.870881  0.747895  1
  Ga  Ga6  1  0.002437  0.337380  0.078322  1
  Ga  Ga7  1  0.997563  0.662620  0.921678  1
  Ga  Ga8  1  0.997204  0.665039  0.577415  1
  Ga  Ga9  1  0.334961  0.002796  0.422585  1
  Ga  Ga10  1  0.002796  0.334961  0.422585  1
  Ga  Ga11  1  0.665039  0.997204  0.577415  1
  Ga  Ga12  1  0.662620  0.997563  0.921678  1
  Ga  Ga13  1  0.337380  0.002437  0.078322  1
  Ga  Ga14  1  0.333746  0.333746  0.561191  1
  Ga  Ga15  1  0.666254  0.666254  0.438809  1
  Ga  Ga16  1  0.663029  0.663029  0.061905  1
  Ga  Ga17  1  0.336971  0.336971  0.938095  1
  Ga  Ga18  1  0.338349  0.545641  0.249981  1
  Ga  Ga19  1  0.661651  0.454359  0.750019  1
  Ga  Ga20  1  0.545641  0.338349  0.249981  1
  Ga  Ga21  1  0.454359  0.661651  0.750019  1
  Pt  Pt22  1  0.000000  0.000000  0.000000  1
  Rh  Rh23  1  0.670709  0.329291  0.000000  1
  Rh  Rh24  1  0.329291  0.670709  0.000000  1
  Rh  Rh25  1  0.329237  0.670763  0.500000  1
  Rh  Rh26  1  0.670763  0.329237  0.500000  1
  Rh  Rh27  1  0.000000  0.000000  0.500000  1
