# generated using pymatgen
data_CePr2NdHf4O14
_symmetry_space_group_name_H-M   'P 1'
_cell_length_a   7.58863744
_cell_length_b   7.58486539
_cell_length_c   7.58863795
_cell_angle_alpha   60.11199864
_cell_angle_beta   60.20146546
_cell_angle_gamma   60.11199924
_symmetry_Int_Tables_number   1
_chemical_formula_structural   CePr2NdHf4O14
_chemical_formula_sum   'Ce1 Pr2 Nd1 Hf4 O14'
_cell_volume   309.85090667
_cell_formula_units_Z   1
loop_
 _symmetry_equiv_pos_site_id
 _symmetry_equiv_pos_as_xyz
  1  'x, y, z'
loop_
 _atom_site_type_symbol
 _atom_site_label
 _atom_site_symmetry_multiplicity
 _atom_site_fract_x
 _atom_site_fract_y
 _atom_site_fract_z
 _atom_site_occupancy
  Ce  Ce0  1  0.125000  0.125000  0.125000  1
  Pr  Pr1  1  0.625000  0.125000  0.125000  1
  Pr  Pr2  1  0.125000  0.125000  0.625000  1
  Nd  Nd3  1  0.125000  0.625000  0.125000  1
  Hf  Hf4  1  0.125000  0.625000  0.625000  1
  Hf  Hf5  1  0.625000  0.125000  0.625000  1
  Hf  Hf6  1  0.625000  0.625000  0.125000  1
  Hf  Hf7  1  0.625000  0.625000  0.625000  1
  O  O8  1  0.707438  0.706579  0.293389  1
  O  O9  1  0.294014  0.293845  0.705501  1
  O  O10  1  0.706805  0.293624  0.706805  1
  O  O11  1  0.293483  0.705928  0.293483  1
  O  O12  1  0.293389  0.706579  0.707438  1
  O  O13  1  0.705501  0.293845  0.294014  1
  O  O14  1  0.542562  0.543421  0.956611  1
  O  O15  1  0.955986  0.956155  0.544499  1
  O  O16  1  0.543195  0.956376  0.543195  1
  O  O17  1  0.956517  0.544072  0.956517  1
  O  O18  1  0.956611  0.543421  0.542562  1
  O  O19  1  0.544499  0.956155  0.955986  1
  O  O20  1  0.248102  0.251008  0.248102  1
  O  O21  1  0.001898  0.998992  0.001898  1
