# generated using pymatgen
data_BaNa3(PPt)4
_symmetry_space_group_name_H-M   'P 1'
_cell_length_a   6.39731348
_cell_length_b   6.39731348
_cell_length_c   6.39731348
_cell_angle_alpha   89.86815975
_cell_angle_beta   90.13184025
_cell_angle_gamma   89.86815975
_symmetry_Int_Tables_number   1
_chemical_formula_structural   BaNa3(PPt)4
_chemical_formula_sum   'Ba1 Na3 P4 Pt4'
_cell_volume   261.81193614
_cell_formula_units_Z   1
loop_
 _symmetry_equiv_pos_site_id
 _symmetry_equiv_pos_as_xyz
  1  'x, y, z'
loop_
 _atom_site_type_symbol
 _atom_site_label
 _atom_site_symmetry_multiplicity
 _atom_site_fract_x
 _atom_site_fract_y
 _atom_site_fract_z
 _atom_site_occupancy
  Ba  Ba0  1  0.870066  0.629934  0.370066  1
  Na  Na1  1  0.632847  0.356986  0.864360  1
  Na  Na2  1  0.364360  0.867153  0.643014  1
  Na  Na3  1  0.143014  0.135640  0.132847  1
  P  P4  1  0.578682  0.921318  0.078682  1
  P  P5  1  0.085751  0.588072  0.909409  1
  P  P6  1  0.911928  0.090591  0.585751  1
  P  P7  1  0.409409  0.414249  0.411928  1
  Pt  Pt8  1  0.159848  0.340152  0.659848  1
  Pt  Pt9  1  0.647838  0.150839  0.347096  1
  Pt  Pt10  1  0.847096  0.852162  0.849161  1
  Pt  Pt11  1  0.349161  0.652904  0.147838  1
