# generated using pymatgen
data_Tb2Nd17ErSn16
_symmetry_space_group_name_H-M   'P 1'
_cell_length_a   8.26478000
_cell_length_b   8.41328309
_cell_length_c   15.95887400
_cell_angle_alpha   90.00000000
_cell_angle_beta   90.00000000
_cell_angle_gamma   89.97244020
_symmetry_Int_Tables_number   1
_chemical_formula_structural   Tb2Nd17ErSn16
_chemical_formula_sum   'Tb2 Nd17 Er1 Sn16'
_cell_volume   1109.68316045
_cell_formula_units_Z   1
loop_
 _symmetry_equiv_pos_site_id
 _symmetry_equiv_pos_as_xyz
  1  'x, y, z'
loop_
 _atom_site_type_symbol
 _atom_site_label
 _atom_site_symmetry_multiplicity
 _atom_site_fract_x
 _atom_site_fract_y
 _atom_site_fract_z
 _atom_site_occupancy
  Tb  Tb0  1  0.199378  0.502165  0.250000  1
  Tb  Tb1  1  0.699560  0.998070  0.250000  1
  Nd  Nd2  1  0.017590  0.181130  0.401098  1
  Nd  Nd3  1  0.368217  0.837112  0.120686  1
  Nd  Nd4  1  0.132540  0.336414  0.620624  1
  Nd  Nd5  1  0.481606  0.681626  0.901419  1
  Nd  Nd6  1  0.868064  0.662923  0.121359  1
  Nd  Nd7  1  0.132540  0.336414  0.879376  1
  Nd  Nd8  1  0.481606  0.681626  0.598581  1
  Nd  Nd9  1  0.631105  0.162685  0.620332  1
  Nd  Nd10  1  0.802572  0.498002  0.750000  1
  Nd  Nd11  1  0.868064  0.662923  0.378641  1
  Nd  Nd12  1  0.017590  0.181130  0.098902  1
  Nd  Nd13  1  0.982654  0.819574  0.901254  1
  Nd  Nd14  1  0.631105  0.162685  0.879668  1
  Nd  Nd15  1  0.517780  0.318958  0.099114  1
  Nd  Nd16  1  0.368217  0.837112  0.379314  1
  Nd  Nd17  1  0.982654  0.819574  0.598746  1
  Nd  Nd18  1  0.517780  0.318958  0.400886  1
  Er  Er19  1  0.300387  0.002414  0.750000  1
  Sn  Sn20  1  0.791640  0.463501  0.541681  1
  Sn  Sn21  1  0.708394  0.964781  0.456123  1
  Sn  Sn22  1  0.674636  0.858219  0.750000  1
  Sn  Sn23  1  0.208322  0.534882  0.456186  1
  Sn  Sn24  1  0.291777  0.035148  0.956301  1
  Sn  Sn25  1  0.824574  0.353741  0.250000  1
  Sn  Sn26  1  0.791640  0.463501  0.958319  1
  Sn  Sn27  1  0.564759  0.616943  0.250000  1
  Sn  Sn28  1  0.208322  0.534882  0.043814  1
  Sn  Sn29  1  0.431603  0.382190  0.750000  1
  Sn  Sn30  1  0.177589  0.647381  0.750000  1
  Sn  Sn31  1  0.936564  0.114606  0.750000  1
  Sn  Sn32  1  0.291777  0.035148  0.543699  1
  Sn  Sn33  1  0.708394  0.964781  0.043877  1
  Sn  Sn34  1  0.324013  0.145695  0.250000  1
  Sn  Sn35  1  0.064987  0.883106  0.250000  1
