# generated using pymatgen
data_LaTb5(PtRh8)2
_symmetry_space_group_name_H-M   'P 1'
_cell_length_a   5.30726800
_cell_length_b   5.30726758
_cell_length_c   17.57227600
_cell_angle_alpha   90.00000000
_cell_angle_beta   90.00000000
_cell_angle_gamma   119.99999018
_symmetry_Int_Tables_number   1
_chemical_formula_structural   LaTb5(PtRh8)2
_chemical_formula_sum   'La1 Tb5 Pt2 Rh16'
_cell_volume   428.64789287
_cell_formula_units_Z   1
loop_
 _symmetry_equiv_pos_site_id
 _symmetry_equiv_pos_as_xyz
  1  'x, y, z'
loop_
 _atom_site_type_symbol
 _atom_site_label
 _atom_site_symmetry_multiplicity
 _atom_site_fract_x
 _atom_site_fract_y
 _atom_site_fract_z
 _atom_site_occupancy
  La  La0  1  0.333333  0.666667  0.750000  1
  Tb  Tb1  1  0.333333  0.666667  0.957408  1
  Tb  Tb2  1  0.666667  0.333333  0.043396  1
  Tb  Tb3  1  0.666667  0.333333  0.456604  1
  Tb  Tb4  1  0.333333  0.666667  0.542592  1
  Tb  Tb5  1  0.666667  0.333333  0.250000  1
  Pt  Pt6  1  0.000000  0.000000  0.499388  1
  Pt  Pt7  1  0.000000  0.000000  0.000612  1
  Rh  Rh8  1  0.167732  0.832268  0.373263  1
  Rh  Rh9  1  0.167732  0.335463  0.373263  1
  Rh  Rh10  1  0.664537  0.832268  0.373263  1
  Rh  Rh11  1  0.832228  0.167772  0.625119  1
  Rh  Rh12  1  0.832228  0.664454  0.625119  1
  Rh  Rh13  1  0.335546  0.167772  0.625119  1
  Rh  Rh14  1  0.832228  0.167772  0.874881  1
  Rh  Rh15  1  0.832228  0.664454  0.874881  1
  Rh  Rh16  1  0.335546  0.167772  0.874881  1
  Rh  Rh17  1  0.167732  0.832268  0.126737  1
  Rh  Rh18  1  0.167732  0.335463  0.126737  1
  Rh  Rh19  1  0.664537  0.832268  0.126737  1
  Rh  Rh20  1  0.333333  0.666667  0.250000  1
  Rh  Rh21  1  0.666667  0.333333  0.750000  1
  Rh  Rh22  1  0.000000  0.000000  0.250000  1
  Rh  Rh23  1  0.000000  0.000000  0.750000  1
