# generated using pymatgen
data_Zr4FeCo7As6
_symmetry_space_group_name_H-M   'P 1'
_cell_length_a   12.56511369
_cell_length_b   12.54221617
_cell_length_c   3.77622600
_cell_angle_alpha   90.00000000
_cell_angle_beta   90.00000000
_cell_angle_gamma   120.10875323
_symmetry_Int_Tables_number   1
_chemical_formula_structural   Zr4FeCo7As6
_chemical_formula_sum   'Zr8 Fe2 Co14 As12'
_cell_volume   514.81636040
_cell_formula_units_Z   2
loop_
 _symmetry_equiv_pos_site_id
 _symmetry_equiv_pos_as_xyz
  1  'x, y, z'
loop_
 _atom_site_type_symbol
 _atom_site_label
 _atom_site_symmetry_multiplicity
 _atom_site_fract_x
 _atom_site_fract_y
 _atom_site_fract_z
 _atom_site_occupancy
  Zr  Zr0  1  0.442834  0.443500  0.000000  1
  Zr  Zr1  1  0.556692  0.000173  0.000000  1
  Zr  Zr2  1  0.999706  0.556785  0.000000  1
  Zr  Zr3  1  0.666318  0.333179  0.000000  1
  Zr  Zr4  1  0.331292  0.665822  0.000000  1
  Zr  Zr5  1  0.826177  0.825607  0.500000  1
  Zr  Zr6  1  0.174822  0.999493  0.500000  1
  Zr  Zr7  1  0.001206  0.176263  0.500000  1
  Fe  Fe8  1  0.196865  0.373003  0.000000  1
  Fe  Fe9  1  0.176458  0.803058  0.000000  1
  Co  Co10  1  0.821973  0.627453  0.000000  1
  Co  Co11  1  0.805742  0.177379  0.000000  1
  Co  Co12  1  0.372903  0.194516  0.000000  1
  Co  Co13  1  0.122139  0.478319  0.500000  1
  Co  Co14  1  0.355964  0.877380  0.500000  1
  Co  Co15  1  0.521297  0.645170  0.500000  1
  Co  Co16  1  0.645592  0.521968  0.500000  1
  Co  Co17  1  0.874314  0.354854  0.500000  1
  Co  Co18  1  0.480711  0.125341  0.500000  1
  Co  Co19  1  0.999575  0.999312  0.000000  1
  Co  Co20  1  0.719483  0.000088  0.500000  1
  Co  Co21  1  0.997458  0.718083  0.500000  1
  Co  Co22  1  0.627812  0.823539  0.000000  1
  Co  Co23  1  0.282092  0.279344  0.500000  1
  As  As24  1  0.654799  0.655200  0.000000  1
  As  As25  1  0.344141  0.997936  0.000000  1
  As  As26  1  0.002286  0.346599  0.000000  1
  As  As27  1  0.485086  0.310678  0.500000  1
  As  As28  1  0.689973  0.174403  0.500000  1
  As  As29  1  0.825189  0.515158  0.500000  1
  As  As30  1  0.514093  0.825106  0.500000  1
  As  As31  1  0.174125  0.690586  0.500000  1
  As  As32  1  0.825356  0.000551  0.000000  1
  As  As33  1  0.001847  0.824937  0.000000  1
  As  As34  1  0.308485  0.483336  0.500000  1
  As  As35  1  0.175193  0.175882  0.000000  1
