# generated using pymatgen
data_CaNdB4(IrOs)2
_symmetry_space_group_name_H-M   'P 1'
_cell_length_a   6.91432765
_cell_length_b   6.06985667
_cell_length_c   5.59305678
_cell_angle_alpha   72.58830799
_cell_angle_beta   56.89196311
_cell_angle_gamma   50.51972295
_symmetry_Int_Tables_number   1
_chemical_formula_structural   CaNdB4(IrOs)2
_chemical_formula_sum   'Ca1 Nd1 B4 Ir2 Os2'
_cell_volume   151.34297045
_cell_formula_units_Z   1
loop_
 _symmetry_equiv_pos_site_id
 _symmetry_equiv_pos_as_xyz
  1  'x, y, z'
loop_
 _atom_site_type_symbol
 _atom_site_label
 _atom_site_symmetry_multiplicity
 _atom_site_fract_x
 _atom_site_fract_y
 _atom_site_fract_z
 _atom_site_occupancy
  Ca  Ca0  1  0.500000  0.500000  0.500000  1
  Nd  Nd1  1  0.750000  0.750000  0.750000  1
  B  B2  1  0.178773  0.821227  0.178773  1
  B  B3  1  0.064394  0.435606  0.064394  1
  B  B4  1  0.821227  0.178773  0.821227  1
  B  B5  1  0.435606  0.064394  0.435606  1
  Ir  Ir6  1  0.384381  0.384381  0.115619  1
  Ir  Ir7  1  0.115619  0.115619  0.384381  1
  Os  Os8  1  0.866030  0.866030  0.133970  1
  Os  Os9  1  0.133970  0.133970  0.866030  1
