# generated using pymatgen
data_Y20Ru7Au5
_symmetry_space_group_name_H-M   'P 1'
_cell_length_a   11.12809439
_cell_length_b   11.12809517
_cell_length_c   6.45188774
_cell_angle_alpha   89.90355093
_cell_angle_beta   89.90355550
_cell_angle_gamma   89.01538803
_symmetry_Int_Tables_number   1
_chemical_formula_structural   Y20Ru7Au5
_chemical_formula_sum   'Y20 Ru7 Au5'
_cell_volume   798.84605430
_cell_formula_units_Z   1
loop_
 _symmetry_equiv_pos_site_id
 _symmetry_equiv_pos_as_xyz
  1  'x, y, z'
loop_
 _atom_site_type_symbol
 _atom_site_label
 _atom_site_symmetry_multiplicity
 _atom_site_fract_x
 _atom_site_fract_y
 _atom_site_fract_z
 _atom_site_occupancy
  Y  Y0  1  0.299542  0.089028  0.361373  1
  Y  Y1  1  0.299769  0.908341  0.860333  1
  Y  Y2  1  0.695684  0.078598  0.856991  1
  Y  Y3  1  0.697806  0.907633  0.358776  1
  Y  Y4  1  0.580344  0.785542  0.871566  1
  Y  Y5  1  0.574283  0.204204  0.359313  1
  Y  Y6  1  0.418367  0.790990  0.371003  1
  Y  Y7  1  0.411143  0.204729  0.874769  1
  Y  Y8  1  0.214458  0.419656  0.628434  1
  Y  Y9  1  0.209010  0.581633  0.128997  1
  Y  Y10  1  0.795796  0.425717  0.140687  1
  Y  Y11  1  0.795271  0.588857  0.625231  1
  Y  Y12  1  0.910972  0.700458  0.138627  1
  Y  Y13  1  0.921402  0.304316  0.643009  1
  Y  Y14  1  0.091659  0.700231  0.639667  1
  Y  Y15  1  0.092367  0.302194  0.141224  1
  Y  Y16  1  0.997602  0.001110  0.499077  1
  Y  Y17  1  0.998890  0.002398  0.000923  1
  Y  Y18  1  0.496281  0.501673  0.002692  1
  Y  Y19  1  0.498327  0.503719  0.497308  1
  Ru  Ru20  1  0.654769  0.651712  0.250042  1
  Ru  Ru21  1  0.348288  0.345231  0.249958  1
  Ru  Ru22  1  0.345265  0.654735  0.750000  1
  Ru  Ru23  1  0.499143  0.998745  0.112772  1
  Ru  Ru24  1  0.499161  0.997658  0.616134  1
  Ru  Ru25  1  0.002342  0.500839  0.883866  1
  Ru  Ru26  1  0.001255  0.500857  0.387228  1
  Au  Au27  1  0.841364  0.158636  0.250000  1
  Au  Au28  1  0.844046  0.846784  0.752352  1
  Au  Au29  1  0.153216  0.155954  0.747648  1
  Au  Au30  1  0.155377  0.844623  0.250000  1
  Au  Au31  1  0.656800  0.343200  0.750000  1
