# generated using pymatgen
data_Er4Tm7Lu9(CoSb2)4
_symmetry_space_group_name_H-M   'P 1'
_cell_length_a   7.71580422
_cell_length_b   8.71858200
_cell_length_c   12.01601033
_cell_angle_alpha   90.00000000
_cell_angle_beta   89.97287579
_cell_angle_gamma   90.00000000
_symmetry_Int_Tables_number   1
_chemical_formula_structural   Er4Tm7Lu9(CoSb2)4
_chemical_formula_sum   'Er4 Tm7 Lu9 Co4 Sb8'
_cell_volume   808.32739978
_cell_formula_units_Z   1
loop_
 _symmetry_equiv_pos_site_id
 _symmetry_equiv_pos_as_xyz
  1  'x, y, z'
loop_
 _atom_site_type_symbol
 _atom_site_label
 _atom_site_symmetry_multiplicity
 _atom_site_fract_x
 _atom_site_fract_y
 _atom_site_fract_z
 _atom_site_occupancy
  Er  Er0  1  0.622536  0.750000  0.308419  1
  Er  Er1  1  0.122716  0.250000  0.191561  1
  Er  Er2  1  0.377320  0.250000  0.691522  1
  Er  Er3  1  0.877169  0.750000  0.808367  1
  Tm  Tm4  1  0.657453  0.250000  0.295247  1
  Tm  Tm5  1  0.842583  0.250000  0.795298  1
  Tm  Tm6  1  0.342574  0.750000  0.704770  1
  Tm  Tm7  1  0.449466  0.750000  0.998162  1
  Tm  Tm8  1  0.949679  0.250000  0.502004  1
  Tm  Tm9  1  0.550281  0.250000  0.002035  1
  Tm  Tm10  1  0.050403  0.750000  0.497802  1
  Lu  Lu11  1  0.157341  0.750000  0.204422  1
  Lu  Lu12  1  0.824882  0.962005  0.065639  1
  Lu  Lu13  1  0.324709  0.037795  0.434433  1
  Lu  Lu14  1  0.175260  0.462111  0.934535  1
  Lu  Lu15  1  0.675253  0.537800  0.565514  1
  Lu  Lu16  1  0.175260  0.037889  0.934535  1
  Lu  Lu17  1  0.675253  0.962200  0.565514  1
  Lu  Lu18  1  0.824882  0.537995  0.065639  1
  Lu  Lu19  1  0.324709  0.462205  0.434433  1
  Co  Co20  1  0.430726  0.750000  0.490819  1
  Co  Co21  1  0.930660  0.250000  0.009220  1
  Co  Co22  1  0.569396  0.250000  0.509213  1
  Co  Co23  1  0.069468  0.750000  0.991056  1
  Sb  Sb24  1  0.932030  0.991200  0.327455  1
  Sb  Sb25  1  0.431401  0.008281  0.172475  1
  Sb  Sb26  1  0.068282  0.491491  0.672390  1
  Sb  Sb27  1  0.568297  0.508534  0.827601  1
  Sb  Sb28  1  0.068282  0.008509  0.672390  1
  Sb  Sb29  1  0.568297  0.991466  0.827601  1
  Sb  Sb30  1  0.932030  0.508800  0.327455  1
  Sb  Sb31  1  0.431401  0.491719  0.172475  1
