# generated using pymatgen
data_Yb6Al24IrOs7
_symmetry_space_group_name_H-M   'P 1'
_cell_length_a   8.85587569
_cell_length_b   8.85457296
_cell_length_c   9.59879515
_cell_angle_alpha   89.99999855
_cell_angle_beta   89.79908896
_cell_angle_gamma   119.99512700
_symmetry_Int_Tables_number   1
_chemical_formula_structural   Yb6Al24IrOs7
_chemical_formula_sum   'Yb6 Al24 Ir1 Os7'
_cell_volume   651.87488793
_cell_formula_units_Z   1
loop_
 _symmetry_equiv_pos_site_id
 _symmetry_equiv_pos_as_xyz
  1  'x, y, z'
loop_
 _atom_site_type_symbol
 _atom_site_label
 _atom_site_symmetry_multiplicity
 _atom_site_fract_x
 _atom_site_fract_y
 _atom_site_fract_z
 _atom_site_occupancy
  Yb  Yb0  1  0.196290  0.388627  0.251154  1
  Yb  Yb1  1  0.803710  0.611373  0.748846  1
  Yb  Yb2  1  0.610751  0.805376  0.249946  1
  Yb  Yb3  1  0.389249  0.194624  0.750054  1
  Yb  Yb4  1  0.196290  0.807662  0.251154  1
  Yb  Yb5  1  0.803710  0.192338  0.748846  1
  Al  Al6  1  0.334696  0.667349  0.000541  1
  Al  Al7  1  0.665304  0.332651  0.999459  1
  Al  Al8  1  0.666330  0.333164  0.502181  1
  Al  Al9  1  0.333670  0.666836  0.497819  1
  Al  Al10  1  0.162338  0.325057  0.573412  1
  Al  Al11  1  0.837662  0.674943  0.426588  1
  Al  Al12  1  0.674252  0.837126  0.571037  1
  Al  Al13  1  0.835938  0.675210  0.073480  1
  Al  Al14  1  0.325748  0.162874  0.428963  1
  Al  Al15  1  0.164062  0.324790  0.926520  1
  Al  Al16  1  0.162338  0.837281  0.573412  1
  Al  Al17  1  0.324940  0.162471  0.071801  1
  Al  Al18  1  0.837662  0.162719  0.426588  1
  Al  Al19  1  0.675060  0.837529  0.928199  1
  Al  Al20  1  0.835938  0.160726  0.073480  1
  Al  Al21  1  0.164062  0.839274  0.926520  1
  Al  Al22  1  0.562874  0.123611  0.249941  1
  Al  Al23  1  0.437126  0.876389  0.750059  1
  Al  Al24  1  0.876335  0.438168  0.250504  1
  Al  Al25  1  0.123665  0.561832  0.749496  1
  Al  Al26  1  0.562874  0.439265  0.249941  1
  Al  Al27  1  0.437126  0.560735  0.750059  1
  Al  Al28  1  0.998953  0.999476  0.250118  1
  Al  Al29  1  0.001047  0.000524  0.749882  1
  Ir  Ir30  1  0.000000  0.500000  0.000000  1
  Os  Os31  1  0.500000  0.000000  0.000000  1
  Os  Os32  1  0.500000  0.000000  0.500000  1
  Os  Os33  1  0.500000  0.500000  0.000000  1
  Os  Os34  1  0.000000  0.500000  0.500000  1
  Os  Os35  1  0.500000  0.500000  0.500000  1
  Os  Os36  1  0.000000  0.000000  0.000000  1
  Os  Os37  1  0.000000  0.000000  0.500000  1
