# generated using pymatgen
data_Ho3Tm(TcRu)4
_symmetry_space_group_name_H-M   'P 1'
_cell_length_a   5.19725103
_cell_length_b   5.19724995
_cell_length_c   9.10536900
_cell_angle_alpha   89.99362798
_cell_angle_beta   90.00638304
_cell_angle_gamma   117.16358808
_symmetry_Int_Tables_number   1
_chemical_formula_structural   Ho3Tm(TcRu)4
_chemical_formula_sum   'Ho3 Tm1 Tc4 Ru4'
_cell_volume   218.82235980
_cell_formula_units_Z   1
loop_
 _symmetry_equiv_pos_site_id
 _symmetry_equiv_pos_as_xyz
  1  'x, y, z'
loop_
 _atom_site_type_symbol
 _atom_site_label
 _atom_site_symmetry_multiplicity
 _atom_site_fract_x
 _atom_site_fract_y
 _atom_site_fract_z
 _atom_site_occupancy
  Ho  Ho0  1  0.332121  0.667879  0.436415  1
  Ho  Ho1  1  0.670904  0.329096  0.566805  1
  Ho  Ho2  1  0.670872  0.329128  0.933396  1
  Tm  Tm3  1  0.332050  0.667950  0.063486  1
  Tc  Tc4  1  0.826875  0.173125  0.249604  1
  Tc  Tc5  1  0.829565  0.659748  0.249551  1
  Tc  Tc6  1  0.340252  0.170435  0.249551  1
  Tc  Tc7  1  0.163284  0.836716  0.750369  1
  Ru  Ru8  1  0.007059  0.992941  0.502418  1
  Ru  Ru9  1  0.007192  0.992808  0.997777  1
  Ru  Ru10  1  0.170236  0.350412  0.750315  1
  Ru  Ru11  1  0.649588  0.829764  0.750315  1
