# generated using pymatgen
data_Ba8Li2Nb5SbO24
_symmetry_space_group_name_H-M   'P 1'
_cell_length_a   5.87911200
_cell_length_b   5.87911207
_cell_length_c   19.39216300
_cell_angle_alpha   90.00000000
_cell_angle_beta   90.00000000
_cell_angle_gamma   119.99998836
_symmetry_Int_Tables_number   1
_chemical_formula_structural   Ba8Li2Nb5SbO24
_chemical_formula_sum   'Ba8 Li2 Nb5 Sb1 O24'
_cell_volume   580.47084054
_cell_formula_units_Z   1
loop_
 _symmetry_equiv_pos_site_id
 _symmetry_equiv_pos_as_xyz
  1  'x, y, z'
loop_
 _atom_site_type_symbol
 _atom_site_label
 _atom_site_symmetry_multiplicity
 _atom_site_fract_x
 _atom_site_fract_y
 _atom_site_fract_z
 _atom_site_occupancy
  Ba  Ba0  1  0.666667  0.333333  0.250572  1
  Ba  Ba1  1  0.333333  0.666667  0.750340  1
  Ba  Ba2  1  0.666667  0.333333  0.870998  1
  Ba  Ba3  1  0.333333  0.666667  0.371612  1
  Ba  Ba4  1  0.666667  0.333333  0.643335  1
  Ba  Ba5  1  0.333333  0.666667  0.143526  1
  Ba  Ba6  1  0.000000  0.000000  0.501654  1
  Ba  Ba7  1  0.000000  0.000000  0.001117  1
  Li  Li8  1  0.000000  0.000000  0.165611  1
  Li  Li9  1  0.000000  0.000000  0.665582  1
  Nb  Nb10  1  0.333333  0.666667  0.939727  1
  Nb  Nb11  1  0.666667  0.333333  0.067624  1
  Nb  Nb12  1  0.333333  0.666667  0.567155  1
  Nb  Nb13  1  0.000000  0.000000  0.808224  1
  Nb  Nb14  1  0.000000  0.000000  0.308597  1
  Sb  Sb15  1  0.666667  0.333333  0.439349  1
  O  O16  1  0.840647  0.681294  0.756651  1
  O  O17  1  0.158410  0.316819  0.256678  1
  O  O18  1  0.683181  0.841590  0.256678  1
  O  O19  1  0.840647  0.159353  0.756651  1
  O  O20  1  0.169584  0.830416  0.878426  1
  O  O21  1  0.341258  0.170628  0.378383  1
  O  O22  1  0.829372  0.658742  0.378383  1
  O  O23  1  0.169584  0.339170  0.878426  1
  O  O24  1  0.660830  0.830416  0.878426  1
  O  O25  1  0.829372  0.170628  0.378383  1
  O  O26  1  0.173830  0.826170  0.618866  1
  O  O27  1  0.345716  0.172858  0.118741  1
  O  O28  1  0.158410  0.841590  0.256678  1
  O  O29  1  0.318706  0.159353  0.756651  1
  O  O30  1  0.498696  0.501304  0.997045  1
  O  O31  1  0.996607  0.498304  0.496871  1
  O  O32  1  0.501696  0.003393  0.496871  1
  O  O33  1  0.498696  0.997392  0.997045  1
  O  O34  1  0.002608  0.501304  0.997045  1
  O  O35  1  0.501696  0.498304  0.496871  1
  O  O36  1  0.827142  0.172858  0.118741  1
  O  O37  1  0.652340  0.826170  0.618866  1
  O  O38  1  0.173830  0.347660  0.618866  1
  O  O39  1  0.827142  0.654284  0.118741  1
