# generated using pymatgen
data_Pr5HgTe4
_symmetry_space_group_name_H-M   'P 1'
_cell_length_a   7.84275241
_cell_length_b   7.84275364
_cell_length_c   7.84275300
_cell_angle_alpha   99.71269845
_cell_angle_beta   99.71270739
_cell_angle_gamma   131.49725440
_symmetry_Int_Tables_number   1
_chemical_formula_structural   Pr5HgTe4
_chemical_formula_sum   'Pr5 Hg1 Te4'
_cell_volume   329.42533354
_cell_formula_units_Z   1
loop_
 _symmetry_equiv_pos_site_id
 _symmetry_equiv_pos_as_xyz
  1  'x, y, z'
loop_
 _atom_site_type_symbol
 _atom_site_label
 _atom_site_symmetry_multiplicity
 _atom_site_fract_x
 _atom_site_fract_y
 _atom_site_fract_z
 _atom_site_occupancy
  Pr  Pr0  1  0.400637  0.796538  0.197175  1
  Pr  Pr1  1  0.000000  0.000000  0.000000  1
  Pr  Pr2  1  0.599363  0.203462  0.802825  1
  Pr  Pr3  1  0.203462  0.400637  0.604100  1
  Pr  Pr4  1  0.796538  0.599363  0.395900  1
  Hg  Hg5  1  0.500000  0.500000  0.000000  1
  Te  Te6  1  0.097622  0.698771  0.796391  1
  Te  Te7  1  0.698771  0.902378  0.601148  1
  Te  Te8  1  0.301229  0.097622  0.398852  1
  Te  Te9  1  0.902378  0.301229  0.203609  1
