# generated using pymatgen
data_Zn4MoPt15
_symmetry_space_group_name_H-M   'P 1'
_cell_length_a   3.93567100
_cell_length_b   3.93567100
_cell_length_c   19.77500200
_cell_angle_alpha   90.00000000
_cell_angle_beta   90.00000000
_cell_angle_gamma   90.00000000
_symmetry_Int_Tables_number   1
_chemical_formula_structural   Zn4MoPt15
_chemical_formula_sum   'Zn4 Mo1 Pt15'
_cell_volume   306.30501648
_cell_formula_units_Z   1
loop_
 _symmetry_equiv_pos_site_id
 _symmetry_equiv_pos_as_xyz
  1  'x, y, z'
loop_
 _atom_site_type_symbol
 _atom_site_label
 _atom_site_symmetry_multiplicity
 _atom_site_fract_x
 _atom_site_fract_y
 _atom_site_fract_z
 _atom_site_occupancy
  Zn  Zn0  1  0.000000  0.000000  0.203150  1
  Zn  Zn1  1  0.000000  0.000000  0.400508  1
  Zn  Zn2  1  0.000000  0.000000  0.599492  1
  Zn  Zn3  1  0.000000  0.000000  0.796850  1
  Mo  Mo4  1  0.000000  0.000000  0.000000  1
  Pt  Pt5  1  0.500000  0.500000  0.000000  1
  Pt  Pt6  1  0.500000  0.500000  0.200692  1
  Pt  Pt7  1  0.500000  0.500000  0.400409  1
  Pt  Pt8  1  0.500000  0.500000  0.599591  1
  Pt  Pt9  1  0.500000  0.500000  0.799308  1
  Pt  Pt10  1  0.500000  0.000000  0.099086  1
  Pt  Pt11  1  0.500000  0.000000  0.301032  1
  Pt  Pt12  1  0.500000  0.000000  0.500000  1
  Pt  Pt13  1  0.500000  0.000000  0.698968  1
  Pt  Pt14  1  0.500000  0.000000  0.900914  1
  Pt  Pt15  1  0.000000  0.500000  0.099086  1
  Pt  Pt16  1  0.000000  0.500000  0.301032  1
  Pt  Pt17  1  0.000000  0.500000  0.500000  1
  Pt  Pt18  1  0.000000  0.500000  0.698968  1
  Pt  Pt19  1  0.000000  0.500000  0.900914  1
