# generated using pymatgen
data_Zr9Ta3OsO3
_symmetry_space_group_name_H-M   'P 1'
_cell_length_a   8.68538150
_cell_length_b   8.68544167
_cell_length_c   8.66225700
_cell_angle_alpha   90.00000000
_cell_angle_beta   90.00000000
_cell_angle_gamma   119.01835429
_symmetry_Int_Tables_number   1
_chemical_formula_structural   Zr9Ta3OsO3
_chemical_formula_sum   'Zr18 Ta6 Os2 O6'
_cell_volume   571.41808934
_cell_formula_units_Z   2
loop_
 _symmetry_equiv_pos_site_id
 _symmetry_equiv_pos_as_xyz
  1  'x, y, z'
loop_
 _atom_site_type_symbol
 _atom_site_label
 _atom_site_symmetry_multiplicity
 _atom_site_fract_x
 _atom_site_fract_y
 _atom_site_fract_z
 _atom_site_occupancy
  Zr  Zr0  1  0.452748  0.907367  0.250000  1
  Zr  Zr1  1  0.547252  0.092633  0.750000  1
  Zr  Zr2  1  0.092633  0.547253  0.250000  1
  Zr  Zr3  1  0.907367  0.452747  0.750000  1
  Zr  Zr4  1  0.453620  0.546382  0.250000  1
  Zr  Zr5  1  0.546380  0.453618  0.750000  1
  Zr  Zr6  1  0.205389  0.411041  0.561088  1
  Zr  Zr7  1  0.794611  0.588959  0.438912  1
  Zr  Zr8  1  0.588959  0.794610  0.561086  1
  Zr  Zr9  1  0.794611  0.588959  0.061088  1
  Zr  Zr10  1  0.411041  0.205390  0.438914  1
  Zr  Zr11  1  0.205389  0.411041  0.938912  1
  Zr  Zr12  1  0.205804  0.794196  0.563139  1
  Zr  Zr13  1  0.411041  0.205390  0.061086  1
  Zr  Zr14  1  0.794196  0.205804  0.436861  1
  Zr  Zr15  1  0.588959  0.794610  0.938914  1
  Zr  Zr16  1  0.794196  0.205804  0.063139  1
  Zr  Zr17  1  0.205804  0.794196  0.936861  1
  Ta  Ta18  1  0.113357  0.221290  0.250000  1
  Ta  Ta19  1  0.886643  0.778710  0.750000  1
  Ta  Ta20  1  0.778710  0.886640  0.250000  1
  Ta  Ta21  1  0.221290  0.113360  0.750000  1
  Ta  Ta22  1  0.000000  0.000000  0.000000  1
  Ta  Ta23  1  0.000000  0.000000  0.500000  1
  Os  Os24  1  0.111673  0.888320  0.250000  1
  Os  Os25  1  0.888327  0.111680  0.750000  1
  O  O26  1  0.500000  0.000000  0.000000  1
  O  O27  1  0.000000  0.500000  0.000000  1
  O  O28  1  0.500000  0.000000  0.500000  1
  O  O29  1  0.500000  0.500000  0.000000  1
  O  O30  1  0.000000  0.500000  0.500000  1
  O  O31  1  0.500000  0.500000  0.500000  1
