# generated using pymatgen
data_Dy9ScIn8(IrPt)2
_symmetry_space_group_name_H-M   'P 1'
_cell_length_a   3.62632100
_cell_length_b   8.10251793
_cell_length_c   18.19235179
_cell_angle_alpha   89.91180517
_cell_angle_beta   90.00000000
_cell_angle_gamma   90.00000000
_symmetry_Int_Tables_number   1
_chemical_formula_structural   Dy9ScIn8(IrPt)2
_chemical_formula_sum   'Dy9 Sc1 In8 Ir2 Pt2'
_cell_volume   534.53306699
_cell_formula_units_Z   1
loop_
 _symmetry_equiv_pos_site_id
 _symmetry_equiv_pos_as_xyz
  1  'x, y, z'
loop_
 _atom_site_type_symbol
 _atom_site_label
 _atom_site_symmetry_multiplicity
 _atom_site_fract_x
 _atom_site_fract_y
 _atom_site_fract_z
 _atom_site_occupancy
  Dy  Dy0  1  0.000000  0.884453  0.586277  1
  Dy  Dy1  1  0.000000  0.382669  0.914332  1
  Dy  Dy2  1  0.000000  0.617042  0.086310  1
  Dy  Dy3  1  0.000000  0.236367  0.222878  1
  Dy  Dy4  1  0.000000  0.764619  0.777850  1
  Dy  Dy5  1  0.000000  0.248279  0.720128  1
  Dy  Dy6  1  0.000000  0.751491  0.280788  1
  Dy  Dy7  1  0.000000  0.999858  0.000128  1
  Dy  Dy8  1  0.000000  0.499240  0.498911  1
  Sc  Sc9  1  0.000000  0.112510  0.408632  1
  In  In10  1  0.500000  0.415527  0.352767  1
  In  In11  1  0.500000  0.575352  0.648204  1
  In  In12  1  0.500000  0.072498  0.851165  1
  In  In13  1  0.500000  0.927707  0.150132  1
  In  In14  1  0.500000  0.292051  0.067114  1
  In  In15  1  0.500000  0.707758  0.933302  1
  In  In16  1  0.500000  0.204706  0.563961  1
  In  In17  1  0.500000  0.801528  0.433005  1
  Ir  Ir18  1  0.500000  0.026460  0.308406  1
  Ir  Ir19  1  0.500000  0.979405  0.695282  1
  Pt  Pt20  1  0.500000  0.478059  0.802894  1
  Pt  Pt21  1  0.500000  0.522423  0.197534  1
