# generated using pymatgen
data_Ba4NaSb3O
_symmetry_space_group_name_H-M   'P 1'
_cell_length_a   10.53197279
_cell_length_b   10.53197330
_cell_length_c   10.53197348
_cell_angle_alpha   131.08864783
_cell_angle_beta   131.08865286
_cell_angle_gamma   71.67226790
_symmetry_Int_Tables_number   1
_chemical_formula_structural   Ba4NaSb3O
_chemical_formula_sum   'Ba8 Na2 Sb6 O2'
_cell_volume   649.26876971
_cell_formula_units_Z   2
loop_
 _symmetry_equiv_pos_site_id
 _symmetry_equiv_pos_as_xyz
  1  'x, y, z'
loop_
 _atom_site_type_symbol
 _atom_site_label
 _atom_site_symmetry_multiplicity
 _atom_site_fract_x
 _atom_site_fract_y
 _atom_site_fract_z
 _atom_site_occupancy
  Ba  Ba0  1  0.813278  0.992987  0.500000  1
  Ba  Ba1  1  0.492987  0.313278  0.500000  1
  Ba  Ba2  1  0.992987  0.492987  0.179710  1
  Ba  Ba3  1  0.186722  0.007013  0.500000  1
  Ba  Ba4  1  0.686722  0.186722  0.179710  1
  Ba  Ba5  1  0.007013  0.507013  0.820290  1
  Ba  Ba6  1  0.313278  0.813278  0.820290  1
  Ba  Ba7  1  0.507013  0.686722  0.500000  1
  Na  Na8  1  0.500000  0.500000  0.000000  1
  Na  Na9  1  0.000000  0.000000  0.000000  1
  Sb  Sb10  1  0.880836  0.619164  0.500000  1
  Sb  Sb11  1  0.250000  0.250000  0.000000  1
  Sb  Sb12  1  0.380836  0.880836  0.261671  1
  Sb  Sb13  1  0.619164  0.119164  0.738329  1
  Sb  Sb14  1  0.119164  0.380836  0.500000  1
  Sb  Sb15  1  0.750000  0.750000  0.000000  1
  O  O16  1  0.250000  0.750000  0.500000  1
  O  O17  1  0.750000  0.250000  0.500000  1
