# generated using pymatgen
data_TbY4Er5Bi6
_symmetry_space_group_name_H-M   'P 1'
_cell_length_a   8.24963800
_cell_length_b   9.48515014
_cell_length_c   12.06754001
_cell_angle_alpha   90.00742994
_cell_angle_beta   90.00000000
_cell_angle_gamma   90.00000000
_symmetry_Int_Tables_number   1
_chemical_formula_structural   TbY4Er5Bi6
_chemical_formula_sum   'Tb2 Y8 Er10 Bi12'
_cell_volume   944.27359384
_cell_formula_units_Z   2
loop_
 _symmetry_equiv_pos_site_id
 _symmetry_equiv_pos_as_xyz
  1  'x, y, z'
loop_
 _atom_site_type_symbol
 _atom_site_label
 _atom_site_symmetry_multiplicity
 _atom_site_fract_x
 _atom_site_fract_y
 _atom_site_fract_z
 _atom_site_occupancy
  Tb  Tb0  1  0.186339  0.749998  0.718805  1
  Tb  Tb1  1  0.686339  0.750002  0.781195  1
  Y  Y2  1  0.813567  0.249744  0.281040  1
  Y  Y3  1  0.313567  0.250256  0.218960  1
  Y  Y4  1  0.306596  0.062935  0.940352  1
  Y  Y5  1  0.806596  0.437065  0.559648  1
  Y  Y6  1  0.353780  0.750166  0.215581  1
  Y  Y7  1  0.853780  0.749834  0.284419  1
  Y  Y8  1  0.645919  0.249865  0.784522  1
  Y  Y9  1  0.145919  0.250135  0.715478  1
  Er  Er10  1  0.025292  0.749835  0.988919  1
  Er  Er11  1  0.525292  0.750165  0.511081  1
  Er  Er12  1  0.973838  0.250410  0.011206  1
  Er  Er13  1  0.473838  0.249590  0.488794  1
  Er  Er14  1  0.306476  0.435569  0.940171  1
  Er  Er15  1  0.806476  0.064431  0.559829  1
  Er  Er16  1  0.693656  0.935000  0.059792  1
  Er  Er17  1  0.193656  0.565000  0.440208  1
  Er  Er18  1  0.693746  0.564869  0.059850  1
  Er  Er19  1  0.193746  0.935131  0.440150  1
  Bi  Bi20  1  0.434047  0.003841  0.672726  1
  Bi  Bi21  1  0.934047  0.496159  0.827274  1
  Bi  Bi22  1  0.566095  0.503772  0.326960  1
  Bi  Bi23  1  0.066095  0.996228  0.173040  1
  Bi  Bi24  1  0.566181  0.996151  0.327209  1
  Bi  Bi25  1  0.066181  0.503849  0.172791  1
  Bi  Bi26  1  0.433576  0.496043  0.672940  1
  Bi  Bi27  1  0.933576  0.003957  0.827060  1
  Bi  Bi28  1  0.408530  0.748423  0.958448  1
  Bi  Bi29  1  0.908530  0.751577  0.541552  1
  Bi  Bi30  1  0.592360  0.250455  0.042231  1
  Bi  Bi31  1  0.092360  0.249545  0.457769  1
