# generated using pymatgen
data_ZnCrAg2(NO3)8
_symmetry_space_group_name_H-M   'P 1'
_cell_length_a   8.09054381
_cell_length_b   7.88734577
_cell_length_c   7.60795020
_cell_angle_alpha   90.56045621
_cell_angle_beta   89.11834913
_cell_angle_gamma   88.71572293
_symmetry_Int_Tables_number   1
_chemical_formula_structural   ZnCrAg2(NO3)8
_chemical_formula_sum   'Zn1 Cr1 Ag2 N8 O24'
_cell_volume   485.28117198
_cell_formula_units_Z   1
loop_
 _symmetry_equiv_pos_site_id
 _symmetry_equiv_pos_as_xyz
  1  'x, y, z'
loop_
 _atom_site_type_symbol
 _atom_site_label
 _atom_site_symmetry_multiplicity
 _atom_site_fract_x
 _atom_site_fract_y
 _atom_site_fract_z
 _atom_site_occupancy
  Zn  Zn0  1  0.000000  0.000000  0.500000  1
  Cr  Cr1  1  0.000000  0.500000  0.000000  1
  Ag  Ag2  1  0.500000  0.500000  0.500000  1
  Ag  Ag3  1  0.500000  0.000000  0.000000  1
  N  N4  1  0.684571  0.153972  0.331152  1
  N  N5  1  0.693367  0.365525  0.818912  1
  N  N6  1  0.839086  0.804957  0.832056  1
  N  N7  1  0.853078  0.699530  0.317113  1
  N  N8  1  0.160914  0.195043  0.167944  1
  N  N9  1  0.146922  0.300470  0.682887  1
  N  N10  1  0.306633  0.634475  0.181088  1
  N  N11  1  0.315429  0.846028  0.668848  1
  O  O12  1  0.579983  0.262636  0.815239  1
  O  O13  1  0.567335  0.261920  0.322577  1
  O  O14  1  0.710070  0.478561  0.703463  1
  O  O15  1  0.696081  0.036090  0.217731  1
  O  O16  1  0.739123  0.715106  0.426010  1
  O  O17  1  0.723538  0.787517  0.939628  1
  O  O18  1  0.798631  0.357345  0.945464  1
  O  O19  1  0.789744  0.163831  0.452825  1
  O  O20  1  0.837821  0.921273  0.720231  1
  O  O21  1  0.850924  0.574029  0.206290  1
  O  O22  1  0.965645  0.700693  0.832893  1
  O  O23  1  0.972039  0.801930  0.308880  1
  O  O24  1  0.027961  0.198070  0.691120  1
  O  O25  1  0.034355  0.299307  0.167107  1
  O  O26  1  0.149076  0.425971  0.793710  1
  O  O27  1  0.162179  0.078727  0.279769  1
  O  O28  1  0.201369  0.642655  0.054536  1
  O  O29  1  0.210256  0.836169  0.547175  1
  O  O30  1  0.276462  0.212483  0.060372  1
  O  O31  1  0.260877  0.284894  0.573990  1
  O  O32  1  0.289930  0.521439  0.296537  1
  O  O33  1  0.303919  0.963910  0.782269  1
  O  O34  1  0.432665  0.738080  0.677423  1
  O  O35  1  0.420017  0.737364  0.184761  1
