# generated using pymatgen
data_NaAc8Dy11Pb16
_symmetry_space_group_name_H-M   'P 1'
_cell_length_a   8.51519400
_cell_length_b   8.55960664
_cell_length_c   16.26245800
_cell_angle_alpha   90.00000000
_cell_angle_beta   90.00000000
_cell_angle_gamma   90.06579948
_symmetry_Int_Tables_number   1
_chemical_formula_structural   NaAc8Dy11Pb16
_chemical_formula_sum   'Na1 Ac8 Dy11 Pb16'
_cell_volume   1185.31629706
_cell_formula_units_Z   1
loop_
 _symmetry_equiv_pos_site_id
 _symmetry_equiv_pos_as_xyz
  1  'x, y, z'
loop_
 _atom_site_type_symbol
 _atom_site_label
 _atom_site_symmetry_multiplicity
 _atom_site_fract_x
 _atom_site_fract_y
 _atom_site_fract_z
 _atom_site_occupancy
  Na  Na0  1  0.303454  0.004004  0.250000  1
  Ac  Ac1  1  0.517824  0.322815  0.904650  1
  Ac  Ac2  1  0.017972  0.176496  0.595614  1
  Ac  Ac3  1  0.482259  0.682047  0.403680  1
  Ac  Ac4  1  0.988331  0.823808  0.095296  1
  Ac  Ac5  1  0.482259  0.682047  0.096320  1
  Ac  Ac6  1  0.988331  0.823808  0.404704  1
  Ac  Ac7  1  0.517824  0.322815  0.595350  1
  Ac  Ac8  1  0.017972  0.176496  0.904386  1
  Dy  Dy9  1  0.358907  0.842240  0.875620  1
  Dy  Dy10  1  0.857895  0.656919  0.623472  1
  Dy  Dy11  1  0.634790  0.158300  0.375759  1
  Dy  Dy12  1  0.141311  0.338308  0.122723  1
  Dy  Dy13  1  0.634790  0.158300  0.124241  1
  Dy  Dy14  1  0.141311  0.338308  0.377277  1
  Dy  Dy15  1  0.358907  0.842240  0.624380  1
  Dy  Dy16  1  0.857895  0.656919  0.876528  1
  Dy  Dy17  1  0.194668  0.505132  0.750000  1
  Dy  Dy18  1  0.695451  0.994689  0.750000  1
  Dy  Dy19  1  0.803593  0.493222  0.250000  1
  Pb  Pb20  1  0.307931  0.049358  0.040427  1
  Pb  Pb21  1  0.805292  0.455506  0.453891  1
  Pb  Pb22  1  0.692924  0.953353  0.544548  1
  Pb  Pb23  1  0.193840  0.546121  0.955074  1
  Pb  Pb24  1  0.692924  0.953353  0.955452  1
  Pb  Pb25  1  0.193840  0.546121  0.544926  1
  Pb  Pb26  1  0.307931  0.049358  0.459573  1
  Pb  Pb27  1  0.805292  0.455506  0.046109  1
  Pb  Pb28  1  0.554054  0.633086  0.750000  1
  Pb  Pb29  1  0.052568  0.865827  0.750000  1
  Pb  Pb30  1  0.443959  0.372787  0.250000  1
  Pb  Pb31  1  0.940546  0.131283  0.250000  1
  Pb  Pb32  1  0.329752  0.143675  0.750000  1
  Pb  Pb33  1  0.829809  0.354418  0.750000  1
  Pb  Pb34  1  0.685123  0.859990  0.250000  1
  Pb  Pb35  1  0.168463  0.631348  0.250000  1
