# generated using pymatgen
data_Sr20Cd3Pd8Au
_symmetry_space_group_name_H-M   'P 1'
_cell_length_a   8.30948600
_cell_length_b   8.30948600
_cell_length_c   15.74858600
_cell_angle_alpha   90.00000000
_cell_angle_beta   90.00000000
_cell_angle_gamma   90.00000000
_symmetry_Int_Tables_number   1
_chemical_formula_structural   Sr20Cd3Pd8Au
_chemical_formula_sum   'Sr20 Cd3 Pd8 Au1'
_cell_volume   1087.40139870
_cell_formula_units_Z   1
loop_
 _symmetry_equiv_pos_site_id
 _symmetry_equiv_pos_as_xyz
  1  'x, y, z'
loop_
 _atom_site_type_symbol
 _atom_site_label
 _atom_site_symmetry_multiplicity
 _atom_site_fract_x
 _atom_site_fract_y
 _atom_site_fract_z
 _atom_site_occupancy
  Sr  Sr0  1  0.000000  0.000000  0.755740  1
  Sr  Sr1  1  0.500000  0.500000  0.251128  1
  Sr  Sr2  1  0.000000  0.000000  0.244260  1
  Sr  Sr3  1  0.500000  0.500000  0.748872  1
  Sr  Sr4  1  0.173196  0.660346  0.112802  1
  Sr  Sr5  1  0.666775  0.164865  0.617111  1
  Sr  Sr6  1  0.826804  0.339654  0.112802  1
  Sr  Sr7  1  0.333225  0.835135  0.617111  1
  Sr  Sr8  1  0.339654  0.173196  0.112802  1
  Sr  Sr9  1  0.835135  0.666775  0.617111  1
  Sr  Sr10  1  0.660346  0.826804  0.112802  1
  Sr  Sr11  1  0.164865  0.333225  0.617111  1
  Sr  Sr12  1  0.339654  0.826804  0.887198  1
  Sr  Sr13  1  0.835135  0.333225  0.382889  1
  Sr  Sr14  1  0.660346  0.173196  0.887198  1
  Sr  Sr15  1  0.164865  0.666775  0.382889  1
  Sr  Sr16  1  0.173196  0.339654  0.887198  1
  Sr  Sr17  1  0.666775  0.835135  0.382889  1
  Sr  Sr18  1  0.826804  0.660346  0.887198  1
  Sr  Sr19  1  0.333225  0.164865  0.382889  1
  Cd  Cd20  1  0.000000  0.000000  0.500000  1
  Cd  Cd21  1  0.000000  0.000000  0.000000  1
  Cd  Cd22  1  0.500000  0.500000  0.500000  1
  Pd  Pd23  1  0.627137  0.127360  0.248021  1
  Pd  Pd24  1  0.127360  0.627137  0.751979  1
  Pd  Pd25  1  0.872640  0.372863  0.751979  1
  Pd  Pd26  1  0.372863  0.872640  0.248021  1
  Pd  Pd27  1  0.372863  0.127360  0.751979  1
  Pd  Pd28  1  0.872640  0.627137  0.248021  1
  Pd  Pd29  1  0.127360  0.372863  0.248021  1
  Pd  Pd30  1  0.627137  0.872640  0.751979  1
  Au  Au31  1  0.500000  0.500000  0.000000  1
