# generated using pymatgen
data_Ho3ScOsI4
_symmetry_space_group_name_H-M   'P 1'
_cell_length_a   11.26052928
_cell_length_b   11.14058217
_cell_length_c   6.07788379
_cell_angle_alpha   90.27871074
_cell_angle_beta   89.47381454
_cell_angle_gamma   89.26496243
_symmetry_Int_Tables_number   1
_chemical_formula_structural   Ho3ScOsI4
_chemical_formula_sum   'Ho6 Sc2 Os2 I8'
_cell_volume   762.35918663
_cell_formula_units_Z   2
loop_
 _symmetry_equiv_pos_site_id
 _symmetry_equiv_pos_as_xyz
  1  'x, y, z'
loop_
 _atom_site_type_symbol
 _atom_site_label
 _atom_site_symmetry_multiplicity
 _atom_site_fract_x
 _atom_site_fract_y
 _atom_site_fract_z
 _atom_site_occupancy
  Ho  Ho0  1  0.085293  0.799320  0.496384  1
  Ho  Ho1  1  0.914707  0.200680  0.503616  1
  Ho  Ho2  1  0.800898  0.920188  0.502180  1
  Ho  Ho3  1  0.199102  0.079812  0.497820  1
  Ho  Ho4  1  0.080087  0.198692  0.000702  1
  Ho  Ho5  1  0.919913  0.801308  0.999298  1
  Sc  Sc6  1  0.185295  0.921601  0.995043  1
  Sc  Sc7  1  0.814705  0.078399  0.004957  1
  Os  Os8  1  0.000190  0.000005  0.248480  1
  Os  Os9  1  0.999810  0.999995  0.751520  1
  I  I10  1  0.356909  0.848106  0.506184  1
  I  I11  1  0.643091  0.151894  0.493816  1
  I  I12  1  0.159097  0.650021  0.004022  1
  I  I13  1  0.840903  0.349979  0.995978  1
  I  I14  1  0.352968  0.132177  0.996122  1
  I  I15  1  0.647032  0.867823  0.003878  1
  I  I16  1  0.853059  0.640349  0.501442  1
  I  I17  1  0.146941  0.359651  0.498558  1
