# generated using pymatgen
data_Er4Co2(OsRu)3
_symmetry_space_group_name_H-M   'P 1'
_cell_length_a   5.14886500
_cell_length_b   5.17609280
_cell_length_c   8.75776300
_cell_angle_alpha   90.00000000
_cell_angle_beta   90.00000000
_cell_angle_gamma   119.40544595
_symmetry_Int_Tables_number   1
_chemical_formula_structural   Er4Co2(OsRu)3
_chemical_formula_sum   'Er4 Co2 Os3 Ru3'
_cell_volume   203.33317250
_cell_formula_units_Z   1
loop_
 _symmetry_equiv_pos_site_id
 _symmetry_equiv_pos_as_xyz
  1  'x, y, z'
loop_
 _atom_site_type_symbol
 _atom_site_label
 _atom_site_symmetry_multiplicity
 _atom_site_fract_x
 _atom_site_fract_y
 _atom_site_fract_z
 _atom_site_occupancy
  Er  Er0  1  0.666209  0.334282  0.565531  1
  Er  Er1  1  0.331157  0.665210  0.434176  1
  Er  Er2  1  0.331157  0.665210  0.065824  1
  Er  Er3  1  0.666209  0.334282  0.934469  1
  Co  Co4  1  0.170209  0.340654  0.750000  1
  Co  Co5  1  0.834847  0.662325  0.250000  1
  Os  Os6  1  0.175426  0.832900  0.750000  1
  Os  Os7  1  0.659744  0.833498  0.750000  1
  Os  Os8  1  0.830708  0.167819  0.250000  1
  Ru  Ru9  1  0.992900  0.997047  0.499162  1
  Ru  Ru10  1  0.992900  0.997047  0.000838  1
  Ru  Ru11  1  0.348533  0.169720  0.250000  1
