# generated using pymatgen
data_Er6Tm6Ni5Bi
_symmetry_space_group_name_H-M   'P 1'
_cell_length_a   8.27486829
_cell_length_b   8.25779482
_cell_length_c   8.25779354
_cell_angle_alpha   109.36762598
_cell_angle_beta   111.68684883
_cell_angle_gamma   107.30506123
_symmetry_Int_Tables_number   1
_chemical_formula_structural   Er6Tm6Ni5Bi
_chemical_formula_sum   'Er6 Tm6 Ni5 Bi1'
_cell_volume   434.18955023
_cell_formula_units_Z   1
loop_
 _symmetry_equiv_pos_site_id
 _symmetry_equiv_pos_as_xyz
  1  'x, y, z'
loop_
 _atom_site_type_symbol
 _atom_site_label
 _atom_site_symmetry_multiplicity
 _atom_site_fract_x
 _atom_site_fract_y
 _atom_site_fract_z
 _atom_site_occupancy
  Er  Er0  1  0.292002  0.178319  0.470929  1
  Er  Er1  1  0.707998  0.821681  0.529071  1
  Er  Er2  1  0.292002  0.821073  0.113683  1
  Er  Er3  1  0.707998  0.178927  0.886317  1
  Er  Er4  1  0.628234  0.320181  0.308054  1
  Er  Er5  1  0.371766  0.679819  0.691946  1
  Tm  Tm6  1  0.013033  0.321064  0.691970  1
  Tm  Tm7  1  0.986967  0.678936  0.308030  1
  Tm  Tm8  1  0.208035  0.401695  0.192816  1
  Tm  Tm9  1  0.791965  0.598305  0.807184  1
  Tm  Tm10  1  0.208035  0.015219  0.806339  1
  Tm  Tm11  1  0.791965  0.984781  0.193661  1
  Ni  Ni12  1  0.000000  0.364734  0.364734  1
  Ni  Ni13  1  0.000000  0.635266  0.635266  1
  Ni  Ni14  1  0.373443  0.875092  0.498351  1
  Ni  Ni15  1  0.626557  0.124908  0.501649  1
  Ni  Ni16  1  0.000000  0.000000  0.000000  1
  Bi  Bi17  1  0.500000  0.500000  0.000000  1
