# generated using pymatgen
data_Tb11Dy5Cd4Co3Ni
_symmetry_space_group_name_H-M   'P 1'
_cell_length_a   9.53248953
_cell_length_b   9.53213354
_cell_length_c   9.53226270
_cell_angle_alpha   60.14924084
_cell_angle_beta   60.11217020
_cell_angle_gamma   60.21376522
_symmetry_Int_Tables_number   1
_chemical_formula_structural   Tb11Dy5Cd4Co3Ni
_chemical_formula_sum   'Tb11 Dy5 Cd4 Co3 Ni1'
_cell_volume   614.65585807
_cell_formula_units_Z   1
loop_
 _symmetry_equiv_pos_site_id
 _symmetry_equiv_pos_as_xyz
  1  'x, y, z'
loop_
 _atom_site_type_symbol
 _atom_site_label
 _atom_site_symmetry_multiplicity
 _atom_site_fract_x
 _atom_site_fract_y
 _atom_site_fract_z
 _atom_site_occupancy
  Tb  Tb0  1  0.812497  0.188606  0.812719  1
  Tb  Tb1  1  0.439003  0.056387  0.438483  1
  Tb  Tb2  1  0.600080  0.207970  0.600082  1
  Tb  Tb3  1  0.812562  0.812579  0.188723  1
  Tb  Tb4  1  0.208029  0.600326  0.599609  1
  Tb  Tb5  1  0.811987  0.188338  0.188135  1
  Tb  Tb6  1  0.056288  0.439116  0.438679  1
  Tb  Tb7  1  0.188384  0.812172  0.187737  1
  Tb  Tb8  1  0.599387  0.600029  0.208311  1
  Tb  Tb9  1  0.188070  0.187662  0.812627  1
  Tb  Tb10  1  0.061971  0.435814  0.061209  1
  Dy  Dy11  1  0.439082  0.439042  0.056022  1
  Dy  Dy12  1  0.594984  0.594960  0.595913  1
  Dy  Dy13  1  0.189042  0.812285  0.812529  1
  Dy  Dy14  1  0.061653  0.061157  0.435710  1
  Dy  Dy15  1  0.435911  0.061646  0.061392  1
  Cd  Cd16  1  0.830328  0.830369  0.507804  1
  Cd  Cd17  1  0.830422  0.830324  0.830060  1
  Cd  Cd18  1  0.507370  0.830246  0.830499  1
  Cd  Cd19  1  0.830107  0.507707  0.830390  1
  Co  Co20  1  0.826986  0.391750  0.392306  1
  Co  Co21  1  0.391639  0.827074  0.392436  1
  Co  Co22  1  0.392012  0.392234  0.826957  1
  Ni  Ni23  1  0.392209  0.392209  0.391669  1
