# generated using pymatgen
data_Yb3Co29(Si2B5)2
_symmetry_space_group_name_H-M   'P 1'
_cell_length_a   11.10897500
_cell_length_b   11.10897500
_cell_length_c   7.80901000
_cell_angle_alpha   90.00000000
_cell_angle_beta   90.00000000
_cell_angle_gamma   90.00000000
_symmetry_Int_Tables_number   1
_chemical_formula_structural   Yb3Co29(Si2B5)2
_chemical_formula_sum   'Yb6 Co58 Si8 B20'
_cell_volume   963.70465732
_cell_formula_units_Z   2
loop_
 _symmetry_equiv_pos_site_id
 _symmetry_equiv_pos_as_xyz
  1  'x, y, z'
loop_
 _atom_site_type_symbol
 _atom_site_label
 _atom_site_symmetry_multiplicity
 _atom_site_fract_x
 _atom_site_fract_y
 _atom_site_fract_z
 _atom_site_occupancy
  Yb  Yb0  1  0.500000  0.500000  0.500000  1
  Yb  Yb1  1  0.000000  0.000000  0.500000  1
  Yb  Yb2  1  0.750000  0.250000  0.000000  1
  Yb  Yb3  1  0.750000  0.750000  0.000000  1
  Yb  Yb4  1  0.250000  0.250000  0.000000  1
  Yb  Yb5  1  0.250000  0.750000  0.000000  1
  Co  Co6  1  0.000000  0.500000  0.464035  1
  Co  Co7  1  0.500000  0.000000  0.535965  1
  Co  Co8  1  0.389873  0.500000  0.888101  1
  Co  Co9  1  0.000000  0.110127  0.888101  1
  Co  Co10  1  0.000000  0.889873  0.888101  1
  Co  Co11  1  0.610127  0.500000  0.888101  1
  Co  Co12  1  0.110127  0.000000  0.111899  1
  Co  Co13  1  0.889873  0.000000  0.111899  1
  Co  Co14  1  0.500000  0.389873  0.111899  1
  Co  Co15  1  0.500000  0.610127  0.111899  1
  Co  Co16  1  0.772226  0.500000  0.472363  1
  Co  Co17  1  0.000000  0.727774  0.472363  1
  Co  Co18  1  0.000000  0.272226  0.472363  1
  Co  Co19  1  0.227774  0.500000  0.472363  1
  Co  Co20  1  0.727774  0.000000  0.527637  1
  Co  Co21  1  0.272226  0.000000  0.527637  1
  Co  Co22  1  0.500000  0.772226  0.527637  1
  Co  Co23  1  0.500000  0.227774  0.527637  1
  Co  Co24  1  0.835187  0.500000  0.968877  1
  Co  Co25  1  0.000000  0.664813  0.968877  1
  Co  Co26  1  0.000000  0.335187  0.968877  1
  Co  Co27  1  0.164813  0.500000  0.968877  1
  Co  Co28  1  0.664813  0.000000  0.031123  1
  Co  Co29  1  0.335187  0.000000  0.031123  1
  Co  Co30  1  0.500000  0.835187  0.031123  1
  Co  Co31  1  0.500000  0.164813  0.031123  1
  Co  Co32  1  0.884360  0.384360  0.247672  1
  Co  Co33  1  0.884360  0.615640  0.247672  1
  Co  Co34  1  0.115640  0.384360  0.247672  1
  Co  Co35  1  0.115640  0.615640  0.247672  1
  Co  Co36  1  0.615640  0.884360  0.752328  1
  Co  Co37  1  0.384360  0.115640  0.752328  1
  Co  Co38  1  0.384360  0.884360  0.752328  1
  Co  Co39  1  0.615640  0.115640  0.752328  1
  Co  Co40  1  0.889977  0.389977  0.697377  1
  Co  Co41  1  0.889977  0.610023  0.697377  1
  Co  Co42  1  0.110023  0.389977  0.697377  1
  Co  Co43  1  0.110023  0.610023  0.697377  1
  Co  Co44  1  0.610023  0.889977  0.302623  1
  Co  Co45  1  0.389977  0.110023  0.302623  1
  Co  Co46  1  0.389977  0.889977  0.302623  1
  Co  Co47  1  0.610023  0.110023  0.302623  1
  Co  Co48  1  0.338591  0.325131  0.336071  1
  Co  Co49  1  0.825131  0.161409  0.336071  1
  Co  Co50  1  0.174869  0.838591  0.336071  1
  Co  Co51  1  0.661409  0.674869  0.336071  1
  Co  Co52  1  0.161409  0.825131  0.663929  1
  Co  Co53  1  0.838591  0.174869  0.663929  1
  Co  Co54  1  0.325131  0.338591  0.663929  1
  Co  Co55  1  0.674869  0.661409  0.663929  1
  Co  Co56  1  0.161409  0.174869  0.663929  1
  Co  Co57  1  0.674869  0.338591  0.663929  1
  Co  Co58  1  0.325131  0.661409  0.663929  1
  Co  Co59  1  0.838591  0.825131  0.663929  1
  Co  Co60  1  0.338591  0.674869  0.336071  1
  Co  Co61  1  0.661409  0.325131  0.336071  1
  Co  Co62  1  0.174869  0.161409  0.336071  1
  Co  Co63  1  0.825131  0.838591  0.336071  1
  Si  Si64  1  0.317641  0.500000  0.174470  1
  Si  Si65  1  0.000000  0.182359  0.174470  1
  Si  Si66  1  0.000000  0.817641  0.174470  1
  Si  Si67  1  0.682359  0.500000  0.174470  1
  Si  Si68  1  0.182359  0.000000  0.825530  1
  Si  Si69  1  0.817641  0.000000  0.825530  1
  Si  Si70  1  0.500000  0.317641  0.825530  1
  Si  Si71  1  0.500000  0.682359  0.825530  1
  B  B72  1  0.000000  0.500000  0.106249  1
  B  B73  1  0.500000  0.000000  0.893751  1
  B  B74  1  0.000000  0.500000  0.849512  1
  B  B75  1  0.500000  0.000000  0.150488  1
  B  B76  1  0.743949  0.500000  0.735793  1
  B  B77  1  0.000000  0.756051  0.735793  1
  B  B78  1  0.000000  0.243949  0.735793  1
  B  B79  1  0.256051  0.500000  0.735793  1
  B  B80  1  0.756051  0.000000  0.264207  1
  B  B81  1  0.243949  0.000000  0.264207  1
  B  B82  1  0.500000  0.743949  0.264207  1
  B  B83  1  0.500000  0.256051  0.264207  1
  B  B84  1  0.814414  0.314414  0.480676  1
  B  B85  1  0.814414  0.685586  0.480676  1
  B  B86  1  0.185586  0.314414  0.480676  1
  B  B87  1  0.185586  0.685586  0.480676  1
  B  B88  1  0.685586  0.814414  0.519324  1
  B  B89  1  0.314414  0.185586  0.519324  1
  B  B90  1  0.314414  0.814414  0.519324  1
  B  B91  1  0.685586  0.185586  0.519324  1
