# generated using pymatgen
data_Ta3Mn4Si4W
_symmetry_space_group_name_H-M   'P 1'
_cell_length_a   3.54567900
_cell_length_b   6.30766509
_cell_length_c   7.40432873
_cell_angle_alpha   90.37147832
_cell_angle_beta   90.00000000
_cell_angle_gamma   90.00000000
_symmetry_Int_Tables_number   1
_chemical_formula_structural   Ta3Mn4Si4W
_chemical_formula_sum   'Ta3 Mn4 Si4 W1'
_cell_volume   165.59400309
_cell_formula_units_Z   1
loop_
 _symmetry_equiv_pos_site_id
 _symmetry_equiv_pos_as_xyz
  1  'x, y, z'
loop_
 _atom_site_type_symbol
 _atom_site_label
 _atom_site_symmetry_multiplicity
 _atom_site_fract_x
 _atom_site_fract_y
 _atom_site_fract_z
 _atom_site_occupancy
  Ta  Ta0  1  0.250000  0.534356  0.328445  1
  Ta  Ta1  1  0.250000  0.032803  0.171138  1
  Ta  Ta2  1  0.750000  0.467371  0.673071  1
  Mn  Mn3  1  0.750000  0.359465  0.059930  1
  Mn  Mn4  1  0.250000  0.637239  0.938590  1
  Mn  Mn5  1  0.750000  0.863403  0.439468  1
  Mn  Mn6  1  0.250000  0.139329  0.560032  1
  Si  Si7  1  0.250000  0.770342  0.633453  1
  Si  Si8  1  0.750000  0.235094  0.368831  1
  Si  Si9  1  0.250000  0.261480  0.867510  1
  Si  Si10  1  0.750000  0.733393  0.128853  1
  W  W11  1  0.750000  0.965722  0.830679  1
