# generated using pymatgen
data_Ti3Nb3Al4(PtC)2
_symmetry_space_group_name_H-M   'P 1'
_cell_length_a   8.31026031
_cell_length_b   8.31026073
_cell_length_c   8.30500800
_cell_angle_alpha   60.02090675
_cell_angle_beta   60.02090508
_cell_angle_gamma   59.99758287
_symmetry_Int_Tables_number   1
_chemical_formula_structural   Ti3Nb3Al4(PtC)2
_chemical_formula_sum   'Ti6 Nb6 Al8 Pt4 C4'
_cell_volume   405.67996221
_cell_formula_units_Z   2
loop_
 _symmetry_equiv_pos_site_id
 _symmetry_equiv_pos_as_xyz
  1  'x, y, z'
loop_
 _atom_site_type_symbol
 _atom_site_label
 _atom_site_symmetry_multiplicity
 _atom_site_fract_x
 _atom_site_fract_y
 _atom_site_fract_z
 _atom_site_occupancy
  Ti  Ti0  1  0.565823  0.935106  0.564510  1
  Ti  Ti1  1  0.565823  0.935106  0.934561  1
  Ti  Ti2  1  0.935106  0.565823  0.564510  1
  Ti  Ti3  1  0.935106  0.565823  0.934561  1
  Ti  Ti4  1  0.315013  0.315013  0.684987  1
  Ti  Ti5  1  0.565255  0.565255  0.934745  1
  Nb  Nb6  1  0.934730  0.934730  0.565270  1
  Nb  Nb7  1  0.685431  0.314898  0.315162  1
  Nb  Nb8  1  0.314898  0.685431  0.684509  1
  Nb  Nb9  1  0.684119  0.684119  0.315881  1
  Nb  Nb10  1  0.685431  0.314898  0.684509  1
  Nb  Nb11  1  0.314898  0.685431  0.315162  1
  Al  Al12  1  0.914965  0.255825  0.914606  1
  Al  Al13  1  0.333793  0.333793  0.996966  1
  Al  Al14  1  0.998636  0.333935  0.333714  1
  Al  Al15  1  0.333793  0.333793  0.335446  1
  Al  Al16  1  0.255825  0.914965  0.914606  1
  Al  Al17  1  0.914633  0.914633  0.916401  1
  Al  Al18  1  0.914633  0.914633  0.254334  1
  Al  Al19  1  0.333935  0.998636  0.333714  1
  Pt  Pt20  1  0.125643  0.624382  0.124988  1
  Pt  Pt21  1  0.126074  0.126074  0.625755  1
  Pt  Pt22  1  0.624382  0.125643  0.124988  1
  Pt  Pt23  1  0.126074  0.126074  0.122097  1
  C  C24  1  0.617082  0.123081  0.629918  1
  C  C25  1  0.627910  0.627910  0.115696  1
  C  C26  1  0.123081  0.617082  0.629918  1
  C  C27  1  0.627910  0.627910  0.628485  1
