# generated using pymatgen
data_Y2Ho4ReSb2
_symmetry_space_group_name_H-M   'P 1'
_cell_length_a   8.15102549
_cell_length_b   8.13620902
_cell_length_c   4.30330400
_cell_angle_alpha   90.00000000
_cell_angle_beta   90.00000000
_cell_angle_gamma   119.93988852
_symmetry_Int_Tables_number   1
_chemical_formula_structural   Y2Ho4ReSb2
_chemical_formula_sum   'Y2 Ho4 Re1 Sb2'
_cell_volume   247.30320848
_cell_formula_units_Z   1
loop_
 _symmetry_equiv_pos_site_id
 _symmetry_equiv_pos_as_xyz
  1  'x, y, z'
loop_
 _atom_site_type_symbol
 _atom_site_label
 _atom_site_symmetry_multiplicity
 _atom_site_fract_x
 _atom_site_fract_y
 _atom_site_fract_z
 _atom_site_occupancy
  Y  Y0  1  0.604384  0.999985  0.500000  1
  Y  Y1  1  0.395616  0.395601  0.500000  1
  Ho  Ho2  1  0.235219  0.999513  0.000000  1
  Ho  Ho3  1  0.764781  0.764294  0.000000  1
  Ho  Ho4  1  0.000000  0.235662  0.000000  1
  Ho  Ho5  1  0.000000  0.605717  0.500000  1
  Re  Re6  1  0.000000  0.999014  0.500000  1
  Sb  Sb7  1  0.333143  0.666679  0.000000  1
  Sb  Sb8  1  0.666857  0.333535  0.000000  1
