# generated using pymatgen
data_Yb2InSbO6
_symmetry_space_group_name_H-M   'P 1'
_cell_length_a   6.51125867
_cell_length_b   6.49987189
_cell_length_c   6.52547772
_cell_angle_alpha   91.61675235
_cell_angle_beta   91.20127103
_cell_angle_gamma   90.89421519
_symmetry_Int_Tables_number   1
_chemical_formula_structural   Yb2InSbO6
_chemical_formula_sum   'Yb4 In2 Sb2 O12'
_cell_volume   275.96666325
_cell_formula_units_Z   2
loop_
 _symmetry_equiv_pos_site_id
 _symmetry_equiv_pos_as_xyz
  1  'x, y, z'
loop_
 _atom_site_type_symbol
 _atom_site_label
 _atom_site_symmetry_multiplicity
 _atom_site_fract_x
 _atom_site_fract_y
 _atom_site_fract_z
 _atom_site_occupancy
  Yb  Yb0  1  0.563688  0.060035  0.754485  1
  Yb  Yb1  1  0.936699  0.248138  0.437050  1
  Yb  Yb2  1  0.250392  0.431146  0.940642  1
  Yb  Yb3  1  0.438032  0.946528  0.251854  1
  In  In4  1  0.062420  0.751279  0.563594  1
  In  In5  1  0.749355  0.565331  0.056620  1
  Sb  Sb6  1  0.502446  0.505709  0.500494  1
  Sb  Sb7  1  0.999143  0.995185  0.001304  1
  O  O8  1  0.034673  0.695634  0.912752  1
  O  O9  1  0.707989  0.903548  0.043027  1
  O  O10  1  0.923181  0.027774  0.702491  1
  O  O11  1  0.942878  0.293394  0.082810  1
  O  O12  1  0.288327  0.080994  0.960565  1
  O  O13  1  0.082760  0.950788  0.296583  1
  O  O14  1  0.799146  0.586340  0.421693  1
  O  O15  1  0.578458  0.435421  0.794311  1
  O  O16  1  0.413180  0.796526  0.571403  1
  O  O17  1  0.206114  0.440910  0.568112  1
  O  O18  1  0.446120  0.569809  0.203455  1
  O  O19  1  0.574999  0.215512  0.436753  1
