# generated using pymatgen
data_LuHf7H30
_symmetry_space_group_name_H-M   'P 1'
_cell_length_a   6.95514599
_cell_length_b   6.95514583
_cell_length_c   6.95514611
_cell_angle_alpha   109.41193290
_cell_angle_beta   109.41193013
_cell_angle_gamma   109.41193422
_symmetry_Int_Tables_number   1
_chemical_formula_structural   LuHf7H30
_chemical_formula_sum   'Lu1 Hf7 H30'
_cell_volume   259.56523390
_cell_formula_units_Z   1
loop_
 _symmetry_equiv_pos_site_id
 _symmetry_equiv_pos_as_xyz
  1  'x, y, z'
loop_
 _atom_site_type_symbol
 _atom_site_label
 _atom_site_symmetry_multiplicity
 _atom_site_fract_x
 _atom_site_fract_y
 _atom_site_fract_z
 _atom_site_occupancy
  Lu  Lu0  1  0.906558  0.906558  0.906558  1
  Hf  Hf1  1  0.500850  0.001406  0.101858  1
  Hf  Hf2  1  0.001406  0.101858  0.500850  1
  Hf  Hf3  1  0.101858  0.500850  0.001406  1
  Hf  Hf4  1  0.999662  0.601072  0.497093  1
  Hf  Hf5  1  0.601072  0.497093  0.999662  1
  Hf  Hf6  1  0.497093  0.999662  0.601072  1
  Hf  Hf7  1  0.406820  0.406820  0.406820  1
  H  H8  1  0.656397  0.971743  0.386712  1
  H  H9  1  0.227377  0.311734  0.844184  1
  H  H10  1  0.188849  0.420244  0.531963  1
  H  H11  1  0.094546  0.284275  0.123043  1
  H  H12  1  0.284275  0.123043  0.094546  1
  H  H13  1  0.123043  0.094546  0.284275  1
  H  H14  1  0.462552  0.154251  0.884885  1
  H  H15  1  0.726655  0.341361  0.813387  1
  H  H16  1  0.628187  0.371756  0.247850  1
  H  H17  1  0.247850  0.628187  0.371756  1
  H  H18  1  0.746307  0.870222  0.130274  1
  H  H19  1  0.130274  0.746307  0.870222  1
  H  H20  1  0.371756  0.247850  0.628187  1
  H  H21  1  0.870222  0.130274  0.746307  1
  H  H22  1  0.766509  0.575101  0.602462  1
  H  H23  1  0.311734  0.844184  0.227377  1
  H  H24  1  0.386712  0.656397  0.971743  1
  H  H25  1  0.971743  0.386712  0.656397  1
  H  H26  1  0.531963  0.188849  0.420244  1
  H  H27  1  0.420244  0.531963  0.188849  1
  H  H28  1  0.844184  0.227377  0.311734  1
  H  H29  1  0.914228  0.675305  0.032322  1
  H  H30  1  0.813387  0.726655  0.341361  1
  H  H31  1  0.154251  0.884885  0.462552  1
  H  H32  1  0.675305  0.032322  0.914228  1
  H  H33  1  0.341361  0.813387  0.726655  1
  H  H34  1  0.884885  0.462552  0.154251  1
  H  H35  1  0.602462  0.766509  0.575101  1
  H  H36  1  0.575101  0.602462  0.766509  1
  H  H37  1  0.032322  0.914228  0.675305  1
