# generated using pymatgen
data_CaHo5In3
_symmetry_space_group_name_H-M   'P 1'
_cell_length_a   9.31311100
_cell_length_b   9.31311200
_cell_length_c   6.75554800
_cell_angle_alpha   90.00000000
_cell_angle_beta   90.00000000
_cell_angle_gamma   120.00000711
_symmetry_Int_Tables_number   1
_chemical_formula_structural   CaHo5In3
_chemical_formula_sum   'Ca2 Ho10 In6'
_cell_volume   507.43543289
_cell_formula_units_Z   2
loop_
 _symmetry_equiv_pos_site_id
 _symmetry_equiv_pos_as_xyz
  1  'x, y, z'
loop_
 _atom_site_type_symbol
 _atom_site_label
 _atom_site_symmetry_multiplicity
 _atom_site_fract_x
 _atom_site_fract_y
 _atom_site_fract_z
 _atom_site_occupancy
  Ca  Ca0  1  0.000000  0.000000  0.500000  1
  Ca  Ca1  1  0.000000  0.000000  0.000000  1
  Ho  Ho2  1  0.666040  0.666040  0.250000  1
  Ho  Ho3  1  0.000000  0.666040  0.750000  1
  Ho  Ho4  1  0.666040  0.000000  0.750000  1
  Ho  Ho5  1  0.333333  0.666667  0.500000  1
  Ho  Ho6  1  0.333960  0.333960  0.750000  1
  Ho  Ho7  1  0.000000  0.333960  0.250000  1
  Ho  Ho8  1  0.666667  0.333333  0.500000  1
  Ho  Ho9  1  0.333960  0.000000  0.250000  1
  Ho  Ho10  1  0.333333  0.666667  0.000000  1
  Ho  Ho11  1  0.666667  0.333333  0.000000  1
  In  In12  1  0.334492  0.000000  0.750000  1
  In  In13  1  0.000000  0.665508  0.250000  1
  In  In14  1  0.665508  0.000000  0.250000  1
  In  In15  1  0.000000  0.334492  0.750000  1
  In  In16  1  0.334492  0.334492  0.250000  1
  In  In17  1  0.665508  0.665508  0.750000  1
