# generated using pymatgen
data_Tb2DyU5(ReB6)4
_symmetry_space_group_name_H-M   'P 1'
_cell_length_a   3.64244500
_cell_length_b   9.30881340
_cell_length_c   11.41499805
_cell_angle_alpha   89.98844510
_cell_angle_beta   89.99981025
_cell_angle_gamma   90.00006836
_symmetry_Int_Tables_number   1
_chemical_formula_structural   Tb2DyU5(ReB6)4
_chemical_formula_sum   'Tb2 Dy1 U5 Re4 B24'
_cell_volume   387.04651421
_cell_formula_units_Z   1
loop_
 _symmetry_equiv_pos_site_id
 _symmetry_equiv_pos_as_xyz
  1  'x, y, z'
loop_
 _atom_site_type_symbol
 _atom_site_label
 _atom_site_symmetry_multiplicity
 _atom_site_fract_x
 _atom_site_fract_y
 _atom_site_fract_z
 _atom_site_occupancy
  Tb  Tb0  1  0.999999  0.336810  0.407657  1
  Tb  Tb1  1  0.000006  0.663346  0.591942  1
  Dy  Dy2  1  0.999998  0.835616  0.092996  1
  U  U3  1  0.000001  0.163294  0.907226  1
  U  U4  1  0.000011  0.956380  0.396997  1
  U  U5  1  0.999989  0.042644  0.603457  1
  U  U6  1  0.999994  0.457824  0.103694  1
  U  U7  1  0.999992  0.543617  0.897153  1
  Re  Re8  1  0.000011  0.645964  0.318674  1
  Re  Re9  1  0.999994  0.351935  0.683888  1
  Re  Re10  1  0.000014  0.146013  0.177948  1
  Re  Re11  1  0.000002  0.857475  0.819569  1
  B  B12  1  0.499999  0.551905  0.431039  1
  B  B13  1  0.499998  0.447322  0.569882  1
  B  B14  1  0.500002  0.052563  0.067564  1
  B  B15  1  0.500001  0.950170  0.930480  1
  B  B16  1  0.500001  0.743151  0.423050  1
  B  B17  1  0.500002  0.256774  0.576989  1
  B  B18  1  0.500001  0.242864  0.075817  1
  B  B19  1  0.500000  0.756552  0.922762  1
  B  B20  1  0.500004  0.802293  0.275087  1
  B  B21  1  0.500000  0.196430  0.726406  1
  B  B22  1  0.500000  0.302255  0.224747  1
  B  B23  1  0.499992  0.698077  0.775003  1
  B  B24  1  0.499997  0.643984  0.188625  1
  B  B25  1  0.500001  0.354718  0.812215  1
  B  B26  1  0.500003  0.144164  0.310879  1
  B  B27  1  0.500002  0.855414  0.688462  1
  B  B28  1  0.499999  0.989359  0.219422  1
  B  B29  1  0.499995  0.013001  0.781086  1
  B  B30  1  0.500004  0.489014  0.280646  1
  B  B31  1  0.499993  0.510881  0.719749  1
  B  B32  1  0.499998  0.640784  0.038734  1
  B  B33  1  0.500000  0.357264  0.960468  1
  B  B34  1  0.499997  0.139813  0.460933  1
  B  B35  1  0.500001  0.860331  0.538758  1
