# generated using pymatgen
data_Rb2Cd(GeO3)2
_symmetry_space_group_name_H-M   'P 1'
_cell_length_a   6.26428260
_cell_length_b   6.26428310
_cell_length_c   11.34960800
_cell_angle_alpha   90.00000000
_cell_angle_beta   90.00000000
_cell_angle_gamma   65.15805170
_symmetry_Int_Tables_number   1
_chemical_formula_structural   Rb2Cd(GeO3)2
_chemical_formula_sum   'Rb4 Cd2 Ge4 O12'
_cell_volume   404.16241438
_cell_formula_units_Z   2
loop_
 _symmetry_equiv_pos_site_id
 _symmetry_equiv_pos_as_xyz
  1  'x, y, z'
loop_
 _atom_site_type_symbol
 _atom_site_label
 _atom_site_symmetry_multiplicity
 _atom_site_fract_x
 _atom_site_fract_y
 _atom_site_fract_z
 _atom_site_occupancy
  Rb  Rb0  1  0.566955  0.777992  0.174995  1
  Rb  Rb1  1  0.222008  0.433044  0.325005  1
  Rb  Rb2  1  0.433044  0.222008  0.674995  1
  Rb  Rb3  1  0.777992  0.566955  0.825005  1
  Cd  Cd4  1  0.306958  0.306958  0.000000  1
  Cd  Cd5  1  0.693043  0.693043  0.500000  1
  Ge  Ge6  1  0.867618  0.162271  0.115685  1
  Ge  Ge7  1  0.837728  0.132381  0.384316  1
  Ge  Ge8  1  0.132381  0.837728  0.615683  1
  Ge  Ge9  1  0.162271  0.867618  0.884317  1
  O  O10  1  0.943743  0.943743  0.000000  1
  O  O11  1  0.966923  0.380024  0.087036  1
  O  O12  1  0.562131  0.271746  0.136941  1
  O  O13  1  0.004106  0.995894  0.250000  1
  O  O14  1  0.728254  0.437869  0.363060  1
  O  O15  1  0.619976  0.033078  0.412964  1
  O  O16  1  0.056259  0.056259  0.500000  1
  O  O17  1  0.033078  0.619976  0.587035  1
  O  O18  1  0.437869  0.728254  0.636940  1
  O  O19  1  0.995894  0.004106  0.750001  1
  O  O20  1  0.271746  0.562131  0.863060  1
  O  O21  1  0.380024  0.966923  0.912964  1
