# generated using pymatgen
data_Ce(TiS2)4
_symmetry_space_group_name_H-M   'P 1'
_cell_length_a   7.69601037
_cell_length_b   7.69601001
_cell_length_c   7.69601018
_cell_angle_alpha   53.42152539
_cell_angle_beta   53.42152906
_cell_angle_gamma   53.42152153
_symmetry_Int_Tables_number   1
_chemical_formula_structural   Ce(TiS2)4
_chemical_formula_sum   'Ce1 Ti4 S8'
_cell_volume   272.68789192
_cell_formula_units_Z   1
loop_
 _symmetry_equiv_pos_site_id
 _symmetry_equiv_pos_as_xyz
  1  'x, y, z'
loop_
 _atom_site_type_symbol
 _atom_site_label
 _atom_site_symmetry_multiplicity
 _atom_site_fract_x
 _atom_site_fract_y
 _atom_site_fract_z
 _atom_site_occupancy
  Ce  Ce0  1  0.500000  0.500000  0.500000  1
  Ti  Ti1  1  0.000000  0.500000  0.500000  1
  Ti  Ti2  1  0.500000  0.000000  0.500000  1
  Ti  Ti3  1  0.500000  0.500000  0.000000  1
  Ti  Ti4  1  0.000000  0.000000  0.000000  1
  S  S5  1  0.252909  0.763590  0.763590  1
  S  S6  1  0.236410  0.236410  0.747091  1
  S  S7  1  0.747091  0.236410  0.236410  1
  S  S8  1  0.236410  0.747091  0.236410  1
  S  S9  1  0.263165  0.263165  0.263165  1
  S  S10  1  0.736835  0.736835  0.736835  1
  S  S11  1  0.763590  0.252909  0.763590  1
  S  S12  1  0.763590  0.763590  0.252909  1
