# generated using pymatgen
data_Bi3Pb5F28
_symmetry_space_group_name_H-M   'P 1'
_cell_length_a   5.82304387
_cell_length_b   9.51881768
_cell_length_c   12.67969000
_cell_angle_alpha   61.71880656
_cell_angle_beta   90.21203164
_cell_angle_gamma   90.02988542
_symmetry_Int_Tables_number   1
_chemical_formula_structural   Bi3Pb5F28
_chemical_formula_sum   'Bi3 Pb5 F28'
_cell_volume   618.91815732
_cell_formula_units_Z   1
loop_
 _symmetry_equiv_pos_site_id
 _symmetry_equiv_pos_as_xyz
  1  'x, y, z'
loop_
 _atom_site_type_symbol
 _atom_site_label
 _atom_site_symmetry_multiplicity
 _atom_site_fract_x
 _atom_site_fract_y
 _atom_site_fract_z
 _atom_site_occupancy
  Bi  Bi0  1  0.756674  0.818031  0.762909  1
  Bi  Bi1  1  0.256001  0.181423  0.738066  1
  Bi  Bi2  1  0.245390  0.180692  0.237398  1
  Pb  Pb3  1  0.745456  0.816887  0.262752  1
  Pb  Pb4  1  0.757202  0.272967  0.958153  1
  Pb  Pb5  1  0.257490  0.726590  0.541345  1
  Pb  Pb6  1  0.244273  0.725258  0.043949  1
  Pb  Pb7  1  0.742460  0.274588  0.457611  1
  F  F8  1  0.452084  0.707800  0.914609  1
  F  F9  1  0.950833  0.292541  0.586919  1
  F  F10  1  0.547079  0.289935  0.087037  1
  F  F11  1  0.048639  0.709972  0.411205  1
  F  F12  1  0.434721  0.273656  0.547620  1
  F  F13  1  0.936401  0.724645  0.953038  1
  F  F14  1  0.564807  0.728244  0.448485  1
  F  F15  1  0.064410  0.274869  0.048595  1
  F  F16  1  0.776315  0.520943  0.858736  1
  F  F17  1  0.279385  0.478249  0.640566  1
  F  F18  1  0.224660  0.476272  0.143213  1
  F  F19  1  0.719185  0.523641  0.358906  1
  F  F20  1  0.762699  0.021646  0.056371  1
  F  F21  1  0.260766  0.979405  0.440311  1
  F  F22  1  0.241033  0.978257  0.941557  1
  F  F23  1  0.740595  0.022165  0.559195  1
  F  F24  1  0.970855  0.734578  0.640307  1
  F  F25  1  0.470203  0.266377  0.858222  1
  F  F26  1  0.027530  0.266717  0.357664  1
  F  F27  1  0.532313  0.734945  0.144832  1
  F  F28  1  0.044961  0.748048  0.176715  1
  F  F29  1  0.544552  0.251829  0.325222  1
  F  F30  1  0.956022  0.251598  0.825940  1
  F  F31  1  0.453948  0.751515  0.672911  1
  F  F32  1  0.417991  0.971190  0.231787  1
  F  F33  1  0.918995  0.025936  0.266617  1
  F  F34  1  0.577767  0.024858  0.766982  1
  F  F35  1  0.076304  0.973732  0.734260  1
