# generated using pymatgen
data_EuGa2IrPd
_symmetry_space_group_name_H-M   'P 1'
_cell_length_a   4.39547500
_cell_length_b   4.39547500
_cell_length_c   10.13288000
_cell_angle_alpha   90.00000000
_cell_angle_beta   90.00000000
_cell_angle_gamma   90.00000000
_symmetry_Int_Tables_number   1
_chemical_formula_structural   EuGa2IrPd
_chemical_formula_sum   'Eu2 Ga4 Ir2 Pd2'
_cell_volume   195.76927300
_cell_formula_units_Z   2
loop_
 _symmetry_equiv_pos_site_id
 _symmetry_equiv_pos_as_xyz
  1  'x, y, z'
loop_
 _atom_site_type_symbol
 _atom_site_label
 _atom_site_symmetry_multiplicity
 _atom_site_fract_x
 _atom_site_fract_y
 _atom_site_fract_z
 _atom_site_occupancy
  Eu  Eu0  1  0.000000  0.500000  0.253512  1
  Eu  Eu1  1  0.500000  0.000000  0.746488  1
  Ga  Ga2  1  0.000000  0.000000  0.500000  1
  Ga  Ga3  1  0.500000  0.500000  0.500000  1
  Ga  Ga4  1  0.000000  0.500000  0.872202  1
  Ga  Ga5  1  0.500000  0.000000  0.127798  1
  Ir  Ir6  1  0.000000  0.500000  0.628040  1
  Ir  Ir7  1  0.500000  0.000000  0.371960  1
  Pd  Pd8  1  0.000000  0.000000  0.000000  1
  Pd  Pd9  1  0.500000  0.500000  0.000000  1
