# generated using pymatgen
data_Dy3HoTc3PtF28
_symmetry_space_group_name_H-M   'P 1'
_cell_length_a   5.59459074
_cell_length_b   8.91043077
_cell_length_c   12.01840358
_cell_angle_alpha   62.55548099
_cell_angle_beta   89.93883445
_cell_angle_gamma   89.96760544
_symmetry_Int_Tables_number   1
_chemical_formula_structural   Dy3HoTc3PtF28
_chemical_formula_sum   'Dy3 Ho1 Tc3 Pt1 F28'
_cell_volume   531.69324312
_cell_formula_units_Z   1
loop_
 _symmetry_equiv_pos_site_id
 _symmetry_equiv_pos_as_xyz
  1  'x, y, z'
loop_
 _atom_site_type_symbol
 _atom_site_label
 _atom_site_symmetry_multiplicity
 _atom_site_fract_x
 _atom_site_fract_y
 _atom_site_fract_z
 _atom_site_occupancy
  Dy  Dy0  1  0.759362  0.813544  0.764884  1
  Dy  Dy1  1  0.259362  0.186073  0.734666  1
  Dy  Dy2  1  0.240024  0.185135  0.236832  1
  Ho  Ho3  1  0.741152  0.813021  0.265412  1
  Tc  Tc4  1  0.757362  0.272486  0.957200  1
  Tc  Tc5  1  0.257629  0.726416  0.543033  1
  Tc  Tc6  1  0.242445  0.726608  0.044114  1
  Pt  Pt7  1  0.741088  0.272920  0.456396  1
  F  F8  1  0.447194  0.707233  0.918992  1
  F  F9  1  0.935094  0.297132  0.583806  1
  F  F10  1  0.551298  0.292461  0.081407  1
  F  F11  1  0.053343  0.707587  0.418101  1
  F  F12  1  0.442630  0.279218  0.542289  1
  F  F13  1  0.950143  0.721465  0.953963  1
  F  F14  1  0.551059  0.721499  0.453405  1
  F  F15  1  0.049433  0.277857  0.047669  1
  F  F16  1  0.772126  0.519953  0.859504  1
  F  F17  1  0.271455  0.478914  0.640097  1
  F  F18  1  0.227944  0.479128  0.141864  1
  F  F19  1  0.727010  0.521073  0.357915  1
  F  F20  1  0.756716  0.025890  0.053782  1
  F  F21  1  0.257042  0.973199  0.447419  1
  F  F22  1  0.244000  0.973124  0.946785  1
  F  F23  1  0.744503  0.024617  0.550031  1
  F  F24  1  0.975873  0.728974  0.639774  1
  F  F25  1  0.477157  0.270232  0.859812  1
  F  F26  1  0.031745  0.273983  0.363922  1
  F  F27  1  0.523692  0.730188  0.140550  1
  F  F28  1  0.043138  0.747100  0.172048  1
  F  F29  1  0.552203  0.254673  0.324588  1
  F  F30  1  0.958050  0.253059  0.829267  1
  F  F31  1  0.456581  0.745658  0.671632  1
  F  F32  1  0.420514  0.970796  0.232928  1
  F  F33  1  0.918557  0.027411  0.268406  1
  F  F34  1  0.581657  0.029978  0.766227  1
  F  F35  1  0.081421  0.971398  0.731277  1
