# generated using pymatgen
data_Ho3ErMg2(B2Rh5)2
_symmetry_space_group_name_H-M   'P 1'
_cell_length_a   9.61049603
_cell_length_b   9.60884103
_cell_length_c   3.18049000
_cell_angle_alpha   90.00000000
_cell_angle_beta   90.00000000
_cell_angle_gamma   89.99068684
_symmetry_Int_Tables_number   1
_chemical_formula_structural   Ho3ErMg2(B2Rh5)2
_chemical_formula_sum   'Ho3 Er1 Mg2 B4 Rh10'
_cell_volume   293.70466250
_cell_formula_units_Z   1
loop_
 _symmetry_equiv_pos_site_id
 _symmetry_equiv_pos_as_xyz
  1  'x, y, z'
loop_
 _atom_site_type_symbol
 _atom_site_label
 _atom_site_symmetry_multiplicity
 _atom_site_fract_x
 _atom_site_fract_y
 _atom_site_fract_z
 _atom_site_occupancy
  Ho  Ho0  1  0.676029  0.175714  0.000000  1
  Ho  Ho1  1  0.324293  0.823927  0.000000  1
  Ho  Ho2  1  0.175759  0.324197  0.000000  1
  Er  Er3  1  0.824039  0.675949  0.000000  1
  Mg  Mg4  1  0.000234  0.000249  0.000000  1
  Mg  Mg5  1  0.499668  0.499994  0.000000  1
  B  B6  1  0.121778  0.622666  0.000000  1
  B  B7  1  0.877328  0.378224  0.000000  1
  B  B8  1  0.622720  0.877306  0.000000  1
  B  B9  1  0.378043  0.122030  0.000000  1
  Rh  Rh10  1  0.500188  0.999700  0.500000  1
  Rh  Rh11  1  0.999579  0.500282  0.500000  1
  Rh  Rh12  1  0.224220  0.070026  0.500000  1
  Rh  Rh13  1  0.776546  0.929185  0.500000  1
  Rh  Rh14  1  0.069650  0.776281  0.500000  1
  Rh  Rh15  1  0.723838  0.430367  0.500000  1
  Rh  Rh16  1  0.929445  0.224188  0.500000  1
  Rh  Rh17  1  0.275900  0.570396  0.500000  1
  Rh  Rh18  1  0.570875  0.723428  0.500000  1
  Rh  Rh19  1  0.429869  0.275891  0.500000  1
