# generated using pymatgen
data_Cs7B12(IrPt5)2
_symmetry_space_group_name_H-M   'P 1'
_cell_length_a   9.57985512
_cell_length_b   9.55186959
_cell_length_c   9.55187012
_cell_angle_alpha   111.63649473
_cell_angle_beta   112.17207771
_cell_angle_gamma   112.17207230
_symmetry_Int_Tables_number   1
_chemical_formula_structural   Cs7B12(IrPt5)2
_chemical_formula_sum   'Cs7 B12 Ir2 Pt10'
_cell_volume   601.87327132
_cell_formula_units_Z   1
loop_
 _symmetry_equiv_pos_site_id
 _symmetry_equiv_pos_as_xyz
  1  'x, y, z'
loop_
 _atom_site_type_symbol
 _atom_site_label
 _atom_site_symmetry_multiplicity
 _atom_site_fract_x
 _atom_site_fract_y
 _atom_site_fract_z
 _atom_site_occupancy
  Cs  Cs0  1  0.998555  0.735517  0.733097  1
  Cs  Cs1  1  0.735579  0.732846  0.999166  1
  Cs  Cs2  1  0.735686  0.999340  0.737347  1
  Cs  Cs3  1  0.264421  0.000834  0.267154  1
  Cs  Cs4  1  0.001445  0.266903  0.264483  1
  Cs  Cs5  1  0.264314  0.262653  0.000660  1
  Cs  Cs6  1  0.500000  0.499988  0.500012  1
  B  B7  1  0.277377  0.738210  0.502920  1
  B  B8  1  0.722623  0.497080  0.261790  1
  B  B9  1  0.500000  0.268622  0.731378  1
  B  B10  1  0.726073  0.277426  0.500496  1
  B  B11  1  0.273927  0.499504  0.722574  1
  B  B12  1  0.500000  0.725831  0.274169  1
  B  B13  1  0.063845  0.946004  0.514515  1
  B  B14  1  0.936155  0.485485  0.053996  1
  B  B15  1  0.500000  0.061572  0.938428  1
  B  B16  1  0.945697  0.053986  0.501813  1
  B  B17  1  0.054303  0.498187  0.946014  1
  B  B18  1  0.500000  0.946701  0.053299  1
  Ir  Ir19  1  0.673497  0.328853  0.000321  1
  Ir  Ir20  1  0.326503  0.999679  0.671147  1
  Pt  Pt21  1  0.000000  0.673422  0.326578  1
  Pt  Pt22  1  0.326579  0.673353  0.998761  1
  Pt  Pt23  1  0.673421  0.001239  0.326647  1
  Pt  Pt24  1  0.000000  0.327197  0.672803  1
  Pt  Pt25  1  0.639885  0.250049  0.251159  1
  Pt  Pt26  1  0.251965  0.253262  0.642684  1
  Pt  Pt27  1  0.254461  0.642009  0.251910  1
  Pt  Pt28  1  0.748035  0.357316  0.746738  1
  Pt  Pt29  1  0.360115  0.748841  0.749951  1
  Pt  Pt30  1  0.745539  0.748090  0.357991  1
