# generated using pymatgen
data_YLuTcC2
_symmetry_space_group_name_H-M   'P 1'
_cell_length_a   5.04595400
_cell_length_b   6.55605700
_cell_length_c   9.74493200
_cell_angle_alpha   90.00000000
_cell_angle_beta   90.00000000
_cell_angle_gamma   90.00000000
_symmetry_Int_Tables_number   1
_chemical_formula_structural   YLuTcC2
_chemical_formula_sum   'Y4 Lu4 Tc4 C8'
_cell_volume   322.37757257
_cell_formula_units_Z   4
loop_
 _symmetry_equiv_pos_site_id
 _symmetry_equiv_pos_as_xyz
  1  'x, y, z'
loop_
 _atom_site_type_symbol
 _atom_site_label
 _atom_site_symmetry_multiplicity
 _atom_site_fract_x
 _atom_site_fract_y
 _atom_site_fract_z
 _atom_site_occupancy
  Y  Y0  1  0.250000  0.534871  0.214170  1
  Y  Y1  1  0.750000  0.465129  0.785830  1
  Y  Y2  1  0.750000  0.965129  0.714170  1
  Y  Y3  1  0.250000  0.034871  0.285830  1
  Lu  Lu4  1  0.250000  0.671647  0.559496  1
  Lu  Lu5  1  0.750000  0.328353  0.440504  1
  Lu  Lu6  1  0.750000  0.828353  0.059496  1
  Lu  Lu7  1  0.250000  0.171647  0.940504  1
  Tc  Tc8  1  0.250000  0.719579  0.867301  1
  Tc  Tc9  1  0.750000  0.280421  0.132699  1
  Tc  Tc10  1  0.750000  0.780421  0.367301  1
  Tc  Tc11  1  0.250000  0.219579  0.632699  1
  C  C12  1  0.250000  0.449898  0.760274  1
  C  C13  1  0.750000  0.550102  0.239726  1
  C  C14  1  0.750000  0.050102  0.260274  1
  C  C15  1  0.250000  0.949898  0.739726  1
  C  C16  1  0.250000  0.828768  0.049864  1
  C  C17  1  0.750000  0.171232  0.950136  1
  C  C18  1  0.750000  0.671232  0.549864  1
  C  C19  1  0.250000  0.328768  0.450136  1
