# generated using pymatgen
data_Nd3Ho2(Ni2Sn5)2
_symmetry_space_group_name_H-M   'P 1'
_cell_length_a   13.93707300
_cell_length_b   13.93707300
_cell_length_c   4.50967700
_cell_angle_alpha   90.00000000
_cell_angle_beta   90.00000000
_cell_angle_gamma   90.00000000
_symmetry_Int_Tables_number   1
_chemical_formula_structural   Nd3Ho2(Ni2Sn5)2
_chemical_formula_sum   'Nd6 Ho4 Ni8 Sn20'
_cell_volume   875.96869700
_cell_formula_units_Z   2
loop_
 _symmetry_equiv_pos_site_id
 _symmetry_equiv_pos_as_xyz
  1  'x, y, z'
loop_
 _atom_site_type_symbol
 _atom_site_label
 _atom_site_symmetry_multiplicity
 _atom_site_fract_x
 _atom_site_fract_y
 _atom_site_fract_z
 _atom_site_occupancy
  Nd  Nd0  1  0.000000  0.000000  0.000000  1
  Nd  Nd1  1  0.500000  0.500000  0.000000  1
  Nd  Nd2  1  0.892284  0.607716  0.500000  1
  Nd  Nd3  1  0.107716  0.392284  0.500000  1
  Nd  Nd4  1  0.392284  0.892284  0.500000  1
  Nd  Nd5  1  0.607716  0.107716  0.500000  1
  Ho  Ho6  1  0.181000  0.681000  0.500000  1
  Ho  Ho7  1  0.819000  0.319000  0.500000  1
  Ho  Ho8  1  0.681000  0.819000  0.500000  1
  Ho  Ho9  1  0.319000  0.181000  0.500000  1
  Ni  Ni10  1  0.255800  0.536689  0.000000  1
  Ni  Ni11  1  0.744200  0.463311  0.000000  1
  Ni  Ni12  1  0.755800  0.963311  0.000000  1
  Ni  Ni13  1  0.244200  0.036689  0.000000  1
  Ni  Ni14  1  0.463311  0.255800  0.000000  1
  Ni  Ni15  1  0.536689  0.744200  0.000000  1
  Ni  Ni16  1  0.036689  0.755800  0.000000  1
  Ni  Ni17  1  0.963311  0.244200  0.000000  1
  Sn  Sn18  1  0.351814  0.702030  0.000000  1
  Sn  Sn19  1  0.648186  0.297970  0.000000  1
  Sn  Sn20  1  0.851814  0.797970  0.000000  1
  Sn  Sn21  1  0.148186  0.202030  0.000000  1
  Sn  Sn22  1  0.297970  0.351814  0.000000  1
  Sn  Sn23  1  0.702030  0.648186  0.000000  1
  Sn  Sn24  1  0.202030  0.851814  0.000000  1
  Sn  Sn25  1  0.797970  0.148186  0.000000  1
  Sn  Sn26  1  0.334085  0.513138  0.500000  1
  Sn  Sn27  1  0.665915  0.486862  0.500000  1
  Sn  Sn28  1  0.834085  0.986862  0.500000  1
  Sn  Sn29  1  0.165915  0.013138  0.500000  1
  Sn  Sn30  1  0.486862  0.334085  0.500000  1
  Sn  Sn31  1  0.513138  0.665915  0.500000  1
  Sn  Sn32  1  0.013138  0.834085  0.500000  1
  Sn  Sn33  1  0.986862  0.165915  0.500000  1
  Sn  Sn34  1  0.072717  0.572717  0.000000  1
  Sn  Sn35  1  0.927283  0.427283  0.000000  1
  Sn  Sn36  1  0.572717  0.927283  0.000000  1
  Sn  Sn37  1  0.427283  0.072717  0.000000  1
