# generated using pymatgen
data_Cs11RbSc2(FeSe6)2
_symmetry_space_group_name_H-M   'P 1'
_cell_length_a   11.17124265
_cell_length_b   11.17564214
_cell_length_c   14.27783613
_cell_angle_alpha   89.88570104
_cell_angle_beta   89.91411937
_cell_angle_gamma   139.79596926
_symmetry_Int_Tables_number   1
_chemical_formula_structural   Cs11RbSc2(FeSe6)2
_chemical_formula_sum   'Cs11 Rb1 Sc2 Fe2 Se12'
_cell_volume   1150.62728700
_cell_formula_units_Z   1
loop_
 _symmetry_equiv_pos_site_id
 _symmetry_equiv_pos_as_xyz
  1  'x, y, z'
loop_
 _atom_site_type_symbol
 _atom_site_label
 _atom_site_symmetry_multiplicity
 _atom_site_fract_x
 _atom_site_fract_y
 _atom_site_fract_z
 _atom_site_occupancy
  Cs  Cs0  1  0.140252  0.138826  0.325125  1
  Cs  Cs1  1  0.640365  0.638935  0.171599  1
  Cs  Cs2  1  0.362101  0.360596  0.823264  1
  Cs  Cs3  1  0.165321  0.523573  0.129537  1
  Cs  Cs4  1  0.478832  0.832999  0.872498  1
  Cs  Cs5  1  0.974277  0.332579  0.630903  1
  Cs  Cs6  1  0.667221  0.022170  0.372102  1
  Cs  Cs7  1  0.836092  0.485947  0.873593  1
  Cs  Cs8  1  0.516511  0.162379  0.128276  1
  Cs  Cs9  1  0.015219  0.664171  0.373376  1
  Cs  Cs10  1  0.335901  0.981466  0.629591  1
  Rb  Rb11  1  0.852555  0.851203  0.665948  1
  Sc  Sc12  1  0.923371  0.082847  0.998716  1
  Sc  Sc13  1  0.416994  0.575460  0.501371  1
  Fe  Fe14  1  0.083751  0.922570  0.998748  1
  Fe  Fe15  1  0.576213  0.416199  0.501272  1
  Se  Se16  1  0.287348  0.277927  0.572539  1
  Se  Se17  1  0.708810  0.699391  0.426666  1
  Se  Se18  1  0.214242  0.204610  0.072411  1
  Se  Se19  1  0.807419  0.798033  0.919268  1
  Se  Se20  1  0.697811  0.994741  0.120038  1
  Se  Se21  1  0.009229  0.311175  0.881837  1
  Se  Se22  1  0.508483  0.800920  0.622791  1
  Se  Se23  1  0.195334  0.495735  0.382052  1
  Se  Se24  1  0.296114  0.002130  0.888100  1
  Se  Se25  1  0.001838  0.712650  0.113587  1
  Se  Se26  1  0.502547  0.210093  0.388551  1
  Se  Se27  1  0.785852  0.500675  0.616237  1
