# generated using pymatgen
data_YHoRuC2
_symmetry_space_group_name_H-M   'P 1'
_cell_length_a   5.10015300
_cell_length_b   6.47427500
_cell_length_c   9.76843600
_cell_angle_alpha   90.00000000
_cell_angle_beta   90.00000000
_cell_angle_gamma   90.00000000
_symmetry_Int_Tables_number   1
_chemical_formula_structural   YHoRuC2
_chemical_formula_sum   'Y4 Ho4 Ru4 C8'
_cell_volume   322.55173528
_cell_formula_units_Z   4
loop_
 _symmetry_equiv_pos_site_id
 _symmetry_equiv_pos_as_xyz
  1  'x, y, z'
loop_
 _atom_site_type_symbol
 _atom_site_label
 _atom_site_symmetry_multiplicity
 _atom_site_fract_x
 _atom_site_fract_y
 _atom_site_fract_z
 _atom_site_occupancy
  Y  Y0  1  0.750000  0.472018  0.784168  1
  Y  Y1  1  0.250000  0.027982  0.284168  1
  Y  Y2  1  0.750000  0.972018  0.715832  1
  Y  Y3  1  0.250000  0.527982  0.215832  1
  Ho  Ho4  1  0.750000  0.823791  0.055229  1
  Ho  Ho5  1  0.250000  0.676209  0.555229  1
  Ho  Ho6  1  0.750000  0.323791  0.444771  1
  Ho  Ho7  1  0.250000  0.176209  0.944771  1
  Ru  Ru8  1  0.750000  0.279961  0.134671  1
  Ru  Ru9  1  0.250000  0.220039  0.634671  1
  Ru  Ru10  1  0.750000  0.779961  0.365329  1
  Ru  Ru11  1  0.250000  0.720039  0.865329  1
  C  C12  1  0.750000  0.172336  0.947168  1
  C  C13  1  0.250000  0.827664  0.052832  1
  C  C14  1  0.750000  0.672336  0.552832  1
  C  C15  1  0.250000  0.327664  0.447168  1
  C  C16  1  0.750000  0.044443  0.257414  1
  C  C17  1  0.250000  0.455557  0.757414  1
  C  C18  1  0.750000  0.544443  0.242586  1
  C  C19  1  0.250000  0.955557  0.742586  1
