# generated using pymatgen
data_Y2Fe9P7Ru3
_symmetry_space_group_name_H-M   'P 1'
_cell_length_a   3.72195100
_cell_length_b   8.99958505
_cell_length_c   8.99958400
_cell_angle_alpha   120.00000350
_cell_angle_beta   90.00000000
_cell_angle_gamma   90.00000000
_symmetry_Int_Tables_number   1
_chemical_formula_structural   Y2Fe9P7Ru3
_chemical_formula_sum   'Y2 Fe9 P7 Ru3'
_cell_volume   261.06351917
_cell_formula_units_Z   1
loop_
 _symmetry_equiv_pos_site_id
 _symmetry_equiv_pos_as_xyz
  1  'x, y, z'
loop_
 _atom_site_type_symbol
 _atom_site_label
 _atom_site_symmetry_multiplicity
 _atom_site_fract_x
 _atom_site_fract_y
 _atom_site_fract_z
 _atom_site_occupancy
  Y  Y0  1  0.000000  0.666667  0.333333  1
  Y  Y1  1  0.500000  0.333333  0.666667  1
  Fe  Fe2  1  0.000000  0.573903  0.943528  1
  Fe  Fe3  1  0.000000  0.369624  0.426097  1
  Fe  Fe4  1  0.000000  0.056472  0.630376  1
  Fe  Fe5  1  0.000000  0.879666  0.155562  1
  Fe  Fe6  1  0.000000  0.275896  0.120334  1
  Fe  Fe7  1  0.000000  0.844438  0.724104  1
  Fe  Fe8  1  0.500000  0.948709  0.385097  1
  Fe  Fe9  1  0.500000  0.436388  0.051291  1
  Fe  Fe10  1  0.500000  0.614903  0.563612  1
  P  P11  1  0.000000  0.000000  0.000000  1
  P  P12  1  0.500000  0.708965  0.116112  1
  P  P13  1  0.500000  0.407147  0.291035  1
  P  P14  1  0.500000  0.883888  0.592853  1
  P  P15  1  0.000000  0.586171  0.696173  1
  P  P16  1  0.000000  0.110003  0.413829  1
  P  P17  1  0.000000  0.303827  0.889997  1
  Ru  Ru18  1  0.500000  0.783086  0.902642  1
  Ru  Ru19  1  0.500000  0.119556  0.216914  1
  Ru  Ru20  1  0.500000  0.097358  0.880444  1
