# generated using pymatgen
data_Dy16Al4OsPt3
_symmetry_space_group_name_H-M   'P 1'
_cell_length_a   9.58875416
_cell_length_b   9.58875318
_cell_length_c   9.58875253
_cell_angle_alpha   59.89957153
_cell_angle_beta   59.89956693
_cell_angle_gamma   59.89956755
_symmetry_Int_Tables_number   1
_chemical_formula_structural   Dy16Al4OsPt3
_chemical_formula_sum   'Dy16 Al4 Os1 Pt3'
_cell_volume   621.98624893
_cell_formula_units_Z   1
loop_
 _symmetry_equiv_pos_site_id
 _symmetry_equiv_pos_as_xyz
  1  'x, y, z'
loop_
 _atom_site_type_symbol
 _atom_site_label
 _atom_site_symmetry_multiplicity
 _atom_site_fract_x
 _atom_site_fract_y
 _atom_site_fract_z
 _atom_site_occupancy
  Dy  Dy0  1  0.353446  0.353446  0.353446  1
  Dy  Dy1  1  0.351983  0.351983  0.941709  1
  Dy  Dy2  1  0.351983  0.941709  0.351983  1
  Dy  Dy3  1  0.941709  0.351983  0.351983  1
  Dy  Dy4  1  0.811273  0.192301  0.192301  1
  Dy  Dy5  1  0.193380  0.805495  0.805495  1
  Dy  Dy6  1  0.192301  0.811273  0.192301  1
  Dy  Dy7  1  0.805495  0.193380  0.805495  1
  Dy  Dy8  1  0.192301  0.192301  0.811273  1
  Dy  Dy9  1  0.805495  0.805495  0.193380  1
  Dy  Dy10  1  0.935271  0.564025  0.564025  1
  Dy  Dy11  1  0.557266  0.938199  0.938199  1
  Dy  Dy12  1  0.564025  0.935271  0.564025  1
  Dy  Dy13  1  0.938199  0.557265  0.938199  1
  Dy  Dy14  1  0.564025  0.564025  0.935271  1
  Dy  Dy15  1  0.938199  0.938199  0.557265  1
  Al  Al16  1  0.578044  0.578044  0.578044  1
  Al  Al17  1  0.577610  0.577610  0.268689  1
  Al  Al18  1  0.577610  0.268689  0.577610  1
  Al  Al19  1  0.268689  0.577610  0.577610  1
  Os  Os20  1  0.142778  0.142778  0.142778  1
  Pt  Pt21  1  0.143446  0.143446  0.572024  1
  Pt  Pt22  1  0.143446  0.572024  0.143446  1
  Pt  Pt23  1  0.572024  0.143446  0.143446  1
