# generated using pymatgen
data_Dy13Y6Er(Cd3Ru)2
_symmetry_space_group_name_H-M   'P 1'
_cell_length_a   9.60222400
_cell_length_b   9.60222407
_cell_length_c   9.85286300
_cell_angle_alpha   90.00000000
_cell_angle_beta   90.00000000
_cell_angle_gamma   119.99999975
_symmetry_Int_Tables_number   1
_chemical_formula_structural   Dy13Y6Er(Cd3Ru)2
_chemical_formula_sum   'Dy13 Y6 Er1 Cd6 Ru2'
_cell_volume   786.74999001
_cell_formula_units_Z   1
loop_
 _symmetry_equiv_pos_site_id
 _symmetry_equiv_pos_as_xyz
  1  'x, y, z'
loop_
 _atom_site_type_symbol
 _atom_site_label
 _atom_site_symmetry_multiplicity
 _atom_site_fract_x
 _atom_site_fract_y
 _atom_site_fract_z
 _atom_site_occupancy
  Dy  Dy0  1  0.000000  0.000000  0.500000  1
  Dy  Dy1  1  0.209795  0.790205  0.440227  1
  Dy  Dy2  1  0.209795  0.419592  0.440227  1
  Dy  Dy3  1  0.580408  0.790205  0.440227  1
  Dy  Dy4  1  0.790205  0.209795  0.559773  1
  Dy  Dy5  1  0.790205  0.580408  0.559773  1
  Dy  Dy6  1  0.419592  0.209795  0.559773  1
  Dy  Dy7  1  0.790350  0.209650  0.940199  1
  Dy  Dy8  1  0.790350  0.580698  0.940199  1
  Dy  Dy9  1  0.419302  0.209650  0.940199  1
  Dy  Dy10  1  0.209650  0.790350  0.059801  1
  Dy  Dy11  1  0.209650  0.419302  0.059801  1
  Dy  Dy12  1  0.580698  0.790350  0.059801  1
  Y  Y13  1  0.541178  0.458822  0.249969  1
  Y  Y14  1  0.541178  0.082357  0.249969  1
  Y  Y15  1  0.917643  0.458822  0.249969  1
  Y  Y16  1  0.458822  0.541178  0.750031  1
  Y  Y17  1  0.458822  0.917643  0.750031  1
  Y  Y18  1  0.082357  0.541178  0.750031  1
  Er  Er19  1  0.000000  0.000000  0.000000  1
  Cd  Cd20  1  0.885552  0.114448  0.249733  1
  Cd  Cd21  1  0.885552  0.771105  0.249733  1
  Cd  Cd22  1  0.228895  0.114448  0.249733  1
  Cd  Cd23  1  0.114448  0.885552  0.750267  1
  Cd  Cd24  1  0.114448  0.228895  0.750267  1
  Cd  Cd25  1  0.771105  0.885552  0.750267  1
  Ru  Ru26  1  0.333333  0.666667  0.249964  1
  Ru  Ru27  1  0.666667  0.333333  0.750036  1
