# generated using pymatgen
data_La11Nd(PtBr3)4
_symmetry_space_group_name_H-M   'P 1'
_cell_length_a   10.70883383
_cell_length_b   10.67135703
_cell_length_c   10.70883380
_cell_angle_alpha   109.21162822
_cell_angle_beta   109.89361062
_cell_angle_gamma   109.21163032
_symmetry_Int_Tables_number   1
_chemical_formula_structural   La11Nd(PtBr3)4
_chemical_formula_sum   'La11 Nd1 Pt4 Br12'
_cell_volume   943.15789522
_cell_formula_units_Z   1
loop_
 _symmetry_equiv_pos_site_id
 _symmetry_equiv_pos_as_xyz
  1  'x, y, z'
loop_
 _atom_site_type_symbol
 _atom_site_label
 _atom_site_symmetry_multiplicity
 _atom_site_fract_x
 _atom_site_fract_y
 _atom_site_fract_z
 _atom_site_occupancy
  La  La0  1  0.484300  0.750000  0.015700  1
  La  La1  1  0.236717  0.472725  0.485327  1
  La  La2  1  0.014673  0.027275  0.263283  1
  La  La3  1  0.233684  0.261587  0.745940  1
  La  La4  1  0.015440  0.487549  0.753224  1
  La  La5  1  0.486408  0.235315  0.471649  1
  La  La6  1  0.265407  0.013624  0.029502  1
  La  La7  1  0.754060  0.238413  0.266316  1
  La  La8  1  0.746776  0.012451  0.484560  1
  La  La9  1  0.470498  0.486376  0.234593  1
  La  La10  1  0.028351  0.264685  0.013592  1
  Nd  Nd11  1  0.264575  0.750000  0.235425  1
  Pt  Pt12  1  0.500219  0.000841  0.250898  1
  Pt  Pt13  1  0.249102  0.499159  0.999781  1
  Pt  Pt14  1  0.999710  0.250000  0.500290  1
  Pt  Pt15  1  0.250137  0.250000  0.249863  1
  Br  Br16  1  0.250632  0.992480  0.501818  1
  Br  Br17  1  0.508474  0.503829  0.754714  1
  Br  Br18  1  0.249166  0.754376  0.745181  1
  Br  Br19  1  0.992867  0.745466  0.999164  1
  Br  Br20  1  0.998182  0.507520  0.249368  1
  Br  Br21  1  0.745286  0.996171  0.991526  1
  Br  Br22  1  0.754819  0.745624  0.250834  1
  Br  Br23  1  0.500836  0.754534  0.507133  1
  Br  Br24  1  0.504119  0.250000  0.995881  1
  Br  Br25  1  0.754754  0.509084  0.504670  1
  Br  Br26  1  0.745478  0.250000  0.754522  1
  Br  Br27  1  0.995330  0.990916  0.745246  1
