# generated using pymatgen
data_SrVWO6
_symmetry_space_group_name_H-M   'P 1'
_cell_length_a   5.16480051
_cell_length_b   5.41829724
_cell_length_c   5.26101407
_cell_angle_alpha   90.77534451
_cell_angle_beta   119.69968913
_cell_angle_gamma   89.12430502
_symmetry_Int_Tables_number   1
_chemical_formula_structural   SrVWO6
_chemical_formula_sum   'Sr1 V1 W1 O6'
_cell_volume   127.86798345
_cell_formula_units_Z   1
loop_
 _symmetry_equiv_pos_site_id
 _symmetry_equiv_pos_as_xyz
  1  'x, y, z'
loop_
 _atom_site_type_symbol
 _atom_site_label
 _atom_site_symmetry_multiplicity
 _atom_site_fract_x
 _atom_site_fract_y
 _atom_site_fract_z
 _atom_site_occupancy
  Sr  Sr0  1  0.999919  0.998907  0.000718  1
  V  V1  1  0.661372  0.506234  0.326888  1
  W  W2  1  0.335642  0.494686  0.672751  1
  O  O3  1  0.620497  0.700575  0.996934  1
  O  O4  1  0.995734  0.302579  0.379543  1
  O  O5  1  0.385008  0.697041  0.382770  1
  O  O6  1  0.618731  0.295748  0.622616  1
  O  O7  1  0.007508  0.705538  0.622905  1
  O  O8  1  0.375595  0.298696  0.994882  1
