# generated using pymatgen
data_Y12CuTc3
_symmetry_space_group_name_H-M   'P 1'
_cell_length_a   6.36348522
_cell_length_b   7.40730116
_cell_length_c   9.26815300
_cell_angle_alpha   90.00000000
_cell_angle_beta   90.00000000
_cell_angle_gamma   89.84363287
_symmetry_Int_Tables_number   1
_chemical_formula_structural   Y12CuTc3
_chemical_formula_sum   'Y12 Cu1 Tc3'
_cell_volume   436.86436346
_cell_formula_units_Z   1
loop_
 _symmetry_equiv_pos_site_id
 _symmetry_equiv_pos_as_xyz
  1  'x, y, z'
loop_
 _atom_site_type_symbol
 _atom_site_label
 _atom_site_symmetry_multiplicity
 _atom_site_fract_x
 _atom_site_fract_y
 _atom_site_fract_z
 _atom_site_occupancy
  Y  Y0  1  0.629760  0.044261  0.250000  1
  Y  Y1  1  0.368783  0.956896  0.750000  1
  Y  Y2  1  0.126303  0.460423  0.750000  1
  Y  Y3  1  0.868043  0.533467  0.250000  1
  Y  Y4  1  0.165610  0.182928  0.059089  1
  Y  Y5  1  0.828892  0.824011  0.931141  1
  Y  Y6  1  0.665728  0.321291  0.935872  1
  Y  Y7  1  0.828892  0.824011  0.568859  1
  Y  Y8  1  0.341071  0.671755  0.059159  1
  Y  Y9  1  0.165610  0.182928  0.440911  1
  Y  Y10  1  0.341071  0.671755  0.440841  1
  Y  Y11  1  0.665728  0.321291  0.564128  1
  Cu  Cu12  1  0.050222  0.888980  0.250000  1
  Tc  Tc13  1  0.453898  0.387265  0.250000  1
  Tc  Tc14  1  0.536406  0.614269  0.750000  1
  Tc  Tc15  1  0.963980  0.114469  0.750000  1
