# generated using pymatgen
data_Tb11ErRh4
_symmetry_space_group_name_H-M   'P 1'
_cell_length_a   7.19595560
_cell_length_b   9.53137682
_cell_length_c   6.29277174
_cell_angle_alpha   90.10086712
_cell_angle_beta   89.92601137
_cell_angle_gamma   90.01868967
_symmetry_Int_Tables_number   1
_chemical_formula_structural   Tb11ErRh4
_chemical_formula_sum   'Tb11 Er1 Rh4'
_cell_volume   431.60357735
_cell_formula_units_Z   1
loop_
 _symmetry_equiv_pos_site_id
 _symmetry_equiv_pos_as_xyz
  1  'x, y, z'
loop_
 _atom_site_type_symbol
 _atom_site_label
 _atom_site_symmetry_multiplicity
 _atom_site_fract_x
 _atom_site_fract_y
 _atom_site_fract_z
 _atom_site_occupancy
  Tb  Tb0  1  0.033862  0.250355  0.137853  1
  Tb  Tb1  1  0.322566  0.935825  0.169074  1
  Tb  Tb2  1  0.822640  0.563435  0.330885  1
  Tb  Tb3  1  0.822540  0.936413  0.330909  1
  Tb  Tb4  1  0.533717  0.250310  0.362120  1
  Tb  Tb5  1  0.465702  0.749520  0.637445  1
  Tb  Tb6  1  0.177561  0.063642  0.669156  1
  Tb  Tb7  1  0.177674  0.436946  0.669262  1
  Tb  Tb8  1  0.677401  0.063628  0.831045  1
  Tb  Tb9  1  0.677035  0.436813  0.831142  1
  Tb  Tb10  1  0.966545  0.749708  0.862614  1
  Er  Er11  1  0.322818  0.564263  0.169049  1
  Rh  Rh12  1  0.618083  0.749196  0.060357  1
  Rh  Rh13  1  0.119543  0.749476  0.438617  1
  Rh  Rh14  1  0.881176  0.249832  0.560493  1
  Rh  Rh15  1  0.381142  0.250638  0.939980  1
