# generated using pymatgen
data_MnFe3(ReSi)6
_symmetry_space_group_name_H-M   'P 1'
_cell_length_a   6.94911200
_cell_length_b   6.94911241
_cell_length_c   4.81383900
_cell_angle_alpha   90.00000000
_cell_angle_beta   90.00000000
_cell_angle_gamma   119.99999804
_symmetry_Int_Tables_number   1
_chemical_formula_structural   MnFe3(ReSi)6
_chemical_formula_sum   'Mn1 Fe3 Re6 Si6'
_cell_volume   201.31718529
_cell_formula_units_Z   1
loop_
 _symmetry_equiv_pos_site_id
 _symmetry_equiv_pos_as_xyz
  1  'x, y, z'
loop_
 _atom_site_type_symbol
 _atom_site_label
 _atom_site_symmetry_multiplicity
 _atom_site_fract_x
 _atom_site_fract_y
 _atom_site_fract_z
 _atom_site_occupancy
  Mn  Mn0  1  0.333333  0.666667  0.000000  1
  Fe  Fe1  1  0.333333  0.666667  0.500000  1
  Fe  Fe2  1  0.666667  0.333333  0.000000  1
  Fe  Fe3  1  0.666667  0.333333  0.500000  1
  Re  Re4  1  0.001036  0.762275  0.749039  1
  Re  Re5  1  0.001036  0.238762  0.250961  1
  Re  Re6  1  0.761238  0.762275  0.250961  1
  Re  Re7  1  0.761238  0.998964  0.749039  1
  Re  Re8  1  0.237725  0.238762  0.749039  1
  Re  Re9  1  0.237725  0.998964  0.250961  1
  Si  Si10  1  0.408234  0.002197  0.749739  1
  Si  Si11  1  0.408234  0.406037  0.250261  1
  Si  Si12  1  0.997803  0.591766  0.250261  1
  Si  Si13  1  0.997803  0.406037  0.749739  1
  Si  Si14  1  0.593963  0.591766  0.749739  1
  Si  Si15  1  0.593963  0.002197  0.250261  1
