# generated using pymatgen
data_SmHo15(TmSn4)4
_symmetry_space_group_name_H-M   'P 1'
_cell_length_a   8.00603576
_cell_length_b   8.13892701
_cell_length_c   15.40907200
_cell_angle_alpha   90.01041754
_cell_angle_beta   89.76207642
_cell_angle_gamma   89.92318880
_symmetry_Int_Tables_number   1
_chemical_formula_structural   SmHo15(TmSn4)4
_chemical_formula_sum   'Sm1 Ho15 Tm4 Sn16'
_cell_volume   1004.05388600
_cell_formula_units_Z   1
loop_
 _symmetry_equiv_pos_site_id
 _symmetry_equiv_pos_as_xyz
  1  'x, y, z'
loop_
 _atom_site_type_symbol
 _atom_site_label
 _atom_site_symmetry_multiplicity
 _atom_site_fract_x
 _atom_site_fract_y
 _atom_site_fract_z
 _atom_site_occupancy
  Sm  Sm0  1  0.018432  0.179393  0.904006  1
  Ho  Ho1  1  0.366618  0.837043  0.876823  1
  Ho  Ho2  1  0.868159  0.663303  0.621779  1
  Ho  Ho3  1  0.631590  0.162777  0.377332  1
  Ho  Ho4  1  0.133616  0.337550  0.123098  1
  Ho  Ho5  1  0.633718  0.163039  0.123260  1
  Ho  Ho6  1  0.131758  0.337158  0.377586  1
  Ho  Ho7  1  0.368726  0.836911  0.622293  1
  Ho  Ho8  1  0.867421  0.662650  0.877215  1
  Ho  Ho9  1  0.521521  0.322065  0.903005  1
  Ho  Ho10  1  0.022972  0.178725  0.597603  1
  Ho  Ho11  1  0.477810  0.678496  0.402733  1
  Ho  Ho12  1  0.979355  0.820209  0.097124  1
  Ho  Ho13  1  0.478785  0.678928  0.097193  1
  Ho  Ho14  1  0.977782  0.821526  0.402857  1
  Ho  Ho15  1  0.522092  0.321763  0.596310  1
  Tm  Tm16  1  0.198598  0.503222  0.749360  1
  Tm  Tm17  1  0.698372  0.996390  0.749208  1
  Tm  Tm18  1  0.801596  0.496752  0.250338  1
  Tm  Tm19  1  0.301810  0.003256  0.250462  1
  Sn  Sn20  1  0.296041  0.034930  0.043017  1
  Sn  Sn21  1  0.792099  0.463617  0.458187  1
  Sn  Sn22  1  0.708116  0.964708  0.541474  1
  Sn  Sn23  1  0.207939  0.538471  0.958864  1
  Sn  Sn24  1  0.702357  0.959849  0.959351  1
  Sn  Sn25  1  0.207804  0.536302  0.541473  1
  Sn  Sn26  1  0.292292  0.036065  0.458412  1
  Sn  Sn27  1  0.793027  0.463611  0.041809  1
  Sn  Sn28  1  0.564435  0.619241  0.749828  1
  Sn  Sn29  1  0.064473  0.879689  0.749523  1
  Sn  Sn30  1  0.435717  0.381520  0.250231  1
  Sn  Sn31  1  0.936030  0.118951  0.250328  1
  Sn  Sn32  1  0.332950  0.149397  0.749475  1
  Sn  Sn33  1  0.828895  0.352337  0.748404  1
  Sn  Sn34  1  0.668735  0.850513  0.249925  1
  Sn  Sn35  1  0.168356  0.649642  0.250118  1
