# generated using pymatgen
data_CaY2UN4
_symmetry_space_group_name_H-M   'P 1'
_cell_length_a   6.03246512
_cell_length_b   6.03237712
_cell_length_c   4.88496000
_cell_angle_alpha   66.11657976
_cell_angle_beta   66.11469613
_cell_angle_gamma   47.76873428
_symmetry_Int_Tables_number   1
_chemical_formula_structural   CaY2UN4
_chemical_formula_sum   'Ca1 Y2 U1 N4'
_cell_volume   118.01537719
_cell_formula_units_Z   1
loop_
 _symmetry_equiv_pos_site_id
 _symmetry_equiv_pos_as_xyz
  1  'x, y, z'
loop_
 _atom_site_type_symbol
 _atom_site_label
 _atom_site_symmetry_multiplicity
 _atom_site_fract_x
 _atom_site_fract_y
 _atom_site_fract_z
 _atom_site_occupancy
  Ca  Ca0  1  0.497442  0.502558  0.502558  1
  Y  Y1  1  0.747310  0.752690  0.752690  1
  Y  Y2  1  0.247310  0.252690  0.252690  1
  U  U3  1  0.997291  0.002709  0.002709  1
  N  N4  1  0.997345  0.002655  0.505534  1
  N  N5  1  0.217467  0.222696  0.782533  1
  N  N6  1  0.494466  0.505534  0.002655  1
  N  N7  1  0.777304  0.782533  0.222696  1
