# generated using pymatgen
data_Sm2B4OsRh4
_symmetry_space_group_name_H-M   'P 1'
_cell_length_a   7.54063605
_cell_length_b   6.36730001
_cell_length_c   5.62061061
_cell_angle_alpha   77.67978351
_cell_angle_beta   55.58365066
_cell_angle_gamma   46.73657207
_symmetry_Int_Tables_number   1
_chemical_formula_structural   Sm2B4OsRh4
_chemical_formula_sum   'Sm2 B4 Os1 Rh4'
_cell_volume   155.17013592
_cell_formula_units_Z   1
loop_
 _symmetry_equiv_pos_site_id
 _symmetry_equiv_pos_as_xyz
  1  'x, y, z'
loop_
 _atom_site_type_symbol
 _atom_site_label
 _atom_site_symmetry_multiplicity
 _atom_site_fract_x
 _atom_site_fract_y
 _atom_site_fract_z
 _atom_site_occupancy
  Sm  Sm0  1  0.857121  0.857121  0.142879  1
  Sm  Sm1  1  0.142879  0.142879  0.857121  1
  B  B2  1  0.199854  0.535659  0.481164  1
  B  B3  1  0.783324  0.481164  0.535659  1
  B  B4  1  0.535659  0.199854  0.783324  1
  B  B5  1  0.481164  0.783324  0.199854  1
  Os  Os6  1  0.750000  0.750000  0.750000  1
  Rh  Rh7  1  0.498297  0.498297  0.001703  1
  Rh  Rh8  1  0.250000  0.250000  0.250000  1
  Rh  Rh9  1  0.001703  0.001703  0.498297  1
  Rh  Rh10  1  0.500000  0.500000  0.500000  1
