# generated using pymatgen
data_Na4Pb5O12
_symmetry_space_group_name_H-M   'P 1'
_cell_length_a   6.76935978
_cell_length_b   6.76948805
_cell_length_c   15.06381700
_cell_angle_alpha   102.52117674
_cell_angle_beta   102.52218950
_cell_angle_gamma   90.00054811
_symmetry_Int_Tables_number   1
_chemical_formula_structural   Na4Pb5O12
_chemical_formula_sum   'Na8 Pb10 O24'
_cell_volume   657.05144928
_cell_formula_units_Z   2
loop_
 _symmetry_equiv_pos_site_id
 _symmetry_equiv_pos_as_xyz
  1  'x, y, z'
loop_
 _atom_site_type_symbol
 _atom_site_label
 _atom_site_symmetry_multiplicity
 _atom_site_fract_x
 _atom_site_fract_y
 _atom_site_fract_z
 _atom_site_occupancy
  Na  Na0  1  0.000626  0.004770  0.002305  1
  Na  Na1  1  0.541000  0.791315  0.083241  1
  Na  Na2  1  0.081463  0.577859  0.164142  1
  Na  Na3  1  0.658797  0.673779  0.333251  1
  Na  Na4  1  0.754413  0.250931  0.502161  1
  Na  Na5  1  0.541399  0.791394  0.583138  1
  Na  Na6  1  0.327852  0.331917  0.664304  1
  Na  Na7  1  0.423729  0.908821  0.833234  1
  Pb  Pb8  1  0.541105  0.291267  0.083210  1
  Pb  Pb9  1  0.868323  0.125537  0.247651  1
  Pb  Pb10  1  0.376276  0.126156  0.248485  1
  Pb  Pb11  1  0.206390  0.956153  0.417936  1
  Pb  Pb12  1  0.206850  0.464130  0.418757  1
  Pb  Pb13  1  0.041403  0.791457  0.583284  1
  Pb  Pb14  1  0.875429  0.118589  0.747675  1
  Pb  Pb15  1  0.876007  0.626514  0.748491  1
  Pb  Pb16  1  0.705943  0.456557  0.917990  1
  Pb  Pb17  1  0.213909  0.456960  0.918821  1
  O  O18  1  0.763104  0.512543  0.067670  1
  O  O19  1  0.305056  0.513438  0.068352  1
  O  O20  1  0.777055  0.069050  0.098094  1
  O  O21  1  0.319122  0.070254  0.098855  1
  O  O22  1  0.619537  0.352172  0.242781  1
  O  O23  1  0.625440  0.925406  0.255830  1
  O  O24  1  0.126742  0.912994  0.259338  1
  O  O25  1  0.128617  0.351724  0.262675  1
  O  O26  1  0.980833  0.203833  0.403849  1
  O  O27  1  0.419447  0.205815  0.407104  1
  O  O28  1  0.407078  0.706982  0.410631  1
  O  O29  1  0.980409  0.713097  0.423760  1
  O  O30  1  0.262551  0.013419  0.567678  1
  O  O31  1  0.263585  0.555362  0.568385  1
  O  O32  1  0.819275  0.027451  0.598072  1
  O  O33  1  0.820317  0.569403  0.598789  1
  O  O34  1  0.102090  0.869781  0.742809  1
  O  O35  1  0.675207  0.875626  0.755712  1
  O  O36  1  0.662874  0.376929  0.759289  1
  O  O37  1  0.101526  0.378728  0.762660  1
  O  O38  1  0.953560  0.230920  0.903784  1
  O  O39  1  0.955600  0.669631  0.907087  1
  O  O40  1  0.456676  0.657215  0.910613  1
  O  O41  1  0.462862  0.230464  0.923682  1
