# generated using pymatgen
data_Dy16CdHg3RuPt3
_symmetry_space_group_name_H-M   'P 1'
_cell_length_a   9.63901187
_cell_length_b   9.64738326
_cell_length_c   9.64738309
_cell_angle_alpha   59.81809156
_cell_angle_beta   59.81518827
_cell_angle_gamma   59.81517089
_symmetry_Int_Tables_number   1
_chemical_formula_structural   Dy16CdHg3RuPt3
_chemical_formula_sum   'Dy16 Cd1 Hg3 Ru1 Pt3'
_cell_volume   631.71387213
_cell_formula_units_Z   1
loop_
 _symmetry_equiv_pos_site_id
 _symmetry_equiv_pos_as_xyz
  1  'x, y, z'
loop_
 _atom_site_type_symbol
 _atom_site_label
 _atom_site_symmetry_multiplicity
 _atom_site_fract_x
 _atom_site_fract_y
 _atom_site_fract_z
 _atom_site_occupancy
  Dy  Dy0  1  0.353010  0.352345  0.352345  1
  Dy  Dy1  1  0.351436  0.350878  0.944826  1
  Dy  Dy2  1  0.351436  0.944826  0.350878  1
  Dy  Dy3  1  0.942618  0.351851  0.351851  1
  Dy  Dy4  1  0.814613  0.189401  0.189401  1
  Dy  Dy5  1  0.188070  0.809834  0.809834  1
  Dy  Dy6  1  0.188133  0.815413  0.189208  1
  Dy  Dy7  1  0.808992  0.189224  0.809069  1
  Dy  Dy8  1  0.188133  0.189208  0.815413  1
  Dy  Dy9  1  0.808992  0.809069  0.189224  1
  Dy  Dy10  1  0.935104  0.565187  0.565187  1
  Dy  Dy11  1  0.559733  0.937040  0.937040  1
  Dy  Dy12  1  0.564255  0.936686  0.565111  1
  Dy  Dy13  1  0.935687  0.560415  0.937333  1
  Dy  Dy14  1  0.564255  0.565111  0.936686  1
  Dy  Dy15  1  0.935687  0.937333  0.560415  1
  Cd  Cd16  1  0.255724  0.580592  0.580592  1
  Hg  Hg17  1  0.583304  0.584817  0.584817  1
  Hg  Hg18  1  0.584158  0.586255  0.241449  1
  Hg  Hg19  1  0.584158  0.241449  0.586255  1
  Ru  Ru20  1  0.142921  0.143705  0.143705  1
  Pt  Pt21  1  0.144094  0.144210  0.571102  1
  Pt  Pt22  1  0.144094  0.571102  0.144210  1
  Pt  Pt23  1  0.571393  0.144047  0.144047  1
