# generated using pymatgen
data_Tm20In4GaSi7
_symmetry_space_group_name_H-M   'P 1'
_cell_length_a   7.66752700
_cell_length_b   7.66752758
_cell_length_c   13.94972000
_cell_angle_alpha   90.00127033
_cell_angle_beta   90.00127033
_cell_angle_gamma   89.82302045
_symmetry_Int_Tables_number   1
_chemical_formula_structural   Tm20In4GaSi7
_chemical_formula_sum   'Tm20 In4 Ga1 Si7'
_cell_volume   820.11372360
_cell_formula_units_Z   1
loop_
 _symmetry_equiv_pos_site_id
 _symmetry_equiv_pos_as_xyz
  1  'x, y, z'
loop_
 _atom_site_type_symbol
 _atom_site_label
 _atom_site_symmetry_multiplicity
 _atom_site_fract_x
 _atom_site_fract_y
 _atom_site_fract_z
 _atom_site_occupancy
  Tm  Tm0  1  0.001539  0.501405  0.755245  1
  Tm  Tm1  1  0.999666  0.499871  0.254553  1
  Tm  Tm2  1  0.500135  0.000338  0.245470  1
  Tm  Tm3  1  0.498598  0.998457  0.744769  1
  Tm  Tm4  1  0.668441  0.664236  0.610737  1
  Tm  Tm5  1  0.667226  0.337436  0.111642  1
  Tm  Tm6  1  0.833319  0.838512  0.388246  1
  Tm  Tm7  1  0.166921  0.838103  0.888187  1
  Tm  Tm8  1  0.330121  0.337077  0.610770  1
  Tm  Tm9  1  0.332335  0.663028  0.112548  1
  Tm  Tm10  1  0.166288  0.161951  0.388253  1
  Tm  Tm11  1  0.835266  0.159570  0.889490  1
  Tm  Tm12  1  0.662528  0.332762  0.388373  1
  Tm  Tm13  1  0.335731  0.331561  0.889261  1
  Tm  Tm14  1  0.161899  0.833037  0.611798  1
  Tm  Tm15  1  0.838035  0.833732  0.111774  1
  Tm  Tm16  1  0.336968  0.667646  0.387483  1
  Tm  Tm17  1  0.662918  0.669881  0.889218  1
  Tm  Tm18  1  0.840403  0.164733  0.610519  1
  Tm  Tm19  1  0.161454  0.166678  0.111770  1
  In  In20  1  0.000899  0.501031  0.498363  1
  In  In21  1  0.000830  0.500246  0.000395  1
  In  In22  1  0.499335  0.999601  0.499611  1
  In  In23  1  0.498971  0.999279  0.001508  1
  Ga  Ga24  1  0.632925  0.367069  0.749993  1
  Si  Si25  1  0.865202  0.865699  0.749934  1
  Si  Si26  1  0.865384  0.134617  0.249997  1
  Si  Si27  1  0.634224  0.634285  0.249992  1
  Si  Si28  1  0.368550  0.631454  0.749999  1
  Si  Si29  1  0.134318  0.134796  0.750083  1
  Si  Si30  1  0.133862  0.866127  0.250008  1
  Si  Si31  1  0.365708  0.365782  0.250013  1
