# generated using pymatgen
data_MgNp2PaGe6Ru7
_symmetry_space_group_name_H-M   'P 1'
_cell_length_a   7.13562317
_cell_length_b   7.17892290
_cell_length_c   7.18045757
_cell_angle_alpha   109.52415947
_cell_angle_beta   109.27991990
_cell_angle_gamma   109.47892477
_symmetry_Int_Tables_number   1
_chemical_formula_structural   MgNp2PaGe6Ru7
_chemical_formula_sum   'Mg1 Np2 Pa1 Ge6 Ru7'
_cell_volume   283.60773789
_cell_formula_units_Z   1
loop_
 _symmetry_equiv_pos_site_id
 _symmetry_equiv_pos_as_xyz
  1  'x, y, z'
loop_
 _atom_site_type_symbol
 _atom_site_label
 _atom_site_symmetry_multiplicity
 _atom_site_fract_x
 _atom_site_fract_y
 _atom_site_fract_z
 _atom_site_occupancy
  Mg  Mg0  1  0.000000  0.500000  0.000000  1
  Np  Np1  1  0.000000  0.000000  0.500000  1
  Np  Np2  1  0.500000  0.500000  0.500000  1
  Pa  Pa3  1  0.500000  0.000000  0.000000  1
  Ge  Ge4  1  0.698014  0.686390  0.000000  1
  Ge  Ge5  1  0.302428  0.992113  0.306196  1
  Ge  Ge6  1  0.003768  0.314083  0.306196  1
  Ge  Ge7  1  0.301986  0.313610  0.000000  1
  Ge  Ge8  1  0.697571  0.007887  0.693804  1
  Ge  Ge9  1  0.996232  0.685917  0.693804  1
  Ru  Ru10  1  0.749605  0.249605  0.499209  1
  Ru  Ru11  1  0.748887  0.503144  0.253808  1
  Ru  Ru12  1  0.495079  0.249336  0.746192  1
  Ru  Ru13  1  0.251113  0.496856  0.746192  1
  Ru  Ru14  1  0.250395  0.750395  0.500791  1
  Ru  Ru15  1  0.504921  0.750664  0.253808  1
  Ru  Ru16  1  0.000000  0.000000  0.000000  1
