# generated using pymatgen
data_HoTmSc3Si7Pt9
_symmetry_space_group_name_H-M   'P 1'
_cell_length_a   10.05675800
_cell_length_b   10.05675808
_cell_length_c   3.97120100
_cell_angle_alpha   90.00000000
_cell_angle_beta   90.00000000
_cell_angle_gamma   119.99999974
_symmetry_Int_Tables_number   1
_chemical_formula_structural   HoTmSc3Si7Pt9
_chemical_formula_sum   'Ho1 Tm1 Sc3 Si7 Pt9'
_cell_volume   347.83117574
_cell_formula_units_Z   1
loop_
 _symmetry_equiv_pos_site_id
 _symmetry_equiv_pos_as_xyz
  1  'x, y, z'
loop_
 _atom_site_type_symbol
 _atom_site_label
 _atom_site_symmetry_multiplicity
 _atom_site_fract_x
 _atom_site_fract_y
 _atom_site_fract_z
 _atom_site_occupancy
  Ho  Ho0  1  0.000000  0.000000  0.000000  1
  Tm  Tm1  1  0.333333  0.666667  0.500000  1
  Sc  Sc2  1  0.895174  0.456270  0.500000  1
  Sc  Sc3  1  0.561096  0.104826  0.500000  1
  Sc  Sc4  1  0.543730  0.438904  0.500000  1
  Si  Si5  1  0.245134  0.194217  0.500000  1
  Si  Si6  1  0.805783  0.050919  0.500000  1
  Si  Si7  1  0.949081  0.754866  0.500000  1
  Si  Si8  1  0.556061  0.647243  0.000000  1
  Si  Si9  1  0.352757  0.908815  0.000000  1
  Si  Si10  1  0.091185  0.443939  0.000000  1
  Si  Si11  1  0.666667  0.333333  0.000000  1
  Pt  Pt12  1  0.218568  0.935668  0.500000  1
  Pt  Pt13  1  0.064332  0.282901  0.500000  1
  Pt  Pt14  1  0.717099  0.781432  0.500000  1
  Pt  Pt15  1  0.314363  0.414216  0.000000  1
  Pt  Pt16  1  0.585784  0.900148  0.000000  1
  Pt  Pt17  1  0.099852  0.685637  0.000000  1
  Pt  Pt18  1  0.383668  0.171673  0.000000  1
  Pt  Pt19  1  0.828327  0.211996  0.000000  1
  Pt  Pt20  1  0.788004  0.616332  0.000000  1
