# generated using pymatgen
data_Cs4NpPaS6
_symmetry_space_group_name_H-M   'P 1'
_cell_length_a   8.12966300
_cell_length_b   8.12966324
_cell_length_c   7.15045300
_cell_angle_alpha   90.00000000
_cell_angle_beta   90.00000000
_cell_angle_gamma   109.04609008
_symmetry_Int_Tables_number   1
_chemical_formula_structural   Cs4NpPaS6
_chemical_formula_sum   'Cs4 Np1 Pa1 S6'
_cell_volume   446.71266973
_cell_formula_units_Z   1
loop_
 _symmetry_equiv_pos_site_id
 _symmetry_equiv_pos_as_xyz
  1  'x, y, z'
loop_
 _atom_site_type_symbol
 _atom_site_label
 _atom_site_symmetry_multiplicity
 _atom_site_fract_x
 _atom_site_fract_y
 _atom_site_fract_z
 _atom_site_occupancy
  Cs  Cs0  1  0.500692  0.811996  0.250000  1
  Cs  Cs1  1  0.500424  0.187067  0.750000  1
  Cs  Cs2  1  0.187067  0.500424  0.750000  1
  Cs  Cs3  1  0.811996  0.500692  0.250000  1
  Np  Np4  1  0.912376  0.912376  0.750000  1
  Pa  Pa5  1  0.082804  0.082804  0.250000  1
  S  S6  1  0.643476  0.643476  0.750000  1
  S  S7  1  0.350048  0.350048  0.250000  1
  S  S8  1  0.865724  0.139834  0.494938  1
  S  S9  1  0.865724  0.139834  0.005062  1
  S  S10  1  0.139834  0.865724  0.494938  1
  S  S11  1  0.139834  0.865724  0.005062  1
