# generated using pymatgen
data_LiAc(NbSe2)6
_symmetry_space_group_name_H-M   'P 1'
_cell_length_a   6.13213600
_cell_length_b   6.13213638
_cell_length_c   14.39793800
_cell_angle_alpha   90.00000000
_cell_angle_beta   90.00000000
_cell_angle_gamma   119.99999792
_symmetry_Int_Tables_number   1
_chemical_formula_structural   LiAc(NbSe2)6
_chemical_formula_sum   'Li1 Ac1 Nb6 Se12'
_cell_volume   468.87224300
_cell_formula_units_Z   1
loop_
 _symmetry_equiv_pos_site_id
 _symmetry_equiv_pos_as_xyz
  1  'x, y, z'
loop_
 _atom_site_type_symbol
 _atom_site_label
 _atom_site_symmetry_multiplicity
 _atom_site_fract_x
 _atom_site_fract_y
 _atom_site_fract_z
 _atom_site_occupancy
  Li  Li0  1  0.000000  0.000000  0.000000  1
  Ac  Ac1  1  0.000000  0.000000  0.500000  1
  Nb  Nb2  1  0.000000  0.000000  0.766017  1
  Nb  Nb3  1  0.000000  0.000000  0.233983  1
  Nb  Nb4  1  0.333333  0.666667  0.230700  1
  Nb  Nb5  1  0.666667  0.333333  0.769300  1
  Nb  Nb6  1  0.666667  0.333333  0.230700  1
  Nb  Nb7  1  0.333333  0.666667  0.769300  1
  Se  Se8  1  0.334000  0.000000  0.117482  1
  Se  Se9  1  0.000000  0.334000  0.117482  1
  Se  Se10  1  0.666000  0.666000  0.117482  1
  Se  Se11  1  0.343282  0.343282  0.652288  1
  Se  Se12  1  0.656718  0.656718  0.347712  1
  Se  Se13  1  0.656718  0.000000  0.652288  1
  Se  Se14  1  0.000000  0.656718  0.652288  1
  Se  Se15  1  0.000000  0.666000  0.882518  1
  Se  Se16  1  0.334000  0.334000  0.882518  1
  Se  Se17  1  0.000000  0.343282  0.347712  1
  Se  Se18  1  0.343282  0.000000  0.347712  1
  Se  Se19  1  0.666000  0.000000  0.882518  1
