# generated using pymatgen
data_Tb4VRe(B8Mo)2
_symmetry_space_group_name_H-M   'P 1'
_cell_length_a   3.60055100
_cell_length_b   6.01761298
_cell_length_c   11.63065512
_cell_angle_alpha   90.07489900
_cell_angle_beta   90.00000000
_cell_angle_gamma   90.00000000
_symmetry_Int_Tables_number   1
_chemical_formula_structural   Tb4VRe(B8Mo)2
_chemical_formula_sum   'Tb4 V1 Re1 B16 Mo2'
_cell_volume   251.99796104
_cell_formula_units_Z   1
loop_
 _symmetry_equiv_pos_site_id
 _symmetry_equiv_pos_as_xyz
  1  'x, y, z'
loop_
 _atom_site_type_symbol
 _atom_site_label
 _atom_site_symmetry_multiplicity
 _atom_site_fract_x
 _atom_site_fract_y
 _atom_site_fract_z
 _atom_site_occupancy
  Tb  Tb0  1  0.000000  0.125794  0.148362  1
  Tb  Tb1  1  0.000000  0.874912  0.851409  1
  Tb  Tb2  1  0.000000  0.626184  0.348865  1
  Tb  Tb3  1  0.000000  0.373035  0.652461  1
  V  V4  1  0.000000  0.371881  0.918340  1
  Re  Re5  1  0.000000  0.627265  0.082550  1
  B  B6  1  0.500000  0.476706  0.191159  1
  B  B7  1  0.500000  0.523132  0.808662  1
  B  B8  1  0.500000  0.974505  0.305690  1
  B  B9  1  0.500000  0.025455  0.694194  1
  B  B10  1  0.500000  0.286717  0.312606  1
  B  B11  1  0.500000  0.713547  0.687249  1
  B  B12  1  0.500000  0.783254  0.183959  1
  B  B13  1  0.500000  0.216657  0.815814  1
  B  B14  1  0.500000  0.367018  0.467891  1
  B  B15  1  0.500000  0.633246  0.532292  1
  B  B16  1  0.500000  0.863746  0.031852  1
  B  B17  1  0.500000  0.136291  0.967986  1
  B  B18  1  0.500000  0.387093  0.046751  1
  B  B19  1  0.500000  0.613244  0.953036  1
  B  B20  1  0.500000  0.886105  0.452508  1
  B  B21  1  0.500000  0.114678  0.547357  1
  Mo  Mo22  1  0.000000  0.128891  0.415222  1
  Mo  Mo23  1  0.000000  0.870646  0.583785  1
