# generated using pymatgen
data_Nd2Mn2FeTc14C3
_symmetry_space_group_name_H-M   'P 1'
_cell_length_a   6.93274350
_cell_length_b   6.92679644
_cell_length_c   6.93274314
_cell_angle_alpha   82.70194989
_cell_angle_beta   82.78837186
_cell_angle_gamma   82.70195525
_symmetry_Int_Tables_number   1
_chemical_formula_structural   Nd2Mn2FeTc14C3
_chemical_formula_sum   'Nd2 Mn2 Fe1 Tc14 C3'
_cell_volume   325.51866897
_cell_formula_units_Z   1
loop_
 _symmetry_equiv_pos_site_id
 _symmetry_equiv_pos_as_xyz
  1  'x, y, z'
loop_
 _atom_site_type_symbol
 _atom_site_label
 _atom_site_symmetry_multiplicity
 _atom_site_fract_x
 _atom_site_fract_y
 _atom_site_fract_z
 _atom_site_occupancy
  Nd  Nd0  1  0.649875  0.649255  0.649875  1
  Nd  Nd1  1  0.350125  0.350745  0.350125  1
  Mn  Mn2  1  0.000000  0.000000  0.500000  1
  Mn  Mn3  1  0.500000  0.000000  0.000000  1
  Fe  Fe4  1  0.000000  0.500000  0.000000  1
  Tc  Tc5  1  0.724489  0.276588  0.000169  1
  Tc  Tc6  1  0.999831  0.723412  0.275511  1
  Tc  Tc7  1  0.276917  0.000000  0.723083  1
  Tc  Tc8  1  0.000169  0.276588  0.724489  1
  Tc  Tc9  1  0.723083  0.000000  0.276917  1
  Tc  Tc10  1  0.275511  0.723412  0.999831  1
  Tc  Tc11  1  0.345920  0.862454  0.345920  1
  Tc  Tc12  1  0.345626  0.347275  0.863108  1
  Tc  Tc13  1  0.863108  0.347275  0.345626  1
  Tc  Tc14  1  0.654080  0.137546  0.654080  1
  Tc  Tc15  1  0.654374  0.652725  0.136892  1
  Tc  Tc16  1  0.136892  0.652725  0.654374  1
  Tc  Tc17  1  0.901497  0.899635  0.901497  1
  Tc  Tc18  1  0.098503  0.100365  0.098503  1
  C  C19  1  0.500000  0.500000  0.000000  1
  C  C20  1  0.000000  0.500000  0.500000  1
  C  C21  1  0.500000  0.000000  0.500000  1
