# generated using pymatgen
data_Pr7Tm13Pt16
_symmetry_space_group_name_H-M   'P 1'
_cell_length_a   7.61373788
_cell_length_b   7.65766208
_cell_length_c   14.60788900
_cell_angle_alpha   89.90606156
_cell_angle_beta   89.89879950
_cell_angle_gamma   90.10034918
_symmetry_Int_Tables_number   1
_chemical_formula_structural   Pr7Tm13Pt16
_chemical_formula_sum   'Pr7 Tm13 Pt16'
_cell_volume   851.68627612
_cell_formula_units_Z   1
loop_
 _symmetry_equiv_pos_site_id
 _symmetry_equiv_pos_as_xyz
  1  'x, y, z'
loop_
 _atom_site_type_symbol
 _atom_site_label
 _atom_site_symmetry_multiplicity
 _atom_site_fract_x
 _atom_site_fract_y
 _atom_site_fract_z
 _atom_site_occupancy
  Pr  Pr0  1  0.501405  0.675879  0.594869  1
  Pr  Pr1  1  0.001521  0.823950  0.903805  1
  Pr  Pr2  1  0.497620  0.326094  0.095292  1
  Pr  Pr3  1  0.997587  0.170890  0.406757  1
  Pr  Pr4  1  0.497901  0.325521  0.404247  1
  Pr  Pr5  1  0.998285  0.176145  0.095325  1
  Pr  Pr6  1  0.502456  0.675208  0.902864  1
  Tm  Tm7  1  0.001725  0.822609  0.599022  1
  Tm  Tm8  1  0.660826  0.165945  0.621814  1
  Tm  Tm9  1  0.158437  0.331754  0.875546  1
  Tm  Tm10  1  0.341739  0.833093  0.122842  1
  Tm  Tm11  1  0.843515  0.670201  0.379332  1
  Tm  Tm12  1  0.340490  0.834214  0.377356  1
  Tm  Tm13  1  0.841528  0.666704  0.123809  1
  Tm  Tm14  1  0.659429  0.165912  0.875634  1
  Tm  Tm15  1  0.159109  0.332174  0.622469  1
  Tm  Tm16  1  0.823356  0.506657  0.748343  1
  Tm  Tm17  1  0.321807  0.992861  0.748020  1
  Tm  Tm18  1  0.176214  0.493727  0.251422  1
  Tm  Tm19  1  0.677353  0.007552  0.250314  1
  Pt  Pt20  1  0.674320  0.960240  0.459295  1
  Pt  Pt21  1  0.175172  0.537579  0.043405  1
  Pt  Pt22  1  0.326192  0.036916  0.954888  1
  Pt  Pt23  1  0.829927  0.471121  0.547427  1
  Pt  Pt24  1  0.313327  0.029819  0.545733  1
  Pt  Pt25  1  0.825100  0.461906  0.955716  1
  Pt  Pt26  1  0.675729  0.962346  0.043579  1
  Pt  Pt27  1  0.174745  0.541415  0.458003  1
  Pt  Pt28  1  0.454067  0.371336  0.748906  1
  Pt  Pt29  1  0.956660  0.124319  0.747570  1
  Pt  Pt30  1  0.545623  0.629845  0.250902  1
  Pt  Pt31  1  0.045160  0.872850  0.250331  1
  Pt  Pt32  1  0.693224  0.863458  0.747095  1
  Pt  Pt33  1  0.185918  0.637830  0.746138  1
  Pt  Pt34  1  0.311252  0.136207  0.250300  1
  Pt  Pt35  1  0.811277  0.365723  0.251624  1
