# generated using pymatgen
data_Ca4GaSi4Rh9
_symmetry_space_group_name_H-M   'P 1'
_cell_length_a   11.59456034
_cell_length_b   11.59455939
_cell_length_c   11.59456002
_cell_angle_alpha   28.28834663
_cell_angle_beta   28.28835398
_cell_angle_gamma   28.28835410
_symmetry_Int_Tables_number   1
_chemical_formula_structural   Ca4GaSi4Rh9
_chemical_formula_sum   'Ca4 Ga1 Si4 Rh9'
_cell_volume   309.31965307
_cell_formula_units_Z   1
loop_
 _symmetry_equiv_pos_site_id
 _symmetry_equiv_pos_as_xyz
  1  'x, y, z'
loop_
 _atom_site_type_symbol
 _atom_site_label
 _atom_site_symmetry_multiplicity
 _atom_site_fract_x
 _atom_site_fract_y
 _atom_site_fract_z
 _atom_site_occupancy
  Ca  Ca0  1  0.949722  0.949722  0.949722  1
  Ca  Ca1  1  0.852178  0.852178  0.852178  1
  Ca  Ca2  1  0.147822  0.147822  0.147822  1
  Ca  Ca3  1  0.050278  0.050278  0.050278  1
  Ga  Ga4  1  0.500000  0.500000  0.500000  1
  Si  Si5  1  0.279442  0.279442  0.279442  1
  Si  Si6  1  0.387222  0.387222  0.387222  1
  Si  Si7  1  0.720558  0.720558  0.720558  1
  Si  Si8  1  0.612778  0.612778  0.612778  1
  Rh  Rh9  1  0.604995  0.604995  0.105131  1
  Rh  Rh10  1  0.894869  0.395005  0.395005  1
  Rh  Rh11  1  0.500000  0.000000  0.500000  1
  Rh  Rh12  1  0.395005  0.894869  0.395005  1
  Rh  Rh13  1  0.500000  0.500000  0.000000  1
  Rh  Rh14  1  0.105131  0.604995  0.604995  1
  Rh  Rh15  1  0.000000  0.500000  0.500000  1
  Rh  Rh16  1  0.395005  0.395005  0.894869  1
  Rh  Rh17  1  0.604995  0.105131  0.604995  1
