# generated using pymatgen
data_Nd4FeCo3I2
_symmetry_space_group_name_H-M   'P 1'
_cell_length_a   4.01971700
_cell_length_b   4.01971672
_cell_length_c   17.86295200
_cell_angle_alpha   90.00000000
_cell_angle_beta   90.00000000
_cell_angle_gamma   119.99999410
_symmetry_Int_Tables_number   1
_chemical_formula_structural   Nd4FeCo3I2
_chemical_formula_sum   'Nd4 Fe1 Co3 I2'
_cell_volume   249.96247447
_cell_formula_units_Z   1
loop_
 _symmetry_equiv_pos_site_id
 _symmetry_equiv_pos_as_xyz
  1  'x, y, z'
loop_
 _atom_site_type_symbol
 _atom_site_label
 _atom_site_symmetry_multiplicity
 _atom_site_fract_x
 _atom_site_fract_y
 _atom_site_fract_z
 _atom_site_occupancy
  Nd  Nd0  1  0.000000  0.000000  0.103807  1
  Nd  Nd1  1  0.000000  0.000000  0.896181  1
  Nd  Nd2  1  0.000000  0.000000  0.606950  1
  Nd  Nd3  1  0.000000  0.000000  0.393348  1
  Fe  Fe4  1  0.333333  0.666667  0.500655  1
  Co  Co5  1  0.666667  0.333333  0.499516  1
  Co  Co6  1  0.666667  0.333333  0.000061  1
  Co  Co7  1  0.333333  0.666667  0.999813  1
  I  I8  1  0.333333  0.666667  0.248999  1
  I  I9  1  0.666667  0.333333  0.750670  1
