# generated using pymatgen
data_Sc4Be7BRu10
_symmetry_space_group_name_H-M   'P 1'
_cell_length_a   3.14946600
_cell_length_b   8.69129866
_cell_length_c   10.13319126
_cell_angle_alpha   90.19630645
_cell_angle_beta   90.00000000
_cell_angle_gamma   90.00000000
_symmetry_Int_Tables_number   1
_chemical_formula_structural   Sc4Be7BRu10
_chemical_formula_sum   'Sc4 Be7 B1 Ru10'
_cell_volume   277.37370585
_cell_formula_units_Z   1
loop_
 _symmetry_equiv_pos_site_id
 _symmetry_equiv_pos_as_xyz
  1  'x, y, z'
loop_
 _atom_site_type_symbol
 _atom_site_label
 _atom_site_symmetry_multiplicity
 _atom_site_fract_x
 _atom_site_fract_y
 _atom_site_fract_z
 _atom_site_occupancy
  Sc  Sc0  1  0.500000  0.834200  0.182174  1
  Sc  Sc1  1  0.500000  0.162416  0.815821  1
  Sc  Sc2  1  0.500000  0.664993  0.685853  1
  Sc  Sc3  1  0.500000  0.339517  0.316648  1
  Be  Be4  1  0.500000  0.959330  0.592689  1
  Be  Be5  1  0.500000  0.036484  0.405972  1
  Be  Be6  1  0.500000  0.843760  0.905233  1
  Be  Be7  1  0.500000  0.162694  0.095515  1
  Be  Be8  1  0.500000  0.655740  0.402602  1
  Be  Be9  1  0.500000  0.336705  0.592458  1
  Be  Be10  1  0.500000  0.465977  0.908537  1
  B  B11  1  0.500000  0.536045  0.092389  1
  Ru  Ru12  1  0.000000  0.657280  0.961283  1
  Ru  Ru13  1  0.000000  0.350218  0.049505  1
  Ru  Ru14  1  0.000000  0.839619  0.450486  1
  Ru  Ru15  1  0.000000  0.153928  0.548156  1
  Ru  Ru16  1  0.000000  0.003668  0.001837  1
  Ru  Ru17  1  0.000000  0.408232  0.753545  1
  Ru  Ru18  1  0.000000  0.588882  0.236464  1
  Ru  Ru19  1  0.000000  0.501773  0.502817  1
  Ru  Ru20  1  0.000000  0.906894  0.745473  1
  Ru  Ru21  1  0.000000  0.091644  0.254543  1
