# generated using pymatgen
data_Tb2Ga3Tc14C3
_symmetry_space_group_name_H-M   'P 1'
_cell_length_a   6.94883758
_cell_length_b   6.94883706
_cell_length_c   6.94883753
_cell_angle_alpha   82.36542978
_cell_angle_beta   82.36543029
_cell_angle_gamma   82.36542322
_symmetry_Int_Tables_number   1
_chemical_formula_structural   Tb2Ga3Tc14C3
_chemical_formula_sum   'Tb2 Ga3 Tc14 C3'
_cell_volume   327.33719851
_cell_formula_units_Z   1
loop_
 _symmetry_equiv_pos_site_id
 _symmetry_equiv_pos_as_xyz
  1  'x, y, z'
loop_
 _atom_site_type_symbol
 _atom_site_label
 _atom_site_symmetry_multiplicity
 _atom_site_fract_x
 _atom_site_fract_y
 _atom_site_fract_z
 _atom_site_occupancy
  Tb  Tb0  1  0.656618  0.656618  0.656618  1
  Tb  Tb1  1  0.343382  0.343382  0.343382  1
  Ga  Ga2  1  0.000000  0.000000  0.500000  1
  Ga  Ga3  1  0.500000  0.000000  0.000000  1
  Ga  Ga4  1  0.000000  0.500000  0.000000  1
  Tc  Tc5  1  0.723144  0.276856  0.000000  1
  Tc  Tc6  1  0.000000  0.723144  0.276856  1
  Tc  Tc7  1  0.276856  0.000000  0.723144  1
  Tc  Tc8  1  0.000000  0.276856  0.723144  1
  Tc  Tc9  1  0.723144  0.000000  0.276856  1
  Tc  Tc10  1  0.276856  0.723144  0.000000  1
  Tc  Tc11  1  0.351857  0.351857  0.848948  1
  Tc  Tc12  1  0.848948  0.351857  0.351857  1
  Tc  Tc13  1  0.351857  0.848948  0.351857  1
  Tc  Tc14  1  0.648143  0.648143  0.151052  1
  Tc  Tc15  1  0.151052  0.648143  0.648143  1
  Tc  Tc16  1  0.648143  0.151052  0.648143  1
  Tc  Tc17  1  0.904165  0.904165  0.904165  1
  Tc  Tc18  1  0.095835  0.095835  0.095835  1
  C  C19  1  0.500000  0.500000  0.000000  1
  C  C20  1  0.000000  0.500000  0.500000  1
  C  C21  1  0.500000  0.000000  0.500000  1
