# generated using pymatgen
data_Y5ErFe7Co11
_symmetry_space_group_name_H-M   'P 1'
_cell_length_a   5.10297284
_cell_length_b   5.11429569
_cell_length_c   15.85655734
_cell_angle_alpha   90.00000022
_cell_angle_beta   90.21840767
_cell_angle_gamma   120.07342939
_symmetry_Int_Tables_number   1
_chemical_formula_structural   Y5ErFe7Co11
_chemical_formula_sum   'Y5 Er1 Fe7 Co11'
_cell_volume   358.11506553
_cell_formula_units_Z   1
loop_
 _symmetry_equiv_pos_site_id
 _symmetry_equiv_pos_as_xyz
  1  'x, y, z'
loop_
 _atom_site_type_symbol
 _atom_site_label
 _atom_site_symmetry_multiplicity
 _atom_site_fract_x
 _atom_site_fract_y
 _atom_site_fract_z
 _atom_site_occupancy
  Y  Y0  1  0.668148  0.334073  0.036650  1
  Y  Y1  1  0.666348  0.333174  0.461113  1
  Y  Y2  1  0.334569  0.667285  0.539636  1
  Y  Y3  1  0.333812  0.666907  0.749972  1
  Y  Y4  1  0.665498  0.332748  0.249854  1
  Er  Er5  1  0.333395  0.666698  0.958601  1
  Fe  Fe6  1  0.662202  0.831101  0.127044  1
  Fe  Fe7  1  0.330391  0.665195  0.252524  1
  Fe  Fe8  1  0.667018  0.333508  0.749945  1
  Fe  Fe9  1  0.000543  0.000271  0.251999  1
  Fe  Fe10  1  0.001112  0.000556  0.750121  1
  Fe  Fe11  1  0.000328  0.000164  0.500465  1
  Fe  Fe12  1  0.003266  0.001633  0.998745  1
  Co  Co13  1  0.166488  0.832945  0.373538  1
  Co  Co14  1  0.166488  0.333544  0.373538  1
  Co  Co15  1  0.667534  0.833768  0.373093  1
  Co  Co16  1  0.834235  0.167412  0.627868  1
  Co  Co17  1  0.834235  0.666824  0.627868  1
  Co  Co18  1  0.332518  0.166259  0.627789  1
  Co  Co19  1  0.833643  0.166422  0.871704  1
  Co  Co20  1  0.833643  0.667221  0.871704  1
  Co  Co21  1  0.332842  0.166421  0.871656  1
  Co  Co22  1  0.165871  0.833049  0.127288  1
  Co  Co23  1  0.165871  0.332823  0.127288  1
