# generated using pymatgen
data_Ho3TmCrOs7
_symmetry_space_group_name_H-M   'P 1'
_cell_length_a   5.23223251
_cell_length_b   5.23279333
_cell_length_c   8.78862535
_cell_angle_alpha   89.95483994
_cell_angle_beta   89.95485707
_cell_angle_gamma   62.16004634
_symmetry_Int_Tables_number   1
_chemical_formula_structural   Ho3TmCrOs7
_chemical_formula_sum   'Ho3 Tm1 Cr1 Os7'
_cell_volume   212.77430184
_cell_formula_units_Z   1
loop_
 _symmetry_equiv_pos_site_id
 _symmetry_equiv_pos_as_xyz
  1  'x, y, z'
loop_
 _atom_site_type_symbol
 _atom_site_label
 _atom_site_symmetry_multiplicity
 _atom_site_fract_x
 _atom_site_fract_y
 _atom_site_fract_z
 _atom_site_occupancy
  Ho  Ho0  1  0.668423  0.668745  0.435674  1
  Ho  Ho1  1  0.668355  0.668553  0.064435  1
  Ho  Ho2  1  0.331939  0.332088  0.935500  1
  Tm  Tm3  1  0.331615  0.331899  0.564443  1
  Cr  Cr4  1  0.169235  0.169291  0.250716  1
  Os  Os5  1  0.006376  0.007133  0.496000  1
  Os  Os6  1  0.005977  0.006610  0.004134  1
  Os  Os7  1  0.827058  0.340869  0.749330  1
  Os  Os8  1  0.341836  0.826355  0.749326  1
  Os  Os9  1  0.826959  0.826642  0.749354  1
  Os  Os10  1  0.172759  0.649169  0.250538  1
  Os  Os11  1  0.649470  0.172644  0.250546  1
