# generated using pymatgen
data_Nd5Te4Pt
_symmetry_space_group_name_H-M   'P 1'
_cell_length_a   7.83377312
_cell_length_b   7.83377159
_cell_length_c   11.04240558
_cell_angle_alpha   61.11789154
_cell_angle_beta   61.11789717
_cell_angle_gamma   32.46922414
_symmetry_Int_Tables_number   1
_chemical_formula_structural   Nd5Te4Pt
_chemical_formula_sum   'Nd5 Te4 Pt1'
_cell_volume   314.40777723
_cell_formula_units_Z   1
loop_
 _symmetry_equiv_pos_site_id
 _symmetry_equiv_pos_as_xyz
  1  'x, y, z'
loop_
 _atom_site_type_symbol
 _atom_site_label
 _atom_site_symmetry_multiplicity
 _atom_site_fract_x
 _atom_site_fract_y
 _atom_site_fract_z
 _atom_site_occupancy
  Nd  Nd0  1  0.000000  0.000000  0.500000  1
  Nd  Nd1  1  0.583829  0.583829  0.090706  1
  Nd  Nd2  1  0.188160  0.188160  0.723933  1
  Nd  Nd3  1  0.811840  0.811840  0.276067  1
  Nd  Nd4  1  0.416171  0.416171  0.909294  1
  Te  Te5  1  0.609481  0.609481  0.587498  1
  Te  Te6  1  0.194486  0.194486  0.193238  1
  Te  Te7  1  0.805514  0.805514  0.806762  1
  Te  Te8  1  0.390519  0.390519  0.412502  1
  Pt  Pt9  1  0.000000  0.000000  0.000000  1
