# generated using pymatgen
data_Cs4Mn6Se7O
_symmetry_space_group_name_H-M   'P 1'
_cell_length_a   10.10583367
_cell_length_b   10.02129678
_cell_length_c   10.11011368
_cell_angle_alpha   143.38402347
_cell_angle_beta   106.49478007
_cell_angle_gamma   84.28505561
_symmetry_Int_Tables_number   1
_chemical_formula_structural   Cs4Mn6Se7O
_chemical_formula_sum   'Cs4 Mn6 Se7 O1'
_cell_volume   570.63429275
_cell_formula_units_Z   1
loop_
 _symmetry_equiv_pos_site_id
 _symmetry_equiv_pos_as_xyz
  1  'x, y, z'
loop_
 _atom_site_type_symbol
 _atom_site_label
 _atom_site_symmetry_multiplicity
 _atom_site_fract_x
 _atom_site_fract_y
 _atom_site_fract_z
 _atom_site_occupancy
  Cs  Cs0  1  0.118885  0.236290  0.352646  1
  Cs  Cs1  1  0.388719  0.750478  0.124086  1
  Cs  Cs2  1  0.638379  0.278054  0.899540  1
  Cs  Cs3  1  0.881123  0.766275  0.643276  1
  Mn  Mn4  1  0.518753  0.758002  0.774081  1
  Mn  Mn5  1  0.983363  0.744365  0.224875  1
  Mn  Mn6  1  0.475149  0.262682  0.234988  1
  Mn  Mn7  1  0.756962  0.255856  0.509269  1
  Mn  Mn8  1  0.241126  0.785218  0.515686  1
  Mn  Mn9  1  0.041381  0.222725  0.756366  1
  Se  Se10  1  0.281365  0.886563  0.861708  1
  Se  Se11  1  0.028708  0.415253  0.136120  1
  Se  Se12  1  0.479621  0.650478  0.424044  1
  Se  Se13  1  0.783936  0.925597  0.410432  1
  Se  Se14  1  0.715191  0.133769  0.150838  1
  Se  Se15  1  0.998620  0.560049  0.850285  1
  Se  Se16  1  0.516252  0.374224  0.590814  1
  O  O17  1  0.152467  0.994120  0.540946  1
