# generated using pymatgen
data_PrTm(AsPt)2
_symmetry_space_group_name_H-M   'P 1'
_cell_length_a   4.29044600
_cell_length_b   4.29044494
_cell_length_c   15.93130900
_cell_angle_alpha   90.00000000
_cell_angle_beta   90.00000000
_cell_angle_gamma   120.00000821
_symmetry_Int_Tables_number   1
_chemical_formula_structural   PrTm(AsPt)2
_chemical_formula_sum   'Pr2 Tm2 As4 Pt4'
_cell_volume   253.97257935
_cell_formula_units_Z   2
loop_
 _symmetry_equiv_pos_site_id
 _symmetry_equiv_pos_as_xyz
  1  'x, y, z'
loop_
 _atom_site_type_symbol
 _atom_site_label
 _atom_site_symmetry_multiplicity
 _atom_site_fract_x
 _atom_site_fract_y
 _atom_site_fract_z
 _atom_site_occupancy
  Pr  Pr0  1  0.000000  0.000000  0.500000  1
  Pr  Pr1  1  0.000000  0.000000  0.000000  1
  Tm  Tm2  1  0.000000  0.000000  0.250000  1
  Tm  Tm3  1  0.000000  0.000000  0.750000  1
  As  As4  1  0.333333  0.666667  0.879419  1
  As  As5  1  0.666667  0.333333  0.120581  1
  As  As6  1  0.666667  0.333333  0.379419  1
  As  As7  1  0.333333  0.666667  0.620581  1
  Pt  Pt8  1  0.333333  0.666667  0.355630  1
  Pt  Pt9  1  0.666667  0.333333  0.644370  1
  Pt  Pt10  1  0.666667  0.333333  0.855630  1
  Pt  Pt11  1  0.333333  0.666667  0.144370  1
