# generated using pymatgen
data_CaErHf2(Al8Pt3)3
_symmetry_space_group_name_H-M   'P 1'
_cell_length_a   7.48966628
_cell_length_b   7.49740721
_cell_length_c   13.04914200
_cell_angle_alpha   84.44957742
_cell_angle_beta   100.98969218
_cell_angle_gamma   119.90464890
_symmetry_Int_Tables_number   1
_chemical_formula_structural   CaErHf2(Al8Pt3)3
_chemical_formula_sum   'Ca1 Er1 Hf2 Al24 Pt9'
_cell_volume   623.53888674
_cell_formula_units_Z   1
loop_
 _symmetry_equiv_pos_site_id
 _symmetry_equiv_pos_as_xyz
  1  'x, y, z'
loop_
 _atom_site_type_symbol
 _atom_site_label
 _atom_site_symmetry_multiplicity
 _atom_site_fract_x
 _atom_site_fract_y
 _atom_site_fract_z
 _atom_site_occupancy
  Ca  Ca0  1  0.061629  0.668035  0.191628  1
  Er  Er1  1  0.938787  0.332658  0.808684  1
  Hf  Hf2  1  0.732688  0.999483  0.192333  1
  Hf  Hf3  1  0.267029  0.000009  0.808124  1
  Al  Al4  1  0.812507  0.869441  0.815617  1
  Al  Al5  1  0.186330  0.131457  0.184169  1
  Al  Al6  1  0.983844  0.668775  0.942735  1
  Al  Al7  1  0.015884  0.331242  0.058322  1
  Al  Al8  1  0.399225  0.669388  0.816766  1
  Al  Al9  1  0.600117  0.328746  0.182945  1
  Al  Al10  1  0.885327  0.666935  0.674391  1
  Al  Al11  1  0.114477  0.333842  0.325593  1
  Al  Al12  1  0.597447  0.452206  0.816016  1
  Al  Al13  1  0.404415  0.548663  0.183754  1
  Al  Al14  1  0.230977  0.338051  0.673016  1
  Al  Al15  1  0.770206  0.662456  0.326902  1
  Al  Al16  1  0.853150  0.333035  0.559020  1
  Al  Al17  1  0.186250  0.999321  0.559996  1
  Al  Al18  1  0.813576  0.000283  0.439941  1
  Al  Al19  1  0.354821  0.997929  0.056873  1
  Al  Al20  1  0.645098  0.001868  0.943041  1
  Al  Al21  1  0.555419  0.993412  0.674432  1
  Al  Al22  1  0.443856  0.005408  0.325518  1
  Al  Al23  1  0.521324  0.667730  0.562523  1
  Al  Al24  1  0.478367  0.332318  0.437493  1
  Al  Al25  1  0.684724  0.670947  0.049723  1
  Al  Al26  1  0.315449  0.329067  0.950429  1
  Al  Al27  1  0.146876  0.667180  0.440360  1
  Pt  Pt28  1  0.327607  0.671030  0.999010  1
  Pt  Pt29  1  0.545390  0.323021  0.637965  1
  Pt  Pt30  1  0.456391  0.676395  0.362983  1
  Pt  Pt31  1  0.889903  0.009646  0.639886  1
  Pt  Pt32  1  0.111198  0.992204  0.361075  1
  Pt  Pt33  1  0.671301  0.328066  0.998986  1
  Pt  Pt34  1  0.203127  0.667016  0.639969  1
  Pt  Pt35  1  0.795270  0.331826  0.360859  1
  Pt  Pt36  1  0.000020  0.000912  0.998917  1
