# generated using pymatgen
data_Tm3Lu2Zr5Pb6
_symmetry_space_group_name_H-M   'P 1'
_cell_length_a   8.84501600
_cell_length_b   8.83557247
_cell_length_c   6.07277800
_cell_angle_alpha   90.00000000
_cell_angle_beta   90.00000000
_cell_angle_gamma   120.03537718
_symmetry_Int_Tables_number   1
_chemical_formula_structural   Tm3Lu2Zr5Pb6
_chemical_formula_sum   'Tm3 Lu2 Zr5 Pb6'
_cell_volume   410.86242337
_cell_formula_units_Z   1
loop_
 _symmetry_equiv_pos_site_id
 _symmetry_equiv_pos_as_xyz
  1  'x, y, z'
loop_
 _atom_site_type_symbol
 _atom_site_label
 _atom_site_symmetry_multiplicity
 _atom_site_fract_x
 _atom_site_fract_y
 _atom_site_fract_z
 _atom_site_occupancy
  Tm  Tm0  1  0.763746  0.761797  0.250000  1
  Tm  Tm1  1  0.001949  0.238203  0.250000  1
  Tm  Tm2  1  0.758531  0.000000  0.750000  1
  Lu  Lu3  1  0.001430  0.761382  0.750000  1
  Lu  Lu4  1  0.240049  0.238618  0.750000  1
  Zr  Zr5  1  0.332855  0.669115  0.500037  1
  Zr  Zr6  1  0.243381  0.000000  0.250000  1
  Zr  Zr7  1  0.663741  0.330885  0.500037  1
  Zr  Zr8  1  0.332855  0.669115  0.999963  1
  Zr  Zr9  1  0.663741  0.330885  0.999963  1
  Pb  Pb10  1  0.604369  0.603638  0.750000  1
  Pb  Pb11  1  0.394879  0.000000  0.750000  1
  Pb  Pb12  1  0.601908  0.000000  0.250000  1
  Pb  Pb13  1  0.000731  0.396362  0.750000  1
  Pb  Pb14  1  0.394784  0.393733  0.250000  1
  Pb  Pb15  1  0.001052  0.606267  0.250000  1
