# generated using pymatgen
data_Gd3GaSiRh2
_symmetry_space_group_name_H-M   'P 1'
_cell_length_a   5.63801500
_cell_length_b   7.96039300
_cell_length_c   13.05033600
_cell_angle_alpha   90.00000000
_cell_angle_beta   90.00000000
_cell_angle_gamma   90.00000000
_symmetry_Int_Tables_number   1
_chemical_formula_structural   Gd3GaSiRh2
_chemical_formula_sum   'Gd12 Ga4 Si4 Rh8'
_cell_volume   585.70971753
_cell_formula_units_Z   4
loop_
 _symmetry_equiv_pos_site_id
 _symmetry_equiv_pos_as_xyz
  1  'x, y, z'
loop_
 _atom_site_type_symbol
 _atom_site_label
 _atom_site_symmetry_multiplicity
 _atom_site_fract_x
 _atom_site_fract_y
 _atom_site_fract_z
 _atom_site_occupancy
  Gd  Gd0  1  0.637092  0.254949  0.250000  1
  Gd  Gd1  1  0.362908  0.745051  0.750000  1
  Gd  Gd2  1  0.362908  0.754949  0.250000  1
  Gd  Gd3  1  0.637092  0.245051  0.750000  1
  Gd  Gd4  1  0.147897  0.397235  0.101523  1
  Gd  Gd5  1  0.852103  0.602765  0.898477  1
  Gd  Gd6  1  0.852103  0.602765  0.601523  1
  Gd  Gd7  1  0.852103  0.897235  0.398477  1
  Gd  Gd8  1  0.147897  0.397235  0.398477  1
  Gd  Gd9  1  0.147897  0.102765  0.601523  1
  Gd  Gd10  1  0.147897  0.102765  0.898477  1
  Gd  Gd11  1  0.852103  0.897235  0.101523  1
  Ga  Ga12  1  0.638497  0.250000  0.000000  1
  Ga  Ga13  1  0.361503  0.750000  0.000000  1
  Ga  Ga14  1  0.361503  0.750000  0.500000  1
  Ga  Ga15  1  0.638497  0.250000  0.500000  1
  Si  Si16  1  0.136773  0.110721  0.250000  1
  Si  Si17  1  0.863227  0.889279  0.750000  1
  Si  Si18  1  0.863227  0.610721  0.250000  1
  Si  Si19  1  0.136773  0.389279  0.750000  1
  Rh  Rh20  1  0.358458  0.033242  0.094712  1
  Rh  Rh21  1  0.641542  0.966758  0.905288  1
  Rh  Rh22  1  0.641542  0.966758  0.594712  1
  Rh  Rh23  1  0.641542  0.533242  0.405288  1
  Rh  Rh24  1  0.358458  0.033242  0.405288  1
  Rh  Rh25  1  0.358458  0.466758  0.594712  1
  Rh  Rh26  1  0.358458  0.466758  0.905288  1
  Rh  Rh27  1  0.641542  0.533242  0.094712  1
