# generated using pymatgen
data_Zr8ZnIn4Pt7
_symmetry_space_group_name_H-M   'P 1'
_cell_length_a   7.55511634
_cell_length_b   7.55511690
_cell_length_c   6.93036197
_cell_angle_alpha   90.01160895
_cell_angle_beta   89.98838901
_cell_angle_gamma   89.54240382
_symmetry_Int_Tables_number   1
_chemical_formula_structural   Zr8ZnIn4Pt7
_chemical_formula_sum   'Zr8 Zn1 In4 Pt7'
_cell_volume   395.57095347
_cell_formula_units_Z   1
loop_
 _symmetry_equiv_pos_site_id
 _symmetry_equiv_pos_as_xyz
  1  'x, y, z'
loop_
 _atom_site_type_symbol
 _atom_site_label
 _atom_site_symmetry_multiplicity
 _atom_site_fract_x
 _atom_site_fract_y
 _atom_site_fract_z
 _atom_site_occupancy
  Zr  Zr0  1  0.148893  0.152550  0.005789  1
  Zr  Zr1  1  0.847450  0.851107  0.005789  1
  Zr  Zr2  1  0.652167  0.347833  0.503083  1
  Zr  Zr3  1  0.352965  0.647035  0.495786  1
  Zr  Zr4  1  0.688875  0.311125  0.998341  1
  Zr  Zr5  1  0.313994  0.686006  0.002452  1
  Zr  Zr6  1  0.804618  0.811253  0.494850  1
  Zr  Zr7  1  0.188747  0.195382  0.494850  1
  Zn  Zn8  1  0.127342  0.872658  0.703701  1
  In  In9  1  0.497726  0.001080  0.247628  1
  In  In10  1  0.498793  0.999351  0.752066  1
  In  In11  1  0.998920  0.502274  0.247628  1
  In  In12  1  0.000649  0.501207  0.752066  1
  Pt  Pt13  1  0.370484  0.369550  0.212555  1
  Pt  Pt14  1  0.630675  0.630478  0.785688  1
  Pt  Pt15  1  0.630450  0.629516  0.212555  1
  Pt  Pt16  1  0.878372  0.121628  0.718151  1
  Pt  Pt17  1  0.869189  0.130811  0.289013  1
  Pt  Pt18  1  0.369522  0.369325  0.785688  1
  Pt  Pt19  1  0.130168  0.869832  0.292323  1
