# generated using pymatgen
data_Hf6Al6MoW3N2
_symmetry_space_group_name_H-M   'P 1'
_cell_length_a   7.88673000
_cell_length_b   7.88673090
_cell_length_c   5.34774700
_cell_angle_alpha   90.00000000
_cell_angle_beta   90.00000000
_cell_angle_gamma   120.00000459
_symmetry_Int_Tables_number   1
_chemical_formula_structural   Hf6Al6MoW3N2
_chemical_formula_sum   'Hf6 Al6 Mo1 W3 N2'
_cell_volume   288.06829385
_cell_formula_units_Z   1
loop_
 _symmetry_equiv_pos_site_id
 _symmetry_equiv_pos_as_xyz
  1  'x, y, z'
loop_
 _atom_site_type_symbol
 _atom_site_label
 _atom_site_symmetry_multiplicity
 _atom_site_fract_x
 _atom_site_fract_y
 _atom_site_fract_z
 _atom_site_occupancy
  Hf  Hf0  1  0.231255  0.999285  0.250238  1
  Hf  Hf1  1  0.000715  0.231970  0.250238  1
  Hf  Hf2  1  0.768030  0.768745  0.250238  1
  Hf  Hf3  1  0.768030  0.999285  0.749762  1
  Hf  Hf4  1  0.000715  0.768745  0.749762  1
  Hf  Hf5  1  0.231255  0.231970  0.749762  1
  Al  Al6  1  0.586396  0.000776  0.249617  1
  Al  Al7  1  0.999224  0.585620  0.249617  1
  Al  Al8  1  0.414380  0.413604  0.249617  1
  Al  Al9  1  0.414380  0.000776  0.750383  1
  Al  Al10  1  0.999224  0.413604  0.750383  1
  Al  Al11  1  0.586396  0.585620  0.750383  1
  Mo  Mo12  1  0.666667  0.333333  0.000000  1
  W  W13  1  0.333333  0.666667  0.000000  1
  W  W14  1  0.666667  0.333333  0.500000  1
  W  W15  1  0.333333  0.666667  0.500000  1
  N  N16  1  0.000000  0.000000  0.000000  1
  N  N17  1  0.000000  0.000000  0.500000  1
