# generated using pymatgen
data_Cs3K(USe3)2
_symmetry_space_group_name_H-M   'P 1'
_cell_length_a   7.67855010
_cell_length_b   7.67855017
_cell_length_c   8.76925126
_cell_angle_alpha   81.68466553
_cell_angle_beta   81.68465602
_cell_angle_gamma   119.95674827
_symmetry_Int_Tables_number   1
_chemical_formula_structural   Cs3K(USe3)2
_chemical_formula_sum   'Cs3 K1 U2 Se6'
_cell_volume   428.83939176
_cell_formula_units_Z   1
loop_
 _symmetry_equiv_pos_site_id
 _symmetry_equiv_pos_as_xyz
  1  'x, y, z'
loop_
 _atom_site_type_symbol
 _atom_site_label
 _atom_site_symmetry_multiplicity
 _atom_site_fract_x
 _atom_site_fract_y
 _atom_site_fract_z
 _atom_site_occupancy
  Cs  Cs0  1  0.653041  0.346959  0.500000  1
  Cs  Cs1  1  0.346959  0.653041  0.500000  1
  Cs  Cs2  1  0.000000  0.000000  0.500000  1
  K  K3  1  0.500000  0.500000  0.000000  1
  U  U4  1  0.832285  0.167715  0.000000  1
  U  U5  1  0.167715  0.832285  0.000000  1
  Se  Se6  1  0.813600  0.813600  0.184789  1
  Se  Se7  1  0.186400  0.186400  0.815211  1
  Se  Se8  1  0.435834  0.057601  0.191066  1
  Se  Se9  1  0.564166  0.942399  0.808934  1
  Se  Se10  1  0.942399  0.564166  0.808934  1
  Se  Se11  1  0.057601  0.435834  0.191066  1
