# generated using pymatgen
data_Ca2U(SnIr)3
_symmetry_space_group_name_H-M   'P 1'
_cell_length_a   7.48553638
_cell_length_b   7.69775045
_cell_length_c   3.94837200
_cell_angle_alpha   90.00000000
_cell_angle_beta   90.00000000
_cell_angle_gamma   120.94233451
_symmetry_Int_Tables_number   1
_chemical_formula_structural   Ca2U(SnIr)3
_chemical_formula_sum   'Ca2 U1 Sn3 Ir3'
_cell_volume   195.13391003
_cell_formula_units_Z   1
loop_
 _symmetry_equiv_pos_site_id
 _symmetry_equiv_pos_as_xyz
  1  'x, y, z'
loop_
 _atom_site_type_symbol
 _atom_site_label
 _atom_site_symmetry_multiplicity
 _atom_site_fract_x
 _atom_site_fract_y
 _atom_site_fract_z
 _atom_site_occupancy
  Ca  Ca0  1  0.404864  0.406389  0.500000  1
  Ca  Ca1  1  0.595136  0.001524  0.500000  1
  U  U2  1  0.000000  0.588971  0.500000  1
  Sn  Sn3  1  0.723940  0.740854  0.000000  1
  Sn  Sn4  1  0.276060  0.016914  0.000000  1
  Sn  Sn5  1  0.000000  0.238711  0.000000  1
  Ir  Ir6  1  0.717676  0.375576  0.000000  1
  Ir  Ir7  1  0.282324  0.657901  0.000000  1
  Ir  Ir8  1  0.000000  0.973159  0.500000  1
