# generated using pymatgen
data_Tb18Hf2IrRh11
_symmetry_space_group_name_H-M   'P 1'
_cell_length_a   10.94543501
_cell_length_b   10.94543375
_cell_length_c   6.37921600
_cell_angle_alpha   89.99818357
_cell_angle_beta   89.99817833
_cell_angle_gamma   90.06816065
_symmetry_Int_Tables_number   1
_chemical_formula_structural   Tb18Hf2IrRh11
_chemical_formula_sum   'Tb18 Hf2 Ir1 Rh11'
_cell_volume   764.24569842
_cell_formula_units_Z   1
loop_
 _symmetry_equiv_pos_site_id
 _symmetry_equiv_pos_as_xyz
  1  'x, y, z'
loop_
 _atom_site_type_symbol
 _atom_site_label
 _atom_site_symmetry_multiplicity
 _atom_site_fract_x
 _atom_site_fract_y
 _atom_site_fract_z
 _atom_site_occupancy
  Tb  Tb0  1  0.292384  0.088240  0.379114  1
  Tb  Tb1  1  0.293218  0.909220  0.879266  1
  Tb  Tb2  1  0.707109  0.087886  0.879279  1
  Tb  Tb3  1  0.706595  0.911406  0.379162  1
  Tb  Tb4  1  0.585789  0.786149  0.878247  1
  Tb  Tb5  1  0.587542  0.213303  0.378711  1
  Tb  Tb6  1  0.412087  0.786026  0.379732  1
  Tb  Tb7  1  0.412292  0.213051  0.878027  1
  Tb  Tb8  1  0.213851  0.414211  0.621753  1
  Tb  Tb9  1  0.213974  0.587913  0.120268  1
  Tb  Tb10  1  0.786697  0.412458  0.121289  1
  Tb  Tb11  1  0.786949  0.587708  0.621973  1
  Tb  Tb12  1  0.911760  0.707616  0.120886  1
  Tb  Tb13  1  0.912114  0.292891  0.620721  1
  Tb  Tb14  1  0.090780  0.706782  0.620734  1
  Tb  Tb15  1  0.088594  0.293405  0.120838  1
  Tb  Tb16  1  0.999511  0.999686  0.500468  1
  Tb  Tb17  1  0.000314  0.000489  0.999532  1
  Hf  Hf18  1  0.499812  0.499770  0.000245  1
  Hf  Hf19  1  0.500230  0.500188  0.499755  1
  Ir  Ir20  1  0.361168  0.638832  0.750000  1
  Rh  Rh21  1  0.844066  0.155934  0.250000  1
  Rh  Rh22  1  0.843843  0.844811  0.750276  1
  Rh  Rh23  1  0.155189  0.156157  0.749724  1
  Rh  Rh24  1  0.154829  0.845171  0.250000  1
  Rh  Rh25  1  0.639749  0.360251  0.750000  1
  Rh  Rh26  1  0.640949  0.639820  0.249763  1
  Rh  Rh27  1  0.360180  0.359051  0.250237  1
  Rh  Rh28  1  0.499840  0.000496  0.125123  1
  Rh  Rh29  1  0.500062  0.000979  0.624695  1
  Rh  Rh30  1  0.999021  0.499938  0.875305  1
  Rh  Rh31  1  0.999504  0.500160  0.374877  1
