# generated using pymatgen
data_Sc6B4Ir9Ru
_symmetry_space_group_name_H-M   'P 1'
_cell_length_a   3.06646100
_cell_length_b   9.61935020
_cell_length_c   9.61935020
_cell_angle_alpha   90.39516585
_cell_angle_beta   90.00000000
_cell_angle_gamma   90.00000000
_symmetry_Int_Tables_number   1
_chemical_formula_structural   Sc6B4Ir9Ru
_chemical_formula_sum   'Sc6 B4 Ir9 Ru1'
_cell_volume   283.73870854
_cell_formula_units_Z   1
loop_
 _symmetry_equiv_pos_site_id
 _symmetry_equiv_pos_as_xyz
  1  'x, y, z'
loop_
 _atom_site_type_symbol
 _atom_site_label
 _atom_site_symmetry_multiplicity
 _atom_site_fract_x
 _atom_site_fract_y
 _atom_site_fract_z
 _atom_site_occupancy
  Sc  Sc0  1  0.000000  0.172946  0.672946  1
  Sc  Sc1  1  0.000000  0.827054  0.327054  1
  Sc  Sc2  1  0.000000  0.322468  0.177532  1
  Sc  Sc3  1  0.000000  0.677532  0.822468  1
  Sc  Sc4  1  0.000000  0.000000  0.000000  1
  Sc  Sc5  1  0.000000  0.500000  0.500000  1
  B  B6  1  0.000000  0.623812  0.123812  1
  B  B7  1  0.000000  0.376188  0.876188  1
  B  B8  1  0.000000  0.880486  0.619514  1
  B  B9  1  0.000000  0.119514  0.380486  1
  Ir  Ir10  1  0.500000  0.071458  0.221887  1
  Ir  Ir11  1  0.500000  0.928542  0.778113  1
  Ir  Ir12  1  0.500000  0.777934  0.071238  1
  Ir  Ir13  1  0.500000  0.428762  0.722066  1
  Ir  Ir14  1  0.500000  0.222066  0.928762  1
  Ir  Ir15  1  0.500000  0.571238  0.277934  1
  Ir  Ir16  1  0.500000  0.721887  0.571458  1
  Ir  Ir17  1  0.500000  0.278113  0.428542  1
  Ir  Ir18  1  0.500000  0.500000  0.000000  1
  Ru  Ru19  1  0.500000  0.000000  0.500000  1
