# generated using pymatgen
data_Ca3LaNi6
_symmetry_space_group_name_H-M   'P 1'
_cell_length_a   5.44334285
_cell_length_b   5.44334310
_cell_length_c   7.52697685
_cell_angle_alpha   88.78565723
_cell_angle_beta   91.21434009
_cell_angle_gamma   124.90447685
_symmetry_Int_Tables_number   1
_chemical_formula_structural   Ca3LaNi6
_chemical_formula_sum   'Ca3 La1 Ni6'
_cell_volume   182.85148333
_cell_formula_units_Z   1
loop_
 _symmetry_equiv_pos_site_id
 _symmetry_equiv_pos_as_xyz
  1  'x, y, z'
loop_
 _atom_site_type_symbol
 _atom_site_label
 _atom_site_symmetry_multiplicity
 _atom_site_fract_x
 _atom_site_fract_y
 _atom_site_fract_z
 _atom_site_occupancy
  Ca  Ca0  1  0.843476  0.156524  0.585834  1
  Ca  Ca1  1  0.155620  0.844380  0.405495  1
  Ca  Ca2  1  0.658147  0.341853  0.106186  1
  La  La3  1  0.343433  0.656567  0.903138  1
  Ni  Ni4  1  0.500637  0.499363  0.500008  1
  Ni  Ni5  1  0.997426  0.002574  0.999084  1
  Ni  Ni6  1  0.839565  0.657153  0.753496  1
  Ni  Ni7  1  0.656444  0.837595  0.246631  1
  Ni  Ni8  1  0.342847  0.160435  0.753496  1
  Ni  Ni9  1  0.162405  0.343556  0.246631  1
