# generated using pymatgen
data_Y6V(Fe3Co8)2
_symmetry_space_group_name_H-M   'P 1'
_cell_length_a   8.34046922
_cell_length_b   8.34046890
_cell_length_c   8.34046900
_cell_angle_alpha   59.99999565
_cell_angle_beta   59.99999691
_cell_angle_gamma   59.99999668
_symmetry_Int_Tables_number   1
_chemical_formula_structural   Y6V(Fe3Co8)2
_chemical_formula_sum   'Y6 V1 Fe6 Co16'
_cell_volume   410.25736921
_cell_formula_units_Z   1
loop_
 _symmetry_equiv_pos_site_id
 _symmetry_equiv_pos_as_xyz
  1  'x, y, z'
loop_
 _atom_site_type_symbol
 _atom_site_label
 _atom_site_symmetry_multiplicity
 _atom_site_fract_x
 _atom_site_fract_y
 _atom_site_fract_z
 _atom_site_occupancy
  Y  Y0  1  0.711382  0.711382  0.288618  1
  Y  Y1  1  0.288618  0.711382  0.288618  1
  Y  Y2  1  0.711382  0.288618  0.288618  1
  Y  Y3  1  0.288618  0.288618  0.711382  1
  Y  Y4  1  0.711382  0.288618  0.711382  1
  Y  Y5  1  0.288618  0.711382  0.711382  1
  V  V6  1  0.000000  0.000000  0.000000  1
  Fe  Fe7  1  0.000000  0.000000  0.500000  1
  Fe  Fe8  1  0.500000  0.000000  0.500000  1
  Fe  Fe9  1  0.000000  0.500000  0.500000  1
  Fe  Fe10  1  0.500000  0.500000  0.000000  1
  Fe  Fe11  1  0.000000  0.500000  0.000000  1
  Fe  Fe12  1  0.500000  0.000000  0.000000  1
  Co  Co13  1  0.877359  0.877359  0.367923  1
  Co  Co14  1  0.877359  0.367923  0.877359  1
  Co  Co15  1  0.367923  0.877359  0.877359  1
  Co  Co16  1  0.877359  0.877359  0.877359  1
  Co  Co17  1  0.122641  0.122641  0.632077  1
  Co  Co18  1  0.122641  0.632077  0.122641  1
  Co  Co19  1  0.632077  0.122641  0.122641  1
  Co  Co20  1  0.122641  0.122641  0.122641  1
  Co  Co21  1  0.676913  0.676913  0.969259  1
  Co  Co22  1  0.676913  0.969259  0.676913  1
  Co  Co23  1  0.969259  0.676913  0.676913  1
  Co  Co24  1  0.676913  0.676913  0.676913  1
  Co  Co25  1  0.323087  0.323087  0.030741  1
  Co  Co26  1  0.323087  0.030741  0.323087  1
  Co  Co27  1  0.030741  0.323087  0.323087  1
  Co  Co28  1  0.323087  0.323087  0.323087  1
