# generated using pymatgen
data_NdYSiNi9
_symmetry_space_group_name_H-M   'P 1'
_cell_length_a   3.94871900
_cell_length_b   5.01606900
_cell_length_c   8.33034700
_cell_angle_alpha   90.00000000
_cell_angle_beta   90.00000000
_cell_angle_gamma   90.00000000
_symmetry_Int_Tables_number   1
_chemical_formula_structural   NdYSiNi9
_chemical_formula_sum   'Nd1 Y1 Si1 Ni9'
_cell_volume   164.99957427
_cell_formula_units_Z   1
loop_
 _symmetry_equiv_pos_site_id
 _symmetry_equiv_pos_as_xyz
  1  'x, y, z'
loop_
 _atom_site_type_symbol
 _atom_site_label
 _atom_site_symmetry_multiplicity
 _atom_site_fract_x
 _atom_site_fract_y
 _atom_site_fract_z
 _atom_site_occupancy
  Nd  Nd0  1  0.000000  0.000000  0.000000  1
  Y  Y1  1  0.000000  0.500000  0.500000  1
  Si  Si2  1  0.500000  0.000000  0.500000  1
  Ni  Ni3  1  0.000000  0.000000  0.343267  1
  Ni  Ni4  1  0.000000  0.500000  0.832072  1
  Ni  Ni5  1  0.000000  0.500000  0.167928  1
  Ni  Ni6  1  0.000000  0.000000  0.656733  1
  Ni  Ni7  1  0.500000  0.500000  0.000000  1
  Ni  Ni8  1  0.500000  0.257531  0.261471  1
  Ni  Ni9  1  0.500000  0.742469  0.738529  1
  Ni  Ni10  1  0.500000  0.742469  0.261471  1
  Ni  Ni11  1  0.500000  0.257531  0.738529  1
