# generated using pymatgen
data_Y5InGa2
_symmetry_space_group_name_H-M   'P 1'
_cell_length_a   7.77931400
_cell_length_b   7.77931400
_cell_length_c   14.41432300
_cell_angle_alpha   90.00000000
_cell_angle_beta   90.00000000
_cell_angle_gamma   90.00000000
_symmetry_Int_Tables_number   1
_chemical_formula_structural   Y5InGa2
_chemical_formula_sum   'Y20 In4 Ga8'
_cell_volume   872.32205427
_cell_formula_units_Z   4
loop_
 _symmetry_equiv_pos_site_id
 _symmetry_equiv_pos_as_xyz
  1  'x, y, z'
loop_
 _atom_site_type_symbol
 _atom_site_label
 _atom_site_symmetry_multiplicity
 _atom_site_fract_x
 _atom_site_fract_y
 _atom_site_fract_z
 _atom_site_occupancy
  Y  Y0  1  0.834590  0.831328  0.893738  1
  Y  Y1  1  0.168672  0.165410  0.606262  1
  Y  Y2  1  0.834590  0.168672  0.393738  1
  Y  Y3  1  0.165410  0.831328  0.393738  1
  Y  Y4  1  0.331328  0.334590  0.393738  1
  Y  Y5  1  0.831328  0.165410  0.106262  1
  Y  Y6  1  0.331328  0.665410  0.893738  1
  Y  Y7  1  0.168672  0.834590  0.106262  1
  Y  Y8  1  0.500000  0.000000  0.752602  1
  Y  Y9  1  0.000000  0.500000  0.247398  1
  Y  Y10  1  0.334590  0.668672  0.606262  1
  Y  Y11  1  0.665410  0.668672  0.106262  1
  Y  Y12  1  0.665410  0.331328  0.606262  1
  Y  Y13  1  0.000000  0.500000  0.747398  1
  Y  Y14  1  0.831328  0.834590  0.606262  1
  Y  Y15  1  0.668672  0.334590  0.893738  1
  Y  Y16  1  0.165410  0.168672  0.893738  1
  Y  Y17  1  0.500000  0.000000  0.252602  1
  Y  Y18  1  0.668672  0.665410  0.393738  1
  Y  Y19  1  0.334590  0.331328  0.106262  1
  In  In20  1  0.000000  0.500000  0.001160  1
  In  In21  1  0.500000  0.000000  0.998840  1
  In  In22  1  0.500000  0.000000  0.498840  1
  In  In23  1  0.000000  0.500000  0.501160  1
  Ga  Ga24  1  0.623257  0.376743  0.250000  1
  Ga  Ga25  1  0.376743  0.623257  0.250000  1
  Ga  Ga26  1  0.123257  0.123257  0.250000  1
  Ga  Ga27  1  0.376743  0.376743  0.750000  1
  Ga  Ga28  1  0.123257  0.876743  0.750000  1
  Ga  Ga29  1  0.876743  0.876743  0.250000  1
  Ga  Ga30  1  0.623257  0.623257  0.750000  1
  Ga  Ga31  1  0.876743  0.123257  0.750000  1
