# generated using pymatgen
data_Er7Tm(FeB6)4
_symmetry_space_group_name_H-M   'P 1'
_cell_length_a   3.52365500
_cell_length_b   9.04394210
_cell_length_c   11.40176100
_cell_angle_alpha   89.99209935
_cell_angle_beta   90.00000000
_cell_angle_gamma   90.00000000
_symmetry_Int_Tables_number   1
_chemical_formula_structural   Er7Tm(FeB6)4
_chemical_formula_sum   'Er7 Tm1 Fe4 B24'
_cell_volume   363.34825821
_cell_formula_units_Z   1
loop_
 _symmetry_equiv_pos_site_id
 _symmetry_equiv_pos_as_xyz
  1  'x, y, z'
loop_
 _atom_site_type_symbol
 _atom_site_label
 _atom_site_symmetry_multiplicity
 _atom_site_fract_x
 _atom_site_fract_y
 _atom_site_fract_z
 _atom_site_occupancy
  Er  Er0  1  0.500000  0.324011  0.414475  1
  Er  Er1  1  0.500000  0.675983  0.585381  1
  Er  Er2  1  0.500000  0.175682  0.914520  1
  Er  Er3  1  0.500000  0.824251  0.085612  1
  Er  Er4  1  0.500000  0.443542  0.129350  1
  Er  Er5  1  0.500000  0.556431  0.870729  1
  Er  Er6  1  0.500000  0.056461  0.629107  1
  Tm  Tm7  1  0.500000  0.943514  0.370736  1
  Fe  Fe8  1  0.500000  0.138769  0.179690  1
  Fe  Fe9  1  0.500000  0.860993  0.820421  1
  Fe  Fe10  1  0.500000  0.360909  0.679350  1
  Fe  Fe11  1  0.500000  0.639384  0.320490  1
  B  B12  1  0.000000  0.108897  0.469870  1
  B  B13  1  0.000000  0.890869  0.529570  1
  B  B14  1  0.000000  0.390186  0.970010  1
  B  B15  1  0.000000  0.609808  0.030073  1
  B  B16  1  0.000000  0.132294  0.314428  1
  B  B17  1  0.000000  0.867370  0.685640  1
  B  B18  1  0.000000  0.367244  0.814217  1
  B  B19  1  0.000000  0.632868  0.185872  1
  B  B20  1  0.000000  0.054199  0.068004  1
  B  B21  1  0.000000  0.945699  0.932177  1
  B  B22  1  0.000000  0.445707  0.567762  1
  B  B23  1  0.000000  0.554572  0.432157  1
  B  B24  1  0.000000  0.486157  0.288357  1
  B  B25  1  0.000000  0.513931  0.711670  1
  B  B26  1  0.000000  0.013967  0.788241  1
  B  B27  1  0.000000  0.985766  0.212037  1
  B  B28  1  0.000000  0.246612  0.081360  1
  B  B29  1  0.000000  0.753294  0.918713  1
  B  B30  1  0.000000  0.253184  0.581170  1
  B  B31  1  0.000000  0.747232  0.418702  1
  B  B32  1  0.000000  0.289876  0.233814  1
  B  B33  1  0.000000  0.709941  0.766235  1
  B  B34  1  0.000000  0.209883  0.733620  1
  B  B35  1  0.000000  0.790511  0.266440  1
