# generated using pymatgen
data_Y4Co9B4Os
_symmetry_space_group_name_H-M   'P 1'
_cell_length_a   5.09067900
_cell_length_b   5.09067846
_cell_length_c   20.14159000
_cell_angle_alpha   90.00000000
_cell_angle_beta   90.00000000
_cell_angle_gamma   119.99999702
_symmetry_Int_Tables_number   1
_chemical_formula_structural   Y4Co9B4Os
_chemical_formula_sum   'Y8 Co18 B8 Os2'
_cell_volume   452.03886469
_cell_formula_units_Z   2
loop_
 _symmetry_equiv_pos_site_id
 _symmetry_equiv_pos_as_xyz
  1  'x, y, z'
loop_
 _atom_site_type_symbol
 _atom_site_label
 _atom_site_symmetry_multiplicity
 _atom_site_fract_x
 _atom_site_fract_y
 _atom_site_fract_z
 _atom_site_occupancy
  Y  Y0  1  0.666667  0.333333  0.824535  1
  Y  Y1  1  0.666667  0.333333  0.977067  1
  Y  Y2  1  0.333333  0.666667  0.477067  1
  Y  Y3  1  0.333333  0.666667  0.022933  1
  Y  Y4  1  0.333333  0.666667  0.175465  1
  Y  Y5  1  0.666667  0.333333  0.522933  1
  Y  Y6  1  0.666667  0.333333  0.675465  1
  Y  Y7  1  0.333333  0.666667  0.324535  1
  Co  Co8  1  0.163998  0.327995  0.893065  1
  Co  Co9  1  0.163998  0.836002  0.606935  1
  Co  Co10  1  0.836002  0.163998  0.393065  1
  Co  Co11  1  0.334178  0.167089  0.250000  1
  Co  Co12  1  0.327995  0.163998  0.393065  1
  Co  Co13  1  0.836002  0.672005  0.106935  1
  Co  Co14  1  0.836002  0.672005  0.393065  1
  Co  Co15  1  0.832911  0.665822  0.250000  1
  Co  Co16  1  0.672005  0.836002  0.606935  1
  Co  Co17  1  0.665822  0.832911  0.750000  1
  Co  Co18  1  0.836002  0.163998  0.106935  1
  Co  Co19  1  0.672005  0.836002  0.893065  1
  Co  Co20  1  0.167089  0.334178  0.750000  1
  Co  Co21  1  0.167089  0.832911  0.750000  1
  Co  Co22  1  0.832911  0.167089  0.250000  1
  Co  Co23  1  0.327995  0.163998  0.106935  1
  Co  Co24  1  0.163998  0.836002  0.893065  1
  Co  Co25  1  0.163998  0.327995  0.606935  1
  B  B26  1  0.333333  0.666667  0.823590  1
  B  B27  1  0.333333  0.666667  0.676410  1
  B  B28  1  0.666667  0.333333  0.323590  1
  B  B29  1  0.000000  0.000000  0.822169  1
  B  B30  1  0.666667  0.333333  0.176410  1
  B  B31  1  0.000000  0.000000  0.677831  1
  B  B32  1  0.000000  0.000000  0.322169  1
  B  B33  1  0.000000  0.000000  0.177831  1
  Os  Os34  1  0.000000  0.000000  0.000000  1
  Os  Os35  1  0.000000  0.000000  0.500000  1
