# generated using pymatgen
data_Tb9Y3Ga2(TcNi)2
_symmetry_space_group_name_H-M   'P 1'
_cell_length_a   8.37331847
_cell_length_b   8.37325294
_cell_length_c   8.40420200
_cell_angle_alpha   104.44103778
_cell_angle_beta   110.84088160
_cell_angle_gamma   113.11717502
_symmetry_Int_Tables_number   1
_chemical_formula_structural   Tb9Y3Ga2(TcNi)2
_chemical_formula_sum   'Tb9 Y3 Ga2 Tc2 Ni2'
_cell_volume   451.60887442
_cell_formula_units_Z   1
loop_
 _symmetry_equiv_pos_site_id
 _symmetry_equiv_pos_as_xyz
  1  'x, y, z'
loop_
 _atom_site_type_symbol
 _atom_site_label
 _atom_site_symmetry_multiplicity
 _atom_site_fract_x
 _atom_site_fract_y
 _atom_site_fract_z
 _atom_site_occupancy
  Tb  Tb0  1  0.309795  0.256835  0.566629  1
  Tb  Tb1  1  0.814286  0.146785  0.332085  1
  Tb  Tb2  1  0.814691  0.482395  0.667791  1
  Tb  Tb3  1  0.185396  0.853101  0.667791  1
  Tb  Tb4  1  0.185300  0.517798  0.332085  1
  Tb  Tb5  1  0.600744  0.780444  0.820350  1
  Tb  Tb6  1  0.960275  0.780454  0.180046  1
  Tb  Tb7  1  0.039906  0.219606  0.820349  1
  Tb  Tb8  1  0.399591  0.219771  0.180046  1
  Y  Y9  1  0.689517  0.256398  0.945916  1
  Y  Y10  1  0.310114  0.743808  0.053922  1
  Y  Y11  1  0.689773  0.743638  0.433411  1
  Ga  Ga12  1  0.500124  0.500309  0.000434  1
  Ga  Ga13  1  0.500102  0.999523  0.499625  1
  Tc  Tc14  1  0.821474  0.499929  0.321402  1
  Tc  Tc15  1  0.179208  0.499366  0.678572  1
  Ni  Ni16  1  0.999493  0.116982  0.116477  1
  Ni  Ni17  1  0.000211  0.882858  0.883071  1
