# generated using pymatgen
data_Nd4Y12Cd4IrPt3
_symmetry_space_group_name_H-M   'P 1'
_cell_length_a   9.80200603
_cell_length_b   9.75654301
_cell_length_c   9.75654284
_cell_angle_alpha   60.25621239
_cell_angle_beta   60.20561708
_cell_angle_gamma   60.20561779
_symmetry_Int_Tables_number   1
_chemical_formula_structural   Nd4Y12Cd4IrPt3
_chemical_formula_sum   'Nd4 Y12 Cd4 Ir1 Pt3'
_cell_volume   663.09195748
_cell_formula_units_Z   1
loop_
 _symmetry_equiv_pos_site_id
 _symmetry_equiv_pos_as_xyz
  1  'x, y, z'
loop_
 _atom_site_type_symbol
 _atom_site_label
 _atom_site_symmetry_multiplicity
 _atom_site_fract_x
 _atom_site_fract_y
 _atom_site_fract_z
 _atom_site_occupancy
  Nd  Nd0  1  0.565592  0.936029  0.564190  1
  Nd  Nd1  1  0.938150  0.561709  0.935136  1
  Nd  Nd2  1  0.565592  0.564190  0.936029  1
  Nd  Nd3  1  0.938150  0.935136  0.561709  1
  Y  Y4  1  0.353123  0.346685  0.346685  1
  Y  Y5  1  0.353258  0.351766  0.948063  1
  Y  Y6  1  0.353258  0.948063  0.351766  1
  Y  Y7  1  0.937858  0.354533  0.354533  1
  Y  Y8  1  0.808232  0.188517  0.188517  1
  Y  Y9  1  0.190952  0.810231  0.810231  1
  Y  Y10  1  0.191676  0.811161  0.188620  1
  Y  Y11  1  0.809016  0.185924  0.814422  1
  Y  Y12  1  0.191676  0.188620  0.811161  1
  Y  Y13  1  0.809016  0.814422  0.185924  1
  Y  Y14  1  0.944375  0.557081  0.557081  1
  Y  Y15  1  0.558576  0.943514  0.943514  1
  Cd  Cd16  1  0.583967  0.578145  0.578145  1
  Cd  Cd17  1  0.577706  0.584321  0.258283  1
  Cd  Cd18  1  0.577706  0.258283  0.584321  1
  Cd  Cd19  1  0.258680  0.578798  0.578798  1
  Ir  Ir20  1  0.573081  0.140093  0.140093  1
  Pt  Pt21  1  0.142329  0.144398  0.144398  1
  Pt  Pt22  1  0.139017  0.145951  0.572428  1
  Pt  Pt23  1  0.139017  0.572428  0.145951  1
