# generated using pymatgen
data_Sr6Li2TaNbO12
_symmetry_space_group_name_H-M   'P 1'
_cell_length_a   6.85500625
_cell_length_b   6.85500657
_cell_length_c   6.85500603
_cell_angle_alpha   92.65368785
_cell_angle_beta   92.65369030
_cell_angle_gamma   92.65369023
_symmetry_Int_Tables_number   1
_chemical_formula_structural   Sr6Li2TaNbO12
_chemical_formula_sum   'Sr6 Li2 Ta1 Nb1 O12'
_cell_volume   321.05485710
_cell_formula_units_Z   1
loop_
 _symmetry_equiv_pos_site_id
 _symmetry_equiv_pos_as_xyz
  1  'x, y, z'
loop_
 _atom_site_type_symbol
 _atom_site_label
 _atom_site_symmetry_multiplicity
 _atom_site_fract_x
 _atom_site_fract_y
 _atom_site_fract_z
 _atom_site_occupancy
  Sr  Sr0  1  0.100478  0.398456  0.749312  1
  Sr  Sr1  1  0.749312  0.100478  0.398456  1
  Sr  Sr2  1  0.398456  0.749312  0.100478  1
  Sr  Sr3  1  0.250688  0.899522  0.601544  1
  Sr  Sr4  1  0.601544  0.250688  0.899522  1
  Sr  Sr5  1  0.899522  0.601544  0.250688  1
  Li  Li6  1  0.250045  0.250045  0.250045  1
  Li  Li7  1  0.749955  0.749955  0.749955  1
  Ta  Ta8  1  0.500000  0.500000  0.500000  1
  Nb  Nb9  1  0.000000  0.000000  0.000000  1
  O  O10  1  0.452526  0.579299  0.780103  1
  O  O11  1  0.780103  0.452526  0.579299  1
  O  O12  1  0.579299  0.780103  0.452526  1
  O  O13  1  0.282203  0.079864  0.952349  1
  O  O14  1  0.952349  0.282203  0.079864  1
  O  O15  1  0.079864  0.952349  0.282203  1
  O  O16  1  0.547474  0.420701  0.219897  1
  O  O17  1  0.219897  0.547474  0.420701  1
  O  O18  1  0.420701  0.219897  0.547474  1
  O  O19  1  0.717797  0.920136  0.047651  1
  O  O20  1  0.047651  0.717797  0.920136  1
  O  O21  1  0.920136  0.047651  0.717797  1
