# generated using pymatgen
data_Ho8Er2Si5As
_symmetry_space_group_name_H-M   'P 1'
_cell_length_a   8.39122600
_cell_length_b   8.40520330
_cell_length_c   6.28065701
_cell_angle_alpha   89.99573209
_cell_angle_beta   90.00000000
_cell_angle_gamma   119.94500582
_symmetry_Int_Tables_number   1
_chemical_formula_structural   Ho8Er2Si5As
_chemical_formula_sum   'Ho8 Er2 Si5 As1'
_cell_volume   383.83957355
_cell_formula_units_Z   1
loop_
 _symmetry_equiv_pos_site_id
 _symmetry_equiv_pos_as_xyz
  1  'x, y, z'
loop_
 _atom_site_type_symbol
 _atom_site_label
 _atom_site_symmetry_multiplicity
 _atom_site_fract_x
 _atom_site_fract_y
 _atom_site_fract_z
 _atom_site_occupancy
  Ho  Ho0  1  0.996520  0.753837  0.749994  1
  Ho  Ho1  1  0.000217  0.243827  0.249995  1
  Ho  Ho2  1  0.756391  0.756173  0.250005  1
  Ho  Ho3  1  0.758540  0.000000  0.750000  1
  Ho  Ho4  1  0.242683  0.246163  0.750006  1
  Ho  Ho5  1  0.242836  0.000000  0.250000  1
  Ho  Ho6  1  0.669063  0.336080  0.498841  1
  Ho  Ho7  1  0.332981  0.663920  0.001159  1
  Er  Er8  1  0.332894  0.663751  0.498762  1
  Er  Er9  1  0.669144  0.336249  0.001238  1
  Si  Si10  1  0.394125  0.393107  0.250000  1
  Si  Si11  1  0.001018  0.606893  0.250000  1
  Si  Si12  1  0.999802  0.394038  0.749998  1
  Si  Si13  1  0.605764  0.605962  0.750002  1
  Si  Si14  1  0.606850  0.000000  0.250000  1
  As  As15  1  0.391171  0.000000  0.750000  1
