# generated using pymatgen
data_MgSi4(Ir2Rh)2
_symmetry_space_group_name_H-M   'P 1'
_cell_length_a   7.04719506
_cell_length_b   7.04719472
_cell_length_c   3.74605400
_cell_angle_alpha   90.00000000
_cell_angle_beta   90.00000000
_cell_angle_gamma   120.32334810
_symmetry_Int_Tables_number   1
_chemical_formula_structural   MgSi4(Ir2Rh)2
_chemical_formula_sum   'Mg1 Si4 Ir4 Rh2'
_cell_volume   160.58794447
_cell_formula_units_Z   1
loop_
 _symmetry_equiv_pos_site_id
 _symmetry_equiv_pos_as_xyz
  1  'x, y, z'
loop_
 _atom_site_type_symbol
 _atom_site_label
 _atom_site_symmetry_multiplicity
 _atom_site_fract_x
 _atom_site_fract_y
 _atom_site_fract_z
 _atom_site_occupancy
  Mg  Mg0  1  0.000814  0.999186  0.000000  1
  Si  Si1  1  0.801806  0.198194  0.500000  1
  Si  Si2  1  0.395217  0.198404  0.500000  1
  Si  Si3  1  0.333658  0.666342  0.000000  1
  Si  Si4  1  0.801596  0.604783  0.500000  1
  Ir  Ir5  1  0.193247  0.806753  0.500000  1
  Ir  Ir6  1  0.532640  0.066168  0.000000  1
  Ir  Ir7  1  0.933832  0.467360  0.000000  1
  Ir  Ir8  1  0.532680  0.467320  0.000000  1
  Rh  Rh9  1  0.191091  0.383250  0.500000  1
  Rh  Rh10  1  0.616750  0.808909  0.500000  1
