# generated using pymatgen
data_Ti5Sb3Au
_symmetry_space_group_name_H-M   'P 1'
_cell_length_a   8.32221800
_cell_length_b   8.32221682
_cell_length_c   5.59397100
_cell_angle_alpha   90.00000000
_cell_angle_beta   90.00000000
_cell_angle_gamma   119.99998878
_symmetry_Int_Tables_number   1
_chemical_formula_structural   Ti5Sb3Au
_chemical_formula_sum   'Ti10 Sb6 Au2'
_cell_volume   335.52818366
_cell_formula_units_Z   2
loop_
 _symmetry_equiv_pos_site_id
 _symmetry_equiv_pos_as_xyz
  1  'x, y, z'
loop_
 _atom_site_type_symbol
 _atom_site_label
 _atom_site_symmetry_multiplicity
 _atom_site_fract_x
 _atom_site_fract_y
 _atom_site_fract_z
 _atom_site_occupancy
  Ti  Ti0  1  0.282710  0.000000  0.750000  1
  Ti  Ti1  1  0.717290  0.000000  0.250000  1
  Ti  Ti2  1  0.000000  0.282710  0.750000  1
  Ti  Ti3  1  0.000000  0.717290  0.250000  1
  Ti  Ti4  1  0.717290  0.717290  0.750000  1
  Ti  Ti5  1  0.282710  0.282710  0.250000  1
  Ti  Ti6  1  0.333333  0.666667  0.500000  1
  Ti  Ti7  1  0.666667  0.333333  0.500000  1
  Ti  Ti8  1  0.666667  0.333333  0.000000  1
  Ti  Ti9  1  0.333333  0.666667  0.000000  1
  Sb  Sb10  1  0.619060  0.000000  0.750000  1
  Sb  Sb11  1  0.380940  0.000000  0.250000  1
  Sb  Sb12  1  0.000000  0.619060  0.750000  1
  Sb  Sb13  1  0.000000  0.380940  0.250000  1
  Sb  Sb14  1  0.380940  0.380940  0.750000  1
  Sb  Sb15  1  0.619060  0.619060  0.250000  1
  Au  Au16  1  0.000000  0.000000  0.500000  1
  Au  Au17  1  0.000000  0.000000  0.000000  1
