# generated using pymatgen
data_U4VRe2TcC8
_symmetry_space_group_name_H-M   'P 1'
_cell_length_a   3.17013000
_cell_length_b   5.58229612
_cell_length_c   11.00827311
_cell_angle_alpha   89.98947527
_cell_angle_beta   90.00000000
_cell_angle_gamma   90.00000000
_symmetry_Int_Tables_number   1
_chemical_formula_structural   U4VRe2TcC8
_chemical_formula_sum   'U4 V1 Re2 Tc1 C8'
_cell_volume   194.80905092
_cell_formula_units_Z   1
loop_
 _symmetry_equiv_pos_site_id
 _symmetry_equiv_pos_as_xyz
  1  'x, y, z'
loop_
 _atom_site_type_symbol
 _atom_site_label
 _atom_site_symmetry_multiplicity
 _atom_site_fract_x
 _atom_site_fract_y
 _atom_site_fract_z
 _atom_site_occupancy
  U  U0  1  0.250000  0.079086  0.859238  1
  U  U1  1  0.250000  0.580785  0.643691  1
  U  U2  1  0.750000  0.921784  0.139666  1
  U  U3  1  0.750000  0.414505  0.357536  1
  V  V4  1  0.750000  0.578847  0.899751  1
  Re  Re5  1  0.250000  0.428013  0.100369  1
  Re  Re6  1  0.250000  0.916139  0.396547  1
  Tc  Tc7  1  0.750000  0.081990  0.605087  1
  C  C8  1  0.250000  0.162943  0.244291  1
  C  C9  1  0.250000  0.663397  0.254179  1
  C  C10  1  0.750000  0.832790  0.757988  1
  C  C11  1  0.750000  0.338363  0.747541  1
  C  C12  1  0.250000  0.741941  0.988485  1
  C  C13  1  0.250000  0.243047  0.507057  1
  C  C14  1  0.750000  0.262385  0.005471  1
  C  C15  1  0.750000  0.753985  0.493104  1
