# generated using pymatgen
data_Pr10Sn5PbN2
_symmetry_space_group_name_H-M   'P 1'
_cell_length_a   9.37083200
_cell_length_b   9.37083256
_cell_length_c   6.71731100
_cell_angle_alpha   90.00000000
_cell_angle_beta   90.00000000
_cell_angle_gamma   119.98079627
_symmetry_Int_Tables_number   1
_chemical_formula_structural   Pr10Sn5PbN2
_chemical_formula_sum   'Pr10 Sn5 Pb1 N2'
_cell_volume   510.93590746
_cell_formula_units_Z   1
loop_
 _symmetry_equiv_pos_site_id
 _symmetry_equiv_pos_as_xyz
  1  'x, y, z'
loop_
 _atom_site_type_symbol
 _atom_site_label
 _atom_site_symmetry_multiplicity
 _atom_site_fract_x
 _atom_site_fract_y
 _atom_site_fract_z
 _atom_site_occupancy
  Pr  Pr0  1  0.669388  0.332486  0.001324  1
  Pr  Pr1  1  0.332486  0.669388  0.001324  1
  Pr  Pr2  1  0.332486  0.669388  0.498676  1
  Pr  Pr3  1  0.669388  0.332486  0.498676  1
  Pr  Pr4  1  0.785820  0.785820  0.750000  1
  Pr  Pr5  1  0.214072  0.997385  0.750000  1
  Pr  Pr6  1  0.997385  0.214072  0.750000  1
  Pr  Pr7  1  0.213159  0.213159  0.250000  1
  Pr  Pr8  1  0.784417  0.999978  0.250000  1
  Pr  Pr9  1  0.999978  0.784417  0.250000  1
  Sn  Sn10  1  0.597022  0.999629  0.750000  1
  Sn  Sn11  1  0.999629  0.597022  0.750000  1
  Sn  Sn12  1  0.595891  0.595891  0.250000  1
  Sn  Sn13  1  0.402391  0.000854  0.250000  1
  Sn  Sn14  1  0.000854  0.402391  0.250000  1
  Pb  Pb15  1  0.404703  0.404703  0.750000  1
  N  N16  1  0.000467  0.000467  0.999672  1
  N  N17  1  0.000467  0.000467  0.500328  1
