# generated using pymatgen
data_TbEr5NiBr10
_symmetry_space_group_name_H-M   'P 1'
_cell_length_a   7.28695724
_cell_length_b   9.07756841
_cell_length_c   9.12485793
_cell_angle_alpha   107.56093297
_cell_angle_beta   96.93833988
_cell_angle_gamma   104.80524371
_symmetry_Int_Tables_number   1
_chemical_formula_structural   TbEr5NiBr10
_chemical_formula_sum   'Tb1 Er5 Ni1 Br10'
_cell_volume   543.38064549
_cell_formula_units_Z   1
loop_
 _symmetry_equiv_pos_site_id
 _symmetry_equiv_pos_as_xyz
  1  'x, y, z'
loop_
 _atom_site_type_symbol
 _atom_site_label
 _atom_site_symmetry_multiplicity
 _atom_site_fract_x
 _atom_site_fract_y
 _atom_site_fract_z
 _atom_site_occupancy
  Tb  Tb0  1  0.353077  0.131236  0.175389  1
  Er  Er1  1  0.877254  0.954180  0.241261  1
  Er  Er2  1  0.120110  0.044201  0.758143  1
  Er  Er3  1  0.032417  0.708658  0.909804  1
  Er  Er4  1  0.966228  0.290623  0.089015  1
  Er  Er5  1  0.651227  0.870486  0.827313  1
  Ni  Ni6  1  0.000031  0.999924  0.000666  1
  Br  Br7  1  0.655524  0.549371  0.725649  1
  Br  Br8  1  0.342363  0.454255  0.272126  1
  Br  Br9  1  0.749195  0.917617  0.541093  1
  Br  Br10  1  0.246671  0.081755  0.460996  1
  Br  Br11  1  0.911780  0.626801  0.173233  1
  Br  Br12  1  0.085408  0.371871  0.824977  1
  Br  Br13  1  0.545560  0.179849  0.910425  1
  Br  Br14  1  0.454964  0.817080  0.086394  1
  Br  Br15  1  0.226101  0.746555  0.657295  1
  Br  Br16  1  0.782091  0.255538  0.346219  1
