# generated using pymatgen
data_Er8MgSc10Si16Hg
_symmetry_space_group_name_H-M   'P 1'
_cell_length_a   6.98781647
_cell_length_b   7.38325919
_cell_length_c   13.94687600
_cell_angle_alpha   90.00000000
_cell_angle_beta   90.00000000
_cell_angle_gamma   89.81322565
_symmetry_Int_Tables_number   1
_chemical_formula_structural   Er8MgSc10Si16Hg
_chemical_formula_sum   'Er8 Mg1 Sc10 Si16 Hg1'
_cell_volume   719.55539953
_cell_formula_units_Z   1
loop_
 _symmetry_equiv_pos_site_id
 _symmetry_equiv_pos_as_xyz
  1  'x, y, z'
loop_
 _atom_site_type_symbol
 _atom_site_label
 _atom_site_symmetry_multiplicity
 _atom_site_fract_x
 _atom_site_fract_y
 _atom_site_fract_z
 _atom_site_occupancy
  Er  Er0  1  0.009824  0.178855  0.096475  1
  Er  Er1  1  0.990433  0.817099  0.903404  1
  Er  Er2  1  0.487067  0.673168  0.903674  1
  Er  Er3  1  0.990433  0.817099  0.596596  1
  Er  Er4  1  0.511732  0.325363  0.095800  1
  Er  Er5  1  0.009824  0.178855  0.403525  1
  Er  Er6  1  0.511732  0.325363  0.404200  1
  Er  Er7  1  0.487067  0.673168  0.596326  1
  Mg  Mg8  1  0.839356  0.492622  0.250000  1
  Sc  Sc9  1  0.341755  0.004535  0.250000  1
  Sc  Sc10  1  0.656649  0.995291  0.750000  1
  Sc  Sc11  1  0.324125  0.182624  0.625858  1
  Sc  Sc12  1  0.673702  0.820820  0.375063  1
  Sc  Sc13  1  0.165093  0.680595  0.373490  1
  Sc  Sc14  1  0.673702  0.820820  0.124937  1
  Sc  Sc15  1  0.838984  0.321771  0.626376  1
  Sc  Sc16  1  0.324125  0.182624  0.874142  1
  Sc  Sc17  1  0.838984  0.321771  0.873624  1
  Sc  Sc18  1  0.165093  0.680595  0.126510  1
  Si  Si19  1  0.026024  0.088719  0.750000  1
  Si  Si20  1  0.970372  0.903037  0.250000  1
  Si  Si21  1  0.461995  0.617416  0.250000  1
  Si  Si22  1  0.543763  0.380384  0.750000  1
  Si  Si23  1  0.291531  0.883016  0.750000  1
  Si  Si24  1  0.710844  0.122859  0.250000  1
  Si  Si25  1  0.222042  0.372137  0.250000  1
  Si  Si26  1  0.770713  0.631673  0.750000  1
  Si  Si27  1  0.164384  0.459366  0.528024  1
  Si  Si28  1  0.838327  0.537955  0.466685  1
  Si  Si29  1  0.342300  0.967918  0.461606  1
  Si  Si30  1  0.838327  0.537955  0.033315  1
  Si  Si31  1  0.658236  0.032149  0.539665  1
  Si  Si32  1  0.164384  0.459366  0.971976  1
  Si  Si33  1  0.658236  0.032149  0.960335  1
  Si  Si34  1  0.342300  0.967918  0.038394  1
  Hg  Hg35  1  0.156541  0.512942  0.750000  1
