# generated using pymatgen
data_Yb3Ho3(CoSn6)2
_symmetry_space_group_name_H-M   'P 1'
_cell_length_a   8.39312387
_cell_length_b   8.39312355
_cell_length_c   13.21612517
_cell_angle_alpha   90.09729376
_cell_angle_beta   89.90270591
_cell_angle_gamma   147.93953025
_symmetry_Int_Tables_number   1
_chemical_formula_structural   Yb3Ho3(CoSn6)2
_chemical_formula_sum   'Yb3 Ho3 Co2 Sn12'
_cell_volume   494.18900582
_cell_formula_units_Z   1
loop_
 _symmetry_equiv_pos_site_id
 _symmetry_equiv_pos_as_xyz
  1  'x, y, z'
loop_
 _atom_site_type_symbol
 _atom_site_label
 _atom_site_symmetry_multiplicity
 _atom_site_fract_x
 _atom_site_fract_y
 _atom_site_fract_z
 _atom_site_occupancy
  Yb  Yb0  1  0.100528  0.899472  0.596992  1
  Yb  Yb1  1  0.100871  0.899129  0.903985  1
  Yb  Yb2  1  0.899795  0.100205  0.402531  1
  Ho  Ho3  1  0.897546  0.102454  0.094627  1
  Ho  Ho4  1  0.901260  0.098740  0.754301  1
  Ho  Ho5  1  0.098620  0.901380  0.247489  1
  Co  Co6  1  0.298988  0.701012  0.249301  1
  Co  Co7  1  0.703169  0.296831  0.750547  1
  Sn  Sn8  1  0.758372  0.241628  0.572238  1
  Sn  Sn9  1  0.425609  0.574391  0.578325  1
  Sn  Sn10  1  0.573900  0.426100  0.422516  1
  Sn  Sn11  1  0.733090  0.266910  0.248635  1
  Sn  Sn12  1  0.267605  0.732395  0.750004  1
  Sn  Sn13  1  0.241131  0.758869  0.072395  1
  Sn  Sn14  1  0.242370  0.757630  0.427109  1
  Sn  Sn15  1  0.572748  0.427252  0.076023  1
  Sn  Sn16  1  0.455164  0.544836  0.248774  1
  Sn  Sn17  1  0.545514  0.454486  0.750082  1
  Sn  Sn18  1  0.757619  0.242381  0.929188  1
  Sn  Sn19  1  0.426101  0.573899  0.924936  1
