# generated using pymatgen
data_Y16Cd4OsPd2Pt
_symmetry_space_group_name_H-M   'P 1'
_cell_length_a   9.76387147
_cell_length_b   9.75278863
_cell_length_c   9.75278843
_cell_angle_alpha   59.50135075
_cell_angle_beta   59.51342054
_cell_angle_gamma   59.51342007
_symmetry_Int_Tables_number   1
_chemical_formula_structural   Y16Cd4OsPd2Pt
_chemical_formula_sum   'Y16 Cd4 Os1 Pd2 Pt1'
_cell_volume   649.36967917
_cell_formula_units_Z   1
loop_
 _symmetry_equiv_pos_site_id
 _symmetry_equiv_pos_as_xyz
  1  'x, y, z'
loop_
 _atom_site_type_symbol
 _atom_site_label
 _atom_site_symmetry_multiplicity
 _atom_site_fract_x
 _atom_site_fract_y
 _atom_site_fract_z
 _atom_site_occupancy
  Y  Y0  1  0.354326  0.352210  0.352210  1
  Y  Y1  1  0.351244  0.349274  0.946493  1
  Y  Y2  1  0.351244  0.946493  0.349274  1
  Y  Y3  1  0.945132  0.350285  0.350285  1
  Y  Y4  1  0.814510  0.188902  0.188902  1
  Y  Y5  1  0.188949  0.809690  0.809690  1
  Y  Y6  1  0.188924  0.816075  0.188613  1
  Y  Y7  1  0.808559  0.188705  0.810949  1
  Y  Y8  1  0.188924  0.188613  0.816075  1
  Y  Y9  1  0.808559  0.810949  0.188705  1
  Y  Y10  1  0.934776  0.566116  0.566116  1
  Y  Y11  1  0.558831  0.937453  0.937453  1
  Y  Y12  1  0.566192  0.934958  0.565054  1
  Y  Y13  1  0.937065  0.558846  0.936994  1
  Y  Y14  1  0.566192  0.565054  0.934958  1
  Y  Y15  1  0.937065  0.936994  0.558846  1
  Cd  Cd16  1  0.580413  0.580293  0.580293  1
  Cd  Cd17  1  0.581025  0.581179  0.254493  1
  Cd  Cd18  1  0.581025  0.254493  0.581179  1
  Cd  Cd19  1  0.254480  0.581110  0.581110  1
  Os  Os20  1  0.143492  0.143475  0.143475  1
  Pd  Pd21  1  0.143856  0.144296  0.570510  1
  Pd  Pd22  1  0.143856  0.570510  0.144296  1
  Pt  Pt23  1  0.571364  0.144031  0.144031  1
