# generated using pymatgen
data_YbTmZr2(Al3Ir)6
_symmetry_space_group_name_H-M   'P 1'
_cell_length_a   7.51664677
_cell_length_b   7.50618957
_cell_length_c   9.36311400
_cell_angle_alpha   90.00000000
_cell_angle_beta   90.00000000
_cell_angle_gamma   119.68450822
_symmetry_Int_Tables_number   1
_chemical_formula_structural   YbTmZr2(Al3Ir)6
_chemical_formula_sum   'Yb1 Tm1 Zr2 Al18 Ir6'
_cell_volume   458.95121091
_cell_formula_units_Z   1
loop_
 _symmetry_equiv_pos_site_id
 _symmetry_equiv_pos_as_xyz
  1  'x, y, z'
loop_
 _atom_site_type_symbol
 _atom_site_label
 _atom_site_symmetry_multiplicity
 _atom_site_fract_x
 _atom_site_fract_y
 _atom_site_fract_z
 _atom_site_occupancy
  Yb  Yb0  1  0.670638  0.993982  0.250000  1
  Tm  Tm1  1  0.330176  0.005954  0.750000  1
  Zr  Zr2  1  0.994010  0.671293  0.250000  1
  Zr  Zr3  1  0.004474  0.327639  0.750000  1
  Al  Al4  1  0.126678  0.123967  0.250000  1
  Al  Al5  1  0.873804  0.875519  0.750000  1
  Al  Al6  1  0.999483  0.336484  0.075216  1
  Al  Al7  1  0.000226  0.663562  0.924965  1
  Al  Al8  1  0.000226  0.663562  0.575035  1
  Al  Al9  1  0.333260  0.998441  0.422201  1
  Al  Al10  1  0.999483  0.336484  0.424784  1
  Al  Al11  1  0.666889  0.000812  0.576899  1
  Al  Al12  1  0.666889  0.000812  0.923101  1
  Al  Al13  1  0.333260  0.998441  0.077799  1
  Al  Al14  1  0.331435  0.333442  0.556171  1
  Al  Al15  1  0.668688  0.667203  0.443679  1
  Al  Al16  1  0.668688  0.667203  0.056321  1
  Al  Al17  1  0.331435  0.333442  0.943829  1
  Al  Al18  1  0.334230  0.548476  0.250000  1
  Al  Al19  1  0.664668  0.451406  0.750000  1
  Al  Al20  1  0.555031  0.345236  0.250000  1
  Al  Al21  1  0.446136  0.656793  0.750000  1
  Ir  Ir22  1  0.672067  0.327996  0.997922  1
  Ir  Ir23  1  0.326686  0.671322  0.999405  1
  Ir  Ir24  1  0.326686  0.671322  0.500595  1
  Ir  Ir25  1  0.672067  0.327996  0.502078  1
  Ir  Ir26  1  0.001344  0.000605  0.998889  1
  Ir  Ir27  1  0.001344  0.000605  0.501111  1
