# generated using pymatgen
data_Er8Be(Pd5Pt)4
_symmetry_space_group_name_H-M   'P 1'
_cell_length_a   8.31035100
_cell_length_b   8.30664400
_cell_length_c   8.30664400
_cell_angle_alpha   90.00000000
_cell_angle_beta   90.00000000
_cell_angle_gamma   90.00000000
_symmetry_Int_Tables_number   1
_chemical_formula_structural   Er8Be(Pd5Pt)4
_chemical_formula_sum   'Er8 Be1 Pd20 Pt4'
_cell_volume   573.41699917
_cell_formula_units_Z   1
loop_
 _symmetry_equiv_pos_site_id
 _symmetry_equiv_pos_as_xyz
  1  'x, y, z'
loop_
 _atom_site_type_symbol
 _atom_site_label
 _atom_site_symmetry_multiplicity
 _atom_site_fract_x
 _atom_site_fract_y
 _atom_site_fract_z
 _atom_site_occupancy
  Er  Er0  1  0.250676  0.250782  0.250782  1
  Er  Er1  1  0.749324  0.749218  0.749218  1
  Er  Er2  1  0.749324  0.749218  0.250782  1
  Er  Er3  1  0.749324  0.250782  0.749218  1
  Er  Er4  1  0.250676  0.250782  0.749218  1
  Er  Er5  1  0.250676  0.749218  0.250782  1
  Er  Er6  1  0.250676  0.749218  0.749218  1
  Er  Er7  1  0.749324  0.250782  0.250782  1
  Be  Be8  1  0.000000  0.000000  0.000000  1
  Pd  Pd9  1  0.254324  0.500000  0.000000  1
  Pd  Pd10  1  0.745676  0.500000  0.000000  1
  Pd  Pd11  1  0.000000  0.254879  0.500000  1
  Pd  Pd12  1  0.500000  0.253810  0.000000  1
  Pd  Pd13  1  0.000000  0.745121  0.500000  1
  Pd  Pd14  1  0.500000  0.746190  0.000000  1
  Pd  Pd15  1  0.500000  0.000000  0.253810  1
  Pd  Pd16  1  0.254324  0.000000  0.500000  1
  Pd  Pd17  1  0.500000  0.000000  0.746190  1
  Pd  Pd18  1  0.745676  0.000000  0.500000  1
  Pd  Pd19  1  0.000000  0.500000  0.254879  1
  Pd  Pd20  1  0.000000  0.500000  0.745121  1
  Pd  Pd21  1  0.500000  0.251705  0.500000  1
  Pd  Pd22  1  0.500000  0.748295  0.500000  1
  Pd  Pd23  1  0.500000  0.500000  0.251705  1
  Pd  Pd24  1  0.500000  0.500000  0.748295  1
  Pd  Pd25  1  0.000000  0.269597  0.000000  1
  Pd  Pd26  1  0.000000  0.730403  0.000000  1
  Pd  Pd27  1  0.000000  0.000000  0.269597  1
  Pd  Pd28  1  0.000000  0.000000  0.730403  1
  Pt  Pt29  1  0.250833  0.500000  0.500000  1
  Pt  Pt30  1  0.749167  0.500000  0.500000  1
  Pt  Pt31  1  0.266658  0.000000  0.000000  1
  Pt  Pt32  1  0.733342  0.000000  0.000000  1
