# generated using pymatgen
data_PrY2Pt2Rh7
_symmetry_space_group_name_H-M   'P 1'
_cell_length_a   5.34631600
_cell_length_b   5.34630173
_cell_length_c   17.52565300
_cell_angle_alpha   90.00000000
_cell_angle_beta   90.00000000
_cell_angle_gamma   120.00009898
_symmetry_Int_Tables_number   1
_chemical_formula_structural   PrY2Pt2Rh7
_chemical_formula_sum   'Pr2 Y4 Pt4 Rh14'
_cell_volume   433.82292436
_cell_formula_units_Z   2
loop_
 _symmetry_equiv_pos_site_id
 _symmetry_equiv_pos_as_xyz
  1  'x, y, z'
loop_
 _atom_site_type_symbol
 _atom_site_label
 _atom_site_symmetry_multiplicity
 _atom_site_fract_x
 _atom_site_fract_y
 _atom_site_fract_z
 _atom_site_occupancy
  Pr  Pr0  1  0.333330  0.666668  0.750000  1
  Pr  Pr1  1  0.666670  0.333332  0.250000  1
  Y  Y2  1  0.333333  0.666666  0.958205  1
  Y  Y3  1  0.666667  0.333334  0.041795  1
  Y  Y4  1  0.666667  0.333334  0.458205  1
  Y  Y5  1  0.333333  0.666666  0.541795  1
  Pt  Pt6  1  0.333351  0.666672  0.250000  1
  Pt  Pt7  1  0.666649  0.333328  0.750000  1
  Pt  Pt8  1  0.000000  0.000000  0.500000  1
  Pt  Pt9  1  0.000000  0.000000  0.000000  1
  Rh  Rh10  1  0.167613  0.832390  0.375133  1
  Rh  Rh11  1  0.167609  0.335213  0.375130  1
  Rh  Rh12  1  0.664789  0.832393  0.375132  1
  Rh  Rh13  1  0.832387  0.167610  0.624867  1
  Rh  Rh14  1  0.832391  0.664787  0.624870  1
  Rh  Rh15  1  0.335211  0.167607  0.624868  1
  Rh  Rh16  1  0.832387  0.167610  0.875133  1
  Rh  Rh17  1  0.832391  0.664787  0.875130  1
  Rh  Rh18  1  0.335211  0.167607  0.875132  1
  Rh  Rh19  1  0.167613  0.832390  0.124867  1
  Rh  Rh20  1  0.167609  0.335213  0.124870  1
  Rh  Rh21  1  0.664789  0.832393  0.124868  1
  Rh  Rh22  1  0.999982  0.999995  0.250000  1
  Rh  Rh23  1  0.000018  0.000005  0.750000  1
