# generated using pymatgen
data_NpSO6
_symmetry_space_group_name_H-M   'P 1'
_cell_length_a   5.98600800
_cell_length_b   6.82156868
_cell_length_c   12.94624680
_cell_angle_alpha   76.95291680
_cell_angle_beta   90.00000000
_cell_angle_gamma   90.00000000
_symmetry_Int_Tables_number   1
_chemical_formula_structural   NpSO6
_chemical_formula_sum   'Np4 S4 O24'
_cell_volume   514.99951022
_cell_formula_units_Z   4
loop_
 _symmetry_equiv_pos_site_id
 _symmetry_equiv_pos_as_xyz
  1  'x, y, z'
loop_
 _atom_site_type_symbol
 _atom_site_label
 _atom_site_symmetry_multiplicity
 _atom_site_fract_x
 _atom_site_fract_y
 _atom_site_fract_z
 _atom_site_occupancy
  Np  Np0  1  0.256874  0.319482  0.840819  1
  Np  Np1  1  0.756874  0.680518  0.659181  1
  Np  Np2  1  0.743126  0.680518  0.159181  1
  Np  Np3  1  0.243126  0.319482  0.340819  1
  S  S4  1  0.956425  0.216499  0.606705  1
  S  S5  1  0.456425  0.783501  0.893295  1
  S  S6  1  0.043575  0.783501  0.393295  1
  S  S7  1  0.543575  0.216499  0.106705  1
  O  O8  1  0.001672  0.245014  0.906704  1
  O  O9  1  0.501672  0.754986  0.593296  1
  O  O10  1  0.998328  0.754986  0.093296  1
  O  O11  1  0.498328  0.245014  0.406704  1
  O  O12  1  0.015059  0.596657  0.727830  1
  O  O13  1  0.515059  0.403343  0.772170  1
  O  O14  1  0.984941  0.403343  0.272170  1
  O  O15  1  0.484941  0.596657  0.227830  1
  O  O16  1  0.211894  0.619680  0.400347  1
  O  O17  1  0.711894  0.380320  0.099653  1
  O  O18  1  0.788106  0.380320  0.599653  1
  O  O19  1  0.288106  0.619680  0.900347  1
  O  O20  1  0.050845  0.226084  0.499778  1
  O  O21  1  0.550845  0.773916  0.000222  1
  O  O22  1  0.949155  0.773916  0.500222  1
  O  O23  1  0.449155  0.226084  0.999778  1
  O  O24  1  0.156075  0.979221  0.355433  1
  O  O25  1  0.656075  0.020779  0.144567  1
  O  O26  1  0.843925  0.020779  0.644567  1
  O  O27  1  0.343925  0.979221  0.855433  1
  O  O28  1  0.360156  0.239935  0.179942  1
  O  O29  1  0.860156  0.760065  0.320058  1
  O  O30  1  0.639844  0.760065  0.820058  1
  O  O31  1  0.139844  0.239935  0.679942  1
