# generated using pymatgen
data_DyHo(Tm3Bi2)6
_symmetry_space_group_name_H-M   'P 1'
_cell_length_a   8.18826801
_cell_length_b   9.45841600
_cell_length_c   11.90792102
_cell_angle_alpha   90.00000000
_cell_angle_beta   89.99306719
_cell_angle_gamma   90.00000000
_symmetry_Int_Tables_number   1
_chemical_formula_structural   DyHo(Tm3Bi2)6
_chemical_formula_sum   'Dy1 Ho1 Tm18 Bi12'
_cell_volume   922.24519884
_cell_formula_units_Z   1
loop_
 _symmetry_equiv_pos_site_id
 _symmetry_equiv_pos_as_xyz
  1  'x, y, z'
loop_
 _atom_site_type_symbol
 _atom_site_label
 _atom_site_symmetry_multiplicity
 _atom_site_fract_x
 _atom_site_fract_y
 _atom_site_fract_z
 _atom_site_occupancy
  Dy  Dy0  1  0.686337  0.750000  0.781607  1
  Ho  Ho1  1  0.186342  0.750000  0.718064  1
  Tm  Tm2  1  0.353675  0.750000  0.217722  1
  Tm  Tm3  1  0.853733  0.750000  0.282281  1
  Tm  Tm4  1  0.646435  0.250000  0.782434  1
  Tm  Tm5  1  0.146380  0.250000  0.717588  1
  Tm  Tm6  1  0.692430  0.565977  0.059709  1
  Tm  Tm7  1  0.192458  0.933977  0.440368  1
  Tm  Tm8  1  0.307732  0.065915  0.940658  1
  Tm  Tm9  1  0.807697  0.434034  0.559304  1
  Tm  Tm10  1  0.307732  0.434085  0.940658  1
  Tm  Tm11  1  0.807697  0.065966  0.559304  1
  Tm  Tm12  1  0.692430  0.934023  0.059709  1
  Tm  Tm13  1  0.192458  0.566023  0.440368  1
  Tm  Tm14  1  0.476744  0.250000  0.488920  1
  Tm  Tm15  1  0.976802  0.250000  0.011098  1
  Tm  Tm16  1  0.523137  0.750000  0.510323  1
  Tm  Tm17  1  0.023384  0.750000  0.989672  1
  Tm  Tm18  1  0.313080  0.250000  0.217442  1
  Tm  Tm19  1  0.813042  0.250000  0.282528  1
  Bi  Bi20  1  0.403560  0.750000  0.958726  1
  Bi  Bi21  1  0.904379  0.750000  0.541529  1
  Bi  Bi22  1  0.595651  0.250000  0.042686  1
  Bi  Bi23  1  0.095604  0.250000  0.457325  1
  Bi  Bi24  1  0.566324  0.996374  0.325478  1
  Bi  Bi25  1  0.066269  0.503607  0.174566  1
  Bi  Bi26  1  0.433645  0.495141  0.674022  1
  Bi  Bi27  1  0.934306  0.004994  0.825923  1
  Bi  Bi28  1  0.433645  0.004859  0.674022  1
  Bi  Bi29  1  0.934306  0.495006  0.825923  1
  Bi  Bi30  1  0.566324  0.503626  0.325478  1
  Bi  Bi31  1  0.066269  0.996393  0.174566  1
