# generated using pymatgen
data_Dy2Re2TcB6
_symmetry_space_group_name_H-M   'P 1'
_cell_length_a   6.21136311
_cell_length_b   6.21136531
_cell_length_c   7.51706459
_cell_angle_alpha   89.34874328
_cell_angle_beta   89.34874742
_cell_angle_gamma   113.65893088
_symmetry_Int_Tables_number   1
_chemical_formula_structural   Dy2Re2TcB6
_chemical_formula_sum   'Dy4 Re4 Tc2 B12'
_cell_volume   265.58315654
_cell_formula_units_Z   2
loop_
 _symmetry_equiv_pos_site_id
 _symmetry_equiv_pos_as_xyz
  1  'x, y, z'
loop_
 _atom_site_type_symbol
 _atom_site_label
 _atom_site_symmetry_multiplicity
 _atom_site_fract_x
 _atom_site_fract_y
 _atom_site_fract_z
 _atom_site_occupancy
  Dy  Dy0  1  0.898658  0.556422  0.322254  1
  Dy  Dy1  1  0.443578  0.101342  0.177746  1
  Dy  Dy2  1  0.101342  0.443578  0.677746  1
  Dy  Dy3  1  0.556422  0.898658  0.822254  1
  Re  Re4  1  0.009432  0.193264  0.088907  1
  Re  Re5  1  0.806736  0.990568  0.411093  1
  Re  Re6  1  0.990568  0.806736  0.911093  1
  Re  Re7  1  0.193264  0.009432  0.588907  1
  Tc  Tc8  1  0.411865  0.588135  0.250000  1
  Tc  Tc9  1  0.588135  0.411865  0.750000  1
  B  B10  1  0.751141  0.847913  0.130062  1
  B  B11  1  0.152087  0.248859  0.369938  1
  B  B12  1  0.248859  0.152087  0.869938  1
  B  B13  1  0.847913  0.751141  0.630062  1
  B  B14  1  0.414231  0.841135  0.481288  1
  B  B15  1  0.158865  0.585769  0.018712  1
  B  B16  1  0.585769  0.158865  0.518712  1
  B  B17  1  0.841135  0.414231  0.981288  1
  B  B18  1  0.557188  0.649590  0.534803  1
  B  B19  1  0.350410  0.442812  0.965197  1
  B  B20  1  0.442812  0.350410  0.465197  1
  B  B21  1  0.649590  0.557188  0.034803  1
