# generated using pymatgen
data_Tb2Y2TlPd
_symmetry_space_group_name_H-M   'P 1'
_cell_length_a   9.75319709
_cell_length_b   9.75319613
_cell_length_c   9.75986300
_cell_angle_alpha   59.97738213
_cell_angle_beta   59.97738539
_cell_angle_gamma   60.04522267
_symmetry_Int_Tables_number   1
_chemical_formula_structural   Tb2Y2TlPd
_chemical_formula_sum   'Tb8 Y8 Tl4 Pd4'
_cell_volume   656.48112449
_cell_formula_units_Z   4
loop_
 _symmetry_equiv_pos_site_id
 _symmetry_equiv_pos_as_xyz
  1  'x, y, z'
loop_
 _atom_site_type_symbol
 _atom_site_label
 _atom_site_symmetry_multiplicity
 _atom_site_fract_x
 _atom_site_fract_y
 _atom_site_fract_z
 _atom_site_occupancy
  Tb  Tb0  1  0.352869  0.352869  0.352758  1
  Tb  Tb1  1  0.352869  0.352869  0.941504  1
  Tb  Tb2  1  0.352758  0.941504  0.352869  1
  Tb  Tb3  1  0.941504  0.352758  0.352869  1
  Tb  Tb4  1  0.811154  0.188846  0.188846  1
  Tb  Tb5  1  0.188846  0.811154  0.811154  1
  Tb  Tb6  1  0.188846  0.811154  0.188846  1
  Tb  Tb7  1  0.811154  0.188846  0.811154  1
  Y  Y8  1  0.189479  0.189479  0.810521  1
  Y  Y9  1  0.810521  0.810521  0.189479  1
  Y  Y10  1  0.937401  0.562599  0.562599  1
  Y  Y11  1  0.562599  0.937401  0.937401  1
  Y  Y12  1  0.562599  0.937401  0.562599  1
  Y  Y13  1  0.937401  0.562599  0.937401  1
  Y  Y14  1  0.562372  0.562372  0.937628  1
  Y  Y15  1  0.937628  0.937628  0.562372  1
  Tl  Tl16  1  0.586431  0.586431  0.586131  1
  Tl  Tl17  1  0.586431  0.586431  0.241008  1
  Tl  Tl18  1  0.586131  0.241008  0.586431  1
  Tl  Tl19  1  0.241008  0.586131  0.586431  1
  Pd  Pd20  1  0.144207  0.144207  0.145127  1
  Pd  Pd21  1  0.144207  0.144207  0.566458  1
  Pd  Pd22  1  0.145127  0.566458  0.144207  1
  Pd  Pd23  1  0.566458  0.145127  0.144207  1
