# generated using pymatgen
data_YEr15(In3Rh)2
_symmetry_space_group_name_H-M   'P 1'
_cell_length_a   10.32827500
_cell_length_b   10.34216027
_cell_length_c   7.00316414
_cell_angle_alpha   90.03842859
_cell_angle_beta   90.00008527
_cell_angle_gamma   119.95577805
_symmetry_Int_Tables_number   1
_chemical_formula_structural   YEr15(In3Rh)2
_chemical_formula_sum   'Y1 Er15 In6 Rh2'
_cell_volume   648.12267599
_cell_formula_units_Z   1
loop_
 _symmetry_equiv_pos_site_id
 _symmetry_equiv_pos_as_xyz
  1  'x, y, z'
loop_
 _atom_site_type_symbol
 _atom_site_label
 _atom_site_symmetry_multiplicity
 _atom_site_fract_x
 _atom_site_fract_y
 _atom_site_fract_z
 _atom_site_occupancy
  Y  Y0  1  0.532242  0.064478  0.794407  1
  Er  Er1  1  0.933273  0.466444  0.794406  1
  Er  Er2  1  0.533173  0.466448  0.794408  1
  Er  Er3  1  0.466236  0.932480  0.294631  1
  Er  Er4  1  0.066845  0.533647  0.295097  1
  Er  Er5  1  0.466805  0.533648  0.295104  1
  Er  Er6  1  0.824125  0.648248  0.497631  1
  Er  Er7  1  0.352552  0.176875  0.496425  1
  Er  Er8  1  0.824321  0.176877  0.496429  1
  Er  Er9  1  0.176346  0.352699  0.998400  1
  Er  Er10  1  0.647781  0.823051  0.998526  1
  Er  Er11  1  0.175268  0.823054  0.998520  1
  Er  Er12  1  0.666941  0.333880  0.173943  1
  Er  Er13  1  0.332975  0.665947  0.674525  1
  Er  Er14  1  0.000191  0.000376  0.778725  1
  Er  Er15  1  0.999908  0.999809  0.278694  1
  In  In16  1  0.836982  0.673964  0.039970  1
  In  In17  1  0.325110  0.162421  0.039916  1
  In  In18  1  0.837307  0.162422  0.039917  1
  In  In19  1  0.162885  0.325775  0.541009  1
  In  In20  1  0.674477  0.837765  0.540833  1
  In  In21  1  0.163291  0.837745  0.540825  1
  Rh  Rh22  1  0.667687  0.335366  0.565708  1
  Rh  Rh23  1  0.333282  0.666576  0.067856  1
