# generated using pymatgen
data_Dy2Tm4TcOs
_symmetry_space_group_name_H-M   'P 1'
_cell_length_a   6.24747600
_cell_length_b   7.37592800
_cell_length_c   8.97140100
_cell_angle_alpha   90.00000000
_cell_angle_beta   90.00000000
_cell_angle_gamma   90.00000000
_symmetry_Int_Tables_number   1
_chemical_formula_structural   Dy2Tm4TcOs
_chemical_formula_sum   'Dy4 Tm8 Tc2 Os2'
_cell_volume   413.41052981
_cell_formula_units_Z   2
loop_
 _symmetry_equiv_pos_site_id
 _symmetry_equiv_pos_as_xyz
  1  'x, y, z'
loop_
 _atom_site_type_symbol
 _atom_site_label
 _atom_site_symmetry_multiplicity
 _atom_site_fract_x
 _atom_site_fract_y
 _atom_site_fract_z
 _atom_site_occupancy
  Dy  Dy0  1  0.877043  0.539834  0.250000  1
  Dy  Dy1  1  0.622957  0.039834  0.250000  1
  Dy  Dy2  1  0.129784  0.459155  0.750000  1
  Dy  Dy3  1  0.370216  0.959155  0.750000  1
  Tm  Tm4  1  0.337921  0.675211  0.062658  1
  Tm  Tm5  1  0.162079  0.175211  0.437342  1
  Tm  Tm6  1  0.664665  0.324477  0.563212  1
  Tm  Tm7  1  0.835335  0.824477  0.936788  1
  Tm  Tm8  1  0.664665  0.324477  0.936788  1
  Tm  Tm9  1  0.835335  0.824477  0.563212  1
  Tm  Tm10  1  0.337921  0.675211  0.437342  1
  Tm  Tm11  1  0.162079  0.175211  0.062658  1
  Tc  Tc12  1  0.038862  0.884692  0.250000  1
  Tc  Tc13  1  0.461138  0.384692  0.250000  1
  Os  Os14  1  0.957559  0.116943  0.750000  1
  Os  Os15  1  0.542441  0.616943  0.750000  1
