# generated using pymatgen
data_Dy7Lu13Sn16
_symmetry_space_group_name_H-M   'P 1'
_cell_length_a   7.93846731
_cell_length_b   8.06519483
_cell_length_c   15.23617628
_cell_angle_alpha   90.01507906
_cell_angle_beta   90.21216871
_cell_angle_gamma   89.90504705
_symmetry_Int_Tables_number   1
_chemical_formula_structural   Dy7Lu13Sn16
_chemical_formula_sum   'Dy7 Lu13 Sn16'
_cell_volume   975.49247743
_cell_formula_units_Z   1
loop_
 _symmetry_equiv_pos_site_id
 _symmetry_equiv_pos_as_xyz
  1  'x, y, z'
loop_
 _atom_site_type_symbol
 _atom_site_label
 _atom_site_symmetry_multiplicity
 _atom_site_fract_x
 _atom_site_fract_y
 _atom_site_fract_z
 _atom_site_occupancy
  Dy  Dy0  1  0.019494  0.179192  0.596479  1
  Dy  Dy1  1  0.480671  0.678893  0.404462  1
  Dy  Dy2  1  0.979418  0.820872  0.095951  1
  Dy  Dy3  1  0.479307  0.678033  0.095836  1
  Dy  Dy4  1  0.980524  0.821334  0.404416  1
  Dy  Dy5  1  0.518539  0.321783  0.595423  1
  Dy  Dy6  1  0.020399  0.179147  0.903769  1
  Lu  Lu7  1  0.364939  0.838220  0.876409  1
  Lu  Lu8  1  0.863467  0.662221  0.624066  1
  Lu  Lu9  1  0.635751  0.162171  0.376075  1
  Lu  Lu10  1  0.134044  0.338170  0.123181  1
  Lu  Lu11  1  0.634196  0.161855  0.123191  1
  Lu  Lu12  1  0.135929  0.337939  0.376310  1
  Lu  Lu13  1  0.364281  0.838425  0.624521  1
  Lu  Lu14  1  0.865971  0.661346  0.876644  1
  Lu  Lu15  1  0.522776  0.321208  0.903090  1
  Lu  Lu16  1  0.195834  0.504822  0.750514  1
  Lu  Lu17  1  0.695289  0.995165  0.750558  1
  Lu  Lu18  1  0.804296  0.494726  0.249753  1
  Lu  Lu19  1  0.304369  0.005090  0.249809  1
  Sn  Sn20  1  0.295888  0.039408  0.041662  1
  Sn  Sn21  1  0.797425  0.459320  0.458646  1
  Sn  Sn22  1  0.701596  0.960663  0.541246  1
  Sn  Sn23  1  0.207321  0.537369  0.957694  1
  Sn  Sn24  1  0.702938  0.960823  0.958135  1
  Sn  Sn25  1  0.201875  0.541072  0.541464  1
  Sn  Sn26  1  0.297865  0.040322  0.458578  1
  Sn  Sn27  1  0.794876  0.458924  0.040440  1
  Sn  Sn28  1  0.561567  0.619680  0.750500  1
  Sn  Sn29  1  0.061147  0.879378  0.750292  1
  Sn  Sn30  1  0.438836  0.380029  0.249605  1
  Sn  Sn31  1  0.938648  0.120023  0.249835  1
  Sn  Sn32  1  0.331624  0.151610  0.750994  1
  Sn  Sn33  1  0.829011  0.350408  0.750197  1
  Sn  Sn34  1  0.669947  0.850393  0.250166  1
  Sn  Sn35  1  0.169940  0.649967  0.250088  1
