# generated using pymatgen
data_Mg5Si16Ir2(PdPt3)2
_symmetry_space_group_name_H-M   'P 1'
_cell_length_a   8.92967415
_cell_length_b   8.94286878
_cell_length_c   8.94246441
_cell_angle_alpha   59.88502243
_cell_angle_beta   60.04730016
_cell_angle_gamma   60.04879464
_symmetry_Int_Tables_number   1
_chemical_formula_structural   Mg5Si16Ir2(PdPt3)2
_chemical_formula_sum   'Mg5 Si16 Ir2 Pd2 Pt6'
_cell_volume   504.88255676
_cell_formula_units_Z   1
loop_
 _symmetry_equiv_pos_site_id
 _symmetry_equiv_pos_as_xyz
  1  'x, y, z'
loop_
 _atom_site_type_symbol
 _atom_site_label
 _atom_site_symmetry_multiplicity
 _atom_site_fract_x
 _atom_site_fract_y
 _atom_site_fract_z
 _atom_site_occupancy
  Mg  Mg0  1  0.198809  0.600830  0.600206  1
  Mg  Mg1  1  0.600008  0.598224  0.201759  1
  Mg  Mg2  1  0.600156  0.600830  0.600206  1
  Mg  Mg3  1  0.600198  0.200437  0.599168  1
  Mg  Mg4  1  0.250528  0.243071  0.255873  1
  Si  Si5  1  0.204737  0.663629  0.204334  1
  Si  Si6  1  0.927302  0.663629  0.204334  1
  Si  Si7  1  0.208355  0.199277  0.663422  1
  Si  Si8  1  0.660007  0.203372  0.211972  1
  Si  Si9  1  0.928945  0.199277  0.663422  1
  Si  Si10  1  0.205952  0.661587  0.926509  1
  Si  Si11  1  0.924650  0.203372  0.211972  1
  Si  Si12  1  0.662069  0.927548  0.209538  1
  Si  Si13  1  0.200845  0.927548  0.209538  1
  Si  Si14  1  0.208243  0.925331  0.658183  1
  Si  Si15  1  0.533570  0.827374  0.815026  1
  Si  Si16  1  0.824028  0.827374  0.815026  1
  Si  Si17  1  0.664272  0.203478  0.930088  1
  Si  Si18  1  0.821436  0.831106  0.526019  1
  Si  Si19  1  0.822494  0.535453  0.819558  1
  Si  Si20  1  0.202161  0.203478  0.930088  1
  Ir  Ir21  1  0.989429  0.986498  0.511926  1
  Ir  Ir22  1  0.512147  0.986498  0.511926  1
  Pd  Pd23  1  0.382657  0.859134  0.375550  1
  Pd  Pd24  1  0.514755  0.983357  0.987134  1
  Pt  Pt25  1  0.982277  0.517473  0.982398  1
  Pt  Pt26  1  0.378468  0.374288  0.868778  1
  Pt  Pt27  1  0.375312  0.380755  0.378444  1
  Pt  Pt28  1  0.865488  0.380755  0.378444  1
  Pt  Pt29  1  0.982849  0.517545  0.516757  1
  Pt  Pt30  1  0.517852  0.517473  0.982398  1
