# generated using pymatgen
data_Cs4PaMnTe6
_symmetry_space_group_name_H-M   'P 1'
_cell_length_a   15.13013400
_cell_length_b   7.14179076
_cell_length_c   10.28180570
_cell_angle_alpha   71.91601413
_cell_angle_beta   90.00000000
_cell_angle_gamma   90.00000000
_symmetry_Int_Tables_number   1
_chemical_formula_structural   Cs4PaMnTe6
_chemical_formula_sum   'Cs8 Pa2 Mn2 Te12'
_cell_volume   1056.13212744
_cell_formula_units_Z   2
loop_
 _symmetry_equiv_pos_site_id
 _symmetry_equiv_pos_as_xyz
  1  'x, y, z'
loop_
 _atom_site_type_symbol
 _atom_site_label
 _atom_site_symmetry_multiplicity
 _atom_site_fract_x
 _atom_site_fract_y
 _atom_site_fract_z
 _atom_site_occupancy
  Cs  Cs0  1  0.953527  0.673280  0.655460  1
  Cs  Cs1  1  0.453527  0.826720  0.344540  1
  Cs  Cs2  1  0.046735  0.327122  0.345538  1
  Cs  Cs3  1  0.546735  0.172878  0.654462  1
  Cs  Cs4  1  0.868530  0.086994  0.901755  1
  Cs  Cs5  1  0.368530  0.413006  0.098245  1
  Cs  Cs6  1  0.131401  0.923939  0.099626  1
  Cs  Cs7  1  0.631401  0.576061  0.900374  1
  Pa  Pa8  1  0.749543  0.653181  0.296704  1
  Pa  Pa9  1  0.249543  0.846819  0.703296  1
  Mn  Mn10  1  0.250476  0.345115  0.704101  1
  Mn  Mn11  1  0.750476  0.154885  0.295899  1
  Te  Te12  1  0.903469  0.925176  0.281880  1
  Te  Te13  1  0.403469  0.574824  0.718120  1
  Te  Te14  1  0.096030  0.106828  0.720647  1
  Te  Te15  1  0.596030  0.393172  0.279353  1
  Te  Te16  1  0.812148  0.290032  0.513058  1
  Te  Te17  1  0.312148  0.209968  0.486942  1
  Te  Te18  1  0.188123  0.677210  0.486819  1
  Te  Te19  1  0.688123  0.822790  0.513181  1
  Te  Te20  1  0.841561  0.481002  0.098394  1
  Te  Te21  1  0.341561  0.018998  0.901606  1
  Te  Te22  1  0.158456  0.494598  0.900078  1
  Te  Te23  1  0.658456  0.005402  0.099922  1
