# generated using pymatgen
data_Er2Ta(SnRu2)3
_symmetry_space_group_name_H-M   'P 1'
_cell_length_a   4.60842200
_cell_length_b   6.51727000
_cell_length_c   13.83186900
_cell_angle_alpha   90.00000000
_cell_angle_beta   90.00019474
_cell_angle_gamma   90.00000000
_symmetry_Int_Tables_number   1
_chemical_formula_structural   Er2Ta(SnRu2)3
_chemical_formula_sum   'Er4 Ta2 Sn6 Ru12'
_cell_volume   415.43092426
_cell_formula_units_Z   2
loop_
 _symmetry_equiv_pos_site_id
 _symmetry_equiv_pos_as_xyz
  1  'x, y, z'
loop_
 _atom_site_type_symbol
 _atom_site_label
 _atom_site_symmetry_multiplicity
 _atom_site_fract_x
 _atom_site_fract_y
 _atom_site_fract_z
 _atom_site_occupancy
  Er  Er0  1  0.999983  0.000000  0.998485  1
  Er  Er1  1  0.500015  0.500001  0.166200  1
  Er  Er2  1  0.000007  0.000000  0.333809  1
  Er  Er3  1  0.499984  0.500001  0.501505  1
  Ta  Ta4  1  0.000015  0.000000  0.667145  1
  Ta  Ta5  1  0.500010  0.500001  0.832868  1
  Sn  Sn6  1  0.000004  0.500001  0.999370  1
  Sn  Sn7  1  0.500004  0.000000  0.165035  1
  Sn  Sn8  1  0.000000  0.500001  0.334965  1
  Sn  Sn9  1  0.500001  0.000000  0.500623  1
  Sn  Sn10  1  0.999993  0.500001  0.665613  1
  Sn  Sn11  1  0.499990  0.000000  0.834388  1
  Ru  Ru12  1  0.500002  0.260864  0.989594  1
  Ru  Ru13  1  0.500002  0.739136  0.989594  1
  Ru  Ru14  1  0.000008  0.249952  0.165481  1
  Ru  Ru15  1  0.000008  0.750049  0.165481  1
  Ru  Ru16  1  0.500005  0.250035  0.334509  1
  Ru  Ru17  1  0.500005  0.749965  0.334509  1
  Ru  Ru18  1  0.999993  0.239128  0.510397  1
  Ru  Ru19  1  0.999993  0.760873  0.510397  1
  Ru  Ru20  1  0.499993  0.240599  0.673571  1
  Ru  Ru21  1  0.499993  0.759401  0.673571  1
  Ru  Ru22  1  0.999998  0.259401  0.826444  1
  Ru  Ru23  1  0.999998  0.740600  0.826444  1
