# generated using pymatgen
data_Sc10Ga3Si2Se
_symmetry_space_group_name_H-M   'P 1'
_cell_length_a   7.99131700
_cell_length_b   7.97029807
_cell_length_c   5.93352400
_cell_angle_alpha   90.00000000
_cell_angle_beta   90.00000000
_cell_angle_gamma   120.08727901
_symmetry_Int_Tables_number   1
_chemical_formula_structural   Sc10Ga3Si2Se
_chemical_formula_sum   'Sc10 Ga3 Si2 Se1'
_cell_volume   327.00442617
_cell_formula_units_Z   1
loop_
 _symmetry_equiv_pos_site_id
 _symmetry_equiv_pos_as_xyz
  1  'x, y, z'
loop_
 _atom_site_type_symbol
 _atom_site_label
 _atom_site_symmetry_multiplicity
 _atom_site_fract_x
 _atom_site_fract_y
 _atom_site_fract_z
 _atom_site_occupancy
  Sc  Sc0  1  0.330355  0.662601  0.995846  1
  Sc  Sc1  1  0.667755  0.337399  0.504154  1
  Sc  Sc2  1  0.667755  0.337399  0.995846  1
  Sc  Sc3  1  0.330355  0.662601  0.504154  1
  Sc  Sc4  1  0.234235  0.000000  0.250000  1
  Sc  Sc5  1  0.238588  0.242221  0.750000  1
  Sc  Sc6  1  0.996366  0.757779  0.750000  1
  Sc  Sc7  1  0.006749  0.244464  0.250000  1
  Sc  Sc8  1  0.762285  0.755536  0.250000  1
  Sc  Sc9  1  0.762207  0.000000  0.750000  1
  Ga  Ga10  1  0.000129  0.600509  0.250000  1
  Ga  Ga11  1  0.399619  0.399491  0.250000  1
  Ga  Ga12  1  0.394224  0.000000  0.750000  1
  Si  Si13  1  0.602042  0.605588  0.750000  1
  Si  Si14  1  0.996455  0.394412  0.750000  1
  Se  Se15  1  0.610880  0.000000  0.250000  1
