# generated using pymatgen
data_Cs6ErLuCl12
_symmetry_space_group_name_H-M   'P 1'
_cell_length_a   9.46718400
_cell_length_b   9.46372374
_cell_length_c   7.85408600
_cell_angle_alpha   90.00000000
_cell_angle_beta   90.00000000
_cell_angle_gamma   90.03476958
_symmetry_Int_Tables_number   1
_chemical_formula_structural   Cs6ErLuCl12
_chemical_formula_sum   'Cs6 Er1 Lu1 Cl12'
_cell_volume   703.68524471
_cell_formula_units_Z   1
loop_
 _symmetry_equiv_pos_site_id
 _symmetry_equiv_pos_as_xyz
  1  'x, y, z'
loop_
 _atom_site_type_symbol
 _atom_site_label
 _atom_site_symmetry_multiplicity
 _atom_site_fract_x
 _atom_site_fract_y
 _atom_site_fract_z
 _atom_site_occupancy
  Cs  Cs0  1  0.000000  0.000000  0.500000  1
  Cs  Cs1  1  0.000000  0.000000  0.000000  1
  Cs  Cs2  1  0.235843  0.583350  0.500000  1
  Cs  Cs3  1  0.764157  0.416650  0.500000  1
  Cs  Cs4  1  0.416834  0.235242  0.000000  1
  Cs  Cs5  1  0.583166  0.764758  0.000000  1
  Er  Er6  1  0.000000  0.500000  0.000000  1
  Lu  Lu7  1  0.500000  0.000000  0.500000  1
  Cl  Cl8  1  0.686727  0.056599  0.733844  1
  Cl  Cl9  1  0.313273  0.943401  0.733844  1
  Cl  Cl10  1  0.942726  0.689036  0.236740  1
  Cl  Cl11  1  0.057274  0.310964  0.236740  1
  Cl  Cl12  1  0.313273  0.943401  0.266156  1
  Cl  Cl13  1  0.686727  0.056599  0.266156  1
  Cl  Cl14  1  0.057274  0.310964  0.763260  1
  Cl  Cl15  1  0.942726  0.689036  0.763260  1
  Cl  Cl16  1  0.570442  0.736831  0.500000  1
  Cl  Cl17  1  0.429558  0.263169  0.500000  1
  Cl  Cl18  1  0.266584  0.571188  0.000000  1
  Cl  Cl19  1  0.733416  0.428812  0.000000  1
