# generated using pymatgen
data_BaNaAs4RuRh3
_symmetry_space_group_name_H-M   'P 1'
_cell_length_a   6.93129892
_cell_length_b   6.96557514
_cell_length_c   5.79427100
_cell_angle_alpha   90.00000000
_cell_angle_beta   90.00000000
_cell_angle_gamma   131.05367917
_symmetry_Int_Tables_number   1
_chemical_formula_structural   BaNaAs4RuRh3
_chemical_formula_sum   'Ba1 Na1 As4 Ru1 Rh3'
_cell_volume   210.95811919
_cell_formula_units_Z   1
loop_
 _symmetry_equiv_pos_site_id
 _symmetry_equiv_pos_as_xyz
  1  'x, y, z'
loop_
 _atom_site_type_symbol
 _atom_site_label
 _atom_site_symmetry_multiplicity
 _atom_site_fract_x
 _atom_site_fract_y
 _atom_site_fract_z
 _atom_site_occupancy
  Ba  Ba0  1  0.500000  0.500000  0.496330  1
  Na  Na1  1  0.000000  0.000000  0.999783  1
  As  As2  1  0.365015  0.646335  0.996230  1
  As  As3  1  0.853861  0.140143  0.504976  1
  As  As4  1  0.146139  0.859857  0.504976  1
  As  As5  1  0.634985  0.353665  0.996230  1
  Ru  Ru6  1  0.500000  0.000000  0.752442  1
  Rh  Rh7  1  0.000000  0.500000  0.248798  1
  Rh  Rh8  1  0.000000  0.500000  0.751603  1
  Rh  Rh9  1  0.500000  0.000000  0.248632  1
