# generated using pymatgen
data_P4PdF12
_symmetry_space_group_name_H-M   'P 1'
_cell_length_a   7.36897886
_cell_length_b   7.36897746
_cell_length_c   7.36897800
_cell_angle_alpha   109.47122211
_cell_angle_beta   109.47121826
_cell_angle_gamma   109.47121907
_symmetry_Int_Tables_number   1
_chemical_formula_structural   P4PdF12
_chemical_formula_sum   'P4 Pd1 F12'
_cell_volume   308.03489802
_cell_formula_units_Z   1
loop_
 _symmetry_equiv_pos_site_id
 _symmetry_equiv_pos_as_xyz
  1  'x, y, z'
loop_
 _atom_site_type_symbol
 _atom_site_label
 _atom_site_symmetry_multiplicity
 _atom_site_fract_x
 _atom_site_fract_y
 _atom_site_fract_z
 _atom_site_occupancy
  P  P0  1  0.689127  0.689127  0.689127  1
  P  P1  1  0.000000  0.310873  0.000000  1
  P  P2  1  0.310873  0.000000  0.000000  1
  P  P3  1  0.000000  0.000000  0.310873  1
  Pd  Pd4  1  0.000000  0.000000  0.000000  1
  F  F5  1  0.801375  0.801375  0.284215  1
  F  F6  1  0.517159  0.715785  0.517159  1
  F  F7  1  0.000000  0.482841  0.198625  1
  F  F8  1  0.198625  0.000000  0.482841  1
  F  F9  1  0.482841  0.000000  0.198625  1
  F  F10  1  0.517159  0.517159  0.715785  1
  F  F11  1  0.801375  0.284215  0.801375  1
  F  F12  1  0.482841  0.198625  0.000000  1
  F  F13  1  0.198625  0.482841  0.000000  1
  F  F14  1  0.000000  0.198625  0.482841  1
  F  F15  1  0.715785  0.517159  0.517159  1
  F  F16  1  0.284215  0.801375  0.801375  1
