# generated using pymatgen
data_Ta4Ti4Co7Si14Ru
_symmetry_space_group_name_H-M   'P 1'
_cell_length_a   9.20914745
_cell_length_b   9.20475977
_cell_length_c   9.20593263
_cell_angle_alpha   94.22966200
_cell_angle_beta   94.25579823
_cell_angle_gamma   148.43660057
_symmetry_Int_Tables_number   1
_chemical_formula_structural   Ta4Ti4Co7Si14Ru
_chemical_formula_sum   'Ta4 Ti4 Co7 Si14 Ru1'
_cell_volume   393.07438436
_cell_formula_units_Z   1
loop_
 _symmetry_equiv_pos_site_id
 _symmetry_equiv_pos_as_xyz
  1  'x, y, z'
loop_
 _atom_site_type_symbol
 _atom_site_label
 _atom_site_symmetry_multiplicity
 _atom_site_fract_x
 _atom_site_fract_y
 _atom_site_fract_z
 _atom_site_occupancy
  Ta  Ta0  1  0.133765  0.133760  0.267574  1
  Ta  Ta1  1  0.866376  0.866369  0.732693  1
  Ta  Ta2  1  0.865284  0.131974  0.000818  1
  Ta  Ta3  1  0.135536  0.868846  0.000820  1
  Ti  Ti4  1  0.502866  0.692391  0.193505  1
  Ti  Ti5  1  0.498321  0.307977  0.807871  1
  Ti  Ti6  1  0.309532  0.499885  0.807876  1
  Ti  Ti7  1  0.690667  0.501150  0.193521  1
  Co  Co8  1  0.102163  0.602162  0.204317  1
  Co  Co9  1  0.099696  0.898667  0.499631  1
  Co  Co10  1  0.399912  0.600973  0.499630  1
  Co  Co11  1  0.597671  0.398227  0.497964  1
  Co  Co12  1  0.900304  0.099728  0.497967  1
  Co  Co13  1  0.899937  0.399926  0.799890  1
  Co  Co14  1  0.598972  0.098968  0.197904  1
  Si  Si15  1  0.294168  0.294154  0.588203  1
  Si  Si16  1  0.705921  0.705905  0.411945  1
  Si  Si17  1  0.718939  0.311848  0.004925  1
  Si  Si18  1  0.285981  0.693072  0.004921  1
  Si  Si19  1  0.999621  0.296729  0.296704  1
  Si  Si20  1  0.988284  0.696696  0.702332  1
  Si  Si21  1  0.713992  0.005587  0.702336  1
  Si  Si22  1  0.297119  0.000020  0.296709  1
  Si  Si23  1  0.503365  0.907867  0.404640  1
  Si  Si24  1  0.508184  0.103788  0.589981  1
  Si  Si25  1  0.081805  0.486205  0.589980  1
  Si  Si26  1  0.901272  0.496772  0.404642  1
  Si  Si27  1  0.748425  0.748495  0.000350  1
  Si  Si28  1  0.251929  0.251856  0.000355  1
  Ru  Ru29  1  0.399992  0.899997  0.799994  1
