# generated using pymatgen
data_Nd3ScTl5
_symmetry_space_group_name_H-M   'P 1'
_cell_length_a   8.61056948
_cell_length_b   8.61057063
_cell_length_c   8.61057122
_cell_angle_alpha   65.91075973
_cell_angle_beta   65.91075560
_cell_angle_gamma   65.91072331
_symmetry_Int_Tables_number   1
_chemical_formula_structural   Nd3ScTl5
_chemical_formula_sum   'Nd6 Sc2 Tl10'
_cell_volume   509.20967013
_cell_formula_units_Z   2
loop_
 _symmetry_equiv_pos_site_id
 _symmetry_equiv_pos_as_xyz
  1  'x, y, z'
loop_
 _atom_site_type_symbol
 _atom_site_label
 _atom_site_symmetry_multiplicity
 _atom_site_fract_x
 _atom_site_fract_y
 _atom_site_fract_z
 _atom_site_occupancy
  Nd  Nd0  1  0.888781  0.183964  0.624933  1
  Nd  Nd1  1  0.624933  0.888781  0.183964  1
  Nd  Nd2  1  0.183964  0.624933  0.888781  1
  Nd  Nd3  1  0.111219  0.816036  0.375067  1
  Nd  Nd4  1  0.375067  0.111219  0.816036  1
  Nd  Nd5  1  0.816036  0.375067  0.111219  1
  Sc  Sc6  1  0.654728  0.654728  0.654728  1
  Sc  Sc7  1  0.345272  0.345272  0.345272  1
  Tl  Tl8  1  0.000000  0.000000  0.000000  1
  Tl  Tl9  1  0.500000  0.500000  0.500000  1
  Tl  Tl10  1  0.806883  0.806883  0.806883  1
  Tl  Tl11  1  0.193117  0.193117  0.193117  1
  Tl  Tl12  1  0.951123  0.565606  0.307113  1
  Tl  Tl13  1  0.307113  0.951123  0.565606  1
  Tl  Tl14  1  0.565606  0.307113  0.951123  1
  Tl  Tl15  1  0.048877  0.434394  0.692887  1
  Tl  Tl16  1  0.692887  0.048877  0.434394  1
  Tl  Tl17  1  0.434394  0.692887  0.048877  1
