# generated using pymatgen
data_Tb2HoCo8P6Os
_symmetry_space_group_name_H-M   'P 1'
_cell_length_a   3.71948600
_cell_length_b   10.51316700
_cell_length_c   12.26247800
_cell_angle_alpha   90.00000000
_cell_angle_beta   90.00000000
_cell_angle_gamma   90.00000000
_symmetry_Int_Tables_number   1
_chemical_formula_structural   Tb2HoCo8P6Os
_chemical_formula_sum   'Tb4 Ho2 Co16 P12 Os2'
_cell_volume   479.50675847
_cell_formula_units_Z   2
loop_
 _symmetry_equiv_pos_site_id
 _symmetry_equiv_pos_as_xyz
  1  'x, y, z'
loop_
 _atom_site_type_symbol
 _atom_site_label
 _atom_site_symmetry_multiplicity
 _atom_site_fract_x
 _atom_site_fract_y
 _atom_site_fract_z
 _atom_site_occupancy
  Tb  Tb0  1  0.000000  0.500000  0.524051  1
  Tb  Tb1  1  0.500000  0.000000  0.475620  1
  Tb  Tb2  1  0.000000  0.683347  0.793048  1
  Tb  Tb3  1  0.000000  0.316653  0.793048  1
  Ho  Ho4  1  0.500000  0.817068  0.206927  1
  Ho  Ho5  1  0.500000  0.182932  0.206927  1
  Co  Co6  1  0.500000  0.500000  0.703834  1
  Co  Co7  1  0.000000  0.000000  0.295744  1
  Co  Co8  1  0.000000  0.500000  0.987515  1
  Co  Co9  1  0.500000  0.000000  0.013917  1
  Co  Co10  1  0.500000  0.332232  0.990571  1
  Co  Co11  1  0.500000  0.667768  0.990571  1
  Co  Co12  1  0.000000  0.167208  0.010743  1
  Co  Co13  1  0.000000  0.832792  0.010743  1
  Co  Co14  1  0.500000  0.297153  0.430344  1
  Co  Co15  1  0.500000  0.702847  0.430344  1
  Co  Co16  1  0.000000  0.202559  0.568524  1
  Co  Co17  1  0.000000  0.797441  0.568524  1
  Co  Co18  1  0.500000  0.879863  0.708631  1
  Co  Co19  1  0.500000  0.120137  0.708631  1
  Co  Co20  1  0.000000  0.620697  0.290863  1
  Co  Co21  1  0.000000  0.379303  0.290863  1
  P  P22  1  0.500000  0.500000  0.881711  1
  P  P23  1  0.000000  0.000000  0.119419  1
  P  P24  1  0.500000  0.500000  0.349787  1
  P  P25  1  0.000000  0.000000  0.650047  1
  P  P26  1  0.500000  0.310889  0.615491  1
  P  P27  1  0.500000  0.689111  0.615491  1
  P  P28  1  0.000000  0.188776  0.383187  1
  P  P29  1  0.000000  0.811224  0.383187  1
  P  P30  1  0.500000  0.847042  0.893545  1
  P  P31  1  0.500000  0.152958  0.893545  1
  P  P32  1  0.000000  0.653887  0.107228  1
  P  P33  1  0.000000  0.346113  0.107228  1
  Os  Os34  1  0.500000  0.500000  0.158717  1
  Os  Os35  1  0.000000  0.000000  0.841434  1
