# generated using pymatgen
data_Hf8Ti11Si16Pt
_symmetry_space_group_name_H-M   'P 1'
_cell_length_a   6.59173720
_cell_length_b   6.77758065
_cell_length_c   12.94523800
_cell_angle_alpha   90.00000000
_cell_angle_beta   90.00000000
_cell_angle_gamma   90.20500890
_symmetry_Int_Tables_number   1
_chemical_formula_structural   Hf8Ti11Si16Pt
_chemical_formula_sum   'Hf8 Ti11 Si16 Pt1'
_cell_volume   578.33814539
_cell_formula_units_Z   1
loop_
 _symmetry_equiv_pos_site_id
 _symmetry_equiv_pos_as_xyz
  1  'x, y, z'
loop_
 _atom_site_type_symbol
 _atom_site_label
 _atom_site_symmetry_multiplicity
 _atom_site_fract_x
 _atom_site_fract_y
 _atom_site_fract_z
 _atom_site_occupancy
  Hf  Hf0  1  0.998416  0.173321  0.095469  1
  Hf  Hf1  1  0.004931  0.825858  0.906000  1
  Hf  Hf2  1  0.500215  0.672440  0.907815  1
  Hf  Hf3  1  0.004931  0.825858  0.594000  1
  Hf  Hf4  1  0.500394  0.327794  0.095081  1
  Hf  Hf5  1  0.998416  0.173321  0.404531  1
  Hf  Hf6  1  0.500394  0.327794  0.404919  1
  Hf  Hf7  1  0.500215  0.672440  0.592185  1
  Ti  Ti8  1  0.163866  0.496039  0.750000  1
  Ti  Ti9  1  0.834890  0.503936  0.250000  1
  Ti  Ti10  1  0.334690  0.993012  0.250000  1
  Ti  Ti11  1  0.337065  0.174944  0.625385  1
  Ti  Ti12  1  0.662183  0.826590  0.375316  1
  Ti  Ti13  1  0.163185  0.674190  0.374128  1
  Ti  Ti14  1  0.662183  0.826590  0.124684  1
  Ti  Ti15  1  0.835759  0.329199  0.626293  1
  Ti  Ti16  1  0.337065  0.174944  0.874615  1
  Ti  Ti17  1  0.835759  0.329199  0.873707  1
  Ti  Ti18  1  0.163185  0.674190  0.125872  1
  Si  Si19  1  0.038627  0.116762  0.750000  1
  Si  Si20  1  0.959097  0.881500  0.250000  1
  Si  Si21  1  0.461825  0.616648  0.250000  1
  Si  Si22  1  0.536269  0.394286  0.750000  1
  Si  Si23  1  0.296106  0.863402  0.750000  1
  Si  Si24  1  0.701828  0.134348  0.250000  1
  Si  Si25  1  0.202883  0.363627  0.250000  1
  Si  Si26  1  0.798460  0.634315  0.750000  1
  Si  Si27  1  0.169136  0.462354  0.538385  1
  Si  Si28  1  0.829635  0.537687  0.460729  1
  Si  Si29  1  0.329944  0.963190  0.461802  1
  Si  Si30  1  0.829635  0.537687  0.039271  1
  Si  Si31  1  0.672360  0.041203  0.535748  1
  Si  Si32  1  0.169136  0.462354  0.961615  1
  Si  Si33  1  0.672360  0.041203  0.964252  1
  Si  Si34  1  0.329944  0.963190  0.038198  1
  Pt  Pt35  1  0.665011  0.984586  0.750000  1
