# generated using pymatgen
data_Np2Si5Ir2Pt
_symmetry_space_group_name_H-M   'P 1'
_cell_length_a   8.16483714
_cell_length_b   8.19152200
_cell_length_c   8.19152160
_cell_angle_alpha   137.97917345
_cell_angle_beta   103.92712103
_cell_angle_gamma   90.98846923
_symmetry_Int_Tables_number   1
_chemical_formula_structural   Np2Si5Ir2Pt
_chemical_formula_sum   'Np4 Si10 Ir4 Pt2'
_cell_volume   339.36931462
_cell_formula_units_Z   2
loop_
 _symmetry_equiv_pos_site_id
 _symmetry_equiv_pos_as_xyz
  1  'x, y, z'
loop_
 _atom_site_type_symbol
 _atom_site_label
 _atom_site_symmetry_multiplicity
 _atom_site_fract_x
 _atom_site_fract_y
 _atom_site_fract_z
 _atom_site_occupancy
  Np  Np0  1  0.860234  0.630163  0.230072  1
  Np  Np1  1  0.139766  0.369837  0.769928  1
  Np  Np2  1  0.399108  0.131559  0.267550  1
  Np  Np3  1  0.600892  0.868441  0.732450  1
  Si  Si4  1  0.500000  0.759995  0.259995  1
  Si  Si5  1  0.500000  0.240005  0.740005  1
  Si  Si6  1  0.224414  0.972962  0.746527  1
  Si  Si7  1  0.775586  0.522112  0.748547  1
  Si  Si8  1  0.775586  0.027038  0.253473  1
  Si  Si9  1  0.224414  0.477888  0.251453  1
  Si  Si10  1  0.047768  0.893500  0.154267  1
  Si  Si11  1  0.952232  0.106500  0.845733  1
  Si  Si12  1  0.740447  0.393184  0.347262  1
  Si  Si13  1  0.259553  0.606816  0.652738  1
  Ir  Ir14  1  0.000000  0.751003  0.751003  1
  Ir  Ir15  1  0.000000  0.248997  0.248997  1
  Ir  Ir16  1  0.244964  0.859776  0.385188  1
  Ir  Ir17  1  0.755036  0.140224  0.614812  1
  Pt  Pt18  1  0.475154  0.362498  0.112656  1
  Pt  Pt19  1  0.524846  0.637502  0.887344  1
