# generated using pymatgen
data_Sm2Pa2Zn4Ir3Rh
_symmetry_space_group_name_H-M   'P 1'
_cell_length_a   3.89413100
_cell_length_b   7.22771252
_cell_length_c   8.39729515
_cell_angle_alpha   91.27817434
_cell_angle_beta   90.00000000
_cell_angle_gamma   90.00000000
_symmetry_Int_Tables_number   1
_chemical_formula_structural   Sm2Pa2Zn4Ir3Rh
_chemical_formula_sum   'Sm2 Pa2 Zn4 Ir3 Rh1'
_cell_volume   236.28860080
_cell_formula_units_Z   1
loop_
 _symmetry_equiv_pos_site_id
 _symmetry_equiv_pos_as_xyz
  1  'x, y, z'
loop_
 _atom_site_type_symbol
 _atom_site_label
 _atom_site_symmetry_multiplicity
 _atom_site_fract_x
 _atom_site_fract_y
 _atom_site_fract_z
 _atom_site_occupancy
  Sm  Sm0  1  0.250000  0.056651  0.312807  1
  Sm  Sm1  1  0.750000  0.944875  0.686336  1
  Pa  Pa2  1  0.250000  0.551214  0.188836  1
  Pa  Pa3  1  0.750000  0.447865  0.811393  1
  Zn  Zn4  1  0.250000  0.121320  0.938660  1
  Zn  Zn5  1  0.750000  0.878001  0.060035  1
  Zn  Zn6  1  0.250000  0.628388  0.559009  1
  Zn  Zn7  1  0.750000  0.373423  0.441594  1
  Ir  Ir8  1  0.750000  0.744746  0.357264  1
  Ir  Ir9  1  0.250000  0.256626  0.642784  1
  Ir  Ir10  1  0.750000  0.281587  0.119658  1
  Rh  Rh11  1  0.250000  0.715307  0.881623  1
