# generated using pymatgen
data_YbSmRuC2
_symmetry_space_group_name_H-M   'P 1'
_cell_length_a   5.17172500
_cell_length_b   6.41178100
_cell_length_c   10.30170100
_cell_angle_alpha   90.00000000
_cell_angle_beta   90.00000000
_cell_angle_gamma   90.00000000
_symmetry_Int_Tables_number   1
_chemical_formula_structural   YbSmRuC2
_chemical_formula_sum   'Yb4 Sm4 Ru4 C8'
_cell_volume   341.60407646
_cell_formula_units_Z   4
loop_
 _symmetry_equiv_pos_site_id
 _symmetry_equiv_pos_as_xyz
  1  'x, y, z'
loop_
 _atom_site_type_symbol
 _atom_site_label
 _atom_site_symmetry_multiplicity
 _atom_site_fract_x
 _atom_site_fract_y
 _atom_site_fract_z
 _atom_site_occupancy
  Yb  Yb0  1  0.250000  0.529378  0.224463  1
  Yb  Yb1  1  0.750000  0.470622  0.775537  1
  Yb  Yb2  1  0.750000  0.970622  0.724463  1
  Yb  Yb3  1  0.250000  0.029378  0.275537  1
  Sm  Sm4  1  0.250000  0.692772  0.555591  1
  Sm  Sm5  1  0.750000  0.307228  0.444409  1
  Sm  Sm6  1  0.750000  0.807228  0.055591  1
  Sm  Sm7  1  0.250000  0.192772  0.944409  1
  Ru  Ru8  1  0.250000  0.724570  0.857018  1
  Ru  Ru9  1  0.750000  0.275430  0.142982  1
  Ru  Ru10  1  0.750000  0.775430  0.357018  1
  Ru  Ru11  1  0.250000  0.224570  0.642982  1
  C  C12  1  0.250000  0.465522  0.755064  1
  C  C13  1  0.750000  0.534478  0.244936  1
  C  C14  1  0.750000  0.034478  0.255064  1
  C  C15  1  0.250000  0.965522  0.744936  1
  C  C16  1  0.250000  0.806722  0.034120  1
  C  C17  1  0.750000  0.193278  0.965880  1
  C  C18  1  0.750000  0.693278  0.534120  1
  C  C19  1  0.250000  0.306722  0.465880  1
