# generated using pymatgen
data_Er3Pa(CoB4)4
_symmetry_space_group_name_H-M   'P 1'
_cell_length_a   3.38253400
_cell_length_b   5.88550243
_cell_length_c   11.42991183
_cell_angle_alpha   89.95625564
_cell_angle_beta   90.00000000
_cell_angle_gamma   90.00000000
_symmetry_Int_Tables_number   1
_chemical_formula_structural   Er3Pa(CoB4)4
_chemical_formula_sum   'Er3 Pa1 Co4 B16'
_cell_volume   227.54561345
_cell_formula_units_Z   1
loop_
 _symmetry_equiv_pos_site_id
 _symmetry_equiv_pos_as_xyz
  1  'x, y, z'
loop_
 _atom_site_type_symbol
 _atom_site_label
 _atom_site_symmetry_multiplicity
 _atom_site_fract_x
 _atom_site_fract_y
 _atom_site_fract_z
 _atom_site_occupancy
  Er  Er0  1  0.500000  0.627654  0.848525  1
  Er  Er1  1  0.500000  0.128810  0.649973  1
  Er  Er2  1  0.500000  0.871827  0.352249  1
  Pa  Pa3  1  0.500000  0.372948  0.150050  1
  Co  Co4  1  0.500000  0.364177  0.409633  1
  Co  Co5  1  0.500000  0.635849  0.589196  1
  Co  Co6  1  0.500000  0.133883  0.910450  1
  Co  Co7  1  0.500000  0.864588  0.090465  1
  B  B8  1  0.000000  0.109833  0.045293  1
  B  B9  1  0.000000  0.887402  0.952366  1
  B  B10  1  0.000000  0.388552  0.546677  1
  B  B11  1  0.000000  0.612991  0.455102  1
  B  B12  1  0.000000  0.138036  0.468455  1
  B  B13  1  0.000000  0.862680  0.533105  1
  B  B14  1  0.000000  0.361160  0.963987  1
  B  B15  1  0.000000  0.638205  0.032293  1
  B  B16  1  0.000000  0.020215  0.191154  1
  B  B17  1  0.000000  0.976861  0.808530  1
  B  B18  1  0.000000  0.477078  0.690614  1
  B  B19  1  0.000000  0.523367  0.311067  1
  B  B20  1  0.000000  0.216313  0.316276  1
  B  B21  1  0.000000  0.784045  0.684985  1
  B  B22  1  0.000000  0.285142  0.814351  1
  B  B23  1  0.000000  0.718385  0.185204  1
