# generated using pymatgen
data_DyLu4CoSb2
_symmetry_space_group_name_H-M   'P 1'
_cell_length_a   7.69691100
_cell_length_b   8.70924600
_cell_length_c   11.97029300
_cell_angle_alpha   90.00000000
_cell_angle_beta   90.00000000
_cell_angle_gamma   90.00000000
_symmetry_Int_Tables_number   1
_chemical_formula_structural   DyLu4CoSb2
_chemical_formula_sum   'Dy4 Lu16 Co4 Sb8'
_cell_volume   802.42010838
_cell_formula_units_Z   4
loop_
 _symmetry_equiv_pos_site_id
 _symmetry_equiv_pos_as_xyz
  1  'x, y, z'
loop_
 _atom_site_type_symbol
 _atom_site_label
 _atom_site_symmetry_multiplicity
 _atom_site_fract_x
 _atom_site_fract_y
 _atom_site_fract_z
 _atom_site_occupancy
  Dy  Dy0  1  0.621037  0.750000  0.307486  1
  Dy  Dy1  1  0.878963  0.750000  0.807486  1
  Dy  Dy2  1  0.378963  0.250000  0.692514  1
  Dy  Dy3  1  0.121037  0.250000  0.192514  1
  Lu  Lu4  1  0.154855  0.750000  0.203332  1
  Lu  Lu5  1  0.345145  0.750000  0.703332  1
  Lu  Lu6  1  0.845145  0.250000  0.796668  1
  Lu  Lu7  1  0.654855  0.250000  0.296668  1
  Lu  Lu8  1  0.448102  0.750000  0.997989  1
  Lu  Lu9  1  0.051898  0.750000  0.497989  1
  Lu  Lu10  1  0.551898  0.250000  0.002011  1
  Lu  Lu11  1  0.948102  0.250000  0.502011  1
  Lu  Lu12  1  0.823748  0.537513  0.065183  1
  Lu  Lu13  1  0.676252  0.962487  0.565183  1
  Lu  Lu14  1  0.176252  0.037513  0.934817  1
  Lu  Lu15  1  0.323748  0.462487  0.434817  1
  Lu  Lu16  1  0.176252  0.462487  0.934817  1
  Lu  Lu17  1  0.323748  0.037513  0.434817  1
  Lu  Lu18  1  0.823748  0.962487  0.065183  1
  Lu  Lu19  1  0.676252  0.537513  0.565183  1
  Co  Co20  1  0.431803  0.750000  0.492011  1
  Co  Co21  1  0.068197  0.750000  0.992011  1
  Co  Co22  1  0.568197  0.250000  0.507989  1
  Co  Co23  1  0.931803  0.250000  0.007989  1
  Sb  Sb24  1  0.930803  0.508808  0.328684  1
  Sb  Sb25  1  0.569197  0.991192  0.828684  1
  Sb  Sb26  1  0.069197  0.008808  0.671316  1
  Sb  Sb27  1  0.430803  0.491192  0.171316  1
  Sb  Sb28  1  0.069197  0.491192  0.671316  1
  Sb  Sb29  1  0.430803  0.008808  0.171316  1
  Sb  Sb30  1  0.930803  0.991192  0.328684  1
  Sb  Sb31  1  0.569197  0.508808  0.828684  1
