# generated using pymatgen
data_Pr4Nd6Bi5PbBr2
_symmetry_space_group_name_H-M   'P 1'
_cell_length_a   9.69981700
_cell_length_b   9.68322417
_cell_length_c   6.75517000
_cell_angle_alpha   90.00000000
_cell_angle_beta   90.00000000
_cell_angle_gamma   120.05669705
_symmetry_Int_Tables_number   1
_chemical_formula_structural   Pr4Nd6Bi5PbBr2
_chemical_formula_sum   'Pr4 Nd6 Bi5 Pb1 Br2'
_cell_volume   549.16397265
_cell_formula_units_Z   1
loop_
 _symmetry_equiv_pos_site_id
 _symmetry_equiv_pos_as_xyz
  1  'x, y, z'
loop_
 _atom_site_type_symbol
 _atom_site_label
 _atom_site_symmetry_multiplicity
 _atom_site_fract_x
 _atom_site_fract_y
 _atom_site_fract_z
 _atom_site_occupancy
  Pr  Pr0  1  0.997882  0.271221  0.750000  1
  Pr  Pr1  1  0.000469  0.727862  0.250000  1
  Pr  Pr2  1  0.726660  0.728779  0.750000  1
  Pr  Pr3  1  0.272605  0.272138  0.250000  1
  Nd  Nd4  1  0.273311  0.000000  0.750000  1
  Nd  Nd5  1  0.727161  0.000000  0.250000  1
  Nd  Nd6  1  0.333683  0.667019  0.499927  1
  Nd  Nd7  1  0.666665  0.332981  0.499927  1
  Nd  Nd8  1  0.666665  0.332981  0.000073  1
  Nd  Nd9  1  0.333683  0.667019  0.000073  1
  Bi  Bi10  1  0.387098  0.000000  0.250000  1
  Bi  Bi11  1  0.000018  0.615426  0.750000  1
  Bi  Bi12  1  0.999038  0.384198  0.250000  1
  Bi  Bi13  1  0.384593  0.384574  0.750000  1
  Bi  Bi14  1  0.614839  0.615802  0.250000  1
  Pb  Pb15  1  0.613951  0.000000  0.750000  1
  Br  Br16  1  0.000839  0.000000  0.499810  1
  Br  Br17  1  0.000839  0.000000  0.000190  1
