# generated using pymatgen
data_Dy2MnCo8P6Os
_symmetry_space_group_name_H-M   'P 1'
_cell_length_a   3.68171000
_cell_length_b   10.33231700
_cell_length_c   11.78270900
_cell_angle_alpha   90.00000000
_cell_angle_beta   90.00000000
_cell_angle_gamma   90.00000000
_symmetry_Int_Tables_number   1
_chemical_formula_structural   Dy2MnCo8P6Os
_chemical_formula_sum   'Dy4 Mn2 Co16 P12 Os2'
_cell_volume   448.22125898
_cell_formula_units_Z   2
loop_
 _symmetry_equiv_pos_site_id
 _symmetry_equiv_pos_as_xyz
  1  'x, y, z'
loop_
 _atom_site_type_symbol
 _atom_site_label
 _atom_site_symmetry_multiplicity
 _atom_site_fract_x
 _atom_site_fract_y
 _atom_site_fract_z
 _atom_site_occupancy
  Dy  Dy0  1  0.250000  0.581420  0.702737  1
  Dy  Dy1  1  0.250000  0.918580  0.202737  1
  Dy  Dy2  1  0.750000  0.414755  0.294762  1
  Dy  Dy3  1  0.750000  0.085245  0.794762  1
  Mn  Mn4  1  0.750000  0.289109  0.012684  1
  Mn  Mn5  1  0.750000  0.210891  0.512684  1
  Co  Co6  1  0.250000  0.406194  0.486365  1
  Co  Co7  1  0.250000  0.093806  0.986365  1
  Co  Co8  1  0.750000  0.593231  0.510649  1
  Co  Co9  1  0.750000  0.906769  0.010649  1
  Co  Co10  1  0.250000  0.220761  0.176653  1
  Co  Co11  1  0.250000  0.279239  0.676653  1
  Co  Co12  1  0.750000  0.777998  0.823268  1
  Co  Co13  1  0.750000  0.722002  0.323268  1
  Co  Co14  1  0.250000  0.886266  0.701865  1
  Co  Co15  1  0.250000  0.613734  0.201865  1
  Co  Co16  1  0.750000  0.116212  0.300688  1
  Co  Co17  1  0.750000  0.383788  0.800688  1
  Co  Co18  1  0.250000  0.466029  0.932961  1
  Co  Co19  1  0.250000  0.033971  0.432961  1
  Co  Co20  1  0.750000  0.535834  0.068039  1
  Co  Co21  1  0.750000  0.964166  0.568039  1
  P  P22  1  0.250000  0.416914  0.112386  1
  P  P23  1  0.250000  0.083086  0.612386  1
  P  P24  1  0.750000  0.578486  0.886068  1
  P  P25  1  0.750000  0.921514  0.386068  1
  P  P26  1  0.250000  0.270991  0.867571  1
  P  P27  1  0.250000  0.229009  0.367571  1
  P  P28  1  0.750000  0.730543  0.133674  1
  P  P29  1  0.750000  0.769457  0.633674  1
  P  P30  1  0.250000  0.595165  0.390466  1
  P  P31  1  0.250000  0.904835  0.890466  1
  P  P32  1  0.750000  0.398670  0.608071  1
  P  P33  1  0.750000  0.101330  0.108071  1
  Os  Os34  1  0.250000  0.712583  0.991093  1
  Os  Os35  1  0.250000  0.787417  0.491093  1
