# generated using pymatgen
data_Hf14CuNi17Pd2
_symmetry_space_group_name_H-M   'P 1'
_cell_length_a   7.69330554
_cell_length_b   7.69330462
_cell_length_c   9.18501405
_cell_angle_alpha   90.01166534
_cell_angle_beta   90.01165455
_cell_angle_gamma   106.84144544
_symmetry_Int_Tables_number   1
_chemical_formula_structural   Hf14CuNi17Pd2
_chemical_formula_sum   'Hf14 Cu1 Ni17 Pd2'
_cell_volume   520.31655198
_cell_formula_units_Z   1
loop_
 _symmetry_equiv_pos_site_id
 _symmetry_equiv_pos_as_xyz
  1  'x, y, z'
loop_
 _atom_site_type_symbol
 _atom_site_label
 _atom_site_symmetry_multiplicity
 _atom_site_fract_x
 _atom_site_fract_y
 _atom_site_fract_z
 _atom_site_occupancy
  Hf  Hf0  1  0.699936  0.297621  0.000396  1
  Hf  Hf1  1  0.297621  0.699936  0.000396  1
  Hf  Hf2  1  0.802850  0.199882  0.497879  1
  Hf  Hf3  1  0.199882  0.802850  0.497879  1
  Hf  Hf4  1  0.002201  0.002201  0.997966  1
  Hf  Hf5  1  0.503009  0.503009  0.498869  1
  Hf  Hf6  1  0.002979  0.504829  0.250068  1
  Hf  Hf7  1  0.997122  0.498268  0.749316  1
  Hf  Hf8  1  0.498268  0.997122  0.749316  1
  Hf  Hf9  1  0.504829  0.002979  0.250068  1
  Hf  Hf10  1  0.305910  0.305910  0.194336  1
  Hf  Hf11  1  0.682080  0.682080  0.816207  1
  Hf  Hf12  1  0.185508  0.185508  0.679196  1
  Hf  Hf13  1  0.820549  0.820549  0.313330  1
  Cu  Cu14  1  0.607613  0.607613  0.111993  1
  Ni  Ni15  1  0.864833  0.153051  0.208590  1
  Ni  Ni16  1  0.144736  0.848807  0.793833  1
  Ni  Ni17  1  0.642782  0.347964  0.704816  1
  Ni  Ni18  1  0.650685  0.361664  0.289613  1
  Ni  Ni19  1  0.361664  0.650685  0.289613  1
  Ni  Ni20  1  0.347964  0.642782  0.704816  1
  Ni  Ni21  1  0.848807  0.144736  0.793833  1
  Ni  Ni22  1  0.153051  0.864833  0.208590  1
  Ni  Ni23  1  0.931235  0.647220  0.007129  1
  Ni  Ni24  1  0.057931  0.357030  0.998407  1
  Ni  Ni25  1  0.558604  0.856003  0.501706  1
  Ni  Ni26  1  0.148076  0.434715  0.492249  1
  Ni  Ni27  1  0.434715  0.148076  0.492249  1
  Ni  Ni28  1  0.856003  0.558604  0.501706  1
  Ni  Ni29  1  0.357030  0.057931  0.998407  1
  Ni  Ni30  1  0.647220  0.931235  0.007129  1
  Ni  Ni31  1  0.106034  0.106034  0.395004  1
  Pd  Pd32  1  0.889065  0.889065  0.608824  1
  Pd  Pd33  1  0.389205  0.389205  0.896270  1
