# generated using pymatgen
data_YbDy2Y17(Cd3Ru)2
_symmetry_space_group_name_H-M   'P 1'
_cell_length_a   9.66065413
_cell_length_b   9.65101461
_cell_length_c   9.84789471
_cell_angle_alpha   89.99999962
_cell_angle_beta   89.96224797
_cell_angle_gamma   119.96699693
_symmetry_Int_Tables_number   1
_chemical_formula_structural   YbDy2Y17(Cd3Ru)2
_chemical_formula_sum   'Yb1 Dy2 Y17 Cd6 Ru2'
_cell_volume   795.42226401
_cell_formula_units_Z   1
loop_
 _symmetry_equiv_pos_site_id
 _symmetry_equiv_pos_as_xyz
  1  'x, y, z'
loop_
 _atom_site_type_symbol
 _atom_site_label
 _atom_site_symmetry_multiplicity
 _atom_site_fract_x
 _atom_site_fract_y
 _atom_site_fract_z
 _atom_site_occupancy
  Yb  Yb0  1  0.000134  0.000067  0.499882  1
  Dy  Dy1  1  0.210806  0.789085  0.439289  1
  Dy  Dy2  1  0.210806  0.421722  0.439289  1
  Y  Y3  1  0.000032  0.000016  0.000040  1
  Y  Y4  1  0.578762  0.789381  0.439861  1
  Y  Y5  1  0.789535  0.210652  0.560245  1
  Y  Y6  1  0.789535  0.578882  0.560245  1
  Y  Y7  1  0.421278  0.210639  0.560216  1
  Y  Y8  1  0.789837  0.210212  0.940316  1
  Y  Y9  1  0.789837  0.579624  0.940316  1
  Y  Y10  1  0.420322  0.210161  0.940269  1
  Y  Y11  1  0.210164  0.789886  0.059704  1
  Y  Y12  1  0.210164  0.420279  0.059704  1
  Y  Y13  1  0.579668  0.789835  0.059640  1
  Y  Y14  1  0.541557  0.458358  0.251042  1
  Y  Y15  1  0.541557  0.083199  0.251042  1
  Y  Y16  1  0.916959  0.458479  0.251145  1
  Y  Y17  1  0.458355  0.541656  0.748940  1
  Y  Y18  1  0.458355  0.916698  0.748940  1
  Y  Y19  1  0.083312  0.541656  0.748799  1
  Cd  Cd20  1  0.884898  0.115064  0.250244  1
  Cd  Cd21  1  0.884898  0.769836  0.250244  1
  Cd  Cd22  1  0.230161  0.115081  0.250197  1
  Cd  Cd23  1  0.115071  0.884920  0.749834  1
  Cd  Cd24  1  0.115071  0.230149  0.749834  1
  Cd  Cd25  1  0.769803  0.884901  0.749758  1
  Ru  Ru26  1  0.332449  0.666225  0.251231  1
  Ru  Ru27  1  0.666674  0.333336  0.749737  1
