# generated using pymatgen
data_Nd3In3Hg2Ru
_symmetry_space_group_name_H-M   'P 1'
_cell_length_a   8.05760200
_cell_length_b   8.05760284
_cell_length_c   4.10886800
_cell_angle_alpha   90.00000000
_cell_angle_beta   90.00000000
_cell_angle_gamma   119.99999654
_symmetry_Int_Tables_number   1
_chemical_formula_structural   Nd3In3Hg2Ru
_chemical_formula_sum   'Nd3 In3 Hg2 Ru1'
_cell_volume   231.02793997
_cell_formula_units_Z   1
loop_
 _symmetry_equiv_pos_site_id
 _symmetry_equiv_pos_as_xyz
  1  'x, y, z'
loop_
 _atom_site_type_symbol
 _atom_site_label
 _atom_site_symmetry_multiplicity
 _atom_site_fract_x
 _atom_site_fract_y
 _atom_site_fract_z
 _atom_site_occupancy
  Nd  Nd0  1  0.578960  0.609012  0.000000  1
  Nd  Nd1  1  0.390988  0.969947  0.000000  1
  Nd  Nd2  1  0.030053  0.421040  0.000000  1
  In  In3  1  0.009387  0.733363  0.500000  1
  In  In4  1  0.266637  0.276024  0.500000  1
  In  In5  1  0.723976  0.990613  0.500000  1
  Hg  Hg6  1  0.000000  0.000000  0.000000  1
  Hg  Hg7  1  0.666667  0.333333  0.500000  1
  Ru  Ru8  1  0.333333  0.666667  0.500000  1
