# generated using pymatgen
data_LuTa5(ReSi)6
_symmetry_space_group_name_H-M   'P 1'
_cell_length_a   7.64211094
_cell_length_b   7.59145535
_cell_length_c   7.64211206
_cell_angle_alpha   126.82565599
_cell_angle_beta   125.72770013
_cell_angle_gamma   79.59881818
_symmetry_Int_Tables_number   1
_chemical_formula_structural   LuTa5(ReSi)6
_chemical_formula_sum   'Lu1 Ta5 Re6 Si6'
_cell_volume   278.13087253
_cell_formula_units_Z   1
loop_
 _symmetry_equiv_pos_site_id
 _symmetry_equiv_pos_as_xyz
  1  'x, y, z'
loop_
 _atom_site_type_symbol
 _atom_site_label
 _atom_site_symmetry_multiplicity
 _atom_site_fract_x
 _atom_site_fract_y
 _atom_site_fract_z
 _atom_site_occupancy
  Lu  Lu0  1  0.537015  0.067345  0.030331  1
  Ta  Ta1  1  0.458622  0.499466  0.540844  1
  Ta  Ta2  1  0.946555  0.485241  0.038686  1
  Ta  Ta3  1  0.054278  0.104357  0.550079  1
  Ta  Ta4  1  0.745113  0.903387  0.658274  1
  Ta  Ta5  1  0.252816  0.906876  0.154060  1
  Re  Re6  1  0.487166  0.245318  0.730626  1
  Re  Re7  1  0.014691  0.245318  0.258152  1
  Re  Re8  1  0.086358  0.749750  0.584744  1
  Re  Re9  1  0.892271  0.498359  0.642811  1
  Re  Re10  1  0.665007  0.749750  0.163393  1
  Re  Re11  1  0.355548  0.498359  0.106087  1
  Si  Si12  1  0.736095  0.475723  0.239628  1
  Si  Si13  1  0.275486  0.543711  0.768226  1
  Si  Si14  1  0.321433  0.823850  0.481760  1
  Si  Si15  1  0.671194  0.160769  0.502505  1
  Si  Si16  1  0.842091  0.823850  0.002418  1
  Si  Si17  1  0.158264  0.160769  0.989575  1
