# generated using pymatgen
data_Yb11Pr(TmSi2)8
_symmetry_space_group_name_H-M   'P 1'
_cell_length_a   7.34072059
_cell_length_b   7.78816724
_cell_length_c   14.99249457
_cell_angle_alpha   90.08676700
_cell_angle_beta   90.11282575
_cell_angle_gamma   90.00829904
_symmetry_Int_Tables_number   1
_chemical_formula_structural   Yb11Pr(TmSi2)8
_chemical_formula_sum   'Yb11 Pr1 Tm8 Si16'
_cell_volume   857.12964889
_cell_formula_units_Z   1
loop_
 _symmetry_equiv_pos_site_id
 _symmetry_equiv_pos_as_xyz
  1  'x, y, z'
loop_
 _atom_site_type_symbol
 _atom_site_label
 _atom_site_symmetry_multiplicity
 _atom_site_fract_x
 _atom_site_fract_y
 _atom_site_fract_z
 _atom_site_occupancy
  Yb  Yb0  1  0.476109  0.682275  0.094741  1
  Yb  Yb1  1  0.523714  0.316230  0.596212  1
  Yb  Yb2  1  0.024916  0.182537  0.904681  1
  Yb  Yb3  1  0.024949  0.182589  0.595977  1
  Yb  Yb4  1  0.524794  0.316875  0.904557  1
  Yb  Yb5  1  0.475049  0.681553  0.404520  1
  Yb  Yb6  1  0.975107  0.817746  0.096343  1
  Yb  Yb7  1  0.351363  0.020726  0.750192  1
  Yb  Yb8  1  0.851140  0.478330  0.750408  1
  Yb  Yb9  1  0.150844  0.518971  0.248096  1
  Yb  Yb10  1  0.646446  0.981404  0.248087  1
  Pr  Pr11  1  0.975336  0.819306  0.404073  1
  Tm  Tm12  1  0.315610  0.177281  0.120707  1
  Tm  Tm13  1  0.816457  0.321930  0.378336  1
  Tm  Tm14  1  0.185038  0.676518  0.878812  1
  Tm  Tm15  1  0.684067  0.822412  0.621777  1
  Tm  Tm16  1  0.316582  0.179922  0.378838  1
  Tm  Tm17  1  0.814394  0.323757  0.121096  1
  Tm  Tm18  1  0.184303  0.676184  0.622598  1
  Tm  Tm19  1  0.685187  0.823218  0.878752  1
  Si  Si20  1  0.854600  0.532975  0.537377  1
  Si  Si21  1  0.355744  0.966118  0.961912  1
  Si  Si22  1  0.644125  0.032028  0.461719  1
  Si  Si23  1  0.143825  0.466887  0.038300  1
  Si  Si24  1  0.142979  0.469288  0.461960  1
  Si  Si25  1  0.644335  0.033436  0.038092  1
  Si  Si26  1  0.352834  0.964891  0.536867  1
  Si  Si27  1  0.855561  0.533482  0.962048  1
  Si  Si28  1  0.977069  0.880753  0.750436  1
  Si  Si29  1  0.477330  0.619087  0.750124  1
  Si  Si30  1  0.525311  0.381003  0.250577  1
  Si  Si31  1  0.023511  0.118239  0.250596  1
  Si  Si32  1  0.248236  0.395666  0.750277  1
  Si  Si33  1  0.748319  0.103135  0.749759  1
  Si  Si34  1  0.251133  0.896295  0.250257  1
  Si  Si35  1  0.753685  0.606952  0.250897  1
