# generated using pymatgen
data_SmCoP3Rh4
_symmetry_space_group_name_H-M   'P 1'
_cell_length_a   3.87603100
_cell_length_b   10.81426200
_cell_length_c   12.45965800
_cell_angle_alpha   90.00000000
_cell_angle_beta   90.00000000
_cell_angle_gamma   90.00000000
_symmetry_Int_Tables_number   1
_chemical_formula_structural   SmCoP3Rh4
_chemical_formula_sum   'Sm4 Co4 P12 Rh16'
_cell_volume   522.26419242
_cell_formula_units_Z   4
loop_
 _symmetry_equiv_pos_site_id
 _symmetry_equiv_pos_as_xyz
  1  'x, y, z'
loop_
 _atom_site_type_symbol
 _atom_site_label
 _atom_site_symmetry_multiplicity
 _atom_site_fract_x
 _atom_site_fract_y
 _atom_site_fract_z
 _atom_site_occupancy
  Sm  Sm0  1  0.250000  0.585190  0.706707  1
  Sm  Sm1  1  0.250000  0.914810  0.206707  1
  Sm  Sm2  1  0.750000  0.414810  0.293293  1
  Sm  Sm3  1  0.750000  0.085190  0.793293  1
  Co  Co4  1  0.250000  0.464774  0.934236  1
  Co  Co5  1  0.250000  0.035226  0.434236  1
  Co  Co6  1  0.750000  0.535226  0.065764  1
  Co  Co7  1  0.750000  0.964774  0.565764  1
  P  P8  1  0.250000  0.424097  0.105490  1
  P  P9  1  0.250000  0.075903  0.605490  1
  P  P10  1  0.750000  0.575903  0.894510  1
  P  P11  1  0.750000  0.924097  0.394510  1
  P  P12  1  0.250000  0.274167  0.873205  1
  P  P13  1  0.250000  0.225833  0.373205  1
  P  P14  1  0.750000  0.725833  0.126795  1
  P  P15  1  0.750000  0.774167  0.626795  1
  P  P16  1  0.250000  0.601268  0.389188  1
  P  P17  1  0.250000  0.898732  0.889188  1
  P  P18  1  0.750000  0.398732  0.610812  1
  P  P19  1  0.750000  0.101268  0.110812  1
  Rh  Rh20  1  0.250000  0.715470  0.987742  1
  Rh  Rh21  1  0.250000  0.784530  0.487742  1
  Rh  Rh22  1  0.750000  0.284530  0.012258  1
  Rh  Rh23  1  0.750000  0.215470  0.512258  1
  Rh  Rh24  1  0.250000  0.408180  0.481884  1
  Rh  Rh25  1  0.250000  0.091820  0.981884  1
  Rh  Rh26  1  0.750000  0.591820  0.518116  1
  Rh  Rh27  1  0.750000  0.908180  0.018116  1
  Rh  Rh28  1  0.250000  0.226429  0.177820  1
  Rh  Rh29  1  0.250000  0.273571  0.677820  1
  Rh  Rh30  1  0.750000  0.773571  0.822180  1
  Rh  Rh31  1  0.750000  0.726429  0.322180  1
  Rh  Rh32  1  0.250000  0.885959  0.698341  1
  Rh  Rh33  1  0.250000  0.614041  0.198341  1
  Rh  Rh34  1  0.750000  0.114041  0.301659  1
  Rh  Rh35  1  0.750000  0.385959  0.801659  1
