# generated using pymatgen
data_K4CeNp3F16
_symmetry_space_group_name_H-M   'P 1'
_cell_length_a   3.80090900
_cell_length_b   6.36961112
_cell_length_c   15.79710300
_cell_angle_alpha   90.08567010
_cell_angle_beta   90.00000000
_cell_angle_gamma   90.00000000
_symmetry_Int_Tables_number   1
_chemical_formula_structural   K4CeNp3F16
_chemical_formula_sum   'K4 Ce1 Np3 F16'
_cell_volume   382.45236849
_cell_formula_units_Z   1
loop_
 _symmetry_equiv_pos_site_id
 _symmetry_equiv_pos_as_xyz
  1  'x, y, z'
loop_
 _atom_site_type_symbol
 _atom_site_label
 _atom_site_symmetry_multiplicity
 _atom_site_fract_x
 _atom_site_fract_y
 _atom_site_fract_z
 _atom_site_occupancy
  K  K0  1  0.250000  0.220288  0.298852  1
  K  K1  1  0.750000  0.779570  0.701191  1
  K  K2  1  0.250000  0.722139  0.200284  1
  K  K3  1  0.750000  0.277810  0.799762  1
  Ce  Ce4  1  0.250000  0.252266  0.562351  1
  Np  Np5  1  0.750000  0.247885  0.062104  1
  Np  Np6  1  0.250000  0.751225  0.937896  1
  Np  Np7  1  0.750000  0.747972  0.438717  1
  F  F8  1  0.250000  0.091386  0.694176  1
  F  F9  1  0.750000  0.908831  0.305532  1
  F  F10  1  0.250000  0.591596  0.805261  1
  F  F11  1  0.750000  0.407775  0.194609  1
  F  F12  1  0.750000  0.398403  0.636012  1
  F  F13  1  0.250000  0.604574  0.364190  1
  F  F14  1  0.750000  0.898320  0.864771  1
  F  F15  1  0.250000  0.100711  0.135013  1
  F  F16  1  0.750000  0.365674  0.463134  1
  F  F17  1  0.250000  0.637498  0.536928  1
  F  F18  1  0.750000  0.864299  0.039207  1
  F  F19  1  0.250000  0.134638  0.960582  1
  F  F20  1  0.250000  0.499305  0.058156  1
  F  F21  1  0.750000  0.499475  0.941728  1
  F  F22  1  0.250000  0.001756  0.440925  1
  F  F23  1  0.750000  0.996603  0.558623  1
