# generated using pymatgen
data_LaTb20Fe8Sb7C12
_symmetry_space_group_name_H-M   'P 1'
_cell_length_a   11.11030200
_cell_length_b   11.11030208
_cell_length_c   11.11030200
_cell_angle_alpha   119.99999976
_cell_angle_beta   90.00000000
_cell_angle_gamma   119.99999976
_symmetry_Int_Tables_number   1
_chemical_formula_structural   LaTb20Fe8Sb7C12
_chemical_formula_sum   'La1 Tb20 Fe8 Sb7 C12'
_cell_volume   969.75628013
_cell_formula_units_Z   1
loop_
 _symmetry_equiv_pos_site_id
 _symmetry_equiv_pos_as_xyz
  1  'x, y, z'
loop_
 _atom_site_type_symbol
 _atom_site_label
 _atom_site_symmetry_multiplicity
 _atom_site_fract_x
 _atom_site_fract_y
 _atom_site_fract_z
 _atom_site_occupancy
  La  La0  1  0.500000  0.000000  0.500000  1
  Tb  Tb1  1  0.403278  0.268852  0.134426  1
  Tb  Tb2  1  0.865575  0.268852  0.134426  1
  Tb  Tb3  1  0.865575  0.731149  0.134426  1
  Tb  Tb4  1  0.500000  0.000000  0.156124  1
  Tb  Tb5  1  0.156124  0.656124  0.156124  1
  Tb  Tb6  1  0.500000  0.656124  0.156124  1
  Tb  Tb7  1  0.134426  0.268852  0.403278  1
  Tb  Tb8  1  0.843876  0.000000  0.500000  1
  Tb  Tb9  1  0.843876  0.343876  0.500000  1
  Tb  Tb10  1  0.156124  0.000000  0.500000  1
  Tb  Tb11  1  0.500000  0.343876  0.500000  1
  Tb  Tb12  1  0.156124  0.656124  0.500000  1
  Tb  Tb13  1  0.500000  0.656124  0.500000  1
  Tb  Tb14  1  0.865575  0.731149  0.596723  1
  Tb  Tb15  1  0.500000  0.000000  0.843876  1
  Tb  Tb16  1  0.843876  0.343876  0.843876  1
  Tb  Tb17  1  0.500000  0.343876  0.843876  1
  Tb  Tb18  1  0.134426  0.268852  0.865575  1
  Tb  Tb19  1  0.134426  0.731149  0.865575  1
  Tb  Tb20  1  0.596723  0.731149  0.865575  1
  Fe  Fe21  1  0.693279  0.386558  0.079837  1
  Fe  Fe22  1  0.693279  0.386558  0.306721  1
  Fe  Fe23  1  0.693279  0.613442  0.306721  1
  Fe  Fe24  1  0.920162  0.613442  0.306721  1
  Fe  Fe25  1  0.079837  0.386558  0.693279  1
  Fe  Fe26  1  0.306721  0.386558  0.693279  1
  Fe  Fe27  1  0.306721  0.613442  0.693279  1
  Fe  Fe28  1  0.306721  0.613442  0.920162  1
  Sb  Sb29  1  0.000000  0.000000  0.000000  1
  Sb  Sb30  1  0.225056  0.000000  0.225056  1
  Sb  Sb31  1  0.225056  0.450113  0.225056  1
  Sb  Sb32  1  0.774943  0.000000  0.225056  1
  Sb  Sb33  1  0.225056  0.000000  0.774943  1
  Sb  Sb34  1  0.774943  0.549886  0.774943  1
  Sb  Sb35  1  0.774944  0.000000  0.774944  1
  C  C36  1  0.894412  0.500000  0.105589  1
  C  C37  1  0.605589  0.211177  0.105589  1
  C  C38  1  0.605589  0.500000  0.105589  1
  C  C39  1  0.605589  0.500000  0.394411  1
  C  C40  1  0.894412  0.500000  0.394411  1
  C  C41  1  0.894412  0.788824  0.394411  1
  C  C42  1  0.105589  0.211177  0.605589  1
  C  C43  1  0.105589  0.500000  0.605589  1
  C  C44  1  0.394411  0.500000  0.605589  1
  C  C45  1  0.105589  0.500000  0.894412  1
  C  C46  1  0.394411  0.500000  0.894412  1
  C  C47  1  0.394411  0.788824  0.894412  1
