# generated using pymatgen
data_Ho2AlTc3
_symmetry_space_group_name_H-M   'P 1'
_cell_length_a   5.34084600
_cell_length_b   5.34084573
_cell_length_c   8.98373500
_cell_angle_alpha   90.00000000
_cell_angle_beta   90.00000000
_cell_angle_gamma   120.00000168
_symmetry_Int_Tables_number   1
_chemical_formula_structural   Ho2AlTc3
_chemical_formula_sum   'Ho4 Al2 Tc6'
_cell_volume   221.92572434
_cell_formula_units_Z   2
loop_
 _symmetry_equiv_pos_site_id
 _symmetry_equiv_pos_as_xyz
  1  'x, y, z'
loop_
 _atom_site_type_symbol
 _atom_site_label
 _atom_site_symmetry_multiplicity
 _atom_site_fract_x
 _atom_site_fract_y
 _atom_site_fract_z
 _atom_site_occupancy
  Ho  Ho0  1  0.333333  0.666667  0.432541  1
  Ho  Ho1  1  0.666667  0.333333  0.567459  1
  Ho  Ho2  1  0.666667  0.333333  0.932541  1
  Ho  Ho3  1  0.333333  0.666667  0.067459  1
  Al  Al4  1  0.000000  0.000000  0.500000  1
  Al  Al5  1  0.000000  0.000000  0.000000  1
  Tc  Tc6  1  0.830102  0.169898  0.250000  1
  Tc  Tc7  1  0.830102  0.660204  0.250000  1
  Tc  Tc8  1  0.339796  0.169898  0.250000  1
  Tc  Tc9  1  0.169898  0.830102  0.750000  1
  Tc  Tc10  1  0.169898  0.339796  0.750000  1
  Tc  Tc11  1  0.660204  0.830102  0.750000  1
