# generated using pymatgen
data_Sr3Ir2Rh2PbO14
_symmetry_space_group_name_H-M   'P 1'
_cell_length_a   7.43071843
_cell_length_b   7.41749306
_cell_length_c   7.38537074
_cell_angle_alpha   59.83473725
_cell_angle_beta   59.79667775
_cell_angle_gamma   59.94100606
_symmetry_Int_Tables_number   1
_chemical_formula_structural   Sr3Ir2Rh2PbO14
_chemical_formula_sum   'Sr3 Ir2 Rh2 Pb1 O14'
_cell_volume   286.90416209
_cell_formula_units_Z   1
loop_
 _symmetry_equiv_pos_site_id
 _symmetry_equiv_pos_as_xyz
  1  'x, y, z'
loop_
 _atom_site_type_symbol
 _atom_site_label
 _atom_site_symmetry_multiplicity
 _atom_site_fract_x
 _atom_site_fract_y
 _atom_site_fract_z
 _atom_site_occupancy
  Sr  Sr0  1  0.625000  0.125000  0.125000  1
  Sr  Sr1  1  0.125000  0.625000  0.125000  1
  Sr  Sr2  1  0.125000  0.125000  0.125000  1
  Ir  Ir3  1  0.125000  0.625000  0.625000  1
  Ir  Ir4  1  0.625000  0.625000  0.625000  1
  Rh  Rh5  1  0.625000  0.125000  0.625000  1
  Rh  Rh6  1  0.625000  0.625000  0.125000  1
  Pb  Pb7  1  0.125000  0.125000  0.625000  1
  O  O8  1  0.700921  0.695969  0.307423  1
  O  O9  1  0.299005  0.305331  0.680839  1
  O  O10  1  0.714825  0.305331  0.680839  1
  O  O11  1  0.295689  0.695969  0.307423  1
  O  O12  1  0.304032  0.711114  0.680822  1
  O  O13  1  0.701123  0.297839  0.299915  1
  O  O14  1  0.549079  0.554031  0.942577  1
  O  O15  1  0.950995  0.944669  0.569161  1
  O  O16  1  0.535175  0.944669  0.569161  1
  O  O17  1  0.954311  0.554031  0.942577  1
  O  O18  1  0.945968  0.538886  0.569178  1
  O  O19  1  0.548877  0.952161  0.950085  1
  O  O20  1  0.237687  0.239093  0.285533  1
  O  O21  1  0.012313  0.010907  0.964467  1
