# generated using pymatgen
data_Pt4AuSe10
_symmetry_space_group_name_H-M   'P 1'
_cell_length_a   16.58836922
_cell_length_b   16.58837011
_cell_length_c   6.68475706
_cell_angle_alpha   88.06365553
_cell_angle_beta   88.06365572
_cell_angle_gamma   13.08201121
_symmetry_Int_Tables_number   1
_chemical_formula_structural   Pt4AuSe10
_chemical_formula_sum   'Pt4 Au1 Se10'
_cell_volume   416.11520587
_cell_formula_units_Z   1
loop_
 _symmetry_equiv_pos_site_id
 _symmetry_equiv_pos_as_xyz
  1  'x, y, z'
loop_
 _atom_site_type_symbol
 _atom_site_label
 _atom_site_symmetry_multiplicity
 _atom_site_fract_x
 _atom_site_fract_y
 _atom_site_fract_z
 _atom_site_occupancy
  Pt  Pt0  1  0.007815  0.007815  0.998801  1
  Pt  Pt1  1  0.606343  0.606343  0.001834  1
  Pt  Pt2  1  0.205080  0.205080  0.996451  1
  Pt  Pt3  1  0.803620  0.803620  0.001773  1
  Au  Au4  1  0.405727  0.405727  0.001214  1
  Se  Se5  1  0.674021  0.674021  0.806114  1
  Se  Se6  1  0.273898  0.273898  0.804847  1
  Se  Se7  1  0.871276  0.871276  0.813450  1
  Se  Se8  1  0.537695  0.537695  0.194985  1
  Se  Se9  1  0.137415  0.137415  0.191951  1
  Se  Se10  1  0.735558  0.735558  0.186931  1
  Se  Se11  1  0.329059  0.329059  0.208054  1
  Se  Se12  1  0.940279  0.940279  0.188565  1
  Se  Se13  1  0.075717  0.075717  0.811986  1
  Se  Se14  1  0.482220  0.482220  0.793046  1
