# generated using pymatgen
data_Zr4Mn4Si3P
_symmetry_space_group_name_H-M   'P 1'
_cell_length_a   3.65844400
_cell_length_b   6.58698914
_cell_length_c   7.65080497
_cell_angle_alpha   90.09808333
_cell_angle_beta   90.00000000
_cell_angle_gamma   90.00000000
_symmetry_Int_Tables_number   1
_chemical_formula_structural   Zr4Mn4Si3P
_chemical_formula_sum   'Zr4 Mn4 Si3 P1'
_cell_volume   184.36982963
_cell_formula_units_Z   1
loop_
 _symmetry_equiv_pos_site_id
 _symmetry_equiv_pos_as_xyz
  1  'x, y, z'
loop_
 _atom_site_type_symbol
 _atom_site_label
 _atom_site_symmetry_multiplicity
 _atom_site_fract_x
 _atom_site_fract_y
 _atom_site_fract_z
 _atom_site_occupancy
  Zr  Zr0  1  0.250000  0.528441  0.177049  1
  Zr  Zr1  1  0.750000  0.470726  0.818908  1
  Zr  Zr2  1  0.750000  0.977140  0.677737  1
  Zr  Zr3  1  0.250000  0.028823  0.323709  1
  Mn  Mn4  1  0.250000  0.632573  0.564393  1
  Mn  Mn5  1  0.750000  0.361487  0.438954  1
  Mn  Mn6  1  0.750000  0.863130  0.064319  1
  Mn  Mn7  1  0.250000  0.138079  0.933713  1
  Si  Si8  1  0.250000  0.773132  0.877391  1
  Si  Si9  1  0.750000  0.227388  0.121698  1
  Si  Si10  1  0.750000  0.727399  0.378330  1
  P  P11  1  0.250000  0.271681  0.623796  1
