# generated using pymatgen
data_TbY9(Bi3S)2
_symmetry_space_group_name_H-M   'P 1'
_cell_length_a   9.21039901
_cell_length_b   9.20973931
_cell_length_c   6.60238600
_cell_angle_alpha   90.00000000
_cell_angle_beta   90.00000000
_cell_angle_gamma   119.99763238
_symmetry_Int_Tables_number   1
_chemical_formula_structural   TbY9(Bi3S)2
_chemical_formula_sum   'Tb1 Y9 Bi6 S2'
_cell_volume   485.02897726
_cell_formula_units_Z   1
loop_
 _symmetry_equiv_pos_site_id
 _symmetry_equiv_pos_as_xyz
  1  'x, y, z'
loop_
 _atom_site_type_symbol
 _atom_site_label
 _atom_site_symmetry_multiplicity
 _atom_site_fract_x
 _atom_site_fract_y
 _atom_site_fract_z
 _atom_site_occupancy
  Tb  Tb0  1  0.000000  0.753903  0.750000  1
  Y  Y1  1  0.666686  0.333364  0.500164  1
  Y  Y2  1  0.333314  0.666679  0.500164  1
  Y  Y3  1  0.333314  0.666679  0.999836  1
  Y  Y4  1  0.666686  0.333364  0.999836  1
  Y  Y5  1  0.753845  0.753875  0.250000  1
  Y  Y6  1  0.246155  0.000029  0.250000  1
  Y  Y7  1  0.000000  0.246047  0.250000  1
  Y  Y8  1  0.246026  0.246056  0.750000  1
  Y  Y9  1  0.753974  0.000030  0.750000  1
  Bi  Bi10  1  0.396881  0.396860  0.250000  1
  Bi  Bi11  1  0.603119  0.999978  0.250000  1
  Bi  Bi12  1  0.000000  0.603144  0.250000  1
  Bi  Bi13  1  0.603086  0.603208  0.750000  1
  Bi  Bi14  1  0.396914  0.000121  0.750000  1
  Bi  Bi15  1  0.000000  0.396643  0.750000  1
  S  S16  1  0.000000  0.000010  0.499926  1
  S  S17  1  0.000000  0.000010  0.000074  1
