# generated using pymatgen
data_EuPRh2
_symmetry_space_group_name_H-M   'P 1'
_cell_length_a   9.13278253
_cell_length_b   9.13278308
_cell_length_c   4.05090600
_cell_angle_alpha   90.00000000
_cell_angle_beta   90.00000000
_cell_angle_gamma   154.49534650
_symmetry_Int_Tables_number   1
_chemical_formula_structural   EuPRh2
_chemical_formula_sum   'Eu2 P2 Rh4'
_cell_volume   145.48449744
_cell_formula_units_Z   2
loop_
 _symmetry_equiv_pos_site_id
 _symmetry_equiv_pos_as_xyz
  1  'x, y, z'
loop_
 _atom_site_type_symbol
 _atom_site_label
 _atom_site_symmetry_multiplicity
 _atom_site_fract_x
 _atom_site_fract_y
 _atom_site_fract_z
 _atom_site_occupancy
  Eu  Eu0  1  0.098717  0.901283  0.750000  1
  Eu  Eu1  1  0.901283  0.098717  0.250000  1
  P  P2  1  0.324075  0.675925  0.750000  1
  P  P3  1  0.675925  0.324075  0.250000  1
  Rh  Rh4  1  0.548052  0.451948  0.250000  1
  Rh  Rh5  1  0.451948  0.548052  0.750000  1
  Rh  Rh6  1  0.249908  0.750092  0.250000  1
  Rh  Rh7  1  0.750092  0.249908  0.750000  1
