# generated using pymatgen
data_Pr7Ho3(Pb3Br)2
_symmetry_space_group_name_H-M   'P 1'
_cell_length_a   9.56848800
_cell_length_b   9.56848754
_cell_length_c   6.85110500
_cell_angle_alpha   90.00016514
_cell_angle_beta   90.00016747
_cell_angle_gamma   120.00017707
_symmetry_Int_Tables_number   1
_chemical_formula_structural   Pr7Ho3(Pb3Br)2
_chemical_formula_sum   'Pr7 Ho3 Pb6 Br2'
_cell_volume   543.22167832
_cell_formula_units_Z   1
loop_
 _symmetry_equiv_pos_site_id
 _symmetry_equiv_pos_as_xyz
  1  'x, y, z'
loop_
 _atom_site_type_symbol
 _atom_site_label
 _atom_site_symmetry_multiplicity
 _atom_site_fract_x
 _atom_site_fract_y
 _atom_site_fract_z
 _atom_site_occupancy
  Pr  Pr0  1  0.733655  0.733328  0.249268  1
  Pr  Pr1  1  0.266718  0.000346  0.249289  1
  Pr  Pr2  1  0.999675  0.266386  0.249287  1
  Pr  Pr3  1  0.333308  0.666693  0.500000  1
  Pr  Pr4  1  0.266672  0.266346  0.750728  1
  Pr  Pr5  1  0.733614  0.000325  0.750717  1
  Pr  Pr6  1  0.999654  0.733282  0.750715  1
  Ho  Ho7  1  0.666684  0.333315  0.000000  1
  Ho  Ho8  1  0.333325  0.666675  0.000000  1
  Ho  Ho9  1  0.666680  0.333321  0.500000  1
  Pb  Pb10  1  0.611777  0.002569  0.248449  1
  Pb  Pb11  1  0.997373  0.609167  0.248456  1
  Pb  Pb12  1  0.390840  0.388239  0.248458  1
  Pb  Pb13  1  0.390833  0.002627  0.751544  1
  Pb  Pb14  1  0.997431  0.388224  0.751551  1
  Pb  Pb15  1  0.611760  0.609160  0.751544  1
  Br  Br16  1  0.000000  0.000000  0.000000  1
  Br  Br17  1  0.999998  0.000000  0.500000  1
