# generated using pymatgen
data_La3Ce(MoN2)4
_symmetry_space_group_name_H-M   'P 1'
_cell_length_a   3.31046600
_cell_length_b   5.86495392
_cell_length_c   10.93278900
_cell_angle_alpha   89.64445825
_cell_angle_beta   90.00000000
_cell_angle_gamma   90.00000000
_symmetry_Int_Tables_number   1
_chemical_formula_structural   La3Ce(MoN2)4
_chemical_formula_sum   'La3 Ce1 Mo4 N8'
_cell_volume   212.26399844
_cell_formula_units_Z   1
loop_
 _symmetry_equiv_pos_site_id
 _symmetry_equiv_pos_as_xyz
  1  'x, y, z'
loop_
 _atom_site_type_symbol
 _atom_site_label
 _atom_site_symmetry_multiplicity
 _atom_site_fract_x
 _atom_site_fract_y
 _atom_site_fract_z
 _atom_site_occupancy
  La  La0  1  0.250000  0.574309  0.644704  1
  La  La1  1  0.750000  0.925088  0.143652  1
  La  La2  1  0.750000  0.424299  0.355274  1
  Ce  Ce3  1  0.250000  0.074436  0.855297  1
  Mo  Mo4  1  0.250000  0.438481  0.091163  1
  Mo  Mo5  1  0.250000  0.940372  0.407310  1
  Mo  Mo6  1  0.750000  0.565460  0.905880  1
  Mo  Mo7  1  0.750000  0.060404  0.594277  1
  N  N8  1  0.250000  0.166073  0.252445  1
  N  N9  1  0.250000  0.662491  0.242951  1
  N  N10  1  0.750000  0.842806  0.754191  1
  N  N11  1  0.750000  0.324137  0.757531  1
  N  N12  1  0.250000  0.742800  0.984021  1
  N  N13  1  0.250000  0.236008  0.514007  1
  N  N14  1  0.750000  0.260883  0.008127  1
  N  N15  1  0.750000  0.761951  0.489168  1
