# generated using pymatgen
data_Li5W7N12
_symmetry_space_group_name_H-M   'P 1'
_cell_length_a   4.92851100
_cell_length_b   4.92851012
_cell_length_c   10.27694000
_cell_angle_alpha   90.00000000
_cell_angle_beta   90.00000000
_cell_angle_gamma   119.99999920
_symmetry_Int_Tables_number   1
_chemical_formula_structural   Li5W7N12
_chemical_formula_sum   'Li5 W7 N12'
_cell_volume   216.18514027
_cell_formula_units_Z   1
loop_
 _symmetry_equiv_pos_site_id
 _symmetry_equiv_pos_as_xyz
  1  'x, y, z'
loop_
 _atom_site_type_symbol
 _atom_site_label
 _atom_site_symmetry_multiplicity
 _atom_site_fract_x
 _atom_site_fract_y
 _atom_site_fract_z
 _atom_site_occupancy
  Li  Li0  1  0.333333  0.666667  0.000000  1
  Li  Li1  1  0.333333  0.666667  0.500000  1
  Li  Li2  1  0.666667  0.333333  0.500000  1
  Li  Li3  1  0.666667  0.333333  0.000000  1
  Li  Li4  1  0.000000  0.000000  0.000000  1
  W  W5  1  0.000000  0.336895  0.250830  1
  W  W6  1  0.663105  0.000000  0.749170  1
  W  W7  1  0.336895  0.336895  0.749170  1
  W  W8  1  0.000000  0.000000  0.500000  1
  W  W9  1  0.663105  0.663105  0.250830  1
  W  W10  1  0.336895  0.000000  0.250830  1
  W  W11  1  0.000000  0.663105  0.749170  1
  N  N12  1  0.668083  0.668083  0.619141  1
  N  N13  1  0.667307  0.667307  0.869797  1
  N  N14  1  0.332693  0.332693  0.130203  1
  N  N15  1  0.331917  0.331917  0.380859  1
  N  N16  1  0.332693  0.000000  0.869797  1
  N  N17  1  0.331917  0.000000  0.619141  1
  N  N18  1  0.000000  0.668083  0.380859  1
  N  N19  1  0.000000  0.667307  0.130203  1
  N  N20  1  0.667307  0.000000  0.130203  1
  N  N21  1  0.668083  0.000000  0.380859  1
  N  N22  1  0.000000  0.332693  0.869797  1
  N  N23  1  0.000000  0.331917  0.619141  1
