# generated using pymatgen
data_Zr6Zn23As
_symmetry_space_group_name_H-M   'P 1'
_cell_length_a   8.81823070
_cell_length_b   8.81823037
_cell_length_c   8.81823100
_cell_angle_alpha   60.00000138
_cell_angle_beta   60.00000261
_cell_angle_gamma   60.00000051
_symmetry_Int_Tables_number   1
_chemical_formula_structural   Zr6Zn23As
_chemical_formula_sum   'Zr6 Zn23 As1'
_cell_volume   484.87454458
_cell_formula_units_Z   1
loop_
 _symmetry_equiv_pos_site_id
 _symmetry_equiv_pos_as_xyz
  1  'x, y, z'
loop_
 _atom_site_type_symbol
 _atom_site_label
 _atom_site_symmetry_multiplicity
 _atom_site_fract_x
 _atom_site_fract_y
 _atom_site_fract_z
 _atom_site_occupancy
  Zr  Zr0  1  0.712633  0.287367  0.287367  1
  Zr  Zr1  1  0.287367  0.712633  0.712633  1
  Zr  Zr2  1  0.287367  0.712633  0.287367  1
  Zr  Zr3  1  0.712633  0.287367  0.712633  1
  Zr  Zr4  1  0.287367  0.287367  0.712633  1
  Zr  Zr5  1  0.712633  0.712633  0.287367  1
  Zn  Zn6  1  0.123565  0.123565  0.123565  1
  Zn  Zn7  1  0.876435  0.876435  0.876435  1
  Zn  Zn8  1  0.123565  0.123565  0.629306  1
  Zn  Zn9  1  0.123565  0.629306  0.123565  1
  Zn  Zn10  1  0.876435  0.876435  0.370694  1
  Zn  Zn11  1  0.876435  0.370694  0.876435  1
  Zn  Zn12  1  0.629306  0.123565  0.123565  1
  Zn  Zn13  1  0.370694  0.876435  0.876435  1
  Zn  Zn14  1  0.500000  0.000000  0.000000  1
  Zn  Zn15  1  0.000000  0.500000  0.500000  1
  Zn  Zn16  1  0.000000  0.500000  0.000000  1
  Zn  Zn17  1  0.500000  0.000000  0.500000  1
  Zn  Zn18  1  0.000000  0.000000  0.500000  1
  Zn  Zn19  1  0.500000  0.500000  0.000000  1
  Zn  Zn20  1  0.334638  0.334638  0.334638  1
  Zn  Zn21  1  0.665362  0.665362  0.665362  1
  Zn  Zn22  1  0.334638  0.334638  0.996088  1
  Zn  Zn23  1  0.334638  0.996088  0.334638  1
  Zn  Zn24  1  0.665362  0.665362  0.003912  1
  Zn  Zn25  1  0.665362  0.003912  0.665362  1
  Zn  Zn26  1  0.996088  0.334638  0.334638  1
  Zn  Zn27  1  0.003912  0.665362  0.665362  1
  Zn  Zn28  1  0.000000  0.000000  0.000000  1
  As  As29  1  0.500000  0.500000  0.500000  1
