# generated using pymatgen
data_Yb8SmThRu4
_symmetry_space_group_name_H-M   'P 1'
_cell_length_a   8.63985907
_cell_length_b   8.63985984
_cell_length_c   7.31212030
_cell_angle_alpha   82.34194117
_cell_angle_beta   82.34194321
_cell_angle_gamma   43.91863934
_symmetry_Int_Tables_number   1
_chemical_formula_structural   Yb8SmThRu4
_chemical_formula_sum   'Yb8 Sm1 Th1 Ru4'
_cell_volume   374.67819034
_cell_formula_units_Z   1
loop_
 _symmetry_equiv_pos_site_id
 _symmetry_equiv_pos_as_xyz
  1  'x, y, z'
loop_
 _atom_site_type_symbol
 _atom_site_label
 _atom_site_symmetry_multiplicity
 _atom_site_fract_x
 _atom_site_fract_y
 _atom_site_fract_z
 _atom_site_occupancy
  Yb  Yb0  1  0.025101  0.799213  0.920360  1
  Yb  Yb1  1  0.200787  0.974899  0.579640  1
  Yb  Yb2  1  0.975916  0.199411  0.083189  1
  Yb  Yb3  1  0.800589  0.024084  0.416811  1
  Yb  Yb4  1  0.357635  0.203195  0.818778  1
  Yb  Yb5  1  0.796805  0.642365  0.681222  1
  Yb  Yb6  1  0.635984  0.793683  0.178889  1
  Yb  Yb7  1  0.206317  0.364016  0.321111  1
  Sm  Sm8  1  0.430906  0.569094  0.250000  1
  Th  Th9  1  0.571679  0.428321  0.750000  1
  Ru  Ru10  1  0.190115  0.594474  0.576073  1
  Ru  Ru11  1  0.405526  0.809885  0.923927  1
  Ru  Ru12  1  0.804758  0.402118  0.446689  1
  Ru  Ru13  1  0.597882  0.195242  0.053311  1
