# generated using pymatgen
data_Tb4Al18Pd4RuRh
_symmetry_space_group_name_H-M   'P 1'
_cell_length_a   7.63236066
_cell_length_b   7.63239698
_cell_length_c   9.50246263
_cell_angle_alpha   89.91569924
_cell_angle_beta   89.91620134
_cell_angle_gamma   119.69381909
_symmetry_Int_Tables_number   1
_chemical_formula_structural   Tb4Al18Pd4RuRh
_chemical_formula_sum   'Tb4 Al18 Pd4 Ru1 Rh1'
_cell_volume   480.85756778
_cell_formula_units_Z   1
loop_
 _symmetry_equiv_pos_site_id
 _symmetry_equiv_pos_as_xyz
  1  'x, y, z'
loop_
 _atom_site_type_symbol
 _atom_site_label
 _atom_site_symmetry_multiplicity
 _atom_site_fract_x
 _atom_site_fract_y
 _atom_site_fract_z
 _atom_site_occupancy
  Tb  Tb0  1  0.995066  0.670058  0.250604  1
  Tb  Tb1  1  0.005844  0.330697  0.749525  1
  Tb  Tb2  1  0.669296  0.994153  0.250472  1
  Tb  Tb3  1  0.329944  0.004936  0.749397  1
  Al  Al4  1  0.128565  0.129770  0.253498  1
  Al  Al5  1  0.870229  0.871434  0.746503  1
  Al  Al6  1  0.001065  0.334376  0.077865  1
  Al  Al7  1  0.998470  0.665729  0.921701  1
  Al  Al8  1  0.995063  0.663306  0.573297  1
  Al  Al9  1  0.336694  0.004938  0.426703  1
  Al  Al10  1  0.993838  0.330412  0.426347  1
  Al  Al11  1  0.669586  0.006160  0.573652  1
  Al  Al12  1  0.665622  0.998933  0.922134  1
  Al  Al13  1  0.334272  0.001529  0.078296  1
  Al  Al14  1  0.334323  0.328975  0.550562  1
  Al  Al15  1  0.671022  0.665674  0.449437  1
  Al  Al16  1  0.665623  0.665747  0.057195  1
  Al  Al17  1  0.334254  0.334378  0.942804  1
  Al  Al18  1  0.339165  0.545952  0.251350  1
  Al  Al19  1  0.659802  0.451043  0.744890  1
  Al  Al20  1  0.548956  0.340198  0.255109  1
  Al  Al21  1  0.454048  0.660836  0.748649  1
  Pd  Pd22  1  0.672097  0.327899  0.000001  1
  Pd  Pd23  1  0.327456  0.672543  0.000000  1
  Pd  Pd24  1  0.327583  0.672416  0.500001  1
  Pd  Pd25  1  0.999933  0.000071  0.000000  1
  Ru  Ru26  1  0.671884  0.328120  0.500000  1
  Rh  Rh27  1  0.000302  0.999718  0.500008  1
