# generated using pymatgen
data_Lu8InHg3
_symmetry_space_group_name_H-M   'P 1'
_cell_length_a   5.05989300
_cell_length_b   6.78947248
_cell_length_c   9.16837796
_cell_angle_alpha   89.73941852
_cell_angle_beta   90.00000000
_cell_angle_gamma   90.00000000
_symmetry_Int_Tables_number   1
_chemical_formula_structural   Lu8InHg3
_chemical_formula_sum   'Lu8 In1 Hg3'
_cell_volume   314.96723809
_cell_formula_units_Z   1
loop_
 _symmetry_equiv_pos_site_id
 _symmetry_equiv_pos_as_xyz
  1  'x, y, z'
loop_
 _atom_site_type_symbol
 _atom_site_label
 _atom_site_symmetry_multiplicity
 _atom_site_fract_x
 _atom_site_fract_y
 _atom_site_fract_z
 _atom_site_occupancy
  Lu  Lu0  1  0.250000  0.822657  0.927617  1
  Lu  Lu1  1  0.250000  0.331880  0.577833  1
  Lu  Lu2  1  0.750000  0.169844  0.064556  1
  Lu  Lu3  1  0.750000  0.687697  0.427556  1
  Lu  Lu4  1  0.250000  0.977839  0.295032  1
  Lu  Lu5  1  0.250000  0.477085  0.203612  1
  Lu  Lu6  1  0.750000  0.019076  0.705266  1
  Lu  Lu7  1  0.750000  0.520545  0.799904  1
  In  In8  1  0.750000  0.226036  0.395530  1
  Hg  Hg9  1  0.250000  0.266805  0.899216  1
  Hg  Hg10  1  0.250000  0.772671  0.602144  1
  Hg  Hg11  1  0.750000  0.727864  0.101734  1
