# generated using pymatgen
data_Rb2Nb3Br7O5
_symmetry_space_group_name_H-M   'P 1'
_cell_length_a   10.28045734
_cell_length_b   10.28045704
_cell_length_c   11.60903512
_cell_angle_alpha   71.94575062
_cell_angle_beta   71.94574966
_cell_angle_gamma   51.94319845
_symmetry_Int_Tables_number   1
_chemical_formula_structural   Rb2Nb3Br7O5
_chemical_formula_sum   'Rb4 Nb6 Br14 O10'
_cell_volume   906.86755049
_cell_formula_units_Z   2
loop_
 _symmetry_equiv_pos_site_id
 _symmetry_equiv_pos_as_xyz
  1  'x, y, z'
loop_
 _atom_site_type_symbol
 _atom_site_label
 _atom_site_symmetry_multiplicity
 _atom_site_fract_x
 _atom_site_fract_y
 _atom_site_fract_z
 _atom_site_occupancy
  Rb  Rb0  1  0.758917  0.848849  0.856161  1
  Rb  Rb1  1  0.151151  0.241083  0.643839  1
  Rb  Rb2  1  0.241083  0.151151  0.143839  1
  Rb  Rb3  1  0.848849  0.758917  0.356161  1
  Nb  Nb4  1  0.215203  0.788832  0.524201  1
  Nb  Nb5  1  0.211168  0.784797  0.975799  1
  Nb  Nb6  1  0.784797  0.211168  0.475799  1
  Nb  Nb7  1  0.788832  0.215203  0.024201  1
  Nb  Nb8  1  0.468872  0.531128  0.250000  1
  Nb  Nb9  1  0.531128  0.468872  0.750000  1
  Br  Br10  1  0.064355  0.638457  0.619626  1
  Br  Br11  1  0.361543  0.935645  0.880374  1
  Br  Br12  1  0.935645  0.361543  0.380374  1
  Br  Br13  1  0.638457  0.064355  0.119626  1
  Br  Br14  1  0.365547  0.936517  0.454238  1
  Br  Br15  1  0.063483  0.634453  0.045762  1
  Br  Br16  1  0.634453  0.063483  0.545762  1
  Br  Br17  1  0.936517  0.365547  0.954238  1
  Br  Br18  1  0.289130  0.416478  0.329742  1
  Br  Br19  1  0.583522  0.710870  0.170258  1
  Br  Br20  1  0.710870  0.583522  0.670258  1
  Br  Br21  1  0.416478  0.289130  0.829742  1
  Br  Br22  1  0.076907  0.923093  0.750000  1
  Br  Br23  1  0.923093  0.076907  0.250000  1
  O  O24  1  0.295140  0.706225  0.381532  1
  O  O25  1  0.293775  0.704860  0.118468  1
  O  O26  1  0.704860  0.293775  0.618468  1
  O  O27  1  0.706225  0.295140  0.881532  1
  O  O28  1  0.393034  0.608615  0.629153  1
  O  O29  1  0.391385  0.606966  0.870847  1
  O  O30  1  0.606966  0.391385  0.370847  1
  O  O31  1  0.608615  0.393034  0.129153  1
  O  O32  1  0.000000  0.000000  0.500000  1
  O  O33  1  0.000000  0.000000  0.000000  1
