# generated using pymatgen
data_Ca3YbYIr2
_symmetry_space_group_name_H-M   'P 1'
_cell_length_a   6.61131621
_cell_length_b   7.39256121
_cell_length_c   8.64726623
_cell_angle_alpha   97.30071863
_cell_angle_beta   112.47486912
_cell_angle_gamma   89.99999927
_symmetry_Int_Tables_number   1
_chemical_formula_structural   Ca3YbYIr2
_chemical_formula_sum   'Ca6 Yb2 Y2 Ir4'
_cell_volume   386.82077408
_cell_formula_units_Z   2
loop_
 _symmetry_equiv_pos_site_id
 _symmetry_equiv_pos_as_xyz
  1  'x, y, z'
loop_
 _atom_site_type_symbol
 _atom_site_label
 _atom_site_symmetry_multiplicity
 _atom_site_fract_x
 _atom_site_fract_y
 _atom_site_fract_z
 _atom_site_occupancy
  Ca  Ca0  1  0.023092  0.080019  0.827427  1
  Ca  Ca1  1  0.195666  0.419981  0.172573  1
  Ca  Ca2  1  0.642675  0.820229  0.436511  1
  Ca  Ca3  1  0.206164  0.679771  0.563489  1
  Ca  Ca4  1  0.357559  0.179590  0.563718  1
  Ca  Ca5  1  0.793841  0.320410  0.436282  1
  Yb  Yb6  1  0.976256  0.918542  0.171472  1
  Yb  Yb7  1  0.804783  0.581458  0.828528  1
  Y  Y8  1  0.437654  0.750000  0.000000  1
  Y  Y9  1  0.562863  0.250000  0.000000  1
  Ir  Ir10  1  0.811341  0.576588  0.208070  1
  Ir  Ir11  1  0.603270  0.923412  0.791930  1
  Ir  Ir12  1  0.187883  0.427006  0.790930  1
  Ir  Ir13  1  0.396953  0.072994  0.209070  1
