# generated using pymatgen
data_Cs(USe2)3
_symmetry_space_group_name_H-M   'P 1'
_cell_length_a   7.15555351
_cell_length_b   7.15555282
_cell_length_c   9.30857981
_cell_angle_alpha   97.37911428
_cell_angle_beta   97.37911098
_cell_angle_gamma   119.97850544
_symmetry_Int_Tables_number   1
_chemical_formula_structural   Cs(USe2)3
_chemical_formula_sum   'Cs1 U3 Se6'
_cell_volume   399.00861220
_cell_formula_units_Z   1
loop_
 _symmetry_equiv_pos_site_id
 _symmetry_equiv_pos_as_xyz
  1  'x, y, z'
loop_
 _atom_site_type_symbol
 _atom_site_label
 _atom_site_symmetry_multiplicity
 _atom_site_fract_x
 _atom_site_fract_y
 _atom_site_fract_z
 _atom_site_occupancy
  Cs  Cs0  1  0.000000  0.000000  0.500000  1
  U  U1  1  0.832743  0.167257  0.000000  1
  U  U2  1  0.500000  0.500000  0.000000  1
  U  U3  1  0.167257  0.832743  0.000000  1
  Se  Se4  1  0.222984  0.222984  0.175351  1
  Se  Se5  1  0.893821  0.559153  0.176114  1
  Se  Se6  1  0.559153  0.893821  0.176114  1
  Se  Se7  1  0.440847  0.106179  0.823887  1
  Se  Se8  1  0.106179  0.440847  0.823887  1
  Se  Se9  1  0.777018  0.777018  0.824650  1
