# generated using pymatgen
data_Er10GePb6Au
_symmetry_space_group_name_H-M   'P 1'
_cell_length_a   9.17594500
_cell_length_b   9.17594534
_cell_length_c   6.72291800
_cell_angle_alpha   90.00000000
_cell_angle_beta   90.00000000
_cell_angle_gamma   120.00000959
_symmetry_Int_Tables_number   1
_chemical_formula_structural   Er10GePb6Au
_chemical_formula_sum   'Er10 Ge1 Pb6 Au1'
_cell_volume   490.21886883
_cell_formula_units_Z   1
loop_
 _symmetry_equiv_pos_site_id
 _symmetry_equiv_pos_as_xyz
  1  'x, y, z'
loop_
 _atom_site_type_symbol
 _atom_site_label
 _atom_site_symmetry_multiplicity
 _atom_site_fract_x
 _atom_site_fract_y
 _atom_site_fract_z
 _atom_site_occupancy
  Er  Er0  1  0.254345  0.000000  0.263801  1
  Er  Er1  1  0.745655  0.000000  0.736199  1
  Er  Er2  1  0.000000  0.254345  0.263801  1
  Er  Er3  1  0.000000  0.745655  0.736199  1
  Er  Er4  1  0.745655  0.745655  0.263801  1
  Er  Er5  1  0.254345  0.254345  0.736199  1
  Er  Er6  1  0.333333  0.666667  0.000000  1
  Er  Er7  1  0.666667  0.333333  0.000000  1
  Er  Er8  1  0.666667  0.333333  0.500000  1
  Er  Er9  1  0.333333  0.666667  0.500000  1
  Ge  Ge10  1  0.000000  0.000000  0.500000  1
  Pb  Pb11  1  0.606785  0.000000  0.249984  1
  Pb  Pb12  1  0.393215  0.000000  0.750016  1
  Pb  Pb13  1  0.000000  0.606785  0.249984  1
  Pb  Pb14  1  0.000000  0.393215  0.750016  1
  Pb  Pb15  1  0.393215  0.393215  0.249984  1
  Pb  Pb16  1  0.606785  0.606785  0.750016  1
  Au  Au17  1  0.000000  0.000000  0.000000  1
