# generated using pymatgen
data_PrNd7SiPd24
_symmetry_space_group_name_H-M   'P 1'
_cell_length_a   8.47340402
_cell_length_b   8.47340402
_cell_length_c   8.47340402
_cell_angle_alpha   90.00569333
_cell_angle_beta   90.00569333
_cell_angle_gamma   90.00569333
_symmetry_Int_Tables_number   1
_chemical_formula_structural   PrNd7SiPd24
_chemical_formula_sum   'Pr1 Nd7 Si1 Pd24'
_cell_volume   608.37833104
_cell_formula_units_Z   1
loop_
 _symmetry_equiv_pos_site_id
 _symmetry_equiv_pos_as_xyz
  1  'x, y, z'
loop_
 _atom_site_type_symbol
 _atom_site_label
 _atom_site_symmetry_multiplicity
 _atom_site_fract_x
 _atom_site_fract_y
 _atom_site_fract_z
 _atom_site_occupancy
  Pr  Pr0  1  0.253423  0.253423  0.253423  1
  Nd  Nd1  1  0.746538  0.746538  0.746538  1
  Nd  Nd2  1  0.746565  0.746565  0.253449  1
  Nd  Nd3  1  0.746565  0.253449  0.746565  1
  Nd  Nd4  1  0.253461  0.253461  0.746515  1
  Nd  Nd5  1  0.253461  0.746515  0.253461  1
  Nd  Nd6  1  0.253449  0.746565  0.746565  1
  Nd  Nd7  1  0.746515  0.253461  0.253461  1
  Si  Si8  1  0.999968  0.999968  0.999968  1
  Pd  Pd9  1  0.256688  0.500305  0.999683  1
  Pd  Pd10  1  0.743307  0.499990  0.999997  1
  Pd  Pd11  1  0.999683  0.256688  0.500305  1
  Pd  Pd12  1  0.500305  0.256688  0.999683  1
  Pd  Pd13  1  0.999997  0.743307  0.499990  1
  Pd  Pd14  1  0.499990  0.743307  0.999997  1
  Pd  Pd15  1  0.500305  0.999683  0.256688  1
  Pd  Pd16  1  0.256688  0.999683  0.500305  1
  Pd  Pd17  1  0.499990  0.999997  0.743307  1
  Pd  Pd18  1  0.743307  0.999997  0.499990  1
  Pd  Pd19  1  0.999683  0.500305  0.256688  1
  Pd  Pd20  1  0.999997  0.499990  0.743307  1
  Pd  Pd21  1  0.251519  0.500350  0.500350  1
  Pd  Pd22  1  0.748470  0.500004  0.500004  1
  Pd  Pd23  1  0.500350  0.251519  0.500350  1
  Pd  Pd24  1  0.500004  0.748470  0.500004  1
  Pd  Pd25  1  0.500350  0.500350  0.251519  1
  Pd  Pd26  1  0.500004  0.500004  0.748470  1
  Pd  Pd27  1  0.280130  0.999683  0.999683  1
  Pd  Pd28  1  0.719902  0.000010  0.000010  1
  Pd  Pd29  1  0.999683  0.280130  0.999683  1
  Pd  Pd30  1  0.000010  0.719902  0.000010  1
  Pd  Pd31  1  0.999683  0.999683  0.280130  1
  Pd  Pd32  1  0.000010  0.000010  0.719902  1
