# generated using pymatgen
data_Sm8Sc12Si15Ru
_symmetry_space_group_name_H-M   'P 1'
_cell_length_a   7.16353490
_cell_length_b   7.51491392
_cell_length_c   14.09714100
_cell_angle_alpha   90.00000000
_cell_angle_beta   90.00000000
_cell_angle_gamma   90.16825873
_symmetry_Int_Tables_number   1
_chemical_formula_structural   Sm8Sc12Si15Ru
_chemical_formula_sum   'Sm8 Sc12 Si15 Ru1'
_cell_volume   758.89302649
_cell_formula_units_Z   1
loop_
 _symmetry_equiv_pos_site_id
 _symmetry_equiv_pos_as_xyz
  1  'x, y, z'
loop_
 _atom_site_type_symbol
 _atom_site_label
 _atom_site_symmetry_multiplicity
 _atom_site_fract_x
 _atom_site_fract_y
 _atom_site_fract_z
 _atom_site_occupancy
  Sm  Sm0  1  0.011457  0.177138  0.096646  1
  Sm  Sm1  1  0.990776  0.827871  0.902805  1
  Sm  Sm2  1  0.488324  0.674500  0.903273  1
  Sm  Sm3  1  0.990776  0.827871  0.597195  1
  Sm  Sm4  1  0.511138  0.324718  0.096516  1
  Sm  Sm5  1  0.011457  0.177138  0.403354  1
  Sm  Sm6  1  0.511138  0.324718  0.403484  1
  Sm  Sm7  1  0.488324  0.674500  0.596727  1
  Sc  Sc8  1  0.155414  0.495024  0.750000  1
  Sc  Sc9  1  0.839026  0.497349  0.250000  1
  Sc  Sc10  1  0.338792  0.003244  0.250000  1
  Sc  Sc11  1  0.669427  0.001845  0.750000  1
  Sc  Sc12  1  0.317878  0.172008  0.627741  1
  Sc  Sc13  1  0.671679  0.825691  0.374011  1
  Sc  Sc14  1  0.171535  0.677331  0.374259  1
  Sc  Sc15  1  0.671679  0.825691  0.125989  1
  Sc  Sc16  1  0.836593  0.319198  0.627577  1
  Sc  Sc17  1  0.317878  0.172008  0.872259  1
  Sc  Sc18  1  0.836593  0.319198  0.872423  1
  Sc  Sc19  1  0.171535  0.677331  0.125741  1
  Si  Si20  1  0.967935  0.879368  0.250000  1
  Si  Si21  1  0.468363  0.618987  0.250000  1
  Si  Si22  1  0.529928  0.384632  0.750000  1
  Si  Si23  1  0.287894  0.873862  0.750000  1
  Si  Si24  1  0.711966  0.124362  0.250000  1
  Si  Si25  1  0.212957  0.375728  0.250000  1
  Si  Si26  1  0.780526  0.622905  0.750000  1
  Si  Si27  1  0.156244  0.467819  0.537537  1
  Si  Si28  1  0.847318  0.536966  0.461377  1
  Si  Si29  1  0.347393  0.964458  0.460137  1
  Si  Si30  1  0.847318  0.536966  0.038623  1
  Si  Si31  1  0.653451  0.035110  0.538676  1
  Si  Si32  1  0.156244  0.467819  0.962463  1
  Si  Si33  1  0.653451  0.035110  0.961324  1
  Si  Si34  1  0.347393  0.964458  0.039863  1
  Ru  Ru35  1  0.030199  0.117076  0.750000  1
