# generated using pymatgen
data_Ce4Ga12Co
_symmetry_space_group_name_H-M   'P 1'
_cell_length_a   7.53760115
_cell_length_b   7.53769712
_cell_length_c   7.53765100
_cell_angle_alpha   109.47149637
_cell_angle_beta   109.47115635
_cell_angle_gamma   109.47140398
_symmetry_Int_Tables_number   1
_chemical_formula_structural   Ce4Ga12Co
_chemical_formula_sum   'Ce4 Ga12 Co1'
_cell_volume   329.67335994
_cell_formula_units_Z   1
loop_
 _symmetry_equiv_pos_site_id
 _symmetry_equiv_pos_as_xyz
  1  'x, y, z'
loop_
 _atom_site_type_symbol
 _atom_site_label
 _atom_site_symmetry_multiplicity
 _atom_site_fract_x
 _atom_site_fract_y
 _atom_site_fract_z
 _atom_site_occupancy
  Ce  Ce0  1  0.500000  0.500000  0.500000  1
  Ce  Ce1  1  0.000000  0.500000  0.000000  1
  Ce  Ce2  1  0.000000  0.000000  0.500000  1
  Ce  Ce3  1  0.500000  0.000000  0.000000  1
  Ga  Ga4  1  0.750010  0.250001  0.500009  1
  Ga  Ga5  1  0.000000  0.283853  0.283854  1
  Ga  Ga6  1  0.283845  0.283852  0.999992  1
  Ga  Ga7  1  0.716155  0.000007  0.716147  1
  Ga  Ga8  1  0.500000  0.250000  0.750000  1
  Ga  Ga9  1  0.750010  0.500009  0.250001  1
  Ga  Ga10  1  0.249990  0.749999  0.499991  1
  Ga  Ga11  1  0.249990  0.499991  0.749999  1
  Ga  Ga12  1  0.283845  0.999993  0.283853  1
  Ga  Ga13  1  0.500000  0.750000  0.250000  1
  Ga  Ga14  1  0.716155  0.716148  0.000008  1
  Ga  Ga15  1  0.000000  0.716147  0.716146  1
  Co  Co16  1  0.000000  0.000000  0.000000  1
