# generated using pymatgen
data_TbPb4W3O13
_symmetry_space_group_name_H-M   'P 1'
_cell_length_a   7.62360004
_cell_length_b   7.62359903
_cell_length_c   7.62359900
_cell_angle_alpha   60.47810581
_cell_angle_beta   60.47811009
_cell_angle_gamma   60.47810007
_symmetry_Int_Tables_number   1
_chemical_formula_structural   TbPb4W3O13
_chemical_formula_sum   'Tb1 Pb4 W3 O13'
_cell_volume   316.68923192
_cell_formula_units_Z   1
loop_
 _symmetry_equiv_pos_site_id
 _symmetry_equiv_pos_as_xyz
  1  'x, y, z'
loop_
 _atom_site_type_symbol
 _atom_site_label
 _atom_site_symmetry_multiplicity
 _atom_site_fract_x
 _atom_site_fract_y
 _atom_site_fract_z
 _atom_site_occupancy
  Tb  Tb0  1  0.501223  0.501223  0.501223  1
  Pb  Pb1  1  0.996731  0.996731  0.996731  1
  Pb  Pb2  1  0.495279  0.002863  0.002863  1
  Pb  Pb3  1  0.002863  0.002863  0.495279  1
  Pb  Pb4  1  0.002863  0.495279  0.002863  1
  W  W5  1  0.001519  0.500216  0.500216  1
  W  W6  1  0.500216  0.500216  0.001519  1
  W  W7  1  0.500216  0.001519  0.500216  1
  O  O8  1  0.858522  0.414203  0.414203  1
  O  O9  1  0.418315  0.815438  0.815438  1
  O  O10  1  0.414203  0.414203  0.858522  1
  O  O11  1  0.815438  0.815438  0.418315  1
  O  O12  1  0.815438  0.418315  0.815438  1
  O  O13  1  0.414203  0.858522  0.414203  1
  O  O14  1  0.148053  0.581822  0.581822  1
  O  O15  1  0.581287  0.186684  0.186684  1
  O  O16  1  0.581822  0.581822  0.148053  1
  O  O17  1  0.186684  0.186684  0.581287  1
  O  O18  1  0.186684  0.581287  0.186684  1
  O  O19  1  0.581822  0.148053  0.581822  1
  O  O20  1  0.121618  0.121618  0.121618  1
