# generated using pymatgen
data_Tb2TaMoO8
_symmetry_space_group_name_H-M   'P 1'
_cell_length_a   5.52777300
_cell_length_b   5.17758326
_cell_length_c   5.35531435
_cell_angle_alpha   83.32022289
_cell_angle_beta   90.00000000
_cell_angle_gamma   90.00000000
_symmetry_Int_Tables_number   1
_chemical_formula_structural   Tb2TaMoO8
_chemical_formula_sum   'Tb2 Ta1 Mo1 O8'
_cell_volume   152.23135620
_cell_formula_units_Z   1
loop_
 _symmetry_equiv_pos_site_id
 _symmetry_equiv_pos_as_xyz
  1  'x, y, z'
loop_
 _atom_site_type_symbol
 _atom_site_label
 _atom_site_symmetry_multiplicity
 _atom_site_fract_x
 _atom_site_fract_y
 _atom_site_fract_z
 _atom_site_occupancy
  Tb  Tb0  1  0.764971  0.000000  0.750000  1
  Tb  Tb1  1  0.237260  0.000000  0.250000  1
  Ta  Ta2  1  0.308536  0.500000  0.750000  1
  Mo  Mo3  1  0.694971  0.500000  0.250000  1
  O  O4  1  0.564139  0.266724  0.010254  1
  O  O5  1  0.564139  0.733276  0.489746  1
  O  O6  1  0.435253  0.731317  0.992121  1
  O  O7  1  0.435253  0.268683  0.507879  1
  O  O8  1  0.086713  0.749670  0.603217  1
  O  O9  1  0.086713  0.250330  0.896783  1
  O  O10  1  0.911026  0.244507  0.394567  1
  O  O11  1  0.911026  0.755493  0.105433  1
