# generated using pymatgen
data_Y2Ga9Tc2Ru3
_symmetry_space_group_name_H-M   'P 1'
_cell_length_a   8.02707680
_cell_length_b   8.02707637
_cell_length_c   8.02707718
_cell_angle_alpha   134.36634136
_cell_angle_beta   134.36633184
_cell_angle_gamma   66.51638125
_symmetry_Int_Tables_number   1
_chemical_formula_structural   Y2Ga9Tc2Ru3
_chemical_formula_sum   'Y2 Ga9 Tc2 Ru3'
_cell_volume   260.15462579
_cell_formula_units_Z   1
loop_
 _symmetry_equiv_pos_site_id
 _symmetry_equiv_pos_as_xyz
  1  'x, y, z'
loop_
 _atom_site_type_symbol
 _atom_site_label
 _atom_site_symmetry_multiplicity
 _atom_site_fract_x
 _atom_site_fract_y
 _atom_site_fract_z
 _atom_site_occupancy
  Y  Y0  1  0.000000  0.500000  0.500000  1
  Y  Y1  1  0.500000  0.000000  0.500000  1
  Ga  Ga2  1  0.438681  0.858410  0.000000  1
  Ga  Ga3  1  0.141590  0.141590  0.580270  1
  Ga  Ga4  1  0.858410  0.438681  0.000000  1
  Ga  Ga5  1  0.858410  0.858410  0.419730  1
  Ga  Ga6  1  0.561319  0.141590  0.000000  1
  Ga  Ga7  1  0.141590  0.561319  0.000000  1
  Ga  Ga8  1  0.561319  0.561319  0.419730  1
  Ga  Ga9  1  0.000000  0.000000  0.000000  1
  Ga  Ga10  1  0.438681  0.438681  0.580270  1
  Tc  Tc11  1  0.181989  0.181989  0.000000  1
  Tc  Tc12  1  0.818011  0.818011  0.000000  1
  Ru  Ru13  1  0.250000  0.750000  0.500000  1
  Ru  Ru14  1  0.750000  0.250000  0.500000  1
  Ru  Ru15  1  0.500000  0.500000  0.000000  1
