# generated using pymatgen
data_LaCoNiSbAs
_symmetry_space_group_name_H-M   'P 1'
_cell_length_a   4.35498800
_cell_length_b   4.35498800
_cell_length_c   9.80624500
_cell_angle_alpha   90.00000000
_cell_angle_beta   90.00000000
_cell_angle_gamma   90.00000000
_symmetry_Int_Tables_number   1
_chemical_formula_structural   LaCoNiSbAs
_chemical_formula_sum   'La2 Co2 Ni2 Sb2 As2'
_cell_volume   185.98446288
_cell_formula_units_Z   2
loop_
 _symmetry_equiv_pos_site_id
 _symmetry_equiv_pos_as_xyz
  1  'x, y, z'
loop_
 _atom_site_type_symbol
 _atom_site_label
 _atom_site_symmetry_multiplicity
 _atom_site_fract_x
 _atom_site_fract_y
 _atom_site_fract_z
 _atom_site_occupancy
  La  La0  1  0.000000  0.500000  0.764035  1
  La  La1  1  0.500000  0.000000  0.235965  1
  Co  Co2  1  0.000000  0.500000  0.099953  1
  Co  Co3  1  0.500000  0.000000  0.900047  1
  Ni  Ni4  1  0.000000  0.000000  0.500000  1
  Ni  Ni5  1  0.500000  0.500000  0.500000  1
  Sb  Sb6  1  0.000000  0.500000  0.361058  1
  Sb  Sb7  1  0.500000  0.000000  0.638942  1
  As  As8  1  0.000000  0.000000  0.000000  1
  As  As9  1  0.500000  0.500000  0.000000  1
