# generated using pymatgen
data_SmTh4Zr3(Ni4As3)4
_symmetry_space_group_name_H-M   'P 1'
_cell_length_a   12.82838900
_cell_length_b   12.82838859
_cell_length_c   4.01342900
_cell_angle_alpha   90.00000000
_cell_angle_beta   90.00000000
_cell_angle_gamma   120.00000364
_symmetry_Int_Tables_number   1
_chemical_formula_structural   SmTh4Zr3(Ni4As3)4
_chemical_formula_sum   'Sm1 Th4 Zr3 Ni16 As12'
_cell_volume   571.99262303
_cell_formula_units_Z   1
loop_
 _symmetry_equiv_pos_site_id
 _symmetry_equiv_pos_as_xyz
  1  'x, y, z'
loop_
 _atom_site_type_symbol
 _atom_site_label
 _atom_site_symmetry_multiplicity
 _atom_site_fract_x
 _atom_site_fract_y
 _atom_site_fract_z
 _atom_site_occupancy
  Sm  Sm0  1  0.333333  0.666667  0.000000  1
  Th  Th1  1  0.189109  0.189173  0.500000  1
  Th  Th2  1  0.810827  0.999936  0.500000  1
  Th  Th3  1  0.000064  0.810891  0.500000  1
  Th  Th4  1  0.666667  0.333333  0.000000  1
  Zr  Zr5  1  0.571197  0.572602  0.000000  1
  Zr  Zr6  1  0.427398  0.998595  0.000000  1
  Zr  Zr7  1  0.001405  0.428803  0.000000  1
  Ni  Ni8  1  0.726084  0.726651  0.500000  1
  Ni  Ni9  1  0.273349  0.999434  0.500000  1
  Ni  Ni10  1  0.000566  0.273916  0.500000  1
  Ni  Ni11  1  0.186303  0.375688  0.000000  1
  Ni  Ni12  1  0.624312  0.810614  0.000000  1
  Ni  Ni13  1  0.189386  0.813697  0.000000  1
  Ni  Ni14  1  0.810829  0.624166  0.000000  1
  Ni  Ni15  1  0.813336  0.189171  0.000000  1
  Ni  Ni16  1  0.375834  0.186664  0.000000  1
  Ni  Ni17  1  0.367185  0.486077  0.500000  1
  Ni  Ni18  1  0.513923  0.881109  0.500000  1
  Ni  Ni19  1  0.118891  0.632815  0.500000  1
  Ni  Ni20  1  0.880623  0.513499  0.500000  1
  Ni  Ni21  1  0.632877  0.119377  0.500000  1
  Ni  Ni22  1  0.486501  0.367123  0.500000  1
  Ni  Ni23  1  0.000000  0.000000  0.000000  1
  As  As24  1  0.819205  0.819323  0.000000  1
  As  As25  1  0.180677  0.999882  0.000000  1
  As  As26  1  0.000118  0.180795  0.000000  1
  As  As27  1  0.173907  0.476296  0.500000  1
  As  As28  1  0.523704  0.697612  0.500000  1
  As  As29  1  0.302388  0.826093  0.500000  1
  As  As30  1  0.696990  0.525941  0.500000  1
  As  As31  1  0.828951  0.303010  0.500000  1
  As  As32  1  0.474059  0.171049  0.500000  1
  As  As33  1  0.367065  0.367418  0.000000  1
  As  As34  1  0.632582  0.999647  0.000000  1
  As  As35  1  0.000353  0.632935  0.000000  1
