# generated using pymatgen
data_Yb9Pr(TaN5)2
_symmetry_space_group_name_H-M   'P 1'
_cell_length_a   7.01424950
_cell_length_b   6.95521569
_cell_length_c   8.95262500
_cell_angle_alpha   80.93913796
_cell_angle_beta   80.70084859
_cell_angle_gamma   59.65023358
_symmetry_Int_Tables_number   1
_chemical_formula_structural   Yb9Pr(TaN5)2
_chemical_formula_sum   'Yb9 Pr1 Ta2 N10'
_cell_volume   370.47360068
_cell_formula_units_Z   1
loop_
 _symmetry_equiv_pos_site_id
 _symmetry_equiv_pos_as_xyz
  1  'x, y, z'
loop_
 _atom_site_type_symbol
 _atom_site_label
 _atom_site_symmetry_multiplicity
 _atom_site_fract_x
 _atom_site_fract_y
 _atom_site_fract_z
 _atom_site_occupancy
  Yb  Yb0  1  0.874188  0.868426  0.825624  1
  Yb  Yb1  1  0.738339  0.739832  0.522478  1
  Yb  Yb2  1  0.752544  0.248766  0.502846  1
  Yb  Yb3  1  0.618317  0.136417  0.154491  1
  Yb  Yb4  1  0.367444  0.870985  0.839353  1
  Yb  Yb5  1  0.252047  0.754755  0.508238  1
  Yb  Yb6  1  0.243309  0.243111  0.490046  1
  Yb  Yb7  1  0.144341  0.137813  0.169996  1
  Yb  Yb8  1  0.133523  0.625601  0.154104  1
  Pr  Pr9  1  0.883765  0.346598  0.838818  1
  Ta  Ta10  1  0.630244  0.631987  0.221329  1
  Ta  Ta11  1  0.373665  0.366181  0.773969  1
  N  N12  1  0.912041  0.465563  0.321529  1
  N  N13  1  0.992071  0.006012  0.014861  1
  N  N14  1  0.678923  0.691007  0.000562  1
  N  N15  1  0.537140  0.535134  0.694016  1
  N  N16  1  0.466225  0.913601  0.326351  1
  N  N17  1  0.540364  0.083006  0.676227  1
  N  N18  1  0.463132  0.469722  0.294736  1
  N  N19  1  0.312270  0.317919  0.993718  1
  N  N20  1  0.055463  0.074270  0.646368  1
  N  N21  1  0.092936  0.535581  0.676145  1
