# generated using pymatgen
data_Mn9Nb12As3N4
_symmetry_space_group_name_H-M   'P 1'
_cell_length_a   8.09330751
_cell_length_b   8.07332840
_cell_length_c   8.07332800
_cell_angle_alpha   60.00000166
_cell_angle_beta   60.08162859
_cell_angle_gamma   60.08163129
_symmetry_Int_Tables_number   1
_chemical_formula_structural   Mn9Nb12As3N4
_chemical_formula_sum   'Mn9 Nb12 As3 N4'
_cell_volume   373.46595115
_cell_formula_units_Z   1
loop_
 _symmetry_equiv_pos_site_id
 _symmetry_equiv_pos_as_xyz
  1  'x, y, z'
loop_
 _atom_site_type_symbol
 _atom_site_label
 _atom_site_symmetry_multiplicity
 _atom_site_fract_x
 _atom_site_fract_y
 _atom_site_fract_z
 _atom_site_occupancy
  Mn  Mn0  1  0.125000  0.625000  0.625000  1
  Mn  Mn1  1  0.736229  0.421257  0.421257  1
  Mn  Mn2  1  0.417789  0.736248  0.422982  1
  Mn  Mn3  1  0.417789  0.422982  0.736248  1
  Mn  Mn4  1  0.417789  0.422982  0.422982  1
  Mn  Mn5  1  0.513771  0.828743  0.828743  1
  Mn  Mn6  1  0.832211  0.513752  0.827018  1
  Mn  Mn7  1  0.832211  0.827018  0.513752  1
  Mn  Mn8  1  0.832211  0.827018  0.827018  1
  Nb  Nb9  1  0.805177  0.803675  0.195574  1
  Nb  Nb10  1  0.195642  0.198910  0.802724  1
  Nb  Nb11  1  0.805177  0.195574  0.803675  1
  Nb  Nb12  1  0.195642  0.802724  0.198910  1
  Nb  Nb13  1  0.195642  0.802724  0.802724  1
  Nb  Nb14  1  0.805177  0.195574  0.195574  1
  Nb  Nb15  1  0.444823  0.446325  0.054426  1
  Nb  Nb16  1  0.054358  0.051090  0.447276  1
  Nb  Nb17  1  0.444823  0.054426  0.446325  1
  Nb  Nb18  1  0.054358  0.447276  0.051090  1
  Nb  Nb19  1  0.054358  0.447276  0.447276  1
  Nb  Nb20  1  0.444823  0.054426  0.054426  1
  As  As21  1  0.625000  0.125000  0.625000  1
  As  As22  1  0.625000  0.625000  0.125000  1
  As  As23  1  0.625000  0.625000  0.625000  1
  N  N24  1  0.625000  0.125000  0.125000  1
  N  N25  1  0.125000  0.625000  0.125000  1
  N  N26  1  0.125000  0.125000  0.625000  1
  N  N27  1  0.125000  0.125000  0.125000  1
