# generated using pymatgen
data_Gd6LuScO12
_symmetry_space_group_name_H-M   'P 1'
_cell_length_a   6.72801305
_cell_length_b   6.72801258
_cell_length_c   6.72801285
_cell_angle_alpha   92.41946573
_cell_angle_beta   92.41948722
_cell_angle_gamma   92.41948251
_symmetry_Int_Tables_number   1
_chemical_formula_structural   Gd6LuScO12
_chemical_formula_sum   'Gd6 Lu1 Sc1 O12'
_cell_volume   303.71309023
_cell_formula_units_Z   1
loop_
 _symmetry_equiv_pos_site_id
 _symmetry_equiv_pos_as_xyz
  1  'x, y, z'
loop_
 _atom_site_type_symbol
 _atom_site_label
 _atom_site_symmetry_multiplicity
 _atom_site_fract_x
 _atom_site_fract_y
 _atom_site_fract_z
 _atom_site_occupancy
  Gd  Gd0  1  0.744398  0.930789  0.439647  1
  Gd  Gd1  1  0.930789  0.439647  0.744398  1
  Gd  Gd2  1  0.439647  0.744398  0.930789  1
  Gd  Gd3  1  0.255602  0.069211  0.560353  1
  Gd  Gd4  1  0.069211  0.560353  0.255602  1
  Gd  Gd5  1  0.560353  0.255602  0.069211  1
  Lu  Lu6  1  0.000000  0.000000  0.000000  1
  Sc  Sc7  1  0.500000  0.500000  0.500000  1
  O  O8  1  0.591760  0.463742  0.803181  1
  O  O9  1  0.463742  0.803181  0.591760  1
  O  O10  1  0.803181  0.591760  0.463742  1
  O  O11  1  0.408240  0.536258  0.196819  1
  O  O12  1  0.536258  0.196819  0.408240  1
  O  O13  1  0.196819  0.408240  0.536258  1
  O  O14  1  0.068321  0.911047  0.310150  1
  O  O15  1  0.911047  0.310150  0.068321  1
  O  O16  1  0.689850  0.931679  0.088953  1
  O  O17  1  0.088953  0.689850  0.931679  1
  O  O18  1  0.931679  0.088953  0.689850  1
  O  O19  1  0.310150  0.068321  0.911047  1
