# generated using pymatgen
data_Tb5Y5(InSb)4
_symmetry_space_group_name_H-M   'P 1'
_cell_length_a   8.84561208
_cell_length_b   8.83813510
_cell_length_c   8.13750007
_cell_angle_alpha   89.98853802
_cell_angle_beta   90.01504748
_cell_angle_gamma   125.10054716
_symmetry_Int_Tables_number   1
_chemical_formula_structural   Tb5Y5(InSb)4
_chemical_formula_sum   'Tb5 Y5 In4 Sb4'
_cell_volume   520.48639863
_cell_formula_units_Z   1
loop_
 _symmetry_equiv_pos_site_id
 _symmetry_equiv_pos_as_xyz
  1  'x, y, z'
loop_
 _atom_site_type_symbol
 _atom_site_label
 _atom_site_symmetry_multiplicity
 _atom_site_fract_x
 _atom_site_fract_y
 _atom_site_fract_z
 _atom_site_occupancy
  Tb  Tb0  1  0.031689  0.307683  0.334040  1
  Tb  Tb1  1  0.968319  0.692386  0.665921  1
  Tb  Tb2  1  0.468283  0.192314  0.834020  1
  Tb  Tb3  1  0.807663  0.531691  0.165890  1
  Tb  Tb4  1  0.531698  0.807664  0.165909  1
  Y  Y5  1  0.192526  0.468366  0.834266  1
  Y  Y6  1  0.692557  0.968396  0.665821  1
  Y  Y7  1  0.307401  0.031602  0.334231  1
  Y  Y8  1  0.000020  0.000040  0.999971  1
  Y  Y9  1  0.499962  0.499965  0.500032  1
  In  In10  1  0.370719  0.370724  0.127971  1
  In  In11  1  0.629214  0.629264  0.872009  1
  In  In12  1  0.129253  0.129350  0.627989  1
  In  In13  1  0.870741  0.870750  0.372068  1
  Sb  Sb14  1  0.797536  0.202484  0.999702  1
  Sb  Sb15  1  0.202579  0.797453  0.000071  1
  Sb  Sb16  1  0.702356  0.297234  0.499938  1
  Sb  Sb17  1  0.297486  0.702634  0.500150  1
