# generated using pymatgen
data_Y2Ho10OsRh3
_symmetry_space_group_name_H-M   'P 1'
_cell_length_a   6.39711419
_cell_length_b   7.22975850
_cell_length_c   9.19055600
_cell_angle_alpha   90.00000000
_cell_angle_beta   90.00000000
_cell_angle_gamma   90.10828615
_symmetry_Int_Tables_number   1
_chemical_formula_structural   Y2Ho10OsRh3
_chemical_formula_sum   'Y2 Ho10 Os1 Rh3'
_cell_volume   425.05869422
_cell_formula_units_Z   1
loop_
 _symmetry_equiv_pos_site_id
 _symmetry_equiv_pos_as_xyz
  1  'x, y, z'
loop_
 _atom_site_type_symbol
 _atom_site_label
 _atom_site_symmetry_multiplicity
 _atom_site_fract_x
 _atom_site_fract_y
 _atom_site_fract_z
 _atom_site_occupancy
  Y  Y0  1  0.874368  0.536277  0.250000  1
  Y  Y1  1  0.629602  0.034174  0.250000  1
  Ho  Ho2  1  0.332780  0.677074  0.058061  1
  Ho  Ho3  1  0.171569  0.178437  0.437090  1
  Ho  Ho4  1  0.671882  0.323865  0.564771  1
  Ho  Ho5  1  0.824820  0.819011  0.933923  1
  Ho  Ho6  1  0.671882  0.323865  0.935229  1
  Ho  Ho7  1  0.824820  0.819011  0.566077  1
  Ho  Ho8  1  0.332780  0.677074  0.441939  1
  Ho  Ho9  1  0.171569  0.178437  0.062910  1
  Ho  Ho10  1  0.127780  0.464104  0.750000  1
  Ho  Ho11  1  0.372299  0.965887  0.750000  1
  Os  Os12  1  0.535936  0.614964  0.750000  1
  Rh  Rh13  1  0.050433  0.887252  0.250000  1
  Rh  Rh14  1  0.452569  0.386420  0.250000  1
  Rh  Rh15  1  0.954913  0.114150  0.750000  1
