# generated using pymatgen
data_Er2Si5Os3
_symmetry_space_group_name_H-M   'P 1'
_cell_length_a   8.23258953
_cell_length_b   8.23258973
_cell_length_c   8.23259020
_cell_angle_alpha   139.97005833
_cell_angle_beta   108.61883434
_cell_angle_gamma   85.12516353
_symmetry_Int_Tables_number   1
_chemical_formula_structural   Er2Si5Os3
_chemical_formula_sum   'Er4 Si10 Os6'
_cell_volume   328.24692884
_cell_formula_units_Z   2
loop_
 _symmetry_equiv_pos_site_id
 _symmetry_equiv_pos_as_xyz
  1  'x, y, z'
loop_
 _atom_site_type_symbol
 _atom_site_label
 _atom_site_symmetry_multiplicity
 _atom_site_fract_x
 _atom_site_fract_y
 _atom_site_fract_z
 _atom_site_occupancy
  Er  Er0  1  0.904455  0.136772  0.767683  1
  Er  Er1  1  0.095545  0.863228  0.232317  1
  Er  Er2  1  0.630911  0.363228  0.267683  1
  Er  Er3  1  0.369089  0.636772  0.732317  1
  Si  Si4  1  0.000000  0.750000  0.750000  1
  Si  Si5  1  0.000000  0.250000  0.250000  1
  Si  Si6  1  0.707514  0.457514  0.750000  1
  Si  Si7  1  0.292486  0.042486  0.750000  1
  Si  Si8  1  0.292486  0.542486  0.250000  1
  Si  Si9  1  0.707514  0.957514  0.250000  1
  Si  Si10  1  0.235833  0.404887  0.830945  1
  Si  Si11  1  0.573941  0.904887  0.669055  1
  Si  Si12  1  0.426059  0.095113  0.330945  1
  Si  Si13  1  0.764167  0.595113  0.169055  1
  Os  Os14  1  0.757319  0.852830  0.904491  1
  Os  Os15  1  0.500000  0.250000  0.750000  1
  Os  Os16  1  0.948339  0.352830  0.595509  1
  Os  Os17  1  0.051661  0.647170  0.404491  1
  Os  Os18  1  0.242681  0.147170  0.095509  1
  Os  Os19  1  0.500000  0.750000  0.250000  1
