# generated using pymatgen
data_Sm3Tm(Lu4Sb3)4
_symmetry_space_group_name_H-M   'P 1'
_cell_length_a   7.99423961
_cell_length_b   9.16163700
_cell_length_c   11.61093200
_cell_angle_alpha   90.00000000
_cell_angle_beta   89.94558712
_cell_angle_gamma   90.00000000
_symmetry_Int_Tables_number   1
_chemical_formula_structural   Sm3Tm(Lu4Sb3)4
_chemical_formula_sum   'Sm3 Tm1 Lu16 Sb12'
_cell_volume   850.38800739
_cell_formula_units_Z   1
loop_
 _symmetry_equiv_pos_site_id
 _symmetry_equiv_pos_as_xyz
  1  'x, y, z'
loop_
 _atom_site_type_symbol
 _atom_site_label
 _atom_site_symmetry_multiplicity
 _atom_site_fract_x
 _atom_site_fract_y
 _atom_site_fract_z
 _atom_site_occupancy
  Sm  Sm0  1  0.184815  0.250000  0.780526  1
  Sm  Sm1  1  0.815701  0.750000  0.219804  1
  Sm  Sm2  1  0.315426  0.750000  0.280164  1
  Tm  Tm3  1  0.685789  0.250000  0.718098  1
  Lu  Lu4  1  0.025999  0.250000  0.511708  1
  Lu  Lu5  1  0.973543  0.750000  0.489802  1
  Lu  Lu6  1  0.474550  0.750000  0.010290  1
  Lu  Lu7  1  0.525887  0.250000  0.988816  1
  Lu  Lu8  1  0.354322  0.250000  0.283716  1
  Lu  Lu9  1  0.645968  0.750000  0.717028  1
  Lu  Lu10  1  0.145483  0.750000  0.782313  1
  Lu  Lu11  1  0.853608  0.250000  0.217000  1
  Lu  Lu12  1  0.191441  0.063691  0.061109  1
  Lu  Lu13  1  0.808289  0.936591  0.938473  1
  Lu  Lu14  1  0.307331  0.936739  0.561090  1
  Lu  Lu15  1  0.808289  0.563409  0.938473  1
  Lu  Lu16  1  0.692375  0.063227  0.439268  1
  Lu  Lu17  1  0.191441  0.436309  0.061109  1
  Lu  Lu18  1  0.692375  0.436773  0.439268  1
  Lu  Lu19  1  0.307331  0.563261  0.561090  1
  Sb  Sb20  1  0.408605  0.250000  0.539345  1
  Sb  Sb21  1  0.593761  0.750000  0.463133  1
  Sb  Sb22  1  0.094774  0.750000  0.036795  1
  Sb  Sb23  1  0.903845  0.250000  0.961699  1
  Sb  Sb24  1  0.066102  0.008512  0.328760  1
  Sb  Sb25  1  0.930850  0.993854  0.672275  1
  Sb  Sb26  1  0.436840  0.993586  0.826933  1
  Sb  Sb27  1  0.930850  0.506146  0.672275  1
  Sb  Sb28  1  0.565734  0.008288  0.171975  1
  Sb  Sb29  1  0.066102  0.491488  0.328760  1
  Sb  Sb30  1  0.565734  0.491712  0.171975  1
  Sb  Sb31  1  0.436840  0.506414  0.826933  1
