# generated using pymatgen
data_Cu29Si8Ni
_symmetry_space_group_name_H-M   'P 1'
_cell_length_a   8.40380488
_cell_length_b   8.40380610
_cell_length_c   8.40380507
_cell_angle_alpha   109.47854309
_cell_angle_beta   109.47854669
_cell_angle_gamma   109.45657385
_symmetry_Int_Tables_number   1
_chemical_formula_structural   Cu29Si8Ni
_chemical_formula_sum   'Cu29 Si8 Ni1'
_cell_volume   456.88409285
_cell_formula_units_Z   1
loop_
 _symmetry_equiv_pos_site_id
 _symmetry_equiv_pos_as_xyz
  1  'x, y, z'
loop_
 _atom_site_type_symbol
 _atom_site_label
 _atom_site_symmetry_multiplicity
 _atom_site_fract_x
 _atom_site_fract_y
 _atom_site_fract_z
 _atom_site_occupancy
  Cu  Cu0  1  0.249806  0.624633  0.374830  1
  Cu  Cu1  1  0.749803  0.874977  0.125170  1
  Cu  Cu2  1  0.125023  0.750194  0.874827  1
  Cu  Cu3  1  0.375367  0.250197  0.625173  1
  Cu  Cu4  1  0.875000  0.125000  0.750000  1
  Cu  Cu5  1  0.073681  0.274957  0.123477  1
  Cu  Cu6  1  0.701185  0.048969  0.926328  1
  Cu  Cu7  1  0.876196  0.449407  0.150710  1
  Cu  Cu8  1  0.152043  0.877037  0.450838  1
  Cu  Cu9  1  0.346554  0.798096  0.724459  1
  Cu  Cu10  1  0.725043  0.348519  0.798724  1
  Cu  Cu11  1  0.049796  0.926319  0.701276  1
  Cu  Cu12  1  0.225143  0.298815  0.847784  1
  Cu  Cu13  1  0.201904  0.426363  0.548458  1
  Cu  Cu14  1  0.951031  0.377359  0.652216  1
  Cu  Cu15  1  0.298796  0.847957  0.224994  1
  Cu  Cu16  1  0.550593  0.201303  0.426789  1
  Cu  Cu17  1  0.377904  0.653446  0.951542  1
  Cu  Cu18  1  0.122963  0.073802  0.275006  1
  Cu  Cu19  1  0.274514  0.123804  0.073211  1
  Cu  Cu20  1  0.847741  0.225508  0.299063  1
  Cu  Cu21  1  0.426445  0.548678  0.200937  1
  Cu  Cu22  1  0.651481  0.950204  0.376523  1
  Cu  Cu23  1  0.622641  0.774857  0.573672  1
  Cu  Cu24  1  0.573637  0.622096  0.775541  1
  Cu  Cu25  1  0.774492  0.573555  0.622233  1
  Cu  Cu26  1  0.798697  0.725486  0.349290  1
  Cu  Cu27  1  0.926198  0.701204  0.049162  1
  Cu  Cu28  1  0.451322  0.152259  0.877767  1
  Si  Si29  1  0.416517  0.411452  0.408512  1
  Si  Si30  1  0.499555  0.000363  0.587637  1
  Si  Si31  1  0.588548  0.497060  0.005065  1
  Si  Si32  1  0.991994  0.583483  0.494935  1
  Si  Si33  1  0.088082  0.500445  0.000808  1
  Si  Si34  1  0.999637  0.087274  0.499192  1
  Si  Si35  1  0.502940  0.008006  0.091488  1
  Si  Si36  1  0.912726  0.911918  0.912363  1
  Ni  Ni37  1  0.625000  0.375000  0.250000  1
