# generated using pymatgen
data_DyTm5CoTc
_symmetry_space_group_name_H-M   'P 1'
_cell_length_a   6.20902800
_cell_length_b   7.12550002
_cell_length_c   9.03006000
_cell_angle_alpha   90.00000000
_cell_angle_beta   90.00000000
_cell_angle_gamma   89.99552923
_symmetry_Int_Tables_number   1
_chemical_formula_structural   DyTm5CoTc
_chemical_formula_sum   'Dy2 Tm10 Co2 Tc2'
_cell_volume   399.51178854
_cell_formula_units_Z   2
loop_
 _symmetry_equiv_pos_site_id
 _symmetry_equiv_pos_as_xyz
  1  'x, y, z'
loop_
 _atom_site_type_symbol
 _atom_site_label
 _atom_site_symmetry_multiplicity
 _atom_site_fract_x
 _atom_site_fract_y
 _atom_site_fract_z
 _atom_site_occupancy
  Dy  Dy0  1  0.873554  0.953364  0.750000  1
  Dy  Dy1  1  0.641793  0.459627  0.750000  1
  Tm  Tm2  1  0.667203  0.173231  0.063923  1
  Tm  Tm3  1  0.372449  0.546979  0.250000  1
  Tm  Tm4  1  0.142620  0.040627  0.250000  1
  Tm  Tm5  1  0.824177  0.681656  0.433793  1
  Tm  Tm6  1  0.324355  0.818189  0.934967  1
  Tm  Tm7  1  0.167121  0.326976  0.562846  1
  Tm  Tm8  1  0.667203  0.173231  0.436077  1
  Tm  Tm9  1  0.167121  0.326976  0.937154  1
  Tm  Tm10  1  0.324355  0.818189  0.565033  1
  Tm  Tm11  1  0.824177  0.681656  0.066207  1
  Co  Co12  1  0.537633  0.885409  0.250000  1
  Co  Co13  1  0.039598  0.614318  0.750000  1
  Tc  Tc14  1  0.964461  0.390880  0.250000  1
  Tc  Tc15  1  0.462177  0.108693  0.750000  1
