# generated using pymatgen
data_Yb2TmGa8Ag3
_symmetry_space_group_name_H-M   'P 1'
_cell_length_a   4.39206230
_cell_length_b   8.33488236
_cell_length_c   8.33488158
_cell_angle_alpha   70.93713951
_cell_angle_beta   74.72365856
_cell_angle_gamma   74.72366499
_symmetry_Int_Tables_number   1
_chemical_formula_structural   Yb2TmGa8Ag3
_chemical_formula_sum   'Yb2 Tm1 Ga8 Ag3'
_cell_volume   272.87764640
_cell_formula_units_Z   1
loop_
 _symmetry_equiv_pos_site_id
 _symmetry_equiv_pos_as_xyz
  1  'x, y, z'
loop_
 _atom_site_type_symbol
 _atom_site_label
 _atom_site_symmetry_multiplicity
 _atom_site_fract_x
 _atom_site_fract_y
 _atom_site_fract_z
 _atom_site_occupancy
  Yb  Yb0  1  0.500022  0.499978  0.499978  1
  Yb  Yb1  1  0.200800  0.799200  0.799200  1
  Tm  Tm2  1  0.796688  0.203312  0.203312  1
  Ga  Ga3  1  0.357417  0.361257  0.923909  1
  Ga  Ga4  1  0.644657  0.635407  0.075279  1
  Ga  Ga5  1  0.357417  0.923909  0.361257  1
  Ga  Ga6  1  0.644657  0.075279  0.635407  1
  Ga  Ga7  1  0.159400  0.470886  0.210313  1
  Ga  Ga8  1  0.839498  0.528289  0.792716  1
  Ga  Ga9  1  0.159400  0.210313  0.470886  1
  Ga  Ga10  1  0.839498  0.792716  0.528289  1
  Ag  Ag11  1  0.499707  0.000293  0.000293  1
  Ag  Ag12  1  0.000419  0.808734  0.190428  1
  Ag  Ag13  1  0.000419  0.190428  0.808734  1
