# generated using pymatgen
data_CoNi2(AuO2)3
_symmetry_space_group_name_H-M   'P 1'
_cell_length_a   5.26897000
_cell_length_b   5.26896961
_cell_length_c   18.35460900
_cell_angle_alpha   90.00000000
_cell_angle_beta   90.00000000
_cell_angle_gamma   119.99998989
_symmetry_Int_Tables_number   1
_chemical_formula_structural   CoNi2(AuO2)3
_chemical_formula_sum   'Co3 Ni6 Au9 O18'
_cell_volume   441.29319754
_cell_formula_units_Z   3
loop_
 _symmetry_equiv_pos_site_id
 _symmetry_equiv_pos_as_xyz
  1  'x, y, z'
loop_
 _atom_site_type_symbol
 _atom_site_label
 _atom_site_symmetry_multiplicity
 _atom_site_fract_x
 _atom_site_fract_y
 _atom_site_fract_z
 _atom_site_occupancy
  Co  Co0  1  0.440177  0.559823  0.333333  1
  Co  Co1  1  0.440177  0.880352  0.666667  1
  Co  Co2  1  0.119648  0.559823  0.000000  1
  Ni  Ni3  1  0.107198  0.892802  0.333333  1
  Ni  Ni4  1  0.107198  0.214393  0.666667  1
  Ni  Ni5  1  0.785607  0.892802  0.000000  1
  Ni  Ni6  1  0.774329  0.225671  0.333333  1
  Ni  Ni7  1  0.774329  0.548656  0.666667  1
  Ni  Ni8  1  0.451344  0.225671  0.000000  1
  Au  Au9  1  0.440488  0.220244  0.500000  1
  Au  Au10  1  0.779756  0.220244  0.833333  1
  Au  Au11  1  0.779756  0.559512  0.166667  1
  Au  Au12  1  0.122732  0.561366  0.500000  1
  Au  Au13  1  0.438634  0.561366  0.833333  1
  Au  Au14  1  0.438634  0.877268  0.166667  1
  Au  Au15  1  0.757881  0.878941  0.500000  1
  Au  Au16  1  0.121059  0.878941  0.833333  1
  Au  Au17  1  0.121059  0.242119  0.166667  1
  O  O18  1  0.757427  0.559511  0.278285  1
  O  O19  1  0.440489  0.197916  0.611618  1
  O  O20  1  0.802084  0.242573  0.944952  1
  O  O21  1  0.757427  0.197916  0.721715  1
  O  O22  1  0.440489  0.242573  0.388382  1
  O  O23  1  0.802084  0.559511  0.055048  1
  O  O24  1  0.441826  0.877311  0.278472  1
  O  O25  1  0.122689  0.564516  0.611805  1
  O  O26  1  0.435484  0.558174  0.945139  1
  O  O27  1  0.441826  0.564516  0.721528  1
  O  O28  1  0.122689  0.558174  0.388195  1
  O  O29  1  0.435484  0.877311  0.054861  1
  O  O30  1  0.123775  0.241779  0.278372  1
  O  O31  1  0.758221  0.881995  0.611705  1
  O  O32  1  0.118005  0.876225  0.945038  1
  O  O33  1  0.123775  0.881995  0.721628  1
  O  O34  1  0.758221  0.876225  0.388295  1
  O  O35  1  0.118005  0.241779  0.054962  1
