# generated using pymatgen
data_Nd20Ga7GeRu4
_symmetry_space_group_name_H-M   'P 1'
_cell_length_a   7.98029556
_cell_length_b   9.08531539
_cell_length_c   12.27448684
_cell_angle_alpha   90.03405282
_cell_angle_beta   90.15656487
_cell_angle_gamma   90.00075252
_symmetry_Int_Tables_number   1
_chemical_formula_structural   Nd20Ga7GeRu4
_chemical_formula_sum   'Nd20 Ga7 Ge1 Ru4'
_cell_volume   889.93980244
_cell_formula_units_Z   1
loop_
 _symmetry_equiv_pos_site_id
 _symmetry_equiv_pos_as_xyz
  1  'x, y, z'
loop_
 _atom_site_type_symbol
 _atom_site_label
 _atom_site_symmetry_multiplicity
 _atom_site_fract_x
 _atom_site_fract_y
 _atom_site_fract_z
 _atom_site_occupancy
  Nd  Nd0  1  0.659929  0.748851  0.716127  1
  Nd  Nd1  1  0.337172  0.250441  0.282500  1
  Nd  Nd2  1  0.161635  0.254662  0.785749  1
  Nd  Nd3  1  0.838314  0.749257  0.216050  1
  Nd  Nd4  1  0.132377  0.746500  0.803110  1
  Nd  Nd5  1  0.869454  0.250484  0.198372  1
  Nd  Nd6  1  0.628222  0.252498  0.698721  1
  Nd  Nd7  1  0.370796  0.749340  0.301558  1
  Nd  Nd8  1  0.534965  0.746523  0.995536  1
  Nd  Nd9  1  0.463735  0.253378  0.001139  1
  Nd  Nd10  1  0.036891  0.250553  0.503220  1
  Nd  Nd11  1  0.963697  0.749500  0.497365  1
  Nd  Nd12  1  0.817098  0.467549  0.924133  1
  Nd  Nd13  1  0.179582  0.531188  0.075846  1
  Nd  Nd14  1  0.321190  0.531701  0.577338  1
  Nd  Nd15  1  0.181327  0.968074  0.075537  1
  Nd  Nd16  1  0.680168  0.468112  0.423816  1
  Nd  Nd17  1  0.819261  0.030747  0.923356  1
  Nd  Nd18  1  0.679664  0.031791  0.423894  1
  Nd  Nd19  1  0.318320  0.969806  0.576878  1
  Ga  Ga20  1  0.932802  0.006351  0.667971  1
  Ga  Ga21  1  0.068800  0.993332  0.333320  1
  Ga  Ga22  1  0.430542  0.994035  0.833973  1
  Ga  Ga23  1  0.071016  0.507387  0.332861  1
  Ga  Ga24  1  0.569991  0.006018  0.165939  1
  Ga  Ga25  1  0.930429  0.493713  0.667856  1
  Ga  Ga26  1  0.570681  0.492801  0.167685  1
  Ge  Ge27  1  0.433551  0.505551  0.829541  1
  Ru  Ru28  1  0.926882  0.749409  0.990386  1
  Ru  Ru29  1  0.072064  0.249521  0.010716  1
  Ru  Ru30  1  0.426286  0.250402  0.509087  1
  Ru  Ru31  1  0.573160  0.750525  0.490421  1
