# generated using pymatgen
data_Tb5Dy3(RuC2)4
_symmetry_space_group_name_H-M   'P 1'
_cell_length_a   5.14554400
_cell_length_b   6.46680459
_cell_length_c   9.82074989
_cell_angle_alpha   90.04886603
_cell_angle_beta   90.00000000
_cell_angle_gamma   90.00000000
_symmetry_Int_Tables_number   1
_chemical_formula_structural   Tb5Dy3(RuC2)4
_chemical_formula_sum   'Tb5 Dy3 Ru4 C8'
_cell_volume   326.78756852
_cell_formula_units_Z   1
loop_
 _symmetry_equiv_pos_site_id
 _symmetry_equiv_pos_as_xyz
  1  'x, y, z'
loop_
 _atom_site_type_symbol
 _atom_site_label
 _atom_site_symmetry_multiplicity
 _atom_site_fract_x
 _atom_site_fract_y
 _atom_site_fract_z
 _atom_site_occupancy
  Tb  Tb0  1  0.250000  0.180487  0.946486  1
  Tb  Tb1  1  0.750000  0.474417  0.783140  1
  Tb  Tb2  1  0.250000  0.025457  0.283734  1
  Tb  Tb3  1  0.750000  0.974256  0.716577  1
  Tb  Tb4  1  0.250000  0.525768  0.216851  1
  Dy  Dy5  1  0.750000  0.820495  0.054179  1
  Dy  Dy6  1  0.250000  0.679345  0.554004  1
  Dy  Dy7  1  0.750000  0.320768  0.445855  1
  Ru  Ru8  1  0.750000  0.278565  0.135423  1
  Ru  Ru9  1  0.250000  0.221281  0.634820  1
  Ru  Ru10  1  0.750000  0.778649  0.364970  1
  Ru  Ru11  1  0.250000  0.721388  0.864781  1
  C  C12  1  0.750000  0.174748  0.947956  1
  C  C13  1  0.250000  0.824362  0.052233  1
  C  C14  1  0.750000  0.674596  0.552167  1
  C  C15  1  0.250000  0.325321  0.447742  1
  C  C16  1  0.750000  0.042481  0.256891  1
  C  C17  1  0.250000  0.457812  0.756335  1
  C  C18  1  0.750000  0.542592  0.243073  1
  C  C19  1  0.250000  0.957213  0.742783  1
