# generated using pymatgen
data_Tb8Ta5Ti6NbSi16
_symmetry_space_group_name_H-M   'P 1'
_cell_length_a   7.06447019
_cell_length_b   7.06607511
_cell_length_c   13.01597334
_cell_angle_alpha   90.07684930
_cell_angle_beta   90.03719679
_cell_angle_gamma   89.97220112
_symmetry_Int_Tables_number   1
_chemical_formula_structural   Tb8Ta5Ti6NbSi16
_chemical_formula_sum   'Tb8 Ta5 Ti6 Nb1 Si16'
_cell_volume   649.73156228
_cell_formula_units_Z   1
loop_
 _symmetry_equiv_pos_site_id
 _symmetry_equiv_pos_as_xyz
  1  'x, y, z'
loop_
 _atom_site_type_symbol
 _atom_site_label
 _atom_site_symmetry_multiplicity
 _atom_site_fract_x
 _atom_site_fract_y
 _atom_site_fract_z
 _atom_site_occupancy
  Tb  Tb0  1  0.340611  0.002365  0.466677  1
  Tb  Tb1  1  0.497606  0.840409  0.716743  1
  Tb  Tb2  1  0.502583  0.159094  0.216835  1
  Tb  Tb3  1  0.839557  0.497752  0.283320  1
  Tb  Tb4  1  0.159943  0.502324  0.782994  1
  Tb  Tb5  1  0.658863  0.997394  0.967026  1
  Tb  Tb6  1  0.002179  0.340244  0.532920  1
  Tb  Tb7  1  0.997523  0.660233  0.033118  1
  Ta  Ta8  1  0.173237  0.827059  0.250042  1
  Ta  Ta9  1  0.828086  0.172590  0.750107  1
  Ta  Ta10  1  0.672789  0.672509  0.499972  1
  Ta  Ta11  1  0.153406  0.008485  0.875879  1
  Ta  Ta12  1  0.491034  0.653508  0.125365  1
  Ti  Ti13  1  0.508939  0.346525  0.625923  1
  Ti  Ti14  1  0.653861  0.491138  0.874199  1
  Ti  Ti15  1  0.347396  0.508725  0.374537  1
  Ti  Ti16  1  0.846303  0.990884  0.375329  1
  Ti  Ti17  1  0.009088  0.153218  0.123990  1
  Ti  Ti18  1  0.991308  0.846220  0.624424  1
  Nb  Nb19  1  0.326692  0.327264  0.000216  1
  Si  Si20  1  0.202492  0.130032  0.684289  1
  Si  Si21  1  0.370318  0.703536  0.933822  1
  Si  Si22  1  0.629588  0.298357  0.435277  1
  Si  Si23  1  0.703557  0.368176  0.065659  1
  Si  Si24  1  0.298445  0.629566  0.564638  1
  Si  Si25  1  0.798473  0.870803  0.184979  1
  Si  Si26  1  0.129703  0.201269  0.315137  1
  Si  Si27  1  0.868479  0.797656  0.815025  1
  Si  Si28  1  0.291513  0.953383  0.065037  1
  Si  Si29  1  0.546632  0.792776  0.315263  1
  Si  Si30  1  0.454608  0.209127  0.813156  1
  Si  Si31  1  0.792174  0.545778  0.685515  1
  Si  Si32  1  0.206211  0.452416  0.186810  1
  Si  Si33  1  0.708714  0.046375  0.564249  1
  Si  Si34  1  0.951839  0.294224  0.935615  1
  Si  Si35  1  0.046250  0.708584  0.435913  1
