# generated using pymatgen
data_Sr6NbRh4O15
_symmetry_space_group_name_H-M   'P 1'
_cell_length_a   7.19321466
_cell_length_b   7.19321411
_cell_length_c   7.19321583
_cell_angle_alpha   85.47402999
_cell_angle_beta   85.47402891
_cell_angle_gamma   85.47402619
_symmetry_Int_Tables_number   1
_chemical_formula_structural   Sr6NbRh4O15
_chemical_formula_sum   'Sr6 Nb1 Rh4 O15'
_cell_volume   368.88551026
_cell_formula_units_Z   1
loop_
 _symmetry_equiv_pos_site_id
 _symmetry_equiv_pos_as_xyz
  1  'x, y, z'
loop_
 _atom_site_type_symbol
 _atom_site_label
 _atom_site_symmetry_multiplicity
 _atom_site_fract_x
 _atom_site_fract_y
 _atom_site_fract_z
 _atom_site_occupancy
  Sr  Sr0  1  0.318807  0.681193  0.000000  1
  Sr  Sr1  1  0.681193  0.000000  0.318807  1
  Sr  Sr2  1  0.000000  0.318807  0.681193  1
  Sr  Sr3  1  0.134326  0.865674  0.500000  1
  Sr  Sr4  1  0.865674  0.500000  0.134326  1
  Sr  Sr5  1  0.500000  0.134326  0.865674  1
  Nb  Nb6  1  0.500000  0.500000  0.500000  1
  Rh  Rh7  1  0.902154  0.902154  0.902154  1
  Rh  Rh8  1  0.097846  0.097846  0.097846  1
  Rh  Rh9  1  0.701148  0.701148  0.701148  1
  Rh  Rh10  1  0.298852  0.298852  0.298852  1
  O  O11  1  0.258842  0.572052  0.371098  1
  O  O12  1  0.371098  0.258842  0.572052  1
  O  O13  1  0.572052  0.371098  0.258842  1
  O  O14  1  0.741158  0.628902  0.427948  1
  O  O15  1  0.427948  0.741158  0.628902  1
  O  O16  1  0.628902  0.427948  0.741158  1
  O  O17  1  0.000000  0.836593  0.163407  1
  O  O18  1  0.163407  0.000000  0.836593  1
  O  O19  1  0.836593  0.163407  0.000000  1
  O  O20  1  0.352115  0.027671  0.211426  1
  O  O21  1  0.211426  0.352115  0.027671  1
  O  O22  1  0.788574  0.972329  0.647885  1
  O  O23  1  0.972329  0.647885  0.788574  1
  O  O24  1  0.647885  0.788574  0.972329  1
  O  O25  1  0.027671  0.211426  0.352115  1
