# generated using pymatgen
data_Zr4Sc4Ta11VSi16
_symmetry_space_group_name_H-M   'P 1'
_cell_length_a   6.86827495
_cell_length_b   6.87138420
_cell_length_c   12.68568993
_cell_angle_alpha   90.10055792
_cell_angle_beta   89.87726761
_cell_angle_gamma   89.92608261
_symmetry_Int_Tables_number   1
_chemical_formula_structural   Zr4Sc4Ta11VSi16
_chemical_formula_sum   'Zr4 Sc4 Ta11 V1 Si16'
_cell_volume   598.69270708
_cell_formula_units_Z   1
loop_
 _symmetry_equiv_pos_site_id
 _symmetry_equiv_pos_as_xyz
  1  'x, y, z'
loop_
 _atom_site_type_symbol
 _atom_site_label
 _atom_site_symmetry_multiplicity
 _atom_site_fract_x
 _atom_site_fract_y
 _atom_site_fract_z
 _atom_site_occupancy
  Zr  Zr0  1  0.000824  0.659849  0.031573  1
  Zr  Zr1  1  0.840902  0.503560  0.281185  1
  Zr  Zr2  1  0.158892  0.498649  0.780815  1
  Zr  Zr3  1  0.502150  0.841217  0.717325  1
  Sc  Sc4  1  0.498875  0.160208  0.220366  1
  Sc  Sc5  1  0.998875  0.340234  0.528751  1
  Sc  Sc6  1  0.660671  0.000526  0.970450  1
  Sc  Sc7  1  0.338978  0.999727  0.469659  1
  Ta  Ta8  1  0.330244  0.332108  0.999793  1
  Ta  Ta9  1  0.167571  0.831209  0.250587  1
  Ta  Ta10  1  0.831222  0.168576  0.749386  1
  Ta  Ta11  1  0.670154  0.667888  0.499458  1
  Ta  Ta12  1  0.004452  0.153177  0.126094  1
  Ta  Ta13  1  0.347391  0.505103  0.375722  1
  Ta  Ta14  1  0.652519  0.495937  0.875407  1
  Ta  Ta15  1  0.506835  0.346338  0.623727  1
  Ta  Ta16  1  0.495618  0.654214  0.124766  1
  Ta  Ta17  1  0.995723  0.845929  0.627418  1
  Ta  Ta18  1  0.152428  0.004612  0.873935  1
  V  V19  1  0.845477  0.991265  0.373412  1
  Si  Si20  1  0.302718  0.959033  0.064418  1
  Si  Si21  1  0.544931  0.805864  0.316022  1
  Si  Si22  1  0.457926  0.198791  0.814110  1
  Si  Si23  1  0.801478  0.541725  0.684604  1
  Si  Si24  1  0.202049  0.454380  0.187467  1
  Si  Si25  1  0.703941  0.041999  0.558196  1
  Si  Si26  1  0.954340  0.298515  0.936971  1
  Si  Si27  1  0.040619  0.706834  0.436244  1
  Si  Si28  1  0.705017  0.362556  0.073104  1
  Si  Si29  1  0.128505  0.201852  0.323984  1
  Si  Si30  1  0.862794  0.793322  0.822885  1
  Si  Si31  1  0.206847  0.136737  0.676528  1
  Si  Si32  1  0.792833  0.867585  0.181589  1
  Si  Si33  1  0.292315  0.634630  0.570632  1
  Si  Si34  1  0.365586  0.708937  0.927923  1
  Si  Si35  1  0.638301  0.286914  0.425494  1
