# generated using pymatgen
data_Ti2GaFe(Co2B)2
_symmetry_space_group_name_H-M   'P 1'
_cell_length_a   8.50558500
_cell_length_b   8.50558500
_cell_length_c   2.95504100
_cell_angle_alpha   90.00000000
_cell_angle_beta   90.00000000
_cell_angle_gamma   90.00000000
_symmetry_Int_Tables_number   1
_chemical_formula_structural   Ti2GaFe(Co2B)2
_chemical_formula_sum   'Ti4 Ga2 Fe2 Co8 B4'
_cell_volume   213.78237079
_cell_formula_units_Z   2
loop_
 _symmetry_equiv_pos_site_id
 _symmetry_equiv_pos_as_xyz
  1  'x, y, z'
loop_
 _atom_site_type_symbol
 _atom_site_label
 _atom_site_symmetry_multiplicity
 _atom_site_fract_x
 _atom_site_fract_y
 _atom_site_fract_z
 _atom_site_occupancy
  Ti  Ti0  1  0.827338  0.327338  0.000000  1
  Ti  Ti1  1  0.327338  0.172662  0.000000  1
  Ti  Ti2  1  0.672662  0.827338  0.000000  1
  Ti  Ti3  1  0.172662  0.672662  0.000000  1
  Ga  Ga4  1  0.000000  0.000000  0.000000  1
  Ga  Ga5  1  0.500000  0.500000  0.000000  1
  Fe  Fe6  1  0.500000  0.000000  0.500000  1
  Fe  Fe7  1  0.000000  0.500000  0.500000  1
  Co  Co8  1  0.072997  0.218580  0.500000  1
  Co  Co9  1  0.218580  0.927003  0.500000  1
  Co  Co10  1  0.781420  0.072997  0.500000  1
  Co  Co11  1  0.927003  0.781420  0.500000  1
  Co  Co12  1  0.427003  0.718580  0.500000  1
  Co  Co13  1  0.572997  0.281420  0.500000  1
  Co  Co14  1  0.718580  0.572997  0.500000  1
  Co  Co15  1  0.281420  0.427003  0.500000  1
  B  B16  1  0.622909  0.122909  0.000000  1
  B  B17  1  0.122909  0.377091  0.000000  1
  B  B18  1  0.877091  0.622909  0.000000  1
  B  B19  1  0.377091  0.877091  0.000000  1
