# generated using pymatgen
data_RbMgAsO4
_symmetry_space_group_name_H-M   'P 1'
_cell_length_a   10.40991867
_cell_length_b   10.40991792
_cell_length_c   10.40991832
_cell_angle_alpha   28.60222976
_cell_angle_beta   28.60223632
_cell_angle_gamma   28.60223442
_symmetry_Int_Tables_number   1
_chemical_formula_structural   RbMgAsO4
_chemical_formula_sum   'Rb2 Mg2 As2 O8'
_cell_volume   228.54029936
_cell_formula_units_Z   2
loop_
 _symmetry_equiv_pos_site_id
 _symmetry_equiv_pos_as_xyz
  1  'x, y, z'
loop_
 _atom_site_type_symbol
 _atom_site_label
 _atom_site_symmetry_multiplicity
 _atom_site_fract_x
 _atom_site_fract_y
 _atom_site_fract_z
 _atom_site_occupancy
  Rb  Rb0  1  0.289135  0.289135  0.289135  1
  Rb  Rb1  1  0.710865  0.710865  0.710865  1
  Mg  Mg2  1  0.164398  0.164398  0.164398  1
  Mg  Mg3  1  0.835602  0.835602  0.835602  1
  As  As4  1  0.441812  0.441812  0.441812  1
  As  As5  1  0.558187  0.558187  0.558187  1
  O  O6  1  0.777690  0.467179  0.136157  1
  O  O7  1  0.532820  0.863844  0.222310  1
  O  O8  1  0.384864  0.384864  0.384864  1
  O  O9  1  0.136156  0.777691  0.467179  1
  O  O10  1  0.863844  0.222309  0.532821  1
  O  O11  1  0.615136  0.615136  0.615136  1
  O  O12  1  0.467180  0.136156  0.777690  1
  O  O13  1  0.222310  0.532820  0.863843  1
