# generated using pymatgen
data_Tb3Dy8TmRu4
_symmetry_space_group_name_H-M   'P 1'
_cell_length_a   6.31920969
_cell_length_b   7.30500498
_cell_length_c   9.18873800
_cell_angle_alpha   89.98191959
_cell_angle_beta   90.15186136
_cell_angle_gamma   89.95587494
_symmetry_Int_Tables_number   1
_chemical_formula_structural   Tb3Dy8TmRu4
_chemical_formula_sum   'Tb3 Dy8 Tm1 Ru4'
_cell_volume   424.16758437
_cell_formula_units_Z   1
loop_
 _symmetry_equiv_pos_site_id
 _symmetry_equiv_pos_as_xyz
  1  'x, y, z'
loop_
 _atom_site_type_symbol
 _atom_site_label
 _atom_site_symmetry_multiplicity
 _atom_site_fract_x
 _atom_site_fract_y
 _atom_site_fract_z
 _atom_site_occupancy
  Tb  Tb0  1  0.633736  0.040486  0.250471  1
  Tb  Tb1  1  0.367141  0.960142  0.749606  1
  Tb  Tb2  1  0.132820  0.459394  0.749333  1
  Dy  Dy3  1  0.866199  0.539817  0.250596  1
  Dy  Dy4  1  0.169868  0.176951  0.064671  1
  Dy  Dy5  1  0.830133  0.823409  0.935284  1
  Dy  Dy6  1  0.669648  0.323156  0.934612  1
  Dy  Dy7  1  0.829822  0.823127  0.564539  1
  Dy  Dy8  1  0.330354  0.676606  0.064775  1
  Dy  Dy9  1  0.169724  0.177043  0.435760  1
  Dy  Dy10  1  0.330725  0.675978  0.435759  1
  Tm  Tm11  1  0.669462  0.324075  0.565075  1
  Ru  Ru12  1  0.461661  0.385403  0.251143  1
  Ru  Ru13  1  0.539484  0.613861  0.749322  1
  Ru  Ru14  1  0.959855  0.115121  0.749303  1
  Ru  Ru15  1  0.039368  0.885432  0.249749  1
