# generated using pymatgen
data_CeNd(NbSe2)6
_symmetry_space_group_name_H-M   'P 1'
_cell_length_a   6.10360300
_cell_length_b   6.10360303
_cell_length_c   15.00576000
_cell_angle_alpha   90.00000000
_cell_angle_beta   90.00000000
_cell_angle_gamma   120.00000525
_symmetry_Int_Tables_number   1
_chemical_formula_structural   CeNd(NbSe2)6
_chemical_formula_sum   'Ce1 Nd1 Nb6 Se12'
_cell_volume   484.12907182
_cell_formula_units_Z   1
loop_
 _symmetry_equiv_pos_site_id
 _symmetry_equiv_pos_as_xyz
  1  'x, y, z'
loop_
 _atom_site_type_symbol
 _atom_site_label
 _atom_site_symmetry_multiplicity
 _atom_site_fract_x
 _atom_site_fract_y
 _atom_site_fract_z
 _atom_site_occupancy
  Ce  Ce0  1  0.666667  0.333333  0.750000  1
  Nd  Nd1  1  0.333333  0.666667  0.250000  1
  Nb  Nb2  1  0.333333  0.666667  0.002502  1
  Nb  Nb3  1  0.000000  0.000000  0.000539  1
  Nb  Nb4  1  0.666667  0.333333  0.998688  1
  Nb  Nb5  1  0.333333  0.666667  0.497498  1
  Nb  Nb6  1  0.000000  0.000000  0.499461  1
  Nb  Nb7  1  0.666667  0.333333  0.501312  1
  Se  Se8  1  0.673888  0.665546  0.387990  1
  Se  Se9  1  0.665225  0.673628  0.610670  1
  Se  Se10  1  0.008403  0.673628  0.889330  1
  Se  Se11  1  0.665225  0.991597  0.889330  1
  Se  Se12  1  0.673888  0.008342  0.112010  1
  Se  Se13  1  0.334454  0.008342  0.387990  1
  Se  Se14  1  0.008403  0.334775  0.610670  1
  Se  Se15  1  0.326372  0.991597  0.610670  1
  Se  Se16  1  0.991658  0.665546  0.112010  1
  Se  Se17  1  0.326372  0.334775  0.889330  1
  Se  Se18  1  0.991658  0.326112  0.387990  1
  Se  Se19  1  0.334454  0.326112  0.112010  1
