# generated using pymatgen
data_NdDy3SiBr6
_symmetry_space_group_name_H-M   'P 1'
_cell_length_a   4.08882500
_cell_length_b   13.39391071
_cell_length_c   14.15963940
_cell_angle_alpha   89.22135909
_cell_angle_beta   90.00000000
_cell_angle_gamma   90.00000000
_symmetry_Int_Tables_number   1
_chemical_formula_structural   NdDy3SiBr6
_chemical_formula_sum   'Nd2 Dy6 Si2 Br12'
_cell_volume   775.38610015
_cell_formula_units_Z   2
loop_
 _symmetry_equiv_pos_site_id
 _symmetry_equiv_pos_as_xyz
  1  'x, y, z'
loop_
 _atom_site_type_symbol
 _atom_site_label
 _atom_site_symmetry_multiplicity
 _atom_site_fract_x
 _atom_site_fract_y
 _atom_site_fract_z
 _atom_site_occupancy
  Nd  Nd0  1  0.000000  0.121863  0.581058  1
  Nd  Nd1  1  0.000000  0.878137  0.418942  1
  Dy  Dy2  1  0.500000  0.118543  0.340806  1
  Dy  Dy3  1  0.500000  0.881457  0.659194  1
  Dy  Dy4  1  0.500000  0.616277  0.156728  1
  Dy  Dy5  1  0.500000  0.383723  0.843272  1
  Dy  Dy6  1  0.000000  0.616994  0.921844  1
  Dy  Dy7  1  0.000000  0.383006  0.078156  1
  Si  Si8  1  0.500000  0.000000  0.500000  1
  Si  Si9  1  0.500000  0.500000  0.000000  1
  Br  Br10  1  0.500000  0.247698  0.161831  1
  Br  Br11  1  0.500000  0.752302  0.838169  1
  Br  Br12  1  0.500000  0.735345  0.331065  1
  Br  Br13  1  0.500000  0.264655  0.668935  1
  Br  Br14  1  0.000000  0.255155  0.404037  1
  Br  Br15  1  0.000000  0.744845  0.595963  1
  Br  Br16  1  0.000000  0.751595  0.087498  1
  Br  Br17  1  0.000000  0.248405  0.912502  1
  Br  Br18  1  0.000000  0.009682  0.240449  1
  Br  Br19  1  0.000000  0.990318  0.759551  1
  Br  Br20  1  0.000000  0.501391  0.253509  1
  Br  Br21  1  0.000000  0.498609  0.746491  1
