# generated using pymatgen
data_Tm7Zr(Ge4Mo3)4
_symmetry_space_group_name_H-M   'P 1'
_cell_length_a   6.87208788
_cell_length_b   7.00341932
_cell_length_c   13.09666613
_cell_angle_alpha   90.06292123
_cell_angle_beta   89.96970163
_cell_angle_gamma   90.03683898
_symmetry_Int_Tables_number   1
_chemical_formula_structural   Tm7Zr(Ge4Mo3)4
_chemical_formula_sum   'Tm7 Zr1 Ge16 Mo12'
_cell_volume   630.31722941
_cell_formula_units_Z   1
loop_
 _symmetry_equiv_pos_site_id
 _symmetry_equiv_pos_as_xyz
  1  'x, y, z'
loop_
 _atom_site_type_symbol
 _atom_site_label
 _atom_site_symmetry_multiplicity
 _atom_site_fract_x
 _atom_site_fract_y
 _atom_site_fract_z
 _atom_site_occupancy
  Tm  Tm0  1  0.487299  0.671079  0.591580  1
  Tm  Tm1  1  0.988231  0.829896  0.908175  1
  Tm  Tm2  1  0.511777  0.329496  0.092286  1
  Tm  Tm3  1  0.010758  0.168971  0.409141  1
  Tm  Tm4  1  0.511027  0.329096  0.408848  1
  Tm  Tm5  1  0.011665  0.170600  0.092091  1
  Tm  Tm6  1  0.487817  0.671202  0.907228  1
  Zr  Zr7  1  0.985397  0.828378  0.593150  1
  Ge  Ge8  1  0.674198  0.954011  0.454198  1
  Ge  Ge9  1  0.171890  0.545076  0.047302  1
  Ge  Ge10  1  0.328746  0.046032  0.952126  1
  Ge  Ge11  1  0.829034  0.455812  0.547026  1
  Ge  Ge12  1  0.322535  0.043116  0.546918  1
  Ge  Ge13  1  0.828226  0.454741  0.952334  1
  Ge  Ge14  1  0.671547  0.954566  0.047661  1
  Ge  Ge15  1  0.170939  0.547563  0.453920  1
  Ge  Ge16  1  0.469296  0.369040  0.749726  1
  Ge  Ge17  1  0.969395  0.128994  0.748632  1
  Ge  Ge18  1  0.531697  0.630619  0.250111  1
  Ge  Ge19  1  0.031612  0.869832  0.250014  1
  Ge  Ge20  1  0.690754  0.852789  0.749711  1
  Ge  Ge21  1  0.187048  0.648236  0.748855  1
  Ge  Ge22  1  0.311329  0.146892  0.250425  1
  Ge  Ge23  1  0.812133  0.353610  0.250666  1
  Mo  Mo24  1  0.669598  0.152127  0.625861  1
  Mo  Mo25  1  0.167370  0.344309  0.872913  1
  Mo  Mo26  1  0.331664  0.844544  0.126145  1
  Mo  Mo27  1  0.832609  0.657001  0.374853  1
  Mo  Mo28  1  0.332429  0.844351  0.373642  1
  Mo  Mo29  1  0.832389  0.656126  0.126815  1
  Mo  Mo30  1  0.669365  0.154584  0.873491  1
  Mo  Mo31  1  0.168983  0.345196  0.626091  1
  Mo  Mo32  1  0.833572  0.498506  0.748530  1
  Mo  Mo33  1  0.333217  0.002818  0.748162  1
  Mo  Mo34  1  0.167071  0.504147  0.250324  1
  Mo  Mo35  1  0.667383  0.996649  0.251052  1
