# generated using pymatgen
data_Nb3Si3RhW2
_symmetry_space_group_name_H-M   'P 1'
_cell_length_a   6.85492007
_cell_length_b   6.77733102
_cell_length_c   3.44841600
_cell_angle_alpha   90.00000000
_cell_angle_beta   90.00000000
_cell_angle_gamma   119.62629558
_symmetry_Int_Tables_number   1
_chemical_formula_structural   Nb3Si3RhW2
_chemical_formula_sum   'Nb3 Si3 Rh1 W2'
_cell_volume   139.26260356
_cell_formula_units_Z   1
loop_
 _symmetry_equiv_pos_site_id
 _symmetry_equiv_pos_as_xyz
  1  'x, y, z'
loop_
 _atom_site_type_symbol
 _atom_site_label
 _atom_site_symmetry_multiplicity
 _atom_site_fract_x
 _atom_site_fract_y
 _atom_site_fract_z
 _atom_site_occupancy
  Nb  Nb0  1  0.425812  0.404569  0.500000  1
  Nb  Nb1  1  0.574188  0.978757  0.500000  1
  Nb  Nb2  1  0.000000  0.615947  0.500000  1
  Si  Si3  1  0.678953  0.327142  0.000000  1
  Si  Si4  1  0.321047  0.648189  0.000000  1
  Si  Si5  1  0.000000  0.025544  0.500000  1
  Rh  Rh6  1  0.000000  0.256581  0.000000  1
  W  W7  1  0.746813  0.745042  0.000000  1
  W  W8  1  0.253187  0.998229  0.000000  1
