# generated using pymatgen
data_DyHo3Co3Si12Ni17
_symmetry_space_group_name_H-M   'P 1'
_cell_length_a   3.76401300
_cell_length_b   6.63550945
_cell_length_c   18.66423429
_cell_angle_alpha   90.36457315
_cell_angle_beta   90.00000000
_cell_angle_gamma   90.00000000
_symmetry_Int_Tables_number   1
_chemical_formula_structural   DyHo3Co3Si12Ni17
_chemical_formula_sum   'Dy1 Ho3 Co3 Si12 Ni17'
_cell_volume   466.15116331
_cell_formula_units_Z   1
loop_
 _symmetry_equiv_pos_site_id
 _symmetry_equiv_pos_as_xyz
  1  'x, y, z'
loop_
 _atom_site_type_symbol
 _atom_site_label
 _atom_site_symmetry_multiplicity
 _atom_site_fract_x
 _atom_site_fract_y
 _atom_site_fract_z
 _atom_site_occupancy
  Dy  Dy0  1  0.750000  0.373477  0.143572  1
  Ho  Ho1  1  0.250000  0.874608  0.356154  1
  Ho  Ho2  1  0.750000  0.126628  0.643227  1
  Ho  Ho3  1  0.250000  0.624012  0.856392  1
  Co  Co4  1  0.250000  0.061769  0.205949  1
  Co  Co5  1  0.750000  0.937981  0.794519  1
  Co  Co6  1  0.750000  0.562784  0.294348  1
  Si  Si7  1  0.250000  0.078607  0.086475  1
  Si  Si8  1  0.750000  0.917891  0.913420  1
  Si  Si9  1  0.750000  0.581983  0.413534  1
  Si  Si10  1  0.250000  0.421850  0.586144  1
  Si  Si11  1  0.250000  0.654190  0.074655  1
  Si  Si12  1  0.750000  0.343362  0.925348  1
  Si  Si13  1  0.750000  0.156767  0.425216  1
  Si  Si14  1  0.250000  0.847417  0.574326  1
  Si  Si15  1  0.250000  0.373306  0.261249  1
  Si  Si16  1  0.750000  0.629262  0.739242  1
  Si  Si17  1  0.750000  0.872388  0.239050  1
  Si  Si18  1  0.250000  0.122761  0.761764  1
  Ni  Ni19  1  0.250000  0.433301  0.706559  1
  Ni  Ni20  1  0.250000  0.617515  0.484703  1
  Ni  Ni21  1  0.750000  0.387385  0.515215  1
  Ni  Ni22  1  0.750000  0.113393  0.014989  1
  Ni  Ni23  1  0.250000  0.883014  0.984833  1
  Ni  Ni24  1  0.250000  0.680544  0.200811  1
  Ni  Ni25  1  0.750000  0.319442  0.800168  1
  Ni  Ni26  1  0.750000  0.181336  0.299272  1
  Ni  Ni27  1  0.250000  0.817960  0.699914  1
  Ni  Ni28  1  0.250000  0.360472  0.382817  1
  Ni  Ni29  1  0.750000  0.646350  0.616330  1
  Ni  Ni30  1  0.750000  0.858166  0.117344  1
  Ni  Ni31  1  0.250000  0.139353  0.883266  1
  Ni  Ni32  1  0.250000  0.363652  0.004525  1
  Ni  Ni33  1  0.750000  0.633206  0.995345  1
  Ni  Ni34  1  0.750000  0.867789  0.494885  1
  Ni  Ni35  1  0.250000  0.136084  0.504443  1
