# generated using pymatgen
data_Yb7Tm(Si3Ni)4
_symmetry_space_group_name_H-M   'P 1'
_cell_length_a   8.02454900
_cell_length_b   8.02455753
_cell_length_c   8.20260400
_cell_angle_alpha   90.00000000
_cell_angle_beta   90.00000000
_cell_angle_gamma   119.99993820
_symmetry_Int_Tables_number   1
_chemical_formula_structural   Yb7Tm(Si3Ni)4
_chemical_formula_sum   'Yb7 Tm1 Si12 Ni4'
_cell_volume   457.42971754
_cell_formula_units_Z   1
loop_
 _symmetry_equiv_pos_site_id
 _symmetry_equiv_pos_as_xyz
  1  'x, y, z'
loop_
 _atom_site_type_symbol
 _atom_site_label
 _atom_site_symmetry_multiplicity
 _atom_site_fract_x
 _atom_site_fract_y
 _atom_site_fract_z
 _atom_site_occupancy
  Yb  Yb0  1  0.500716  0.001433  0.250000  1
  Yb  Yb1  1  0.499243  0.998485  0.750000  1
  Yb  Yb2  1  0.998567  0.499284  0.250000  1
  Yb  Yb3  1  0.001515  0.500757  0.750000  1
  Yb  Yb4  1  0.500716  0.499284  0.250000  1
  Yb  Yb5  1  0.499242  0.500757  0.750000  1
  Yb  Yb6  1  0.000000  0.000000  0.250000  1
  Tm  Tm7  1  0.000000  0.000001  0.750000  1
  Si  Si8  1  0.169691  0.339383  0.997167  1
  Si  Si9  1  0.830331  0.660662  0.995796  1
  Si  Si10  1  0.660617  0.830309  0.997167  1
  Si  Si11  1  0.830331  0.660662  0.504204  1
  Si  Si12  1  0.339338  0.169669  0.995796  1
  Si  Si13  1  0.169691  0.339383  0.502833  1
  Si  Si14  1  0.169691  0.830309  0.997167  1
  Si  Si15  1  0.339338  0.169669  0.504204  1
  Si  Si16  1  0.830331  0.169669  0.995796  1
  Si  Si17  1  0.660617  0.830309  0.502833  1
  Si  Si18  1  0.830331  0.169669  0.504204  1
  Si  Si19  1  0.169691  0.830309  0.502833  1
  Ni  Ni20  1  0.333333  0.666667  0.000908  1
  Ni  Ni21  1  0.666667  0.333333  0.998208  1
  Ni  Ni22  1  0.666667  0.333333  0.501792  1
  Ni  Ni23  1  0.333333  0.666667  0.499092  1
