# generated using pymatgen
data_Pr4Ga17SiIr6
_symmetry_space_group_name_H-M   'P 1'
_cell_length_a   7.69475075
_cell_length_b   7.67511431
_cell_length_c   9.68769873
_cell_angle_alpha   90.03744289
_cell_angle_beta   89.84451905
_cell_angle_gamma   119.67641161
_symmetry_Int_Tables_number   1
_chemical_formula_structural   Pr4Ga17SiIr6
_chemical_formula_sum   'Pr4 Ga17 Si1 Ir6'
_cell_volume   497.09090218
_cell_formula_units_Z   1
loop_
 _symmetry_equiv_pos_site_id
 _symmetry_equiv_pos_as_xyz
  1  'x, y, z'
loop_
 _atom_site_type_symbol
 _atom_site_label
 _atom_site_symmetry_multiplicity
 _atom_site_fract_x
 _atom_site_fract_y
 _atom_site_fract_z
 _atom_site_occupancy
  Pr  Pr0  1  0.997097  0.665960  0.248399  1
  Pr  Pr1  1  0.003015  0.330573  0.750735  1
  Pr  Pr2  1  0.673778  0.001966  0.248440  1
  Pr  Pr3  1  0.329890  0.002759  0.750161  1
  Ga  Ga4  1  0.131787  0.131435  0.250729  1
  Ga  Ga5  1  0.870207  0.871927  0.750419  1
  Ga  Ga6  1  0.996039  0.669601  0.920375  1
  Ga  Ga7  1  0.997985  0.665269  0.577272  1
  Ga  Ga8  1  0.334596  0.000282  0.422025  1
  Ga  Ga9  1  0.001896  0.335165  0.424265  1
  Ga  Ga10  1  0.664646  0.997731  0.577330  1
  Ga  Ga11  1  0.659049  0.992290  0.920439  1
  Ga  Ga12  1  0.334143  0.000174  0.079172  1
  Ga  Ga13  1  0.333634  0.332842  0.556259  1
  Ga  Ga14  1  0.667956  0.668311  0.441002  1
  Ga  Ga15  1  0.667118  0.668143  0.061731  1
  Ga  Ga16  1  0.339420  0.334001  0.942604  1
  Ga  Ga17  1  0.342381  0.545920  0.251326  1
  Ga  Ga18  1  0.660246  0.453573  0.750825  1
  Ga  Ga19  1  0.546008  0.340841  0.250433  1
  Ga  Ga20  1  0.452606  0.657686  0.750333  1
  Si  Si21  1  0.001395  0.334617  0.070243  1
  Ir  Ir22  1  0.682347  0.329444  0.002513  1
  Ir  Ir23  1  0.313951  0.655449  0.001587  1
  Ir  Ir24  1  0.328988  0.670168  0.500263  1
  Ir  Ir25  1  0.670306  0.329226  0.500261  1
  Ir  Ir26  1  0.999617  0.014424  0.001193  1
  Ir  Ir27  1  0.999900  0.000221  0.499663  1
