# generated using pymatgen
data_TbHo2BCl3
_symmetry_space_group_name_H-M   'P 1'
_cell_length_a   9.43798028
_cell_length_b   9.43798003
_cell_length_c   9.43798058
_cell_angle_alpha   109.39863994
_cell_angle_beta   109.39863872
_cell_angle_gamma   109.61647589
_symmetry_Int_Tables_number   1
_chemical_formula_structural   TbHo2BCl3
_chemical_formula_sum   'Tb4 Ho8 B4 Cl12'
_cell_volume   647.16234701
_cell_formula_units_Z   4
loop_
 _symmetry_equiv_pos_site_id
 _symmetry_equiv_pos_as_xyz
  1  'x, y, z'
loop_
 _atom_site_type_symbol
 _atom_site_label
 _atom_site_symmetry_multiplicity
 _atom_site_fract_x
 _atom_site_fract_y
 _atom_site_fract_z
 _atom_site_occupancy
  Tb  Tb0  1  0.485268  0.235268  0.470538  1
  Tb  Tb1  1  0.014732  0.485268  0.750000  1
  Tb  Tb2  1  0.264732  0.014732  0.029462  1
  Tb  Tb3  1  0.235268  0.264732  0.750000  1
  Ho  Ho4  1  0.468053  0.484012  0.234492  1
  Ho  Ho5  1  0.749520  0.233560  0.265508  1
  Ho  Ho6  1  0.750480  0.015988  0.484040  1
  Ho  Ho7  1  0.233560  0.468053  0.484040  1
  Ho  Ho8  1  0.266440  0.750480  0.234492  1
  Ho  Ho9  1  0.031947  0.266440  0.015960  1
  Ho  Ho10  1  0.015988  0.031947  0.265508  1
  Ho  Ho11  1  0.484012  0.749520  0.015960  1
  B  B12  1  0.249301  0.250699  0.250000  1
  B  B13  1  0.500699  0.999301  0.250000  1
  B  B14  1  0.999301  0.249301  0.498603  1
  B  B15  1  0.250699  0.500699  0.001397  1
  Cl  Cl16  1  0.253432  0.753975  0.744494  1
  Cl  Cl17  1  0.509480  0.508938  0.755506  1
  Cl  Cl18  1  0.990520  0.746025  0.999457  1
  Cl  Cl19  1  0.746025  0.246568  0.755506  1
  Cl  Cl20  1  0.991062  0.990520  0.744494  1
  Cl  Cl21  1  0.246568  0.991062  0.500543  1
  Cl  Cl22  1  0.753975  0.509480  0.500543  1
  Cl  Cl23  1  0.508938  0.253432  0.999457  1
  Cl  Cl24  1  0.753714  0.746286  0.250000  1
  Cl  Cl25  1  0.746286  0.996286  0.992571  1
  Cl  Cl26  1  0.996286  0.503714  0.250000  1
  Cl  Cl27  1  0.503714  0.753714  0.507429  1
