# generated using pymatgen
data_Ho3Hf(MoN2)4
_symmetry_space_group_name_H-M   'P 1'
_cell_length_a   3.15484400
_cell_length_b   5.64927686
_cell_length_c   10.55024624
_cell_angle_alpha   90.28788737
_cell_angle_beta   90.00000000
_cell_angle_gamma   90.00000000
_symmetry_Int_Tables_number   1
_chemical_formula_structural   Ho3Hf(MoN2)4
_chemical_formula_sum   'Ho3 Hf1 Mo4 N8'
_cell_volume   188.03030999
_cell_formula_units_Z   1
loop_
 _symmetry_equiv_pos_site_id
 _symmetry_equiv_pos_as_xyz
  1  'x, y, z'
loop_
 _atom_site_type_symbol
 _atom_site_label
 _atom_site_symmetry_multiplicity
 _atom_site_fract_x
 _atom_site_fract_y
 _atom_site_fract_z
 _atom_site_occupancy
  Ho  Ho0  1  0.250000  0.580625  0.647958  1
  Ho  Ho1  1  0.750000  0.918971  0.146502  1
  Ho  Ho2  1  0.750000  0.419960  0.352365  1
  Hf  Hf3  1  0.250000  0.080885  0.850008  1
  Mo  Mo4  1  0.250000  0.430466  0.091874  1
  Mo  Mo5  1  0.250000  0.931494  0.406243  1
  Mo  Mo6  1  0.750000  0.565173  0.908773  1
  Mo  Mo7  1  0.750000  0.070196  0.593882  1
  N  N8  1  0.250000  0.166576  0.246330  1
  N  N9  1  0.250000  0.663629  0.248931  1
  N  N10  1  0.750000  0.849830  0.761042  1
  N  N11  1  0.750000  0.323204  0.754039  1
  N  N12  1  0.250000  0.770570  0.989289  1
  N  N13  1  0.250000  0.261679  0.507093  1
  N  N14  1  0.750000  0.229204  0.998108  1
  N  N15  1  0.750000  0.737538  0.497565  1
