# generated using pymatgen
data_Ti4NbRe17Tc7
_symmetry_space_group_name_H-M   'P 1'
_cell_length_a   8.37119698
_cell_length_b   8.37119596
_cell_length_c   8.36300600
_cell_angle_alpha   109.47841368
_cell_angle_beta   109.47841017
_cell_angle_gamma   109.54712140
_symmetry_Int_Tables_number   1
_chemical_formula_structural   Ti4NbRe17Tc7
_chemical_formula_sum   'Ti4 Nb1 Re17 Tc7'
_cell_volume   450.64088128
_cell_formula_units_Z   1
loop_
 _symmetry_equiv_pos_site_id
 _symmetry_equiv_pos_as_xyz
  1  'x, y, z'
loop_
 _atom_site_type_symbol
 _atom_site_label
 _atom_site_symmetry_multiplicity
 _atom_site_fract_x
 _atom_site_fract_y
 _atom_site_fract_z
 _atom_site_occupancy
  Ti  Ti0  1  0.629416  0.999687  0.999804  1
  Ti  Ti1  1  0.999687  0.629416  0.999804  1
  Ti  Ti2  1  0.000916  0.000916  0.631231  1
  Ti  Ti3  1  0.368738  0.368738  0.369103  1
  Nb  Nb4  1  0.999551  0.999551  0.999785  1
  Re  Re5  1  0.000995  0.682113  0.400581  1
  Re  Re6  1  0.682113  0.000995  0.400581  1
  Re  Re7  1  0.599394  0.599394  0.280446  1
  Re  Re8  1  0.280999  0.600562  0.599949  1
  Re  Re9  1  0.600562  0.280999  0.599949  1
  Re  Re10  1  0.376521  0.194121  0.000671  1
  Re  Re11  1  0.180956  0.806582  0.805854  1
  Re  Re12  1  0.375181  0.000578  0.193843  1
  Re  Re13  1  0.194121  0.376521  0.000671  1
  Re  Re14  1  0.000578  0.375181  0.193843  1
  Re  Re15  1  0.806582  0.180956  0.805854  1
  Re  Re16  1  0.806385  0.806385  0.181559  1
  Re  Re17  1  0.000978  0.193634  0.377194  1
  Re  Re18  1  0.193634  0.000978  0.377194  1
  Re  Re19  1  0.622919  0.622919  0.816134  1
  Re  Re20  1  0.815955  0.623206  0.622818  1
  Re  Re21  1  0.623206  0.815955  0.622818  1
  Tc  Tc22  1  0.400784  0.683334  0.000336  1
  Tc  Tc23  1  0.718284  0.317132  0.316498  1
  Tc  Tc24  1  0.401799  0.001670  0.683942  1
  Tc  Tc25  1  0.683334  0.400784  0.000336  1
  Tc  Tc26  1  0.001670  0.401799  0.683942  1
  Tc  Tc27  1  0.317132  0.718284  0.316498  1
  Tc  Tc28  1  0.317611  0.317611  0.718764  1
