# generated using pymatgen
data_CrCo4Si7(Mo6C)2
_symmetry_space_group_name_H-M   'P 1'
_cell_length_a   7.75765122
_cell_length_b   7.75765099
_cell_length_c   7.75764993
_cell_angle_alpha   60.40171324
_cell_angle_beta   60.40171527
_cell_angle_gamma   60.40171440
_symmetry_Int_Tables_number   1
_chemical_formula_structural   CrCo4Si7(Mo6C)2
_chemical_formula_sum   'Cr1 Co4 Si7 Mo12 C2'
_cell_volume   333.12191654
_cell_formula_units_Z   1
loop_
 _symmetry_equiv_pos_site_id
 _symmetry_equiv_pos_as_xyz
  1  'x, y, z'
loop_
 _atom_site_type_symbol
 _atom_site_label
 _atom_site_symmetry_multiplicity
 _atom_site_fract_x
 _atom_site_fract_y
 _atom_site_fract_z
 _atom_site_occupancy
  Cr  Cr0  1  0.836739  0.836739  0.836739  1
  Co  Co1  1  0.618427  0.618427  0.137109  1
  Co  Co2  1  0.618427  0.137109  0.618427  1
  Co  Co3  1  0.137109  0.618427  0.618427  1
  Co  Co4  1  0.625810  0.625810  0.625810  1
  Si  Si5  1  0.415323  0.415323  0.755882  1
  Si  Si6  1  0.415323  0.755882  0.415323  1
  Si  Si7  1  0.755882  0.415323  0.415323  1
  Si  Si8  1  0.412845  0.412845  0.412845  1
  Si  Si9  1  0.835357  0.835357  0.500666  1
  Si  Si10  1  0.835357  0.500666  0.835357  1
  Si  Si11  1  0.500666  0.835357  0.835357  1
  Mo  Mo12  1  0.054663  0.054663  0.442900  1
  Mo  Mo13  1  0.441327  0.056619  0.441327  1
  Mo  Mo14  1  0.056619  0.441327  0.441327  1
  Mo  Mo15  1  0.441327  0.441327  0.056619  1
  Mo  Mo16  1  0.054663  0.442900  0.054663  1
  Mo  Mo17  1  0.442900  0.054663  0.054663  1
  Mo  Mo18  1  0.193191  0.193191  0.807218  1
  Mo  Mo19  1  0.809884  0.187219  0.809884  1
  Mo  Mo20  1  0.187219  0.809884  0.809884  1
  Mo  Mo21  1  0.809884  0.809884  0.187219  1
  Mo  Mo22  1  0.193191  0.807218  0.193191  1
  Mo  Mo23  1  0.807218  0.193191  0.193191  1
  C  C24  1  0.248292  0.248292  0.248292  1
  C  C25  1  0.002353  0.002353  0.002353  1
