# generated using pymatgen
data_Th2Si5Rh3
_symmetry_space_group_name_H-M   'P 1'
_cell_length_a   8.25650466
_cell_length_b   8.25650359
_cell_length_c   8.25650435
_cell_angle_alpha   137.76119714
_cell_angle_beta   105.74982848
_cell_angle_gamma   89.32463703
_symmetry_Int_Tables_number   1
_chemical_formula_structural   Th2Si5Rh3
_chemical_formula_sum   'Th4 Si10 Rh6'
_cell_volume   348.23797558
_cell_formula_units_Z   2
loop_
 _symmetry_equiv_pos_site_id
 _symmetry_equiv_pos_as_xyz
  1  'x, y, z'
loop_
 _atom_site_type_symbol
 _atom_site_label
 _atom_site_symmetry_multiplicity
 _atom_site_fract_x
 _atom_site_fract_y
 _atom_site_fract_z
 _atom_site_occupancy
  Th  Th0  1  0.863338  0.631142  0.232197  1
  Th  Th1  1  0.136662  0.368858  0.767803  1
  Th  Th2  1  0.398945  0.131142  0.267803  1
  Th  Th3  1  0.601055  0.868858  0.732197  1
  Si  Si4  1  0.500000  0.750000  0.250000  1
  Si  Si5  1  0.500000  0.250000  0.750000  1
  Si  Si6  1  0.225245  0.975245  0.750000  1
  Si  Si7  1  0.774755  0.524755  0.750000  1
  Si  Si8  1  0.774755  0.024755  0.250000  1
  Si  Si9  1  0.225245  0.475245  0.250000  1
  Si  Si10  1  0.042814  0.892322  0.150493  1
  Si  Si11  1  0.957186  0.107678  0.849507  1
  Si  Si12  1  0.741829  0.392322  0.349507  1
  Si  Si13  1  0.258171  0.607678  0.650493  1
  Rh  Rh14  1  0.000000  0.750000  0.750000  1
  Rh  Rh15  1  0.000000  0.250000  0.250000  1
  Rh  Rh16  1  0.250144  0.861441  0.388703  1
  Rh  Rh17  1  0.749856  0.138559  0.611297  1
  Rh  Rh18  1  0.472739  0.361441  0.111297  1
  Rh  Rh19  1  0.527261  0.638559  0.888703  1
