# generated using pymatgen
data_Ho2Tm10Co4BiIr
_symmetry_space_group_name_H-M   'P 1'
_cell_length_a   8.21958173
_cell_length_b   8.21958096
_cell_length_c   8.21371225
_cell_angle_alpha   110.80620856
_cell_angle_beta   111.28173365
_cell_angle_gamma   106.40051852
_symmetry_Int_Tables_number   1
_chemical_formula_structural   Ho2Tm10Co4BiIr
_chemical_formula_sum   'Ho2 Tm10 Co4 Bi1 Ir1'
_cell_volume   426.09373825
_cell_formula_units_Z   1
loop_
 _symmetry_equiv_pos_site_id
 _symmetry_equiv_pos_as_xyz
  1  'x, y, z'
loop_
 _atom_site_type_symbol
 _atom_site_label
 _atom_site_symmetry_multiplicity
 _atom_site_fract_x
 _atom_site_fract_y
 _atom_site_fract_z
 _atom_site_occupancy
  Ho  Ho0  1  0.284261  0.182649  0.466908  1
  Ho  Ho1  1  0.715739  0.817351  0.533092  1
  Tm  Tm2  1  0.283922  0.817207  0.101127  1
  Tm  Tm3  1  0.716078  0.182793  0.898873  1
  Tm  Tm4  1  0.620718  0.311195  0.308846  1
  Tm  Tm5  1  0.379282  0.688805  0.691154  1
  Tm  Tm6  1  0.002350  0.311872  0.691154  1
  Tm  Tm7  1  0.997650  0.688128  0.308846  1
  Tm  Tm8  1  0.212822  0.411474  0.197546  1
  Tm  Tm9  1  0.787178  0.588526  0.802454  1
  Tm  Tm10  1  0.213929  0.015276  0.802454  1
  Tm  Tm11  1  0.786071  0.984724  0.197546  1
  Co  Co12  1  0.999881  0.376487  0.376367  1
  Co  Co13  1  0.000119  0.623513  0.623633  1
  Co  Co14  1  0.388528  0.888528  0.500000  1
  Co  Co15  1  0.611472  0.111472  0.500000  1
  Bi  Bi16  1  0.500000  0.500000  0.000000  1
  Ir  Ir17  1  0.000000  0.000000  0.000000  1
