# generated using pymatgen
data_Np2(Al3Ir)3
_symmetry_space_group_name_H-M   'P 1'
_cell_length_a   7.60190866
_cell_length_b   7.60407151
_cell_length_c   9.44261400
_cell_angle_alpha   90.00000000
_cell_angle_beta   90.00000000
_cell_angle_gamma   119.64242351
_symmetry_Int_Tables_number   1
_chemical_formula_structural   Np2(Al3Ir)3
_chemical_formula_sum   'Np4 Al18 Ir6'
_cell_volume   474.40067533
_cell_formula_units_Z   2
loop_
 _symmetry_equiv_pos_site_id
 _symmetry_equiv_pos_as_xyz
  1  'x, y, z'
loop_
 _atom_site_type_symbol
 _atom_site_label
 _atom_site_symmetry_multiplicity
 _atom_site_fract_x
 _atom_site_fract_y
 _atom_site_fract_z
 _atom_site_occupancy
  Np  Np0  1  0.995809  0.670569  0.750000  1
  Np  Np1  1  0.004191  0.329431  0.250000  1
  Np  Np2  1  0.670434  0.995537  0.750000  1
  Np  Np3  1  0.329566  0.004463  0.250000  1
  Al  Al4  1  0.128059  0.128065  0.750000  1
  Al  Al5  1  0.871941  0.871935  0.250000  1
  Al  Al6  1  0.000496  0.335233  0.575203  1
  Al  Al7  1  0.999504  0.664767  0.424797  1
  Al  Al8  1  0.999504  0.664767  0.075203  1
  Al  Al9  1  0.335160  0.000489  0.924757  1
  Al  Al10  1  0.000496  0.335233  0.924797  1
  Al  Al11  1  0.664840  0.999511  0.075243  1
  Al  Al12  1  0.664840  0.999511  0.424757  1
  Al  Al13  1  0.335160  0.000489  0.575243  1
  Al  Al14  1  0.333362  0.333443  0.053315  1
  Al  Al15  1  0.666638  0.666557  0.946685  1
  Al  Al16  1  0.666638  0.666557  0.553315  1
  Al  Al17  1  0.333362  0.333443  0.446685  1
  Al  Al18  1  0.339953  0.547491  0.750000  1
  Al  Al19  1  0.660047  0.452509  0.250000  1
  Al  Al20  1  0.547583  0.340035  0.750000  1
  Al  Al21  1  0.452417  0.659965  0.250000  1
  Ir  Ir22  1  0.671287  0.328653  0.499949  1
  Ir  Ir23  1  0.328713  0.671347  0.500051  1
  Ir  Ir24  1  0.328713  0.671347  0.999949  1
  Ir  Ir25  1  0.671287  0.328653  0.000051  1
  Ir  Ir26  1  0.000000  0.000000  0.500000  1
  Ir  Ir27  1  0.000000  0.000000  0.000000  1
