# generated using pymatgen
data_Sr2Bi2IrRh3O14
_symmetry_space_group_name_H-M   'P 1'
_cell_length_a   7.43090633
_cell_length_b   7.37423334
_cell_length_c   7.37423360
_cell_angle_alpha   59.23965425
_cell_angle_beta   59.95500740
_cell_angle_gamma   59.95500793
_symmetry_Int_Tables_number   1
_chemical_formula_structural   Sr2Bi2IrRh3O14
_chemical_formula_sum   'Sr2 Bi2 Ir1 Rh3 O14'
_cell_volume   283.86401400
_cell_formula_units_Z   1
loop_
 _symmetry_equiv_pos_site_id
 _symmetry_equiv_pos_as_xyz
  1  'x, y, z'
loop_
 _atom_site_type_symbol
 _atom_site_label
 _atom_site_symmetry_multiplicity
 _atom_site_fract_x
 _atom_site_fract_y
 _atom_site_fract_z
 _atom_site_occupancy
  Sr  Sr0  1  0.125000  0.625000  0.125000  1
  Sr  Sr1  1  0.125000  0.125000  0.625000  1
  Bi  Bi2  1  0.125000  0.125000  0.125000  1
  Bi  Bi3  1  0.625000  0.125000  0.125000  1
  Ir  Ir4  1  0.125000  0.625000  0.625000  1
  Rh  Rh5  1  0.625000  0.625000  0.625000  1
  Rh  Rh6  1  0.625000  0.625000  0.125000  1
  Rh  Rh7  1  0.625000  0.125000  0.625000  1
  O  O8  1  0.267421  0.234650  0.234650  1
  O  O9  1  0.297390  0.710440  0.299323  1
  O  O10  1  0.952610  0.950677  0.539560  1
  O  O11  1  0.552326  0.957674  0.536110  1
  O  O12  1  0.697674  0.713890  0.292326  1
  O  O13  1  0.951207  0.553073  0.553073  1
  O  O14  1  0.697674  0.292326  0.713890  1
  O  O15  1  0.297390  0.299323  0.710440  1
  O  O16  1  0.706271  0.295442  0.295442  1
  O  O17  1  0.298793  0.696927  0.696927  1
  O  O18  1  0.952610  0.539560  0.950677  1
  O  O19  1  0.552326  0.536110  0.957674  1
  O  O20  1  0.982579  0.015350  0.015350  1
  O  O21  1  0.543729  0.954558  0.954558  1
