# generated using pymatgen
data_Rb2Al(S2O7)3
_symmetry_space_group_name_H-M   'P 1'
_cell_length_a   9.92077400
_cell_length_b   9.92077410
_cell_length_c   11.42496800
_cell_angle_alpha   90.00000000
_cell_angle_beta   90.00000000
_cell_angle_gamma   119.99999300
_symmetry_Int_Tables_number   1
_chemical_formula_structural   Rb2Al(S2O7)3
_chemical_formula_sum   'Rb4 Al2 S12 O42'
_cell_volume   973.81569897
_cell_formula_units_Z   2
loop_
 _symmetry_equiv_pos_site_id
 _symmetry_equiv_pos_as_xyz
  1  'x, y, z'
loop_
 _atom_site_type_symbol
 _atom_site_label
 _atom_site_symmetry_multiplicity
 _atom_site_fract_x
 _atom_site_fract_y
 _atom_site_fract_z
 _atom_site_occupancy
  Rb  Rb0  1  0.666667  0.333333  0.562370  1
  Rb  Rb1  1  0.333333  0.666667  0.437630  1
  Rb  Rb2  1  0.333333  0.666667  0.879644  1
  Rb  Rb3  1  0.666667  0.333333  0.120356  1
  Al  Al4  1  0.000000  0.000000  0.757693  1
  Al  Al5  1  0.000000  0.000000  0.242307  1
  S  S6  1  0.081105  0.332516  0.661918  1
  S  S7  1  0.251411  0.918895  0.661918  1
  S  S8  1  0.667484  0.748589  0.661918  1
  S  S9  1  0.918895  0.667484  0.338082  1
  S  S10  1  0.748589  0.081105  0.338082  1
  S  S11  1  0.332516  0.251411  0.338082  1
  S  S12  1  0.806027  0.657456  0.846055  1
  S  S13  1  0.851429  0.193973  0.846055  1
  S  S14  1  0.342544  0.148571  0.846055  1
  S  S15  1  0.193973  0.342544  0.153945  1
  S  S16  1  0.148571  0.806027  0.153945  1
  S  S17  1  0.657456  0.851429  0.153945  1
  O  O18  1  0.657360  0.675125  0.793924  1
  O  O19  1  0.017764  0.342640  0.793924  1
  O  O20  1  0.324875  0.982236  0.793924  1
  O  O21  1  0.342640  0.324875  0.206076  1
  O  O22  1  0.982236  0.657360  0.206076  1
  O  O23  1  0.675125  0.017764  0.206076  1
  O  O24  1  0.934995  0.822877  0.854080  1
  O  O25  1  0.887884  0.065005  0.854080  1
  O  O26  1  0.177123  0.112116  0.854080  1
  O  O27  1  0.065005  0.177123  0.145920  1
  O  O28  1  0.112116  0.934995  0.145920  1
  O  O29  1  0.822877  0.887884  0.145920  1
  O  O30  1  0.060391  0.173204  0.656603  1
  O  O31  1  0.112813  0.939609  0.656603  1
  O  O32  1  0.826796  0.887187  0.656603  1
  O  O33  1  0.939609  0.826796  0.343397  1
  O  O34  1  0.887187  0.060391  0.343397  1
  O  O35  1  0.173204  0.112813  0.343397  1
  O  O36  1  0.837856  0.568708  0.761981  1
  O  O37  1  0.730853  0.162144  0.761981  1
  O  O38  1  0.431292  0.269147  0.761981  1
  O  O39  1  0.162144  0.431292  0.238019  1
  O  O40  1  0.269147  0.837856  0.238019  1
  O  O41  1  0.568708  0.730853  0.238019  1
  O  O42  1  0.749392  0.591450  0.959577  1
  O  O43  1  0.842058  0.250608  0.959577  1
  O  O44  1  0.408550  0.157942  0.959577  1
  O  O45  1  0.250608  0.408550  0.040423  1
  O  O46  1  0.157942  0.749392  0.040423  1
  O  O47  1  0.591450  0.842058  0.040423  1
  O  O48  1  0.242340  0.453222  0.667508  1
  O  O49  1  0.210881  0.757660  0.667508  1
  O  O50  1  0.546778  0.789119  0.667508  1
  O  O51  1  0.757660  0.546778  0.332492  1
  O  O52  1  0.789119  0.242340  0.332492  1
  O  O53  1  0.453222  0.210881  0.332492  1
  O  O54  1  0.985724  0.351975  0.575959  1
  O  O55  1  0.366252  0.014276  0.575959  1
  O  O56  1  0.648025  0.633748  0.575959  1
  O  O57  1  0.014276  0.648025  0.424041  1
  O  O58  1  0.633748  0.985724  0.424041  1
  O  O59  1  0.351975  0.366252  0.424041  1
