# generated using pymatgen
data_Nd3Cu7(Ni3B)2
_symmetry_space_group_name_H-M   'P 1'
_cell_length_a   5.13268952
_cell_length_b   5.13389908
_cell_length_c   11.00172000
_cell_angle_alpha   89.98766214
_cell_angle_beta   90.02467037
_cell_angle_gamma   119.99218734
_symmetry_Int_Tables_number   1
_chemical_formula_structural   Nd3Cu7(Ni3B)2
_chemical_formula_sum   'Nd3 Cu7 Ni6 B2'
_cell_volume   251.08321753
_cell_formula_units_Z   1
loop_
 _symmetry_equiv_pos_site_id
 _symmetry_equiv_pos_as_xyz
  1  'x, y, z'
loop_
 _atom_site_type_symbol
 _atom_site_label
 _atom_site_symmetry_multiplicity
 _atom_site_fract_x
 _atom_site_fract_y
 _atom_site_fract_z
 _atom_site_occupancy
  Nd  Nd0  1  0.000105  0.000000  0.000135  1
  Nd  Nd1  1  0.000060  0.000000  0.317086  1
  Nd  Nd2  1  0.999616  0.000000  0.683006  1
  Cu  Cu3  1  0.499975  0.000000  0.499912  1
  Cu  Cu4  1  0.499889  0.500017  0.499907  1
  Cu  Cu5  1  0.999872  0.499983  0.499907  1
  Cu  Cu6  1  0.333377  0.666574  0.313930  1
  Cu  Cu7  1  0.666803  0.333426  0.313930  1
  Cu  Cu8  1  0.666394  0.333382  0.685965  1
  Cu  Cu9  1  0.333012  0.666618  0.685965  1
  Ni  Ni10  1  0.500407  0.000000  0.128275  1
  Ni  Ni11  1  0.500287  0.500007  0.128218  1
  Ni  Ni12  1  0.000281  0.499993  0.128218  1
  Ni  Ni13  1  0.499871  0.000000  0.871788  1
  Ni  Ni14  1  0.499838  0.499998  0.871852  1
  Ni  Ni15  1  0.999841  0.500002  0.871852  1
  B  B16  1  0.333532  0.666792  0.000025  1
  B  B17  1  0.666739  0.333208  0.000025  1
