# generated using pymatgen
data_Pr10Pb6SCl
_symmetry_space_group_name_H-M   'P 1'
_cell_length_a   9.59029500
_cell_length_b   9.59029516
_cell_length_c   6.96391600
_cell_angle_alpha   90.00000000
_cell_angle_beta   90.00000000
_cell_angle_gamma   120.00000289
_symmetry_Int_Tables_number   1
_chemical_formula_structural   Pr10Pb6SCl
_chemical_formula_sum   'Pr10 Pb6 S1 Cl1'
_cell_volume   554.68712210
_cell_formula_units_Z   1
loop_
 _symmetry_equiv_pos_site_id
 _symmetry_equiv_pos_as_xyz
  1  'x, y, z'
loop_
 _atom_site_type_symbol
 _atom_site_label
 _atom_site_symmetry_multiplicity
 _atom_site_fract_x
 _atom_site_fract_y
 _atom_site_fract_z
 _atom_site_occupancy
  Pr  Pr0  1  0.000000  0.749488  0.740964  1
  Pr  Pr1  1  0.250512  0.000000  0.259036  1
  Pr  Pr2  1  0.333333  0.666667  0.500000  1
  Pr  Pr3  1  0.666667  0.333333  0.500000  1
  Pr  Pr4  1  0.749488  0.749488  0.259036  1
  Pr  Pr5  1  0.000000  0.250512  0.259036  1
  Pr  Pr6  1  0.250512  0.250512  0.740964  1
  Pr  Pr7  1  0.749488  0.000000  0.740964  1
  Pr  Pr8  1  0.333333  0.666667  0.000000  1
  Pr  Pr9  1  0.666667  0.333333  0.000000  1
  Pb  Pb10  1  0.606038  0.606038  0.750798  1
  Pb  Pb11  1  0.000000  0.606038  0.249202  1
  Pb  Pb12  1  0.000000  0.393962  0.750798  1
  Pb  Pb13  1  0.606038  0.000000  0.249202  1
  Pb  Pb14  1  0.393962  0.000000  0.750798  1
  Pb  Pb15  1  0.393962  0.393962  0.249202  1
  S  S16  1  0.000000  0.000000  0.500000  1
  Cl  Cl17  1  0.000000  0.000000  0.000000  1
