# generated using pymatgen
data_Ba8Ta3PN12
_symmetry_space_group_name_H-M   'P 1'
_cell_length_a   6.68020491
_cell_length_b   6.66913686
_cell_length_c   13.27033204
_cell_angle_alpha   90.23506181
_cell_angle_beta   89.20633070
_cell_angle_gamma   125.99710574
_symmetry_Int_Tables_number   1
_chemical_formula_structural   Ba8Ta3PN12
_chemical_formula_sum   'Ba8 Ta3 P1 N12'
_cell_volume   478.26401665
_cell_formula_units_Z   1
loop_
 _symmetry_equiv_pos_site_id
 _symmetry_equiv_pos_as_xyz
  1  'x, y, z'
loop_
 _atom_site_type_symbol
 _atom_site_label
 _atom_site_symmetry_multiplicity
 _atom_site_fract_x
 _atom_site_fract_y
 _atom_site_fract_z
 _atom_site_occupancy
  Ba  Ba0  1  0.560960  0.934788  0.854175  1
  Ba  Ba1  1  0.952077  0.554384  0.360349  1
  Ba  Ba2  1  0.446183  0.044473  0.138157  1
  Ba  Ba3  1  0.046696  0.453518  0.644284  1
  Ba  Ba4  1  0.650367  0.866931  0.434915  1
  Ba  Ba5  1  0.131449  0.348949  0.071693  1
  Ba  Ba6  1  0.367839  0.143810  0.579683  1
  Ba  Ba7  1  0.858507  0.631535  0.917380  1
  Ta  Ta8  1  0.265396  0.257525  0.336856  1
  Ta  Ta9  1  0.244786  0.253088  0.822152  1
  Ta  Ta10  1  0.744627  0.732187  0.166487  1
  P  P11  1  0.742772  0.760078  0.665274  1
  N  N12  1  0.679231  0.850773  0.048616  1
  N  N13  1  0.146432  0.329728  0.454914  1
  N  N14  1  0.334226  0.151526  0.939176  1
  N  N15  1  0.834762  0.676143  0.568329  1
  N  N16  1  0.989340  0.008782  0.252409  1
  N  N17  1  0.992665  0.957720  0.740467  1
  N  N18  1  0.441070  0.557059  0.251228  1
  N  N19  1  0.096644  0.414080  0.866445  1
  N  N20  1  0.462267  0.142186  0.374431  1
  N  N21  1  0.861889  0.534866  0.130367  1
  N  N22  1  0.601226  0.892227  0.641326  1
  N  N23  1  0.548591  0.503643  0.740886  1
