# generated using pymatgen
data_Ba3LuScO6
_symmetry_space_group_name_H-M   'P 1'
_cell_length_a   7.23359484
_cell_length_b   7.23359501
_cell_length_c   7.23359473
_cell_angle_alpha   93.46349396
_cell_angle_beta   93.46349324
_cell_angle_gamma   93.46349560
_symmetry_Int_Tables_number   1
_chemical_formula_structural   Ba3LuScO6
_chemical_formula_sum   'Ba6 Lu2 Sc2 O12'
_cell_volume   376.33537303
_cell_formula_units_Z   2
loop_
 _symmetry_equiv_pos_site_id
 _symmetry_equiv_pos_as_xyz
  1  'x, y, z'
loop_
 _atom_site_type_symbol
 _atom_site_label
 _atom_site_symmetry_multiplicity
 _atom_site_fract_x
 _atom_site_fract_y
 _atom_site_fract_z
 _atom_site_occupancy
  Ba  Ba0  1  0.610970  0.250000  0.889030  1
  Ba  Ba1  1  0.889030  0.610970  0.250000  1
  Ba  Ba2  1  0.750000  0.110970  0.389030  1
  Ba  Ba3  1  0.389030  0.750000  0.110970  1
  Ba  Ba4  1  0.110970  0.389030  0.750000  1
  Ba  Ba5  1  0.250000  0.889030  0.610970  1
  Lu  Lu6  1  0.250000  0.250000  0.250000  1
  Lu  Lu7  1  0.750000  0.750000  0.750000  1
  Sc  Sc8  1  0.000000  0.000000  0.000000  1
  Sc  Sc9  1  0.500000  0.500000  0.500000  1
  O  O10  1  0.598595  0.782886  0.471513  1
  O  O11  1  0.471513  0.598595  0.782886  1
  O  O12  1  0.782886  0.471513  0.598595  1
  O  O13  1  0.901405  0.028487  0.717114  1
  O  O14  1  0.717114  0.901405  0.028487  1
  O  O15  1  0.028487  0.717114  0.901405  1
  O  O16  1  0.401405  0.217114  0.528487  1
  O  O17  1  0.528487  0.401405  0.217114  1
  O  O18  1  0.217114  0.528487  0.401405  1
  O  O19  1  0.098595  0.971513  0.282886  1
  O  O20  1  0.971513  0.282886  0.098595  1
  O  O21  1  0.282886  0.098595  0.971513  1
