# generated using pymatgen
data_La4CoSi6Au
_symmetry_space_group_name_H-M   'P 1'
_cell_length_a   8.25128700
_cell_length_b   8.25128761
_cell_length_c   4.40149400
_cell_angle_alpha   90.00000000
_cell_angle_beta   90.00000000
_cell_angle_gamma   120.00000956
_symmetry_Int_Tables_number   1
_chemical_formula_structural   La4CoSi6Au
_chemical_formula_sum   'La4 Co1 Si6 Au1'
_cell_volume   259.52196617
_cell_formula_units_Z   1
loop_
 _symmetry_equiv_pos_site_id
 _symmetry_equiv_pos_as_xyz
  1  'x, y, z'
loop_
 _atom_site_type_symbol
 _atom_site_label
 _atom_site_symmetry_multiplicity
 _atom_site_fract_x
 _atom_site_fract_y
 _atom_site_fract_z
 _atom_site_occupancy
  La  La0  1  0.506903  0.493097  0.000000  1
  La  La1  1  0.986195  0.493097  0.000000  1
  La  La2  1  0.506903  0.013805  0.000000  1
  La  La3  1  0.000000  0.000000  0.000000  1
  Co  Co4  1  0.666667  0.333333  0.500000  1
  Si  Si5  1  0.827529  0.655058  0.500000  1
  Si  Si6  1  0.161191  0.838809  0.500000  1
  Si  Si7  1  0.677617  0.838809  0.500000  1
  Si  Si8  1  0.161191  0.322383  0.500000  1
  Si  Si9  1  0.827529  0.172471  0.500000  1
  Si  Si10  1  0.344942  0.172471  0.500000  1
  Au  Au11  1  0.333333  0.666667  0.500000  1
