# generated using pymatgen
data_Ho8Tm3LuGa20
_symmetry_space_group_name_H-M   'P 1'
_cell_length_a   6.06129706
_cell_length_b   9.58500800
_cell_length_c   11.45307611
_cell_angle_alpha   90.00000000
_cell_angle_beta   89.98377517
_cell_angle_gamma   90.00000000
_symmetry_Int_Tables_number   1
_chemical_formula_structural   Ho8Tm3LuGa20
_chemical_formula_sum   'Ho8 Tm3 Lu1 Ga20'
_cell_volume   665.39598853
_cell_formula_units_Z   1
loop_
 _symmetry_equiv_pos_site_id
 _symmetry_equiv_pos_as_xyz
  1  'x, y, z'
loop_
 _atom_site_type_symbol
 _atom_site_label
 _atom_site_symmetry_multiplicity
 _atom_site_fract_x
 _atom_site_fract_y
 _atom_site_fract_z
 _atom_site_occupancy
  Ho  Ho0  1  0.890804  0.509766  0.351683  1
  Ho  Ho1  1  0.609278  0.990264  0.851639  1
  Ho  Ho2  1  0.109228  0.009879  0.648294  1
  Ho  Ho3  1  0.390712  0.490278  0.148324  1
  Ho  Ho4  1  0.109228  0.490121  0.648294  1
  Ho  Ho5  1  0.390712  0.009722  0.148324  1
  Ho  Ho6  1  0.890804  0.990234  0.351683  1
  Ho  Ho7  1  0.609278  0.509736  0.851639  1
  Tm  Tm8  1  0.651505  0.750000  0.573989  1
  Tm  Tm9  1  0.151440  0.250000  0.925896  1
  Tm  Tm10  1  0.348528  0.250000  0.425969  1
  Lu  Lu11  1  0.848408  0.750000  0.074205  1
  Ga  Ga12  1  0.875176  0.052716  0.090266  1
  Ga  Ga13  1  0.624741  0.447300  0.590210  1
  Ga  Ga14  1  0.124601  0.552530  0.909649  1
  Ga  Ga15  1  0.375223  0.947490  0.409824  1
  Ga  Ga16  1  0.124601  0.947470  0.909649  1
  Ga  Ga17  1  0.375223  0.552510  0.409824  1
  Ga  Ga18  1  0.875176  0.447284  0.090266  1
  Ga  Ga19  1  0.624741  0.052700  0.590210  1
  Ga  Ga20  1  0.172058  0.750000  0.251369  1
  Ga  Ga21  1  0.328267  0.750000  0.751393  1
  Ga  Ga22  1  0.828132  0.250000  0.748595  1
  Ga  Ga23  1  0.671851  0.250000  0.248544  1
  Ga  Ga24  1  0.373389  0.750000  0.005016  1
  Ga  Ga25  1  0.126555  0.750000  0.505205  1
  Ga  Ga26  1  0.626213  0.250000  0.994875  1
  Ga  Ga27  1  0.873545  0.250000  0.494907  1
  Ga  Ga28  1  0.603753  0.750000  0.299187  1
  Ga  Ga29  1  0.896531  0.750000  0.798826  1
  Ga  Ga30  1  0.396577  0.250000  0.701039  1
  Ga  Ga31  1  0.103719  0.250000  0.201206  1
