# generated using pymatgen
data_K4Sr2TiAs4
_symmetry_space_group_name_H-M   'P 1'
_cell_length_a   10.31474209
_cell_length_b   10.31474289
_cell_length_c   7.82976624
_cell_angle_alpha   88.17040398
_cell_angle_beta   88.17040917
_cell_angle_gamma   119.42871931
_symmetry_Int_Tables_number   1
_chemical_formula_structural   K4Sr2TiAs4
_chemical_formula_sum   'K8 Sr4 Ti2 As8'
_cell_volume   724.09498190
_cell_formula_units_Z   2
loop_
 _symmetry_equiv_pos_site_id
 _symmetry_equiv_pos_as_xyz
  1  'x, y, z'
loop_
 _atom_site_type_symbol
 _atom_site_label
 _atom_site_symmetry_multiplicity
 _atom_site_fract_x
 _atom_site_fract_y
 _atom_site_fract_z
 _atom_site_occupancy
  K  K0  1  0.474982  0.942682  0.385946  1
  K  K1  1  0.942682  0.474982  0.885946  1
  K  K2  1  0.867115  0.724787  0.170384  1
  K  K3  1  0.268812  0.127226  0.233996  1
  K  K4  1  0.855826  0.139008  0.196483  1
  K  K5  1  0.127226  0.268812  0.733996  1
  K  K6  1  0.724787  0.867115  0.670384  1
  K  K7  1  0.139008  0.855826  0.696483  1
  Sr  Sr8  1  0.065178  0.530974  0.392572  1
  Sr  Sr9  1  0.476089  0.529337  0.379908  1
  Sr  Sr10  1  0.530974  0.065178  0.892572  1
  Sr  Sr11  1  0.529337  0.476089  0.879908  1
  Ti  Ti12  1  0.664012  0.334568  0.491355  1
  Ti  Ti13  1  0.334568  0.664012  0.991355  1
  As  As14  1  0.644173  0.330085  0.169649  1
  As  As15  1  0.330085  0.644173  0.669649  1
  As  As16  1  0.211576  0.404906  0.127301  1
  As  As17  1  0.600863  0.795503  0.074602  1
  As  As18  1  0.209916  0.802191  0.095474  1
  As  As19  1  0.795503  0.600863  0.574602  1
  As  As20  1  0.404906  0.211576  0.627301  1
  As  As21  1  0.802191  0.209916  0.595474  1
