# generated using pymatgen
data_AcNd5(OsI3)2
_symmetry_space_group_name_H-M   'P 1'
_cell_length_a   4.39644200
_cell_length_b   9.51267322
_cell_length_c   12.66834646
_cell_angle_alpha   86.43806846
_cell_angle_beta   90.00000000
_cell_angle_gamma   90.00000000
_symmetry_Int_Tables_number   1
_chemical_formula_structural   AcNd5(OsI3)2
_chemical_formula_sum   'Ac1 Nd5 Os2 I6'
_cell_volume   528.79104123
_cell_formula_units_Z   1
loop_
 _symmetry_equiv_pos_site_id
 _symmetry_equiv_pos_as_xyz
  1  'x, y, z'
loop_
 _atom_site_type_symbol
 _atom_site_label
 _atom_site_symmetry_multiplicity
 _atom_site_fract_x
 _atom_site_fract_y
 _atom_site_fract_z
 _atom_site_occupancy
  Ac  Ac0  1  0.750000  0.687063  0.116888  1
  Nd  Nd1  1  0.250000  0.889627  0.330552  1
  Nd  Nd2  1  0.250000  0.302506  0.880533  1
  Nd  Nd3  1  0.250000  0.908122  0.888355  1
  Nd  Nd4  1  0.750000  0.117243  0.670494  1
  Nd  Nd5  1  0.750000  0.096221  0.109981  1
  Os  Os6  1  0.250000  0.896424  0.119536  1
  Os  Os7  1  0.750000  0.106679  0.881422  1
  I  I8  1  0.250000  0.385520  0.134052  1
  I  I9  1  0.750000  0.129218  0.381152  1
  I  I10  1  0.750000  0.597491  0.858018  1
  I  I11  1  0.250000  0.359533  0.623066  1
  I  I12  1  0.750000  0.647422  0.386468  1
  I  I13  1  0.250000  0.876929  0.619483  1
