# generated using pymatgen
data_Tm20Ir8Ru3Pt
_symmetry_space_group_name_H-M   'P 1'
_cell_length_a   10.70273851
_cell_length_b   10.70041281
_cell_length_c   6.35863719
_cell_angle_alpha   90.06981568
_cell_angle_beta   90.06443746
_cell_angle_gamma   89.91673172
_symmetry_Int_Tables_number   1
_chemical_formula_structural   Tm20Ir8Ru3Pt
_chemical_formula_sum   'Tm20 Ir8 Ru3 Pt1'
_cell_volume   728.21301755
_cell_formula_units_Z   1
loop_
 _symmetry_equiv_pos_site_id
 _symmetry_equiv_pos_as_xyz
  1  'x, y, z'
loop_
 _atom_site_type_symbol
 _atom_site_label
 _atom_site_symmetry_multiplicity
 _atom_site_fract_x
 _atom_site_fract_y
 _atom_site_fract_z
 _atom_site_occupancy
  Tm  Tm0  1  0.293141  0.085886  0.377040  1
  Tm  Tm1  1  0.293927  0.913969  0.877198  1
  Tm  Tm2  1  0.704327  0.084800  0.873211  1
  Tm  Tm3  1  0.705131  0.911244  0.378537  1
  Tm  Tm4  1  0.585795  0.793497  0.877387  1
  Tm  Tm5  1  0.583229  0.206525  0.377189  1
  Tm  Tm6  1  0.413364  0.793328  0.377182  1
  Tm  Tm7  1  0.413866  0.206442  0.877786  1
  Tm  Tm8  1  0.208334  0.413136  0.624254  1
  Tm  Tm9  1  0.207923  0.587527  0.121349  1
  Tm  Tm10  1  0.791990  0.416006  0.120861  1
  Tm  Tm11  1  0.791737  0.587217  0.623895  1
  Tm  Tm12  1  0.913132  0.708144  0.121513  1
  Tm  Tm13  1  0.914178  0.293895  0.628909  1
  Tm  Tm14  1  0.087116  0.707906  0.624861  1
  Tm  Tm15  1  0.089905  0.293562  0.119710  1
  Tm  Tm16  1  0.001287  0.998284  0.500693  1
  Tm  Tm17  1  0.001674  0.998704  0.997808  1
  Tm  Tm18  1  0.499783  0.500109  0.998880  1
  Tm  Tm19  1  0.499901  0.500174  0.499221  1
  Ir  Ir20  1  0.847480  0.847789  0.750008  1
  Ir  Ir21  1  0.151869  0.152807  0.749473  1
  Ir  Ir22  1  0.152332  0.846995  0.249993  1
  Ir  Ir23  1  0.653724  0.346548  0.749799  1
  Ir  Ir24  1  0.653028  0.652406  0.249934  1
  Ir  Ir25  1  0.346980  0.347606  0.249927  1
  Ir  Ir26  1  0.346918  0.652814  0.749692  1
  Ir  Ir27  1  0.999982  0.499688  0.377301  1
  Ru  Ru28  1  0.500315  0.000006  0.124986  1
  Ru  Ru29  1  0.500401  0.999968  0.624209  1
  Ru  Ru30  1  0.999981  0.499608  0.877070  1
  Pt  Pt31  1  0.847250  0.153411  0.250122  1
