# generated using pymatgen
data_Tb2Dy2Al18Ir5Au
_symmetry_space_group_name_H-M   'P 1'
_cell_length_a   7.59167071
_cell_length_b   7.59201916
_cell_length_c   9.48138048
_cell_angle_alpha   89.96331670
_cell_angle_beta   89.97805097
_cell_angle_gamma   119.59359440
_symmetry_Int_Tables_number   1
_chemical_formula_structural   Tb2Dy2Al18Ir5Au
_chemical_formula_sum   'Tb2 Dy2 Al18 Ir5 Au1'
_cell_volume   475.18271560
_cell_formula_units_Z   1
loop_
 _symmetry_equiv_pos_site_id
 _symmetry_equiv_pos_as_xyz
  1  'x, y, z'
loop_
 _atom_site_type_symbol
 _atom_site_label
 _atom_site_symmetry_multiplicity
 _atom_site_fract_x
 _atom_site_fract_y
 _atom_site_fract_z
 _atom_site_occupancy
  Tb  Tb0  1  0.995681  0.672598  0.751042  1
  Tb  Tb1  1  0.004319  0.327402  0.248958  1
  Dy  Dy2  1  0.672578  0.995703  0.751094  1
  Dy  Dy3  1  0.327422  0.004297  0.248906  1
  Al  Al4  1  0.134392  0.134466  0.756178  1
  Al  Al5  1  0.865608  0.865534  0.243822  1
  Al  Al6  1  0.001332  0.343644  0.578840  1
  Al  Al7  1  0.998668  0.656356  0.421160  1
  Al  Al8  1  0.000163  0.664982  0.073630  1
  Al  Al9  1  0.335294  0.999981  0.926512  1
  Al  Al10  1  0.999837  0.335018  0.926370  1
  Al  Al11  1  0.664706  0.000019  0.073488  1
  Al  Al12  1  0.656088  0.998550  0.421254  1
  Al  Al13  1  0.343912  0.001450  0.578746  1
  Al  Al14  1  0.333435  0.333320  0.052713  1
  Al  Al15  1  0.666565  0.666680  0.947287  1
  Al  Al16  1  0.658053  0.658162  0.558672  1
  Al  Al17  1  0.341947  0.341838  0.441328  1
  Al  Al18  1  0.338934  0.549360  0.751183  1
  Al  Al19  1  0.661066  0.450640  0.248817  1
  Al  Al20  1  0.549212  0.338689  0.751177  1
  Al  Al21  1  0.450788  0.661311  0.248823  1
  Ir  Ir22  1  0.671650  0.328204  0.499998  1
  Ir  Ir23  1  0.328350  0.671796  0.500002  1
  Ir  Ir24  1  0.328290  0.671843  0.999989  1
  Ir  Ir25  1  0.671710  0.328157  0.000011  1
  Ir  Ir26  1  0.000000  0.000000  0.000000  1
  Au  Au27  1  0.000000  0.000000  0.500000  1
