# generated using pymatgen
data_Sc2FeCo8P6Ru
_symmetry_space_group_name_H-M   'P 1'
_cell_length_a   3.62013800
_cell_length_b   10.23294600
_cell_length_c   11.68156300
_cell_angle_alpha   90.00000000
_cell_angle_beta   90.00000000
_cell_angle_gamma   90.00000000
_symmetry_Int_Tables_number   1
_chemical_formula_structural   Sc2FeCo8P6Ru
_chemical_formula_sum   'Sc4 Fe2 Co16 P12 Ru2'
_cell_volume   432.73972429
_cell_formula_units_Z   2
loop_
 _symmetry_equiv_pos_site_id
 _symmetry_equiv_pos_as_xyz
  1  'x, y, z'
loop_
 _atom_site_type_symbol
 _atom_site_label
 _atom_site_symmetry_multiplicity
 _atom_site_fract_x
 _atom_site_fract_y
 _atom_site_fract_z
 _atom_site_occupancy
  Sc  Sc0  1  0.250000  0.579963  0.702487  1
  Sc  Sc1  1  0.250000  0.920037  0.202487  1
  Sc  Sc2  1  0.750000  0.414868  0.294343  1
  Sc  Sc3  1  0.750000  0.085132  0.794343  1
  Fe  Fe4  1  0.750000  0.286820  0.011465  1
  Fe  Fe5  1  0.750000  0.213180  0.511465  1
  Co  Co6  1  0.250000  0.405902  0.483964  1
  Co  Co7  1  0.250000  0.094098  0.983964  1
  Co  Co8  1  0.750000  0.589799  0.513434  1
  Co  Co9  1  0.750000  0.910201  0.013434  1
  Co  Co10  1  0.250000  0.221121  0.176699  1
  Co  Co11  1  0.250000  0.278880  0.676699  1
  Co  Co12  1  0.750000  0.777909  0.822526  1
  Co  Co13  1  0.750000  0.722091  0.322526  1
  Co  Co14  1  0.250000  0.887297  0.702694  1
  Co  Co15  1  0.250000  0.612703  0.202694  1
  Co  Co16  1  0.750000  0.116225  0.299892  1
  Co  Co17  1  0.750000  0.383775  0.799892  1
  Co  Co18  1  0.250000  0.463979  0.932449  1
  Co  Co19  1  0.250000  0.036021  0.432449  1
  Co  Co20  1  0.750000  0.533990  0.069944  1
  Co  Co21  1  0.750000  0.966010  0.569944  1
  P  P22  1  0.250000  0.417873  0.115312  1
  P  P23  1  0.250000  0.082127  0.615312  1
  P  P24  1  0.750000  0.578534  0.884040  1
  P  P25  1  0.750000  0.921466  0.384040  1
  P  P26  1  0.250000  0.266028  0.866158  1
  P  P27  1  0.250000  0.233972  0.366158  1
  P  P28  1  0.750000  0.734726  0.134310  1
  P  P29  1  0.750000  0.765274  0.634310  1
  P  P30  1  0.250000  0.592269  0.388818  1
  P  P31  1  0.250000  0.907731  0.888818  1
  P  P32  1  0.750000  0.399590  0.609719  1
  P  P33  1  0.750000  0.100410  0.109719  1
  Ru  Ru34  1  0.250000  0.715715  0.991747  1
  Ru  Ru35  1  0.250000  0.784285  0.491747  1
