# generated using pymatgen
data_TbGd3Cl6
_symmetry_space_group_name_H-M   'P 1'
_cell_length_a   3.93763676
_cell_length_b   8.01300158
_cell_length_c   9.79316966
_cell_angle_alpha   103.77028684
_cell_angle_beta   101.59778611
_cell_angle_gamma   104.22338687
_symmetry_Int_Tables_number   1
_chemical_formula_structural   TbGd3Cl6
_chemical_formula_sum   'Tb1 Gd3 Cl6'
_cell_volume   279.64463853
_cell_formula_units_Z   1
loop_
 _symmetry_equiv_pos_site_id
 _symmetry_equiv_pos_as_xyz
  1  'x, y, z'
loop_
 _atom_site_type_symbol
 _atom_site_label
 _atom_site_symmetry_multiplicity
 _atom_site_fract_x
 _atom_site_fract_y
 _atom_site_fract_z
 _atom_site_occupancy
  Tb  Tb0  1  0.002915  0.006073  0.999759  1
  Gd  Gd1  1  0.280642  0.459604  0.101682  1
  Gd  Gd2  1  0.795626  0.247134  0.344118  1
  Gd  Gd3  1  0.483550  0.210630  0.756470  1
  Cl  Cl4  1  0.529353  0.894946  0.163760  1
  Cl  Cl5  1  0.950407  0.586527  0.314286  1
  Cl  Cl6  1  0.792580  0.041279  0.543880  1
  Cl  Cl7  1  0.485942  0.415808  0.556077  1
  Cl  Cl8  1  0.332030  0.873218  0.790844  1
  Cl  Cl9  1  0.748256  0.564684  0.931827  1
