# generated using pymatgen
data_Li3Y3IrPd2
_symmetry_space_group_name_H-M   'P 1'
_cell_length_a   7.25091300
_cell_length_b   7.25092004
_cell_length_c   3.95669900
_cell_angle_alpha   90.00000000
_cell_angle_beta   90.00000000
_cell_angle_gamma   120.00017317
_symmetry_Int_Tables_number   1
_chemical_formula_structural   Li3Y3IrPd2
_chemical_formula_sum   'Li3 Y3 Ir1 Pd2'
_cell_volume   180.15598623
_cell_formula_units_Z   1
loop_
 _symmetry_equiv_pos_site_id
 _symmetry_equiv_pos_as_xyz
  1  'x, y, z'
loop_
 _atom_site_type_symbol
 _atom_site_label
 _atom_site_symmetry_multiplicity
 _atom_site_fract_x
 _atom_site_fract_y
 _atom_site_fract_z
 _atom_site_occupancy
  Li  Li0  1  0.239795  0.239468  0.500000  1
  Li  Li1  1  0.760532  0.000326  0.500000  1
  Li  Li2  1  0.999673  0.760207  0.500000  1
  Y  Y3  1  0.582912  0.594554  0.000000  1
  Y  Y4  1  0.405446  0.988357  0.000000  1
  Y  Y5  1  0.011643  0.417089  0.000000  1
  Ir  Ir6  1  0.333334  0.666667  0.500000  1
  Pd  Pd7  1  0.000000  0.000000  0.000000  1
  Pd  Pd8  1  0.666666  0.333333  0.500000  1
