# generated using pymatgen
data_Ho3In3BiIr2
_symmetry_space_group_name_H-M   'P 1'
_cell_length_a   7.75987600
_cell_length_b   7.75987572
_cell_length_c   4.01936500
_cell_angle_alpha   90.00000000
_cell_angle_beta   90.00000000
_cell_angle_gamma   119.99999267
_symmetry_Int_Tables_number   1
_chemical_formula_structural   Ho3In3BiIr2
_chemical_formula_sum   'Ho3 In3 Bi1 Ir2'
_cell_volume   209.60307872
_cell_formula_units_Z   1
loop_
 _symmetry_equiv_pos_site_id
 _symmetry_equiv_pos_as_xyz
  1  'x, y, z'
loop_
 _atom_site_type_symbol
 _atom_site_label
 _atom_site_symmetry_multiplicity
 _atom_site_fract_x
 _atom_site_fract_y
 _atom_site_fract_z
 _atom_site_occupancy
  Ho  Ho0  1  0.584637  0.615413  0.000000  1
  Ho  Ho1  1  0.384587  0.969224  0.000000  1
  Ho  Ho2  1  0.030776  0.415363  0.000000  1
  In  In3  1  0.020370  0.762722  0.500000  1
  In  In4  1  0.237278  0.257648  0.500000  1
  In  In5  1  0.742352  0.979630  0.500000  1
  Bi  Bi6  1  0.666667  0.333333  0.500000  1
  Ir  Ir7  1  0.000000  0.000000  0.000000  1
  Ir  Ir8  1  0.333333  0.666667  0.500000  1
