# generated using pymatgen
data_Pa3Si3Rh2
_symmetry_space_group_name_H-M   'P 1'
_cell_length_a   5.59637658
_cell_length_b   5.59637640
_cell_length_c   14.05983300
_cell_angle_alpha   90.00000000
_cell_angle_beta   90.00000000
_cell_angle_gamma   136.13482592
_symmetry_Int_Tables_number   1
_chemical_formula_structural   Pa3Si3Rh2
_chemical_formula_sum   'Pa6 Si6 Rh4'
_cell_volume   305.14377404
_cell_formula_units_Z   2
loop_
 _symmetry_equiv_pos_site_id
 _symmetry_equiv_pos_as_xyz
  1  'x, y, z'
loop_
 _atom_site_type_symbol
 _atom_site_label
 _atom_site_symmetry_multiplicity
 _atom_site_fract_x
 _atom_site_fract_y
 _atom_site_fract_z
 _atom_site_occupancy
  Pa  Pa0  1  0.921873  0.078127  0.383749  1
  Pa  Pa1  1  0.078127  0.921873  0.616251  1
  Pa  Pa2  1  0.921873  0.078127  0.116251  1
  Pa  Pa3  1  0.078127  0.921873  0.883749  1
  Pa  Pa4  1  0.636756  0.363244  0.250000  1
  Pa  Pa5  1  0.363244  0.636756  0.750000  1
  Si  Si6  1  0.609049  0.390951  0.461060  1
  Si  Si7  1  0.390951  0.609049  0.538940  1
  Si  Si8  1  0.609049  0.390951  0.038940  1
  Si  Si9  1  0.390951  0.609049  0.961060  1
  Si  Si10  1  0.348184  0.651816  0.250000  1
  Si  Si11  1  0.651816  0.348184  0.750000  1
  Rh  Rh12  1  0.785943  0.214057  0.901035  1
  Rh  Rh13  1  0.214057  0.785943  0.098965  1
  Rh  Rh14  1  0.785943  0.214057  0.598965  1
  Rh  Rh15  1  0.214057  0.785943  0.401035  1
