# generated using pymatgen
data_Ca4ErSn3H
_symmetry_space_group_name_H-M   'P 1'
_cell_length_a   9.43077912
_cell_length_b   9.41527320
_cell_length_c   9.42703100
_cell_angle_alpha   129.13296993
_cell_angle_beta   129.09197940
_cell_angle_gamma   74.75506243
_symmetry_Int_Tables_number   1
_chemical_formula_structural   Ca4ErSn3H
_chemical_formula_sum   'Ca8 Er2 Sn6 H2'
_cell_volume   491.10096580
_cell_formula_units_Z   2
loop_
 _symmetry_equiv_pos_site_id
 _symmetry_equiv_pos_as_xyz
  1  'x, y, z'
loop_
 _atom_site_type_symbol
 _atom_site_label
 _atom_site_symmetry_multiplicity
 _atom_site_fract_x
 _atom_site_fract_y
 _atom_site_fract_z
 _atom_site_occupancy
  Ca  Ca0  1  0.000984  0.998357  0.000575  1
  Ca  Ca1  1  0.185149  0.685400  0.173726  1
  Ca  Ca2  1  0.007841  0.185106  0.498014  1
  Ca  Ca3  1  0.686360  0.508923  0.499760  1
  Ca  Ca4  1  0.489859  0.989726  0.177235  1
  Ca  Ca5  1  0.812559  0.312680  0.822182  1
  Ca  Ca6  1  0.988560  0.812644  0.499323  1
  Ca  Ca7  1  0.313319  0.488902  0.499855  1
  Er  Er8  1  0.497635  0.501229  0.000207  1
  Er  Er9  1  0.512360  0.014647  0.824072  1
  Sn  Sn10  1  0.258673  0.247650  0.995529  1
  Sn  Sn11  1  0.742470  0.751512  0.996067  1
  Sn  Sn12  1  0.862711  0.370481  0.234398  1
  Sn  Sn13  1  0.131231  0.622380  0.755222  1
  Sn  Sn14  1  0.373802  0.132615  0.511911  1
  Sn  Sn15  1  0.624414  0.865857  0.496199  1
  H  H16  1  0.262018  0.761985  0.513829  1
  H  H17  1  0.750054  0.249906  0.501895  1
