# generated using pymatgen
data_La8NdYTl6
_symmetry_space_group_name_H-M   'P 1'
_cell_length_a   9.54511669
_cell_length_b   9.54511557
_cell_length_c   9.54511600
_cell_angle_alpha   96.19570504
_cell_angle_beta   96.19571638
_cell_angle_gamma   141.64214710
_symmetry_Int_Tables_number   1
_chemical_formula_structural   La8NdYTl6
_chemical_formula_sum   'La8 Nd1 Y1 Tl6'
_cell_volume   509.72496410
_cell_formula_units_Z   1
loop_
 _symmetry_equiv_pos_site_id
 _symmetry_equiv_pos_as_xyz
  1  'x, y, z'
loop_
 _atom_site_type_symbol
 _atom_site_label
 _atom_site_symmetry_multiplicity
 _atom_site_fract_x
 _atom_site_fract_y
 _atom_site_fract_z
 _atom_site_occupancy
  La  La0  1  0.911981  0.221892  0.133281  1
  La  La1  1  0.221301  0.088019  0.309911  1
  La  La2  1  0.778108  0.911389  0.690089  1
  La  La3  1  0.088611  0.778699  0.866719  1
  La  La4  1  0.721892  0.411981  0.133281  1
  La  La5  1  0.278699  0.588611  0.866719  1
  La  La6  1  0.588019  0.721301  0.309911  1
  La  La7  1  0.411389  0.278108  0.690089  1
  Nd  Nd8  1  0.750000  0.250000  0.500000  1
  Y  Y9  1  0.250000  0.750000  0.500000  1
  Tl  Tl10  1  0.750000  0.750000  0.000000  1
  Tl  Tl11  1  0.250000  0.250000  0.000000  1
  Tl  Tl12  1  0.846050  0.660128  0.500000  1
  Tl  Tl13  1  0.653950  0.153950  0.814080  1
  Tl  Tl14  1  0.339872  0.839872  0.185920  1
  Tl  Tl15  1  0.160128  0.346050  0.500000  1
