# generated using pymatgen
data_LiNb3(PRh)4
_symmetry_space_group_name_H-M   'P 1'
_cell_length_a   3.72029900
_cell_length_b   6.35507261
_cell_length_c   7.25148601
_cell_angle_alpha   90.64348779
_cell_angle_beta   90.00000000
_cell_angle_gamma   90.00000000
_symmetry_Int_Tables_number   1
_chemical_formula_structural   LiNb3(PRh)4
_chemical_formula_sum   'Li1 Nb3 P4 Rh4'
_cell_volume   171.43440533
_cell_formula_units_Z   1
loop_
 _symmetry_equiv_pos_site_id
 _symmetry_equiv_pos_as_xyz
  1  'x, y, z'
loop_
 _atom_site_type_symbol
 _atom_site_label
 _atom_site_symmetry_multiplicity
 _atom_site_fract_x
 _atom_site_fract_y
 _atom_site_fract_z
 _atom_site_occupancy
  Li  Li0  1  0.250000  0.032225  0.826292  1
  Nb  Nb1  1  0.250000  0.526054  0.670617  1
  Nb  Nb2  1  0.750000  0.970405  0.172076  1
  Nb  Nb3  1  0.750000  0.469412  0.327170  1
  P  P4  1  0.250000  0.765313  0.374849  1
  P  P5  1  0.250000  0.254888  0.120657  1
  P  P6  1  0.750000  0.235246  0.627772  1
  P  P7  1  0.750000  0.749031  0.877036  1
  Rh  Rh8  1  0.250000  0.147853  0.438138  1
  Rh  Rh9  1  0.250000  0.642930  0.060466  1
  Rh  Rh10  1  0.750000  0.854026  0.566682  1
  Rh  Rh11  1  0.750000  0.352616  0.938244  1
