# generated using pymatgen
data_Zr2Fe10Co2P7
_symmetry_space_group_name_H-M   'P 1'
_cell_length_a   8.87863715
_cell_length_b   8.87930958
_cell_length_c   3.58355900
_cell_angle_alpha   90.00000000
_cell_angle_beta   90.00000000
_cell_angle_gamma   119.80557952
_symmetry_Int_Tables_number   1
_chemical_formula_structural   Zr2Fe10Co2P7
_chemical_formula_sum   'Zr2 Fe10 Co2 P7'
_cell_volume   245.14226698
_cell_formula_units_Z   1
loop_
 _symmetry_equiv_pos_site_id
 _symmetry_equiv_pos_as_xyz
  1  'x, y, z'
loop_
 _atom_site_type_symbol
 _atom_site_label
 _atom_site_symmetry_multiplicity
 _atom_site_fract_x
 _atom_site_fract_y
 _atom_site_fract_z
 _atom_site_occupancy
  Zr  Zr0  1  0.998140  0.996595  0.000000  1
  Zr  Zr1  1  0.336353  0.670368  0.500000  1
  Fe  Fe2  1  0.051049  0.769950  0.500000  1
  Fe  Fe3  1  0.719418  0.947808  0.500000  1
  Fe  Fe4  1  0.896913  0.435156  0.500000  1
  Fe  Fe5  1  0.541493  0.109512  0.500000  1
  Fe  Fe6  1  0.564577  0.458394  0.500000  1
  Fe  Fe7  1  0.388036  0.212881  0.000000  1
  Fe  Fe8  1  0.787753  0.178926  0.000000  1
  Fe  Fe9  1  0.821023  0.606610  0.000000  1
  Fe  Fe10  1  0.604797  0.703828  0.000000  1
  Fe  Fe11  1  0.296971  0.901043  0.000000  1
  Co  Co12  1  0.101811  0.396896  0.000000  1
  Co  Co13  1  0.226140  0.280774  0.500000  1
  P  P14  1  0.261466  0.042418  0.500000  1
  P  P15  1  0.952335  0.214187  0.500000  1
  P  P16  1  0.781822  0.737134  0.500000  1
  P  P17  1  0.372450  0.450045  0.000000  1
  P  P18  1  0.553912  0.923231  0.000000  1
  P  P19  1  0.079101  0.632464  0.000000  1
  P  P20  1  0.664441  0.331778  0.000000  1
