# generated using pymatgen
data_Tb3Pr(ZnSi)4
_symmetry_space_group_name_H-M   'P 1'
_cell_length_a   4.18830000
_cell_length_b   4.18830019
_cell_length_c   16.03850100
_cell_angle_alpha   90.00000000
_cell_angle_beta   90.00000000
_cell_angle_gamma   119.99998267
_symmetry_Int_Tables_number   1
_chemical_formula_structural   Tb3Pr(ZnSi)4
_chemical_formula_sum   'Tb3 Pr1 Zn4 Si4'
_cell_volume   243.65204837
_cell_formula_units_Z   1
loop_
 _symmetry_equiv_pos_site_id
 _symmetry_equiv_pos_as_xyz
  1  'x, y, z'
loop_
 _atom_site_type_symbol
 _atom_site_label
 _atom_site_symmetry_multiplicity
 _atom_site_fract_x
 _atom_site_fract_y
 _atom_site_fract_z
 _atom_site_occupancy
  Tb  Tb0  1  0.000000  0.000000  0.245080  1
  Tb  Tb1  1  0.000000  0.000000  0.754920  1
  Tb  Tb2  1  0.000000  0.000000  0.000000  1
  Pr  Pr3  1  0.000000  0.000000  0.500000  1
  Zn  Zn4  1  0.333333  0.666667  0.137072  1
  Zn  Zn5  1  0.666667  0.333333  0.862928  1
  Zn  Zn6  1  0.666667  0.333333  0.646361  1
  Zn  Zn7  1  0.333333  0.666667  0.353639  1
  Si  Si8  1  0.333333  0.666667  0.625228  1
  Si  Si9  1  0.666667  0.333333  0.374772  1
  Si  Si10  1  0.666667  0.333333  0.115073  1
  Si  Si11  1  0.333333  0.666667  0.884927  1
