# generated using pymatgen
data_Sm5RuWC7
_symmetry_space_group_name_H-M   'P 1'
_cell_length_a   8.50331617
_cell_length_b   8.50331711
_cell_length_c   3.56546600
_cell_angle_alpha   90.00000000
_cell_angle_beta   90.00000000
_cell_angle_gamma   123.58590785
_symmetry_Int_Tables_number   1
_chemical_formula_structural   Sm5RuWC7
_chemical_formula_sum   'Sm5 Ru1 W1 C7'
_cell_volume   214.76716734
_cell_formula_units_Z   1
loop_
 _symmetry_equiv_pos_site_id
 _symmetry_equiv_pos_as_xyz
  1  'x, y, z'
loop_
 _atom_site_type_symbol
 _atom_site_label
 _atom_site_symmetry_multiplicity
 _atom_site_fract_x
 _atom_site_fract_y
 _atom_site_fract_z
 _atom_site_occupancy
  Sm  Sm0  1  0.501602  0.498398  0.000000  1
  Sm  Sm1  1  0.067540  0.330497  0.500000  1
  Sm  Sm2  1  0.926130  0.665784  0.500000  1
  Sm  Sm3  1  0.669503  0.932460  0.500000  1
  Sm  Sm4  1  0.334216  0.073870  0.500000  1
  Ru  Ru5  1  0.709982  0.290018  0.000000  1
  W  W6  1  0.288120  0.711880  0.000000  1
  C  C7  1  0.636282  0.363718  0.500000  1
  C  C8  1  0.371999  0.628001  0.500000  1
  C  C9  1  0.998884  0.001116  0.000000  1
  C  C10  1  0.167681  0.169070  0.000000  1
  C  C11  1  0.830930  0.832319  0.000000  1
  C  C12  1  0.001379  0.504248  0.000000  1
  C  C13  1  0.495752  0.998621  0.000000  1
