# generated using pymatgen
data_DyHo2Zr(Al8Pt3)3
_symmetry_space_group_name_H-M   'P 1'
_cell_length_a   7.51823039
_cell_length_b   7.52642435
_cell_length_c   13.09743200
_cell_angle_alpha   84.55225237
_cell_angle_beta   79.02988116
_cell_angle_gamma   59.90652585
_symmetry_Int_Tables_number   1
_chemical_formula_structural   DyHo2Zr(Al8Pt3)3
_chemical_formula_sum   'Dy1 Ho2 Zr1 Al24 Pt9'
_cell_volume   629.50872049
_cell_formula_units_Z   1
loop_
 _symmetry_equiv_pos_site_id
 _symmetry_equiv_pos_as_xyz
  1  'x, y, z'
loop_
 _atom_site_type_symbol
 _atom_site_label
 _atom_site_symmetry_multiplicity
 _atom_site_fract_x
 _atom_site_fract_y
 _atom_site_fract_z
 _atom_site_occupancy
  Dy  Dy0  1  0.606385  0.831644  0.192104  1
  Ho  Ho1  1  0.733986  0.498664  0.807516  1
  Ho  Ho2  1  0.266357  0.501323  0.192357  1
  Zr  Zr3  1  0.393356  0.168275  0.809187  1
  Al  Al4  1  0.682112  0.836312  0.942104  1
  Al  Al5  1  0.316583  0.166475  0.054277  1
  Al  Al6  1  0.146418  0.832740  0.562260  1
  Al  Al7  1  0.853294  0.167242  0.438202  1
  Al  Al8  1  0.479709  0.166787  0.560572  1
  Al  Al9  1  0.519585  0.833781  0.441150  1
  Al  Al10  1  0.217301  0.165420  0.329687  1
  Al  Al11  1  0.779695  0.836878  0.672561  1
  Al  Al12  1  0.436051  0.504536  0.672858  1
  Al  Al13  1  0.562558  0.493521  0.329195  1
  Al  Al14  1  0.111192  0.159651  0.671784  1
  Al  Al15  1  0.890412  0.839845  0.330405  1
  Al  Al16  1  0.353806  0.496688  0.942194  1
  Al  Al17  1  0.647408  0.500308  0.055499  1
  Al  Al18  1  0.018609  0.167963  0.950605  1
  Al  Al19  1  0.984560  0.832500  0.046935  1
  Al  Al20  1  0.186819  0.499259  0.441168  1
  Al  Al21  1  0.813612  0.500424  0.558957  1
  Al  Al22  1  0.733755  0.163937  0.183533  1
  Al  Al23  1  0.266262  0.840948  0.816369  1
  Al  Al24  1  0.066005  0.626470  0.815054  1
  Al  Al25  1  0.939049  0.368419  0.184444  1
  Al  Al26  1  0.850851  0.041653  0.815630  1
  Al  Al27  1  0.144731  0.958592  0.183837  1
  Pt  Pt28  1  0.119493  0.491021  0.639313  1
  Pt  Pt29  1  0.879396  0.508560  0.361284  1
  Pt  Pt30  1  0.657415  0.171955  0.998884  1
  Pt  Pt31  1  0.343804  0.827820  0.999374  1
  Pt  Pt32  1  0.537441  0.166688  0.361663  1
  Pt  Pt33  1  0.463227  0.832577  0.639221  1
  Pt  Pt34  1  0.778089  0.176369  0.637881  1
  Pt  Pt35  1  0.220985  0.824538  0.362900  1
  Pt  Pt36  1  0.999686  0.500218  0.999035  1
