# generated using pymatgen
data_RbReCl6
_symmetry_space_group_name_H-M   'P 1'
_cell_length_a   6.89417247
_cell_length_b   6.89417271
_cell_length_c   12.46018207
_cell_angle_alpha   80.26214167
_cell_angle_beta   80.26214057
_cell_angle_gamma   56.74919340
_symmetry_Int_Tables_number   1
_chemical_formula_structural   RbReCl6
_chemical_formula_sum   'Rb2 Re2 Cl12'
_cell_volume   486.02986016
_cell_formula_units_Z   2
loop_
 _symmetry_equiv_pos_site_id
 _symmetry_equiv_pos_as_xyz
  1  'x, y, z'
loop_
 _atom_site_type_symbol
 _atom_site_label
 _atom_site_symmetry_multiplicity
 _atom_site_fract_x
 _atom_site_fract_y
 _atom_site_fract_z
 _atom_site_occupancy
  Rb  Rb0  1  0.883076  0.116924  0.750000  1
  Rb  Rb1  1  0.116924  0.883076  0.250000  1
  Re  Re2  1  0.500000  0.000000  0.500000  1
  Re  Re3  1  0.000000  0.500000  0.000000  1
  Cl  Cl4  1  0.459358  0.705609  0.600936  1
  Cl  Cl5  1  0.540642  0.294391  0.399064  1
  Cl  Cl6  1  0.294391  0.540642  0.899064  1
  Cl  Cl7  1  0.705609  0.459358  0.100936  1
  Cl  Cl8  1  0.375036  0.199903  0.656418  1
  Cl  Cl9  1  0.624964  0.800097  0.343582  1
  Cl  Cl10  1  0.800097  0.624964  0.843582  1
  Cl  Cl11  1  0.199903  0.375036  0.156418  1
  Cl  Cl12  1  0.803054  0.885949  0.041335  1
  Cl  Cl13  1  0.196946  0.114051  0.958665  1
  Cl  Cl14  1  0.114051  0.196946  0.458665  1
  Cl  Cl15  1  0.885949  0.803054  0.541335  1
