# generated using pymatgen
data_TbPrNpFe2Si7
_symmetry_space_group_name_H-M   'P 1'
_cell_length_a   12.31372613
_cell_length_b   12.31372537
_cell_length_c   4.11038900
_cell_angle_alpha   90.00000000
_cell_angle_beta   90.00000000
_cell_angle_gamma   160.87991465
_symmetry_Int_Tables_number   1
_chemical_formula_structural   TbPrNpFe2Si7
_chemical_formula_sum   'Tb1 Pr1 Np1 Fe2 Si7'
_cell_volume   204.14480671
_cell_formula_units_Z   1
loop_
 _symmetry_equiv_pos_site_id
 _symmetry_equiv_pos_as_xyz
  1  'x, y, z'
loop_
 _atom_site_type_symbol
 _atom_site_label
 _atom_site_symmetry_multiplicity
 _atom_site_fract_x
 _atom_site_fract_y
 _atom_site_fract_z
 _atom_site_occupancy
  Tb  Tb0  1  0.465790  0.534210  0.500000  1
  Pr  Pr1  1  0.098795  0.901205  0.500000  1
  Np  Np2  1  0.783538  0.216462  0.000000  1
  Fe  Fe3  1  0.660214  0.339786  0.000000  1
  Fe  Fe4  1  0.906955  0.093045  0.000000  1
  Si  Si5  1  0.367727  0.632273  0.000000  1
  Si  Si6  1  0.561044  0.438956  0.000000  1
  Si  Si7  1  0.868033  0.131967  0.500000  1
  Si  Si8  1  0.002359  0.997641  0.000000  1
  Si  Si9  1  0.199554  0.800446  0.000000  1
  Si  Si10  1  0.283208  0.716792  0.500000  1
  Si  Si11  1  0.699484  0.300516  0.500000  1
