# generated using pymatgen
data_InFeSb12Os2Pd
_symmetry_space_group_name_H-M   'P 1'
_cell_length_a   8.16389259
_cell_length_b   8.13982972
_cell_length_c   8.14834315
_cell_angle_alpha   109.34309584
_cell_angle_beta   109.55461283
_cell_angle_gamma   109.47055101
_symmetry_Int_Tables_number   1
_chemical_formula_structural   InFeSb12Os2Pd
_chemical_formula_sum   'In1 Fe1 Sb12 Os2 Pd1'
_cell_volume   417.06332692
_cell_formula_units_Z   1
loop_
 _symmetry_equiv_pos_site_id
 _symmetry_equiv_pos_as_xyz
  1  'x, y, z'
loop_
 _atom_site_type_symbol
 _atom_site_label
 _atom_site_symmetry_multiplicity
 _atom_site_fract_x
 _atom_site_fract_y
 _atom_site_fract_z
 _atom_site_occupancy
  In  In0  1  0.000000  0.000000  0.000000  1
  Fe  Fe1  1  0.500000  0.000000  0.000000  1
  Sb  Sb2  1  0.850136  0.660059  0.503435  1
  Sb  Sb3  1  0.149864  0.339941  0.496565  1
  Sb  Sb4  1  0.164258  0.669928  0.824978  1
  Sb  Sb5  1  0.835742  0.330072  0.175022  1
  Sb  Sb6  1  0.660878  0.503573  0.850465  1
  Sb  Sb7  1  0.339122  0.496427  0.149535  1
  Sb  Sb8  1  0.661784  0.824848  0.155603  1
  Sb  Sb9  1  0.338216  0.175152  0.844397  1
  Sb  Sb10  1  0.504639  0.852918  0.669993  1
  Sb  Sb11  1  0.495361  0.147082  0.330007  1
  Sb  Sb12  1  0.180708  0.843215  0.337401  1
  Sb  Sb13  1  0.819292  0.156785  0.662599  1
  Os  Os14  1  0.000000  0.500000  0.000000  1
  Os  Os15  1  0.000000  0.000000  0.500000  1
  Pd  Pd16  1  0.500000  0.500000  0.500000  1
