# generated using pymatgen
data_Er6FeP12Ir17
_symmetry_space_group_name_H-M   'P 1'
_cell_length_a   3.94166800
_cell_length_b   11.20701200
_cell_length_c   12.70374100
_cell_angle_alpha   90.00000000
_cell_angle_beta   90.00000000
_cell_angle_gamma   90.00000000
_symmetry_Int_Tables_number   1
_chemical_formula_structural   Er6FeP12Ir17
_chemical_formula_sum   'Er6 Fe1 P12 Ir17'
_cell_volume   561.17912745
_cell_formula_units_Z   1
loop_
 _symmetry_equiv_pos_site_id
 _symmetry_equiv_pos_as_xyz
  1  'x, y, z'
loop_
 _atom_site_type_symbol
 _atom_site_label
 _atom_site_symmetry_multiplicity
 _atom_site_fract_x
 _atom_site_fract_y
 _atom_site_fract_z
 _atom_site_occupancy
  Er  Er0  1  0.000000  0.500000  0.522659  1
  Er  Er1  1  0.500000  0.000000  0.477427  1
  Er  Er2  1  0.500000  0.820480  0.201225  1
  Er  Er3  1  0.500000  0.179520  0.201225  1
  Er  Er4  1  0.000000  0.688595  0.798907  1
  Er  Er5  1  0.000000  0.311405  0.798907  1
  Fe  Fe6  1  0.500000  0.000000  0.022270  1
  P  P7  1  0.500000  0.500000  0.876202  1
  P  P8  1  0.000000  0.000000  0.119351  1
  P  P9  1  0.500000  0.500000  0.358537  1
  P  P10  1  0.000000  0.000000  0.640193  1
  P  P11  1  0.500000  0.315254  0.618859  1
  P  P12  1  0.500000  0.684746  0.618859  1
  P  P13  1  0.000000  0.184763  0.380919  1
  P  P14  1  0.000000  0.815237  0.380919  1
  P  P15  1  0.500000  0.853410  0.897589  1
  P  P16  1  0.500000  0.146590  0.897589  1
  P  P17  1  0.000000  0.658756  0.106261  1
  P  P18  1  0.000000  0.341244  0.106261  1
  Ir  Ir19  1  0.500000  0.500000  0.178324  1
  Ir  Ir20  1  0.000000  0.000000  0.821708  1
  Ir  Ir21  1  0.500000  0.500000  0.699046  1
  Ir  Ir22  1  0.000000  0.000000  0.300654  1
  Ir  Ir23  1  0.000000  0.500000  0.972461  1
  Ir  Ir24  1  0.500000  0.334825  0.001370  1
  Ir  Ir25  1  0.500000  0.665175  0.001370  1
  Ir  Ir26  1  0.000000  0.159845  0.001563  1
  Ir  Ir27  1  0.000000  0.840155  0.001563  1
  Ir  Ir28  1  0.500000  0.293157  0.429208  1
  Ir  Ir29  1  0.500000  0.706843  0.429208  1
  Ir  Ir30  1  0.000000  0.207619  0.570156  1
  Ir  Ir31  1  0.000000  0.792381  0.570156  1
  Ir  Ir32  1  0.500000  0.869800  0.714321  1
  Ir  Ir33  1  0.500000  0.130200  0.714321  1
  Ir  Ir34  1  0.000000  0.631256  0.285210  1
  Ir  Ir35  1  0.000000  0.368744  0.285210  1
