# generated using pymatgen
data_Tb6Al24CuPd2Ru5
_symmetry_space_group_name_H-M   'P 1'
_cell_length_a   8.83620272
_cell_length_b   8.81584761
_cell_length_c   9.54606962
_cell_angle_alpha   90.11166581
_cell_angle_beta   89.94498531
_cell_angle_gamma   119.48811257
_symmetry_Int_Tables_number   1
_chemical_formula_structural   Tb6Al24CuPd2Ru5
_chemical_formula_sum   'Tb6 Al24 Cu1 Pd2 Ru5'
_cell_volume   647.29352133
_cell_formula_units_Z   1
loop_
 _symmetry_equiv_pos_site_id
 _symmetry_equiv_pos_as_xyz
  1  'x, y, z'
loop_
 _atom_site_type_symbol
 _atom_site_label
 _atom_site_symmetry_multiplicity
 _atom_site_fract_x
 _atom_site_fract_y
 _atom_site_fract_z
 _atom_site_occupancy
  Tb  Tb0  1  0.382769  0.190281  0.249397  1
  Tb  Tb1  1  0.809069  0.193674  0.249800  1
  Tb  Tb2  1  0.810524  0.615550  0.246730  1
  Tb  Tb3  1  0.617231  0.809719  0.750603  1
  Tb  Tb4  1  0.190931  0.806326  0.750200  1
  Tb  Tb5  1  0.189476  0.384450  0.753270  1
  Al  Al6  1  0.437525  0.874741  0.246179  1
  Al  Al7  1  0.123114  0.560699  0.249838  1
  Al  Al8  1  0.437143  0.562233  0.248510  1
  Al  Al9  1  0.562475  0.125259  0.753821  1
  Al  Al10  1  0.876886  0.439301  0.750162  1
  Al  Al11  1  0.562857  0.437767  0.751490  1
  Al  Al12  1  0.157780  0.831706  0.420433  1
  Al  Al13  1  0.158057  0.325023  0.423819  1
  Al  Al14  1  0.676849  0.836693  0.422460  1
  Al  Al15  1  0.842220  0.168294  0.579567  1
  Al  Al16  1  0.841943  0.674977  0.576181  1
  Al  Al17  1  0.323151  0.163307  0.577540  1
  Al  Al18  1  0.835566  0.163613  0.922631  1
  Al  Al19  1  0.842196  0.674174  0.923730  1
  Al  Al20  1  0.325193  0.156945  0.925223  1
  Al  Al21  1  0.164434  0.836387  0.077369  1
  Al  Al22  1  0.157804  0.325826  0.076270  1
  Al  Al23  1  0.674807  0.843055  0.074777  1
  Al  Al24  1  0.327969  0.663975  0.527881  1
  Al  Al25  1  0.672031  0.336025  0.472119  1
  Al  Al26  1  0.668487  0.330675  0.026901  1
  Al  Al27  1  0.331513  0.669325  0.973099  1
  Al  Al28  1  0.003434  0.998509  0.249740  1
  Al  Al29  1  0.996566  0.001491  0.750260  1
  Cu  Cu30  1  0.500000  0.500000  0.000000  1
  Pd  Pd31  1  0.500000  0.000000  0.500000  1
  Pd  Pd32  1  0.500000  0.500000  0.500000  1
  Ru  Ru33  1  0.000000  0.000000  0.500000  1
  Ru  Ru34  1  0.000000  0.000000  0.000000  1
  Ru  Ru35  1  0.000000  0.500000  0.500000  1
  Ru  Ru36  1  0.500000  0.000000  0.000000  1
  Ru  Ru37  1  0.000000  0.500000  0.000000  1
