# generated using pymatgen
data_Tb5Ho(SiNi3)4
_symmetry_space_group_name_H-M   'P 1'
_cell_length_a   7.61160538
_cell_length_b   7.61160589
_cell_length_c   7.61160504
_cell_angle_alpha   109.16307866
_cell_angle_beta   109.62551391
_cell_angle_gamma   109.62551382
_symmetry_Int_Tables_number   1
_chemical_formula_structural   Tb5Ho(SiNi3)4
_chemical_formula_sum   'Tb5 Ho1 Si4 Ni12'
_cell_volume   339.46692472
_cell_formula_units_Z   1
loop_
 _symmetry_equiv_pos_site_id
 _symmetry_equiv_pos_as_xyz
  1  'x, y, z'
loop_
 _atom_site_type_symbol
 _atom_site_label
 _atom_site_symmetry_multiplicity
 _atom_site_fract_x
 _atom_site_fract_y
 _atom_site_fract_z
 _atom_site_occupancy
  Tb  Tb0  1  0.714872  0.715049  0.000178  1
  Tb  Tb1  1  0.285128  0.000178  0.285306  1
  Tb  Tb2  1  0.000000  0.285640  0.285640  1
  Tb  Tb3  1  0.285128  0.285306  0.000178  1
  Tb  Tb4  1  0.714872  0.000178  0.715049  1
  Ho  Ho5  1  0.000000  0.713157  0.713157  1
  Si  Si6  1  0.000000  0.999799  0.500493  1
  Si  Si7  1  0.000000  0.500493  0.999799  1
  Si  Si8  1  0.499307  0.999799  0.999799  1
  Si  Si9  1  0.500693  0.500493  0.500493  1
  Ni  Ni10  1  0.331258  0.330252  0.661510  1
  Ni  Ni11  1  0.668742  0.998993  0.330252  1
  Ni  Ni12  1  0.000000  0.668742  0.331553  1
  Ni  Ni13  1  0.668742  0.330252  0.998993  1
  Ni  Ni14  1  0.331258  0.661510  0.330252  1
  Ni  Ni15  1  0.000000  0.331553  0.668742  1
  Ni  Ni16  1  0.329450  0.669578  0.999027  1
  Ni  Ni17  1  0.329450  0.999027  0.669578  1
  Ni  Ni18  1  0.662812  0.331553  0.331553  1
  Ni  Ni19  1  0.670550  0.669578  0.340127  1
  Ni  Ni20  1  0.670550  0.340127  0.669578  1
  Ni  Ni21  1  0.337188  0.668742  0.668742  1
