# generated using pymatgen
data_La14Pr6Ir11Rh
_symmetry_space_group_name_H-M   'P 1'
_cell_length_a   11.40614279
_cell_length_b   11.42232906
_cell_length_c   6.69789350
_cell_angle_alpha   89.98839770
_cell_angle_beta   89.95725685
_cell_angle_gamma   89.99833633
_symmetry_Int_Tables_number   1
_chemical_formula_structural   La14Pr6Ir11Rh
_chemical_formula_sum   'La14 Pr6 Ir11 Rh1'
_cell_volume   872.63289343
_cell_formula_units_Z   1
loop_
 _symmetry_equiv_pos_site_id
 _symmetry_equiv_pos_as_xyz
  1  'x, y, z'
loop_
 _atom_site_type_symbol
 _atom_site_label
 _atom_site_symmetry_multiplicity
 _atom_site_fract_x
 _atom_site_fract_y
 _atom_site_fract_z
 _atom_site_occupancy
  La  La0  1  0.291591  0.091088  0.387341  1
  La  La1  1  0.290620  0.908434  0.884749  1
  La  La2  1  0.709083  0.091331  0.885370  1
  La  La3  1  0.708156  0.909157  0.388092  1
  La  La4  1  0.591358  0.790742  0.884913  1
  La  La5  1  0.590977  0.208312  0.387598  1
  La  La6  1  0.408624  0.791595  0.388021  1
  La  La7  1  0.408306  0.209317  0.885404  1
  La  La8  1  0.207287  0.409111  0.613593  1
  La  La9  1  0.207546  0.591913  0.113746  1
  La  La10  1  0.792309  0.407765  0.113856  1
  La  La11  1  0.792462  0.591177  0.613677  1
  La  La12  1  0.908732  0.707985  0.114225  1
  La  La13  1  0.909592  0.292127  0.613959  1
  Pr  Pr14  1  0.090701  0.708561  0.614957  1
  Pr  Pr15  1  0.091502  0.291292  0.115412  1
  Pr  Pr16  1  0.000204  0.999707  0.499687  1
  Pr  Pr17  1  0.000198  0.000300  0.999798  1
  Pr  Pr18  1  0.500053  0.499850  0.000355  1
  Pr  Pr19  1  0.500056  0.500194  0.500143  1
  Ir  Ir20  1  0.844244  0.152892  0.250070  1
  Ir  Ir21  1  0.845656  0.845899  0.749037  1
  Ir  Ir22  1  0.154689  0.153523  0.748158  1
  Ir  Ir23  1  0.156090  0.847681  0.249261  1
  Ir  Ir24  1  0.654237  0.345725  0.749018  1
  Ir  Ir25  1  0.652990  0.655841  0.250155  1
  Ir  Ir26  1  0.347060  0.344341  0.250568  1
  Ir  Ir27  1  0.345871  0.654112  0.749417  1
  Ir  Ir28  1  0.500053  0.999906  0.623689  1
  Ir  Ir29  1  0.999890  0.499549  0.881399  1
  Ir  Ir30  1  0.999828  0.500479  0.379896  1
  Rh  Rh31  1  0.500037  0.000096  0.114437  1
