# generated using pymatgen
data_Sc4CrFe15(NiP3)4
_symmetry_space_group_name_H-M   'P 1'
_cell_length_a   3.61847900
_cell_length_b   10.16850480
_cell_length_c   11.69087977
_cell_angle_alpha   89.79579941
_cell_angle_beta   90.00000000
_cell_angle_gamma   90.00000000
_symmetry_Int_Tables_number   1
_chemical_formula_structural   Sc4CrFe15(NiP3)4
_chemical_formula_sum   'Sc4 Cr1 Fe15 Ni4 P12'
_cell_volume   430.15758998
_cell_formula_units_Z   1
loop_
 _symmetry_equiv_pos_site_id
 _symmetry_equiv_pos_as_xyz
  1  'x, y, z'
loop_
 _atom_site_type_symbol
 _atom_site_label
 _atom_site_symmetry_multiplicity
 _atom_site_fract_x
 _atom_site_fract_y
 _atom_site_fract_z
 _atom_site_occupancy
  Sc  Sc0  1  0.250000  0.574032  0.703234  1
  Sc  Sc1  1  0.250000  0.921302  0.206540  1
  Sc  Sc2  1  0.750000  0.421897  0.296087  1
  Sc  Sc3  1  0.750000  0.083303  0.795099  1
  Cr  Cr4  1  0.250000  0.705429  0.989769  1
  Fe  Fe5  1  0.750000  0.723228  0.327131  1
  Fe  Fe6  1  0.250000  0.624804  0.202280  1
  Fe  Fe7  1  0.750000  0.123736  0.297952  1
  Fe  Fe8  1  0.750000  0.376254  0.798480  1
  Fe  Fe9  1  0.250000  0.405412  0.485486  1
  Fe  Fe10  1  0.250000  0.097184  0.986140  1
  Fe  Fe11  1  0.750000  0.591708  0.510881  1
  Fe  Fe12  1  0.750000  0.906428  0.009800  1
  Fe  Fe13  1  0.250000  0.462733  0.933641  1
  Fe  Fe14  1  0.250000  0.035864  0.433255  1
  Fe  Fe15  1  0.750000  0.537585  0.066506  1
  Fe  Fe16  1  0.750000  0.961458  0.571349  1
  Fe  Fe17  1  0.250000  0.788337  0.492028  1
  Fe  Fe18  1  0.750000  0.293148  0.013507  1
  Fe  Fe19  1  0.750000  0.209932  0.510505  1
  Ni  Ni20  1  0.250000  0.227020  0.172555  1
  Ni  Ni21  1  0.250000  0.274223  0.673926  1
  Ni  Ni22  1  0.750000  0.774017  0.821330  1
  Ni  Ni23  1  0.250000  0.877647  0.704897  1
  P  P24  1  0.250000  0.429600  0.117385  1
  P  P25  1  0.250000  0.074264  0.614205  1
  P  P26  1  0.750000  0.571298  0.881965  1
  P  P27  1  0.750000  0.925394  0.385014  1
  P  P28  1  0.250000  0.265084  0.867323  1
  P  P29  1  0.250000  0.234669  0.367119  1
  P  P30  1  0.750000  0.738228  0.135770  1
  P  P31  1  0.750000  0.758778  0.626574  1
  P  P32  1  0.250000  0.598991  0.392773  1
  P  P33  1  0.250000  0.908697  0.895729  1
  P  P34  1  0.750000  0.402013  0.606714  1
  P  P35  1  0.750000  0.096305  0.107047  1
