# generated using pymatgen
data_CeTh(WN3)2
_symmetry_space_group_name_H-M   'P 1'
_cell_length_a   5.57830200
_cell_length_b   5.65711800
_cell_length_c   7.96829500
_cell_angle_alpha   90.00000000
_cell_angle_beta   90.00000000
_cell_angle_gamma   90.00000000
_symmetry_Int_Tables_number   1
_chemical_formula_structural   CeTh(WN3)2
_chemical_formula_sum   'Ce2 Th2 W4 N12'
_cell_volume   251.45638297
_cell_formula_units_Z   2
loop_
 _symmetry_equiv_pos_site_id
 _symmetry_equiv_pos_as_xyz
  1  'x, y, z'
loop_
 _atom_site_type_symbol
 _atom_site_label
 _atom_site_symmetry_multiplicity
 _atom_site_fract_x
 _atom_site_fract_y
 _atom_site_fract_z
 _atom_site_occupancy
  Ce  Ce0  1  0.503566  0.547253  0.250000  1
  Ce  Ce1  1  0.996434  0.047253  0.250000  1
  Th  Th2  1  0.497031  0.455990  0.750000  1
  Th  Th3  1  0.002969  0.955990  0.750000  1
  W  W4  1  0.999643  0.499155  0.003731  1
  W  W5  1  0.500357  0.999155  0.496269  1
  W  W6  1  0.999643  0.499155  0.496269  1
  W  W7  1  0.500357  0.999155  0.003731  1
  N  N8  1  0.426120  0.983807  0.250000  1
  N  N9  1  0.073880  0.483807  0.250000  1
  N  N10  1  0.574122  0.016172  0.750000  1
  N  N11  1  0.925878  0.516172  0.750000  1
  N  N12  1  0.798138  0.796237  0.037646  1
  N  N13  1  0.701862  0.296237  0.462354  1
  N  N14  1  0.202140  0.202996  0.538637  1
  N  N15  1  0.297860  0.702996  0.961363  1
  N  N16  1  0.202140  0.202996  0.961363  1
  N  N17  1  0.297860  0.702996  0.538637  1
  N  N18  1  0.798138  0.796237  0.462354  1
  N  N19  1  0.701862  0.296237  0.037646  1
