# generated using pymatgen
data_Nd8CoAg2Pt
_symmetry_space_group_name_H-M   'P 1'
_cell_length_a   9.82679789
_cell_length_b   9.82679733
_cell_length_c   9.77803500
_cell_angle_alpha   60.16400891
_cell_angle_beta   60.16401077
_cell_angle_gamma   60.47463449
_symmetry_Int_Tables_number   1
_chemical_formula_structural   Nd8CoAg2Pt
_chemical_formula_sum   'Nd16 Co2 Ag4 Pt2'
_cell_volume   671.69822106
_cell_formula_units_Z   2
loop_
 _symmetry_equiv_pos_site_id
 _symmetry_equiv_pos_as_xyz
  1  'x, y, z'
loop_
 _atom_site_type_symbol
 _atom_site_label
 _atom_site_symmetry_multiplicity
 _atom_site_fract_x
 _atom_site_fract_y
 _atom_site_fract_z
 _atom_site_occupancy
  Nd  Nd0  1  0.349156  0.349156  0.361874  1
  Nd  Nd1  1  0.349156  0.349156  0.939814  1
  Nd  Nd2  1  0.342806  0.949443  0.353875  1
  Nd  Nd3  1  0.949443  0.342806  0.353875  1
  Nd  Nd4  1  0.819452  0.189863  0.188841  1
  Nd  Nd5  1  0.189863  0.819452  0.801843  1
  Nd  Nd6  1  0.189863  0.819452  0.188841  1
  Nd  Nd7  1  0.819452  0.189863  0.801843  1
  Nd  Nd8  1  0.186635  0.186635  0.813365  1
  Nd  Nd9  1  0.807729  0.807729  0.192271  1
  Nd  Nd10  1  0.935793  0.562503  0.563735  1
  Nd  Nd11  1  0.562503  0.935793  0.937969  1
  Nd  Nd12  1  0.562503  0.935793  0.563735  1
  Nd  Nd13  1  0.935793  0.562503  0.937969  1
  Nd  Nd14  1  0.560682  0.560682  0.939318  1
  Nd  Nd15  1  0.935152  0.935152  0.564848  1
  Co  Co16  1  0.143100  0.143100  0.139240  1
  Co  Co17  1  0.143100  0.143100  0.574561  1
  Ag  Ag18  1  0.581409  0.581409  0.580054  1
  Ag  Ag19  1  0.581409  0.581409  0.257130  1
  Ag  Ag20  1  0.582928  0.255249  0.580912  1
  Ag  Ag21  1  0.255249  0.582928  0.580912  1
  Pt  Pt22  1  0.146993  0.569831  0.141588  1
  Pt  Pt23  1  0.569831  0.146993  0.141588  1
