# generated using pymatgen
data_SrInSnPd2
_symmetry_space_group_name_H-M   'P 1'
_cell_length_a   4.70180100
_cell_length_b   4.70180100
_cell_length_c   10.90312400
_cell_angle_alpha   90.00000000
_cell_angle_beta   90.00000000
_cell_angle_gamma   90.00000000
_symmetry_Int_Tables_number   1
_chemical_formula_structural   SrInSnPd2
_chemical_formula_sum   'Sr2 In2 Sn2 Pd4'
_cell_volume   241.03462787
_cell_formula_units_Z   2
loop_
 _symmetry_equiv_pos_site_id
 _symmetry_equiv_pos_as_xyz
  1  'x, y, z'
loop_
 _atom_site_type_symbol
 _atom_site_label
 _atom_site_symmetry_multiplicity
 _atom_site_fract_x
 _atom_site_fract_y
 _atom_site_fract_z
 _atom_site_occupancy
  Sr  Sr0  1  0.000000  0.500000  0.762231  1
  Sr  Sr1  1  0.500000  0.000000  0.237769  1
  In  In2  1  0.500000  0.500000  0.500000  1
  In  In3  1  0.000000  0.000000  0.500000  1
  Sn  Sn4  1  0.500000  0.000000  0.879189  1
  Sn  Sn5  1  0.000000  0.500000  0.120811  1
  Pd  Pd6  1  0.000000  0.500000  0.365551  1
  Pd  Pd7  1  0.500000  0.000000  0.634449  1
  Pd  Pd8  1  0.500000  0.500000  0.000000  1
  Pd  Pd9  1  0.000000  0.000000  0.000000  1
