# generated using pymatgen
data_Tb3Th11OsRu5
_symmetry_space_group_name_H-M   'P 1'
_cell_length_a   9.83311014
_cell_length_b   9.91697907
_cell_length_c   6.40490669
_cell_angle_alpha   90.04001237
_cell_angle_beta   89.88181987
_cell_angle_gamma   120.28071040
_symmetry_Int_Tables_number   1
_chemical_formula_structural   Tb3Th11OsRu5
_chemical_formula_sum   'Tb3 Th11 Os1 Ru5'
_cell_volume   539.35829545
_cell_formula_units_Z   1
loop_
 _symmetry_equiv_pos_site_id
 _symmetry_equiv_pos_as_xyz
  1  'x, y, z'
loop_
 _atom_site_type_symbol
 _atom_site_label
 _atom_site_symmetry_multiplicity
 _atom_site_fract_x
 _atom_site_fract_y
 _atom_site_fract_z
 _atom_site_occupancy
  Tb  Tb0  1  0.461913  0.537616  0.295377  1
  Tb  Tb1  1  0.073552  0.536771  0.299385  1
  Tb  Tb2  1  0.926152  0.462068  0.800024  1
  Th  Th3  1  0.249582  0.126502  0.510478  1
  Th  Th4  1  0.542309  0.083062  0.795997  1
  Th  Th5  1  0.748114  0.874566  0.012598  1
  Th  Th6  1  0.666494  0.333275  0.278302  1
  Th  Th7  1  0.125911  0.871258  0.008402  1
  Th  Th8  1  0.459412  0.917836  0.297043  1
  Th  Th9  1  0.537728  0.462563  0.798058  1
  Th  Th10  1  0.876480  0.128838  0.511783  1
  Th  Th11  1  0.124410  0.252206  0.013156  1
  Th  Th12  1  0.873754  0.747651  0.508846  1
  Th  Th13  1  0.334118  0.666473  0.774653  1
  Os  Os14  1  0.811606  0.628653  0.050564  1
  Ru  Ru15  1  0.813892  0.180970  0.046451  1
  Ru  Ru16  1  0.631622  0.817673  0.546233  1
  Ru  Ru17  1  0.369701  0.186874  0.040519  1
  Ru  Ru18  1  0.183476  0.364589  0.552339  1
  Ru  Ru19  1  0.189774  0.820558  0.543788  1
