# generated using pymatgen
data_TbY3Er8(GaCo2)2
_symmetry_space_group_name_H-M   'P 1'
_cell_length_a   8.25410779
_cell_length_b   8.25410838
_cell_length_c   8.23626506
_cell_angle_alpha   107.06076064
_cell_angle_beta   109.22548367
_cell_angle_gamma   112.25156737
_symmetry_Int_Tables_number   1
_chemical_formula_structural   TbY3Er8(GaCo2)2
_chemical_formula_sum   'Tb1 Y3 Er8 Ga2 Co4'
_cell_volume   430.63014507
_cell_formula_units_Z   1
loop_
 _symmetry_equiv_pos_site_id
 _symmetry_equiv_pos_as_xyz
  1  'x, y, z'
loop_
 _atom_site_type_symbol
 _atom_site_label
 _atom_site_symmetry_multiplicity
 _atom_site_fract_x
 _atom_site_fract_y
 _atom_site_fract_z
 _atom_site_occupancy
  Tb  Tb0  1  0.697248  0.262269  0.959517  1
  Y  Y1  1  0.302301  0.739854  0.042155  1
  Y  Y2  1  0.697018  0.740261  0.437281  1
  Y  Y3  1  0.302743  0.259468  0.562212  1
  Er  Er4  1  0.813269  0.140184  0.327634  1
  Er  Er5  1  0.812626  0.485080  0.671948  1
  Er  Er6  1  0.186868  0.859322  0.671948  1
  Er  Er7  1  0.187450  0.514365  0.327634  1
  Er  Er8  1  0.602021  0.781509  0.821700  1
  Er  Er9  1  0.958891  0.779880  0.178216  1
  Er  Er10  1  0.040191  0.219678  0.821700  1
  Er  Er11  1  0.398337  0.219325  0.178216  1
  Ga  Ga12  1  0.498125  0.501003  0.999128  1
  Ga  Ga13  1  0.499611  0.999757  0.499368  1
  Co  Co14  1  0.839829  0.499194  0.339022  1
  Co  Co15  1  0.161859  0.499700  0.661561  1
  Co  Co16  1  0.002922  0.114409  0.117330  1
  Co  Co17  1  0.998686  0.884744  0.883430  1
