# generated using pymatgen
data_Tm10Lu2Co4SnRh
_symmetry_space_group_name_H-M   'P 1'
_cell_length_a   8.16363687
_cell_length_b   8.17058953
_cell_length_c   8.17058962
_cell_angle_alpha   110.92840931
_cell_angle_beta   110.93711542
_cell_angle_gamma   106.61882279
_symmetry_Int_Tables_number   1
_chemical_formula_structural   Tm10Lu2Co4SnRh
_chemical_formula_sum   'Tm10 Lu2 Co4 Sn1 Rh1'
_cell_volume   418.58207502
_cell_formula_units_Z   1
loop_
 _symmetry_equiv_pos_site_id
 _symmetry_equiv_pos_as_xyz
  1  'x, y, z'
loop_
 _atom_site_type_symbol
 _atom_site_label
 _atom_site_symmetry_multiplicity
 _atom_site_fract_x
 _atom_site_fract_y
 _atom_site_fract_z
 _atom_site_occupancy
  Tm  Tm0  1  0.019976  0.215633  0.804342  1
  Tm  Tm1  1  0.980024  0.784367  0.195658  1
  Tm  Tm2  1  0.186141  0.288202  0.473508  1
  Tm  Tm3  1  0.813859  0.711798  0.526492  1
  Tm  Tm4  1  0.186141  0.712633  0.897939  1
  Tm  Tm5  1  0.813859  0.287367  0.102061  1
  Tm  Tm6  1  0.314689  0.620107  0.306788  1
  Tm  Tm7  1  0.685311  0.379893  0.693212  1
  Tm  Tm8  1  0.314689  0.007902  0.694584  1
  Tm  Tm9  1  0.685311  0.992098  0.305416  1
  Lu  Lu10  1  0.411351  0.215331  0.196021  1
  Lu  Lu11  1  0.588649  0.784669  0.803979  1
  Co  Co12  1  0.374669  0.000540  0.374129  1
  Co  Co13  1  0.625331  0.999460  0.625871  1
  Co  Co14  1  0.113277  0.612658  0.500619  1
  Co  Co15  1  0.886723  0.387342  0.499381  1
  Sn  Sn16  1  0.500000  0.500000  0.000000  1
  Rh  Rh17  1  0.000000  0.000000  0.000000  1
