# generated using pymatgen
data_Nd2HoTm17Bi12
_symmetry_space_group_name_H-M   'P 1'
_cell_length_a   8.23891857
_cell_length_b   9.44929300
_cell_length_c   11.97449301
_cell_angle_alpha   90.00000000
_cell_angle_beta   90.02358378
_cell_angle_gamma   90.00000000
_symmetry_Int_Tables_number   1
_chemical_formula_structural   Nd2HoTm17Bi12
_chemical_formula_sum   'Nd2 Ho1 Tm17 Bi12'
_cell_volume   932.23761864
_cell_formula_units_Z   1
loop_
 _symmetry_equiv_pos_site_id
 _symmetry_equiv_pos_as_xyz
  1  'x, y, z'
loop_
 _atom_site_type_symbol
 _atom_site_label
 _atom_site_symmetry_multiplicity
 _atom_site_fract_x
 _atom_site_fract_y
 _atom_site_fract_z
 _atom_site_occupancy
  Nd  Nd0  1  0.814483  0.250000  0.281079  1
  Nd  Nd1  1  0.685399  0.750000  0.781029  1
  Ho  Ho2  1  0.185760  0.750000  0.717536  1
  Tm  Tm3  1  0.353355  0.750000  0.217871  1
  Tm  Tm4  1  0.853751  0.750000  0.282263  1
  Tm  Tm5  1  0.646189  0.250000  0.782472  1
  Tm  Tm6  1  0.146917  0.250000  0.717856  1
  Tm  Tm7  1  0.692031  0.566469  0.060130  1
  Tm  Tm8  1  0.191960  0.933639  0.439868  1
  Tm  Tm9  1  0.307877  0.066323  0.940104  1
  Tm  Tm10  1  0.808231  0.433546  0.560073  1
  Tm  Tm11  1  0.307877  0.433677  0.940104  1
  Tm  Tm12  1  0.808231  0.066454  0.560073  1
  Tm  Tm13  1  0.692031  0.933531  0.060130  1
  Tm  Tm14  1  0.191960  0.566361  0.439868  1
  Tm  Tm15  1  0.475970  0.250000  0.489197  1
  Tm  Tm16  1  0.977105  0.250000  0.011226  1
  Tm  Tm17  1  0.522911  0.750000  0.510879  1
  Tm  Tm18  1  0.024045  0.750000  0.989627  1
  Tm  Tm19  1  0.313910  0.250000  0.217159  1
  Bi  Bi20  1  0.401339  0.750000  0.960751  1
  Bi  Bi21  1  0.905950  0.750000  0.540100  1
  Bi  Bi22  1  0.593460  0.250000  0.040701  1
  Bi  Bi23  1  0.099157  0.250000  0.460514  1
  Bi  Bi24  1  0.562536  0.993367  0.326112  1
  Bi  Bi25  1  0.068671  0.505751  0.173576  1
  Bi  Bi26  1  0.432027  0.493878  0.673492  1
  Bi  Bi27  1  0.936814  0.007093  0.826517  1
  Bi  Bi28  1  0.432027  0.006122  0.673492  1
  Bi  Bi29  1  0.936814  0.492907  0.826517  1
  Bi  Bi30  1  0.562536  0.506633  0.326112  1
  Bi  Bi31  1  0.068671  0.994249  0.173576  1
