# generated using pymatgen
data_Er7Tm3Ir4
_symmetry_space_group_name_H-M   'P 1'
_cell_length_a   6.44451282
_cell_length_b   7.17293126
_cell_length_c   8.40164349
_cell_angle_alpha   96.40754112
_cell_angle_beta   112.51382845
_cell_angle_gamma   90.01114295
_symmetry_Int_Tables_number   1
_chemical_formula_structural   Er7Tm3Ir4
_chemical_formula_sum   'Er7 Tm3 Ir4'
_cell_volume   356.14443571
_cell_formula_units_Z   1
loop_
 _symmetry_equiv_pos_site_id
 _symmetry_equiv_pos_as_xyz
  1  'x, y, z'
loop_
 _atom_site_type_symbol
 _atom_site_label
 _atom_site_symmetry_multiplicity
 _atom_site_fract_x
 _atom_site_fract_y
 _atom_site_fract_z
 _atom_site_occupancy
  Er  Er0  1  0.969910  0.919079  0.181589  1
  Er  Er1  1  0.788315  0.581219  0.818010  1
  Er  Er2  1  0.029963  0.081063  0.818287  1
  Er  Er3  1  0.211792  0.418511  0.181802  1
  Er  Er4  1  0.654038  0.817933  0.442072  1
  Er  Er5  1  0.211774  0.681635  0.557680  1
  Er  Er6  1  0.345982  0.182227  0.557872  1
  Tm  Tm7  1  0.787914  0.318288  0.442132  1
  Tm  Tm8  1  0.427603  0.750177  0.000048  1
  Tm  Tm9  1  0.572577  0.249931  0.000212  1
  Ir  Ir10  1  0.825728  0.572799  0.218163  1
  Ir  Ir11  1  0.607476  0.926951  0.782393  1
  Ir  Ir12  1  0.173809  0.426817  0.781712  1
  Ir  Ir13  1  0.393119  0.073370  0.218028  1
