# generated using pymatgen
data_SmB3Mo
_symmetry_space_group_name_H-M   'P 1'
_cell_length_a   3.18473400
_cell_length_b   5.54564937
_cell_length_c   6.94239212
_cell_angle_alpha   77.06145496
_cell_angle_beta   90.00000000
_cell_angle_gamma   90.00000000
_symmetry_Int_Tables_number   1
_chemical_formula_structural   SmB3Mo
_chemical_formula_sum   'Sm2 B6 Mo2'
_cell_volume   119.49945485
_cell_formula_units_Z   2
loop_
 _symmetry_equiv_pos_site_id
 _symmetry_equiv_pos_as_xyz
  1  'x, y, z'
loop_
 _atom_site_type_symbol
 _atom_site_label
 _atom_site_symmetry_multiplicity
 _atom_site_fract_x
 _atom_site_fract_y
 _atom_site_fract_z
 _atom_site_occupancy
  Sm  Sm0  1  0.750000  0.828540  0.707426  1
  Sm  Sm1  1  0.250000  0.171460  0.292574  1
  B  B2  1  0.250000  0.574957  0.473112  1
  B  B3  1  0.750000  0.425043  0.526888  1
  B  B4  1  0.250000  0.586631  0.997013  1
  B  B5  1  0.750000  0.413369  0.002987  1
  B  B6  1  0.250000  0.917211  0.995172  1
  B  B7  1  0.750000  0.082789  0.004828  1
  Mo  Mo8  1  0.750000  0.686161  0.216902  1
  Mo  Mo9  1  0.250000  0.313839  0.783098  1
