# generated using pymatgen
data_TbHo7(OsBr4)2
_symmetry_space_group_name_H-M   'P 1'
_cell_length_a   8.98582245
_cell_length_b   8.97276621
_cell_length_c   6.53652122
_cell_angle_alpha   89.64848039
_cell_angle_beta   89.52377366
_cell_angle_gamma   89.40509728
_symmetry_Int_Tables_number   1
_chemical_formula_structural   TbHo7(OsBr4)2
_chemical_formula_sum   'Tb1 Ho7 Os2 Br8'
_cell_volume   526.96831319
_cell_formula_units_Z   1
loop_
 _symmetry_equiv_pos_site_id
 _symmetry_equiv_pos_as_xyz
  1  'x, y, z'
loop_
 _atom_site_type_symbol
 _atom_site_label
 _atom_site_symmetry_multiplicity
 _atom_site_fract_x
 _atom_site_fract_y
 _atom_site_fract_z
 _atom_site_occupancy
  Tb  Tb0  1  0.250228  0.901048  0.009523  1
  Ho  Ho1  1  0.752219  0.098070  0.989445  1
  Ho  Ho2  1  0.097529  0.752376  0.489185  1
  Ho  Ho3  1  0.901854  0.247798  0.510727  1
  Ho  Ho4  1  0.752979  0.903396  0.507059  1
  Ho  Ho5  1  0.246500  0.096972  0.492681  1
  Ho  Ho6  1  0.096301  0.247179  0.992769  1
  Ho  Ho7  1  0.902950  0.753151  0.007062  1
  Os  Os8  1  0.995370  0.004526  0.250002  1
  Os  Os9  1  0.004145  0.995682  0.749761  1
  Br  Br10  1  0.417392  0.818194  0.411468  1
  Br  Br11  1  0.582496  0.181642  0.590108  1
  Br  Br12  1  0.181091  0.581882  0.090157  1
  Br  Br13  1  0.818307  0.417541  0.909960  1
  Br  Br14  1  0.412667  0.189783  0.092634  1
  Br  Br15  1  0.588111  0.810664  0.907446  1
  Br  Br16  1  0.810974  0.587330  0.407401  1
  Br  Br17  1  0.188887  0.412769  0.592613  1
