# generated using pymatgen
data_Ho4MgSc3Ir4
_symmetry_space_group_name_H-M   'P 1'
_cell_length_a   4.20589000
_cell_length_b   7.13112249
_cell_length_c   8.64921354
_cell_angle_alpha   88.43302053
_cell_angle_beta   90.00000000
_cell_angle_gamma   90.00000000
_symmetry_Int_Tables_number   1
_chemical_formula_structural   Ho4MgSc3Ir4
_chemical_formula_sum   'Ho4 Mg1 Sc3 Ir4'
_cell_volume   259.31640186
_cell_formula_units_Z   1
loop_
 _symmetry_equiv_pos_site_id
 _symmetry_equiv_pos_as_xyz
  1  'x, y, z'
loop_
 _atom_site_type_symbol
 _atom_site_label
 _atom_site_symmetry_multiplicity
 _atom_site_fract_x
 _atom_site_fract_y
 _atom_site_fract_z
 _atom_site_occupancy
  Ho  Ho0  1  0.250000  0.519370  0.171541  1
  Ho  Ho1  1  0.750000  0.469209  0.834066  1
  Ho  Ho2  1  0.750000  0.976112  0.676407  1
  Ho  Ho3  1  0.250000  0.032242  0.320914  1
  Mg  Mg4  1  0.250000  0.143988  0.934210  1
  Sc  Sc5  1  0.250000  0.640404  0.563071  1
  Sc  Sc6  1  0.750000  0.360758  0.437809  1
  Sc  Sc7  1  0.750000  0.863187  0.057842  1
  Ir  Ir8  1  0.250000  0.755023  0.880230  1
  Ir  Ir9  1  0.750000  0.237371  0.129430  1
  Ir  Ir10  1  0.750000  0.741851  0.383458  1
  Ir  Ir11  1  0.250000  0.260485  0.611022  1
