# generated using pymatgen
data_Lu3In3HgRh2
_symmetry_space_group_name_H-M   'P 1'
_cell_length_a   7.76826200
_cell_length_b   7.76826230
_cell_length_c   3.74189900
_cell_angle_alpha   90.00000000
_cell_angle_beta   90.00000000
_cell_angle_gamma   120.00000726
_symmetry_Int_Tables_number   1
_chemical_formula_structural   Lu3In3HgRh2
_chemical_formula_sum   'Lu3 In3 Hg1 Rh2'
_cell_volume   195.55566737
_cell_formula_units_Z   1
loop_
 _symmetry_equiv_pos_site_id
 _symmetry_equiv_pos_as_xyz
  1  'x, y, z'
loop_
 _atom_site_type_symbol
 _atom_site_label
 _atom_site_symmetry_multiplicity
 _atom_site_fract_x
 _atom_site_fract_y
 _atom_site_fract_z
 _atom_site_occupancy
  Lu  Lu0  1  0.971296  0.584110  0.500000  1
  Lu  Lu1  1  0.415890  0.387187  0.500000  1
  Lu  Lu2  1  0.612813  0.028704  0.500000  1
  In  In3  1  0.743760  0.741182  0.000000  1
  In  In4  1  0.997423  0.256240  0.000000  1
  In  In5  1  0.258818  0.002577  0.000000  1
  Hg  Hg6  1  0.333333  0.666667  0.000000  1
  Rh  Rh7  1  0.000000  0.000000  0.500000  1
  Rh  Rh8  1  0.666667  0.333333  0.000000  1
