# generated using pymatgen
data_Yb4MnIrRu6
_symmetry_space_group_name_H-M   'P 1'
_cell_length_a   5.25148800
_cell_length_b   5.25148749
_cell_length_c   8.75837800
_cell_angle_alpha   90.00000000
_cell_angle_beta   90.00000000
_cell_angle_gamma   119.99999064
_symmetry_Int_Tables_number   1
_chemical_formula_structural   Yb4MnIrRu6
_chemical_formula_sum   'Yb4 Mn1 Ir1 Ru6'
_cell_volume   209.17947559
_cell_formula_units_Z   1
loop_
 _symmetry_equiv_pos_site_id
 _symmetry_equiv_pos_as_xyz
  1  'x, y, z'
loop_
 _atom_site_type_symbol
 _atom_site_label
 _atom_site_symmetry_multiplicity
 _atom_site_fract_x
 _atom_site_fract_y
 _atom_site_fract_z
 _atom_site_occupancy
  Yb  Yb0  1  0.333333  0.666667  0.434469  1
  Yb  Yb1  1  0.666667  0.333333  0.565531  1
  Yb  Yb2  1  0.666667  0.333333  0.930941  1
  Yb  Yb3  1  0.333333  0.666667  0.069059  1
  Mn  Mn4  1  0.000000  0.000000  0.000000  1
  Ir  Ir5  1  0.000000  0.000000  0.500000  1
  Ru  Ru6  1  0.829372  0.170628  0.246122  1
  Ru  Ru7  1  0.829372  0.658742  0.246122  1
  Ru  Ru8  1  0.341258  0.170628  0.246122  1
  Ru  Ru9  1  0.170628  0.829372  0.753878  1
  Ru  Ru10  1  0.170628  0.341258  0.753878  1
  Ru  Ru11  1  0.658742  0.829372  0.753878  1
