# generated using pymatgen
data_La8Yb7Ho5Sn16
_symmetry_space_group_name_H-M   'P 1'
_cell_length_a   8.01239725
_cell_length_b   8.43489200
_cell_length_c   15.93954600
_cell_angle_alpha   90.02261973
_cell_angle_beta   90.07157329
_cell_angle_gamma   90.08523381
_symmetry_Int_Tables_number   1
_chemical_formula_structural   La8Yb7Ho5Sn16
_chemical_formula_sum   'La8 Yb7 Ho5 Sn16'
_cell_volume   1077.25146467
_cell_formula_units_Z   1
loop_
 _symmetry_equiv_pos_site_id
 _symmetry_equiv_pos_as_xyz
  1  'x, y, z'
loop_
 _atom_site_type_symbol
 _atom_site_label
 _atom_site_symmetry_multiplicity
 _atom_site_fract_x
 _atom_site_fract_y
 _atom_site_fract_z
 _atom_site_occupancy
  La  La0  1  0.493571  0.316821  0.904017  1
  La  La1  1  0.993947  0.182693  0.595517  1
  La  La2  1  0.504866  0.681889  0.403646  1
  La  La3  1  0.006200  0.817149  0.096003  1
  La  La4  1  0.506103  0.681866  0.095561  1
  La  La5  1  0.007369  0.817687  0.403614  1
  La  La6  1  0.492676  0.316722  0.595763  1
  La  La7  1  0.993051  0.182564  0.904647  1
  Yb  Yb8  1  0.167882  0.330082  0.376190  1
  Yb  Yb9  1  0.333014  0.829328  0.623362  1
  Yb  Yb10  1  0.833276  0.671074  0.877190  1
  Yb  Yb11  1  0.163546  0.502593  0.750464  1
  Yb  Yb12  1  0.663681  0.997383  0.749768  1
  Yb  Yb13  1  0.836555  0.499509  0.250993  1
  Yb  Yb14  1  0.335146  0.001593  0.250535  1
  Ho  Ho15  1  0.334639  0.827649  0.875712  1
  Ho  Ho16  1  0.835139  0.671618  0.624302  1
  Ho  Ho17  1  0.665808  0.170740  0.374777  1
  Ho  Ho18  1  0.165855  0.328609  0.124165  1
  Ho  Ho19  1  0.666137  0.172702  0.124495  1
  Sn  Sn20  1  0.327129  0.039246  0.038117  1
  Sn  Sn21  1  0.824888  0.461635  0.462272  1
  Sn  Sn22  1  0.675317  0.960990  0.537217  1
  Sn  Sn23  1  0.176125  0.538379  0.962755  1
  Sn  Sn24  1  0.669914  0.963426  0.962334  1
  Sn  Sn25  1  0.167604  0.537605  0.539933  1
  Sn  Sn26  1  0.332583  0.037788  0.460301  1
  Sn  Sn27  1  0.828521  0.460269  0.039968  1
  Sn  Sn28  1  0.534186  0.611089  0.748616  1
  Sn  Sn29  1  0.034339  0.888718  0.751431  1
  Sn  Sn30  1  0.468365  0.385470  0.248572  1
  Sn  Sn31  1  0.965942  0.110956  0.249389  1
  Sn  Sn32  1  0.290815  0.137939  0.750979  1
  Sn  Sn33  1  0.790946  0.362595  0.749400  1
  Sn  Sn34  1  0.706990  0.865001  0.249318  1
  Sn  Sn35  1  0.207879  0.638625  0.248677  1
