# generated using pymatgen
data_TbDy3(Co2O5)4
_symmetry_space_group_name_H-M   'P 1'
_cell_length_a   5.62282800
_cell_length_b   7.22803810
_cell_length_c   8.47483012
_cell_angle_alpha   89.98060149
_cell_angle_beta   90.00000000
_cell_angle_gamma   90.00000000
_symmetry_Int_Tables_number   1
_chemical_formula_structural   TbDy3(Co2O5)4
_chemical_formula_sum   'Tb1 Dy3 Co8 O20'
_cell_volume   344.43415346
_cell_formula_units_Z   1
loop_
 _symmetry_equiv_pos_site_id
 _symmetry_equiv_pos_as_xyz
  1  'x, y, z'
loop_
 _atom_site_type_symbol
 _atom_site_label
 _atom_site_symmetry_multiplicity
 _atom_site_fract_x
 _atom_site_fract_y
 _atom_site_fract_z
 _atom_site_occupancy
  Tb  Tb0  1  0.000000  0.641256  0.326599  1
  Dy  Dy1  1  0.000000  0.858621  0.826616  1
  Dy  Dy2  1  0.000000  0.141650  0.173285  1
  Dy  Dy3  1  0.000000  0.358117  0.673711  1
  Co  Co4  1  0.743695  0.000349  0.500165  1
  Co  Co5  1  0.500000  0.596971  0.646758  1
  Co  Co6  1  0.500000  0.402827  0.353326  1
  Co  Co7  1  0.500000  0.903281  0.146473  1
  Co  Co8  1  0.500000  0.096743  0.853253  1
  Co  Co9  1  0.256387  0.499901  0.999754  1
  Co  Co10  1  0.743613  0.499901  0.999754  1
  Co  Co11  1  0.256305  0.000349  0.500165  1
  O  O12  1  0.000000  0.337646  0.947137  1
  O  O13  1  0.724957  0.000007  0.999817  1
  O  O14  1  0.275043  0.000007  0.999817  1
  O  O15  1  0.500000  0.154456  0.442822  1
  O  O16  1  0.000000  0.162603  0.447309  1
  O  O17  1  0.724315  0.499093  0.500673  1
  O  O18  1  0.000000  0.838455  0.553226  1
  O  O19  1  0.754992  0.597901  0.788964  1
  O  O20  1  0.245078  0.097920  0.711121  1
  O  O21  1  0.500000  0.654724  0.057711  1
  O  O22  1  0.500000  0.345510  0.942281  1
  O  O23  1  0.000000  0.662186  0.051790  1
  O  O24  1  0.754505  0.903460  0.288816  1
  O  O25  1  0.754371  0.401223  0.210680  1
  O  O26  1  0.754922  0.097920  0.711121  1
  O  O27  1  0.245008  0.597901  0.788964  1
  O  O28  1  0.275685  0.499093  0.500673  1
  O  O29  1  0.245495  0.903460  0.288816  1
  O  O30  1  0.245629  0.401223  0.210680  1
  O  O31  1  0.500000  0.845244  0.557723  1
