# generated using pymatgen
data_SmSc3Al18(Pd2Ru)2
_symmetry_space_group_name_H-M   'P 1'
_cell_length_a   7.56037737
_cell_length_b   7.54371731
_cell_length_c   9.38910500
_cell_angle_alpha   90.00000000
_cell_angle_beta   90.00000000
_cell_angle_gamma   119.45723490
_symmetry_Int_Tables_number   1
_chemical_formula_structural   SmSc3Al18(Pd2Ru)2
_chemical_formula_sum   'Sm1 Sc3 Al18 Pd4 Ru2'
_cell_volume   466.26529192
_cell_formula_units_Z   1
loop_
 _symmetry_equiv_pos_site_id
 _symmetry_equiv_pos_as_xyz
  1  'x, y, z'
loop_
 _atom_site_type_symbol
 _atom_site_label
 _atom_site_symmetry_multiplicity
 _atom_site_fract_x
 _atom_site_fract_y
 _atom_site_fract_z
 _atom_site_occupancy
  Sm  Sm0  1  0.330612  0.005513  0.750000  1
  Sc  Sc1  1  0.994420  0.670860  0.250000  1
  Sc  Sc2  1  0.004808  0.327929  0.750000  1
  Sc  Sc3  1  0.672024  0.997399  0.250000  1
  Al  Al4  1  0.117435  0.119561  0.250000  1
  Al  Al5  1  0.874994  0.877037  0.750000  1
  Al  Al6  1  0.996139  0.330297  0.079835  1
  Al  Al7  1  0.998220  0.665981  0.927222  1
  Al  Al8  1  0.998220  0.665981  0.572778  1
  Al  Al9  1  0.329954  0.996305  0.415126  1
  Al  Al10  1  0.996139  0.330297  0.420165  1
  Al  Al11  1  0.674300  0.001926  0.573481  1
  Al  Al12  1  0.674300  0.001926  0.926519  1
  Al  Al13  1  0.329954  0.996305  0.084874  1
  Al  Al14  1  0.326279  0.329631  0.551420  1
  Al  Al15  1  0.675189  0.675517  0.434890  1
  Al  Al16  1  0.675189  0.675517  0.065110  1
  Al  Al17  1  0.326279  0.329631  0.948580  1
  Al  Al18  1  0.341001  0.552497  0.250000  1
  Al  Al19  1  0.662395  0.454416  0.750000  1
  Al  Al20  1  0.552768  0.342934  0.250000  1
  Al  Al21  1  0.449386  0.653574  0.750000  1
  Pd  Pd22  1  0.671722  0.327169  0.000913  1
  Pd  Pd23  1  0.328340  0.672875  0.000856  1
  Pd  Pd24  1  0.328340  0.672875  0.499144  1
  Pd  Pd25  1  0.671722  0.327169  0.499087  1
  Ru  Ru26  1  0.999938  0.999442  0.001595  1
  Ru  Ru27  1  0.999938  0.999442  0.498405  1
