# generated using pymatgen
data_TaNb3SiB2W
_symmetry_space_group_name_H-M   'P 1'
_cell_length_a   7.28520262
_cell_length_b   7.28520327
_cell_length_c   7.28206571
_cell_angle_alpha   129.58702572
_cell_angle_beta   129.58703037
_cell_angle_gamma   74.05200480
_symmetry_Int_Tables_number   1
_chemical_formula_structural   TaNb3SiB2W
_chemical_formula_sum   'Ta2 Nb6 Si2 B4 W2'
_cell_volume   223.85967311
_cell_formula_units_Z   2
loop_
 _symmetry_equiv_pos_site_id
 _symmetry_equiv_pos_as_xyz
  1  'x, y, z'
loop_
 _atom_site_type_symbol
 _atom_site_label
 _atom_site_symmetry_multiplicity
 _atom_site_fract_x
 _atom_site_fract_y
 _atom_site_fract_z
 _atom_site_occupancy
  Ta  Ta0  1  0.805834  0.305834  0.835129  1
  Ta  Ta1  1  0.194166  0.694166  0.164871  1
  Nb  Nb2  1  0.470926  0.970926  0.164315  1
  Nb  Nb3  1  0.306120  0.470639  0.499600  1
  Nb  Nb4  1  0.029361  0.193880  0.500400  1
  Nb  Nb5  1  0.529074  0.029074  0.835685  1
  Nb  Nb6  1  0.693880  0.529361  0.500400  1
  Nb  Nb7  1  0.970639  0.806120  0.499600  1
  Si  Si8  1  0.249578  0.250422  0.000000  1
  Si  Si9  1  0.750422  0.749578  0.000000  1
  B  B10  1  0.120417  0.620417  0.741331  1
  B  B11  1  0.879583  0.379583  0.258669  1
  B  B12  1  0.618133  0.881867  0.500000  1
  B  B13  1  0.381867  0.118133  0.500000  1
  W  W14  1  0.000000  0.000000  0.000000  1
  W  W15  1  0.500000  0.500000  0.000000  1
