# generated using pymatgen
data_Tb4Tm(CoO6)2
_symmetry_space_group_name_H-M   'P 1'
_cell_length_a   6.74666737
_cell_length_b   6.74666834
_cell_length_c   7.18499117
_cell_angle_alpha   74.76785769
_cell_angle_beta   74.76784333
_cell_angle_gamma   50.48219257
_symmetry_Int_Tables_number   1
_chemical_formula_structural   Tb4Tm(CoO6)2
_chemical_formula_sum   'Tb4 Tm1 Co2 O12'
_cell_volume   241.41255937
_cell_formula_units_Z   1
loop_
 _symmetry_equiv_pos_site_id
 _symmetry_equiv_pos_as_xyz
  1  'x, y, z'
loop_
 _atom_site_type_symbol
 _atom_site_label
 _atom_site_symmetry_multiplicity
 _atom_site_fract_x
 _atom_site_fract_y
 _atom_site_fract_z
 _atom_site_occupancy
  Tb  Tb0  1  0.693645  0.693645  0.143364  1
  Tb  Tb1  1  0.000260  0.000260  0.999037  1
  Tb  Tb2  1  0.306143  0.306143  0.853972  1
  Tb  Tb3  1  0.307184  0.307184  0.336958  1
  Tm  Tm4  1  0.692236  0.692236  0.663666  1
  Co  Co5  1  0.244031  0.755981  0.500962  1
  Co  Co6  1  0.755981  0.244031  0.500962  1
  O  O7  1  0.404851  0.900794  0.918330  1
  O  O8  1  0.586307  0.095181  0.578881  1
  O  O9  1  0.898373  0.419173  0.425590  1
  O  O10  1  0.096319  0.597493  0.076635  1
  O  O11  1  0.001918  0.001918  0.328732  1
  O  O12  1  0.501041  0.501041  0.675183  1
  O  O13  1  0.900794  0.404851  0.918330  1
  O  O14  1  0.095181  0.586307  0.578881  1
  O  O15  1  0.419173  0.898373  0.425590  1
  O  O16  1  0.597493  0.096319  0.076635  1
  O  O17  1  0.499739  0.499739  0.327078  1
  O  O18  1  0.999332  0.999332  0.671212  1
