# generated using pymatgen
data_LiIrRhO6
_symmetry_space_group_name_H-M   'P 1'
_cell_length_a   4.60161200
_cell_length_b   4.60161200
_cell_length_c   9.07942200
_cell_angle_alpha   90.00000000
_cell_angle_beta   90.00000000
_cell_angle_gamma   90.00000000
_symmetry_Int_Tables_number   1
_chemical_formula_structural   LiIrRhO6
_chemical_formula_sum   'Li2 Ir2 Rh2 O12'
_cell_volume   192.25524457
_cell_formula_units_Z   2
loop_
 _symmetry_equiv_pos_site_id
 _symmetry_equiv_pos_as_xyz
  1  'x, y, z'
loop_
 _atom_site_type_symbol
 _atom_site_label
 _atom_site_symmetry_multiplicity
 _atom_site_fract_x
 _atom_site_fract_y
 _atom_site_fract_z
 _atom_site_occupancy
  Li  Li0  1  0.500000  0.500000  0.500614  1
  Li  Li1  1  0.000000  0.000000  0.000614  1
  Ir  Ir2  1  0.500000  0.500000  0.170303  1
  Ir  Ir3  1  0.000000  0.000000  0.670303  1
  Rh  Rh4  1  0.500000  0.500000  0.829487  1
  Rh  Rh5  1  0.000000  0.000000  0.329487  1
  O  O6  1  0.185661  0.814339  0.503209  1
  O  O7  1  0.814339  0.185661  0.503209  1
  O  O8  1  0.314339  0.314339  0.003209  1
  O  O9  1  0.685661  0.685661  0.003209  1
  O  O10  1  0.207441  0.792559  0.168977  1
  O  O11  1  0.792559  0.207441  0.168977  1
  O  O12  1  0.292559  0.292559  0.668977  1
  O  O13  1  0.707441  0.707441  0.668977  1
  O  O14  1  0.800270  0.199730  0.827613  1
  O  O15  1  0.199730  0.800270  0.827613  1
  O  O16  1  0.699730  0.699730  0.327613  1
  O  O17  1  0.300270  0.300270  0.327613  1
