# generated using pymatgen
data_Th6P13Rh20
_symmetry_space_group_name_H-M   'P 1'
_cell_length_a   13.47542100
_cell_length_b   13.47542083
_cell_length_c   4.00093300
_cell_angle_alpha   90.00000000
_cell_angle_beta   90.00000000
_cell_angle_gamma   119.99999797
_symmetry_Int_Tables_number   1
_chemical_formula_structural   Th6P13Rh20
_chemical_formula_sum   'Th6 P13 Rh20'
_cell_volume   629.18244726
_cell_formula_units_Z   1
loop_
 _symmetry_equiv_pos_site_id
 _symmetry_equiv_pos_as_xyz
  1  'x, y, z'
loop_
 _atom_site_type_symbol
 _atom_site_label
 _atom_site_symmetry_multiplicity
 _atom_site_fract_x
 _atom_site_fract_y
 _atom_site_fract_z
 _atom_site_occupancy
  Th  Th0  1  0.529050  0.718495  0.250739  1
  Th  Th1  1  0.281505  0.810554  0.250739  1
  Th  Th2  1  0.189446  0.470950  0.250739  1
  Th  Th3  1  0.470950  0.281505  0.749261  1
  Th  Th4  1  0.718495  0.189446  0.749261  1
  Th  Th5  1  0.810554  0.529050  0.749261  1
  P  P6  1  0.523454  0.136948  0.246505  1
  P  P7  1  0.863052  0.386507  0.246505  1
  P  P8  1  0.613493  0.476546  0.246505  1
  P  P9  1  0.948262  0.719664  0.255283  1
  P  P10  1  0.280336  0.228598  0.255283  1
  P  P11  1  0.771402  0.051738  0.255283  1
  P  P12  1  0.386507  0.523454  0.753495  1
  P  P13  1  0.476546  0.863052  0.753495  1
  P  P14  1  0.136948  0.613493  0.753495  1
  P  P15  1  0.719664  0.771402  0.744717  1
  P  P16  1  0.228598  0.948262  0.744717  1
  P  P17  1  0.051738  0.280336  0.744717  1
  P  P18  1  0.000000  0.000000  0.000000  1
  Rh  Rh19  1  0.333333  0.666667  0.738829  1
  Rh  Rh20  1  0.922099  0.248409  0.252555  1
  Rh  Rh21  1  0.751591  0.673690  0.252555  1
  Rh  Rh22  1  0.326310  0.077901  0.252555  1
  Rh  Rh23  1  0.436055  0.019402  0.750517  1
  Rh  Rh24  1  0.980598  0.416654  0.750517  1
  Rh  Rh25  1  0.583346  0.563945  0.750517  1
  Rh  Rh26  1  0.666667  0.333333  0.261171  1
  Rh  Rh27  1  0.091701  0.183804  0.252793  1
  Rh  Rh28  1  0.816196  0.907897  0.252793  1
  Rh  Rh29  1  0.092103  0.908299  0.252793  1
  Rh  Rh30  1  0.019402  0.583346  0.249483  1
  Rh  Rh31  1  0.416654  0.436055  0.249483  1
  Rh  Rh32  1  0.563945  0.980598  0.249483  1
  Rh  Rh33  1  0.673690  0.922099  0.747445  1
  Rh  Rh34  1  0.077901  0.751591  0.747445  1
  Rh  Rh35  1  0.248409  0.326310  0.747445  1
  Rh  Rh36  1  0.908299  0.816196  0.747207  1
  Rh  Rh37  1  0.183804  0.092103  0.747207  1
  Rh  Rh38  1  0.907897  0.091701  0.747207  1
