# generated using pymatgen
data_Er3Tm13In4Pd3Ru
_symmetry_space_group_name_H-M   'P 1'
_cell_length_a   9.57573244
_cell_length_b   9.57692873
_cell_length_c   9.58988064
_cell_angle_alpha   60.12719311
_cell_angle_beta   60.10484197
_cell_angle_gamma   59.97999459
_symmetry_Int_Tables_number   1
_chemical_formula_structural   Er3Tm13In4Pd3Ru
_chemical_formula_sum   'Er3 Tm13 In4 Pd3 Ru1'
_cell_volume   622.85915790
_cell_formula_units_Z   1
loop_
 _symmetry_equiv_pos_site_id
 _symmetry_equiv_pos_as_xyz
  1  'x, y, z'
loop_
 _atom_site_type_symbol
 _atom_site_label
 _atom_site_symmetry_multiplicity
 _atom_site_fract_x
 _atom_site_fract_y
 _atom_site_fract_z
 _atom_site_occupancy
  Er  Er0  1  0.059826  0.060307  0.433857  1
  Er  Er1  1  0.438500  0.065410  0.431283  1
  Er  Er2  1  0.063603  0.437779  0.060896  1
  Tm  Tm3  1  0.055220  0.649899  0.642473  1
  Tm  Tm4  1  0.436747  0.436023  0.062591  1
  Tm  Tm5  1  0.650073  0.055084  0.641218  1
  Tm  Tm6  1  0.183385  0.810465  0.193921  1
  Tm  Tm7  1  0.190483  0.190545  0.808213  1
  Tm  Tm8  1  0.811317  0.811823  0.194448  1
  Tm  Tm9  1  0.439583  0.061851  0.059331  1
  Tm  Tm10  1  0.811035  0.182949  0.193644  1
  Tm  Tm11  1  0.063174  0.441502  0.432674  1
  Tm  Tm12  1  0.811665  0.189758  0.809369  1
  Tm  Tm13  1  0.189584  0.811480  0.809879  1
  Tm  Tm14  1  0.643698  0.642765  0.066279  1
  Tm  Tm15  1  0.653322  0.654405  0.645354  1
  In  In16  1  0.414051  0.413568  0.417387  1
  In  In17  1  0.751312  0.416441  0.419143  1
  In  In18  1  0.415233  0.751394  0.419015  1
  In  In19  1  0.418491  0.416888  0.749086  1
  Pd  Pd20  1  0.853401  0.854908  0.858470  1
  Pd  Pd21  1  0.430572  0.855586  0.861517  1
  Pd  Pd22  1  0.855474  0.430534  0.860668  1
  Ru  Ru23  1  0.860252  0.858640  0.429287  1
