# generated using pymatgen
data_TbDy10YCo5Bi
_symmetry_space_group_name_H-M   'P 1'
_cell_length_a   8.32950368
_cell_length_b   8.32950278
_cell_length_c   8.31683708
_cell_angle_alpha   110.72939406
_cell_angle_beta   110.73473890
_cell_angle_gamma   107.04243265
_symmetry_Int_Tables_number   1
_chemical_formula_structural   TbDy10YCo5Bi
_chemical_formula_sum   'Tb1 Dy10 Y1 Co5 Bi1'
_cell_volume   443.23065574
_cell_formula_units_Z   1
loop_
 _symmetry_equiv_pos_site_id
 _symmetry_equiv_pos_as_xyz
  1  'x, y, z'
loop_
 _atom_site_type_symbol
 _atom_site_label
 _atom_site_symmetry_multiplicity
 _atom_site_fract_x
 _atom_site_fract_y
 _atom_site_fract_z
 _atom_site_occupancy
  Tb  Tb0  1  0.815969  0.709767  0.525735  1
  Dy  Dy1  1  0.183756  0.709213  0.892968  1
  Dy  Dy2  1  0.816442  0.290831  0.107274  1
  Dy  Dy3  1  0.688610  0.378648  0.690854  1
  Dy  Dy4  1  0.311593  0.621420  0.309451  1
  Dy  Dy5  1  0.688030  0.997858  0.309451  1
  Dy  Dy6  1  0.312206  0.002245  0.690854  1
  Dy  Dy7  1  0.601158  0.795386  0.806684  1
  Dy  Dy8  1  0.399353  0.204747  0.193708  1
  Dy  Dy9  1  0.988961  0.794353  0.193708  1
  Dy  Dy10  1  0.011299  0.205527  0.806684  1
  Y  Y11  1  0.184830  0.289929  0.474761  1
  Co  Co12  1  0.623245  0.000072  0.623317  1
  Co  Co13  1  0.376466  0.000384  0.376851  1
  Co  Co14  1  0.110813  0.611814  0.499262  1
  Co  Co15  1  0.887448  0.388449  0.499262  1
  Co  Co16  1  0.000135  0.999540  0.999674  1
  Bi  Bi17  1  0.499683  0.499820  0.999503  1
