# generated using pymatgen
data_Sc3UAs6Ru7
_symmetry_space_group_name_H-M   'P 1'
_cell_length_a   7.09213570
_cell_length_b   7.09213540
_cell_length_c   7.13596700
_cell_angle_alpha   109.59646728
_cell_angle_beta   109.59646641
_cell_angle_gamma   109.34568584
_symmetry_Int_Tables_number   1
_chemical_formula_structural   Sc3UAs6Ru7
_chemical_formula_sum   'Sc3 U1 As6 Ru7'
_cell_volume   275.87437515
_cell_formula_units_Z   1
loop_
 _symmetry_equiv_pos_site_id
 _symmetry_equiv_pos_as_xyz
  1  'x, y, z'
loop_
 _atom_site_type_symbol
 _atom_site_label
 _atom_site_symmetry_multiplicity
 _atom_site_fract_x
 _atom_site_fract_y
 _atom_site_fract_z
 _atom_site_occupancy
  Sc  Sc0  1  0.500000  0.000000  0.000000  1
  Sc  Sc1  1  0.000000  0.500000  0.000000  1
  Sc  Sc2  1  0.500000  0.500000  0.500000  1
  U  U3  1  0.000000  0.000000  0.500000  1
  As  As4  1  0.315708  0.000000  0.308825  1
  As  As5  1  0.000000  0.315708  0.308825  1
  As  As6  1  0.000000  0.684292  0.691175  1
  As  As7  1  0.315708  0.315708  0.006883  1
  As  As8  1  0.684292  0.684292  0.993117  1
  As  As9  1  0.684292  0.000000  0.691175  1
  Ru  Ru10  1  0.750378  0.500756  0.250378  1
  Ru  Ru11  1  0.500756  0.750378  0.250378  1
  Ru  Ru12  1  0.499244  0.249622  0.749622  1
  Ru  Ru13  1  0.750378  0.249622  0.500000  1
  Ru  Ru14  1  0.249622  0.750378  0.500000  1
  Ru  Ru15  1  0.249622  0.499244  0.749622  1
  Ru  Ru16  1  0.000000  0.000000  0.000000  1
