# generated using pymatgen
data_Tb6Al24Fe5Cu2Ru
_symmetry_space_group_name_H-M   'P 1'
_cell_length_a   8.73780224
_cell_length_b   8.74611311
_cell_length_c   9.38040743
_cell_angle_alpha   90.08497079
_cell_angle_beta   90.02082222
_cell_angle_gamma   119.46109011
_symmetry_Int_Tables_number   1
_chemical_formula_structural   Tb6Al24Fe5Cu2Ru
_chemical_formula_sum   'Tb6 Al24 Fe5 Cu2 Ru1'
_cell_volume   624.16827594
_cell_formula_units_Z   1
loop_
 _symmetry_equiv_pos_site_id
 _symmetry_equiv_pos_as_xyz
  1  'x, y, z'
loop_
 _atom_site_type_symbol
 _atom_site_label
 _atom_site_symmetry_multiplicity
 _atom_site_fract_x
 _atom_site_fract_y
 _atom_site_fract_z
 _atom_site_occupancy
  Tb  Tb0  1  0.384748  0.188868  0.250670  1
  Tb  Tb1  1  0.805355  0.194817  0.250984  1
  Tb  Tb2  1  0.811214  0.615388  0.251612  1
  Tb  Tb3  1  0.615252  0.811132  0.749330  1
  Tb  Tb4  1  0.194645  0.805183  0.749016  1
  Tb  Tb5  1  0.188786  0.384612  0.748388  1
  Al  Al6  1  0.439873  0.879468  0.254724  1
  Al  Al7  1  0.117533  0.558564  0.250296  1
  Al  Al8  1  0.437497  0.561864  0.250344  1
  Al  Al9  1  0.560127  0.120532  0.745276  1
  Al  Al10  1  0.882467  0.441436  0.749704  1
  Al  Al11  1  0.562503  0.438136  0.749656  1
  Al  Al12  1  0.161617  0.837692  0.423858  1
  Al  Al13  1  0.151889  0.320202  0.423879  1
  Al  Al14  1  0.680203  0.848060  0.424435  1
  Al  Al15  1  0.838383  0.162308  0.576142  1
  Al  Al16  1  0.848111  0.679798  0.576121  1
  Al  Al17  1  0.319797  0.151940  0.575565  1
  Al  Al18  1  0.840989  0.164138  0.922866  1
  Al  Al19  1  0.848948  0.680535  0.923862  1
  Al  Al20  1  0.318445  0.154197  0.922762  1
  Al  Al21  1  0.159011  0.835862  0.077134  1
  Al  Al22  1  0.151052  0.319465  0.076138  1
  Al  Al23  1  0.681555  0.845803  0.077238  1
  Al  Al24  1  0.328912  0.671094  0.515254  1
  Al  Al25  1  0.671088  0.328906  0.484746  1
  Al  Al26  1  0.674789  0.335143  0.015353  1
  Al  Al27  1  0.325211  0.664857  0.984647  1
  Al  Al28  1  0.001332  0.998499  0.250322  1
  Al  Al29  1  0.998668  0.001501  0.749678  1
  Fe  Fe30  1  0.000000  0.000000  0.500000  1
  Fe  Fe31  1  0.000000  0.000000  0.000000  1
  Fe  Fe32  1  0.500000  0.000000  0.500000  1
  Fe  Fe33  1  0.000000  0.500000  0.500000  1
  Fe  Fe34  1  0.000000  0.500000  0.000000  1
  Cu  Cu35  1  0.500000  0.500000  0.500000  1
  Cu  Cu36  1  0.500000  0.500000  0.000000  1
  Ru  Ru37  1  0.500000  0.000000  0.000000  1
