# generated using pymatgen
data_Ce10CuSiBi6
_symmetry_space_group_name_H-M   'P 1'
_cell_length_a   9.63673403
_cell_length_b   9.63650729
_cell_length_c   6.50430508
_cell_angle_alpha   89.98131633
_cell_angle_beta   90.00934075
_cell_angle_gamma   119.99922143
_symmetry_Int_Tables_number   1
_chemical_formula_structural   Ce10CuSiBi6
_chemical_formula_sum   'Ce10 Cu1 Si1 Bi6'
_cell_volume   523.09967033
_cell_formula_units_Z   1
loop_
 _symmetry_equiv_pos_site_id
 _symmetry_equiv_pos_as_xyz
  1  'x, y, z'
loop_
 _atom_site_type_symbol
 _atom_site_label
 _atom_site_symmetry_multiplicity
 _atom_site_fract_x
 _atom_site_fract_y
 _atom_site_fract_z
 _atom_site_occupancy
  Ce  Ce0  1  0.666660  0.333329  0.000000  1
  Ce  Ce1  1  0.333340  0.666671  0.000000  1
  Ce  Ce2  1  0.333411  0.666706  0.500000  1
  Ce  Ce3  1  0.666589  0.333294  0.500000  1
  Ce  Ce4  1  0.744697  0.744646  0.752581  1
  Ce  Ce5  1  0.255303  0.999949  0.752581  1
  Ce  Ce6  1  0.000000  0.255590  0.752798  1
  Ce  Ce7  1  0.255303  0.255354  0.247419  1
  Ce  Ce8  1  0.744697  0.000051  0.247419  1
  Ce  Ce9  1  0.000000  0.744410  0.247202  1
  Cu  Cu10  1  0.000000  0.000000  0.500000  1
  Si  Si11  1  0.000000  0.000000  0.000000  1
  Bi  Bi12  1  0.384400  0.384439  0.748904  1
  Bi  Bi13  1  0.615600  0.000039  0.748904  1
  Bi  Bi14  1  0.000000  0.615494  0.748834  1
  Bi  Bi15  1  0.615600  0.615561  0.251096  1
  Bi  Bi16  1  0.384400  0.999961  0.251096  1
  Bi  Bi17  1  0.000000  0.384506  0.251166  1
