# generated using pymatgen
data_HgPtRh3Pb3O14
_symmetry_space_group_name_H-M   'P 1'
_cell_length_a   7.36423440
_cell_length_b   7.24575134
_cell_length_c   7.37830300
_cell_angle_alpha   59.39296741
_cell_angle_beta   59.93677099
_cell_angle_gamma   59.24367369
_symmetry_Int_Tables_number   1
_chemical_formula_structural   HgPtRh3Pb3O14
_chemical_formula_sum   'Hg1 Pt1 Rh3 Pb3 O14'
_cell_volume   275.35627675
_cell_formula_units_Z   1
loop_
 _symmetry_equiv_pos_site_id
 _symmetry_equiv_pos_as_xyz
  1  'x, y, z'
loop_
 _atom_site_type_symbol
 _atom_site_label
 _atom_site_symmetry_multiplicity
 _atom_site_fract_x
 _atom_site_fract_y
 _atom_site_fract_z
 _atom_site_occupancy
  Hg  Hg0  1  0.125000  0.625000  0.125000  1
  Pt  Pt1  1  0.125000  0.625000  0.625000  1
  Rh  Rh2  1  0.625000  0.625000  0.125000  1
  Rh  Rh3  1  0.625000  0.625000  0.625000  1
  Rh  Rh4  1  0.625000  0.125000  0.625000  1
  Pb  Pb5  1  0.125000  0.125000  0.125000  1
  Pb  Pb6  1  0.625000  0.125000  0.125000  1
  Pb  Pb7  1  0.125000  0.125000  0.625000  1
  O  O8  1  0.708904  0.289352  0.294558  1
  O  O9  1  0.708904  0.289352  0.707187  1
  O  O10  1  0.005985  0.992807  0.000604  1
  O  O11  1  0.294738  0.712511  0.294372  1
  O  O12  1  0.686436  0.711487  0.301039  1
  O  O13  1  0.955262  0.537489  0.551620  1
  O  O14  1  0.294738  0.712511  0.698380  1
  O  O15  1  0.244015  0.257193  0.249396  1
  O  O16  1  0.955262  0.537489  0.955628  1
  O  O17  1  0.541096  0.960648  0.542813  1
  O  O18  1  0.563564  0.538513  0.948961  1
  O  O19  1  0.956209  0.960837  0.541476  1
  O  O20  1  0.541096  0.960648  0.955442  1
  O  O21  1  0.293791  0.289163  0.708524  1
