# generated using pymatgen
data_Nb12Al9Zn13Os2
_symmetry_space_group_name_H-M   'P 1'
_cell_length_a   8.82265900
_cell_length_b   8.82265840
_cell_length_c   8.15373700
_cell_angle_alpha   90.00000000
_cell_angle_beta   90.00000000
_cell_angle_gamma   119.99999099
_symmetry_Int_Tables_number   1
_chemical_formula_structural   Nb12Al9Zn13Os2
_chemical_formula_sum   'Nb12 Al9 Zn13 Os2'
_cell_volume   549.65012186
_cell_formula_units_Z   1
loop_
 _symmetry_equiv_pos_site_id
 _symmetry_equiv_pos_as_xyz
  1  'x, y, z'
loop_
 _atom_site_type_symbol
 _atom_site_label
 _atom_site_symmetry_multiplicity
 _atom_site_fract_x
 _atom_site_fract_y
 _atom_site_fract_z
 _atom_site_occupancy
  Nb  Nb0  1  0.330656  0.999843  0.068391  1
  Nb  Nb1  1  0.669189  0.999843  0.931609  1
  Nb  Nb2  1  0.000157  0.330811  0.068391  1
  Nb  Nb3  1  0.670741  0.001022  0.568766  1
  Nb  Nb4  1  0.998978  0.329259  0.431234  1
  Nb  Nb5  1  0.000157  0.669344  0.931609  1
  Nb  Nb6  1  0.330281  0.001022  0.431234  1
  Nb  Nb7  1  0.998978  0.669719  0.568766  1
  Nb  Nb8  1  0.669189  0.669344  0.068391  1
  Nb  Nb9  1  0.330656  0.330811  0.931609  1
  Nb  Nb10  1  0.330281  0.329259  0.568766  1
  Nb  Nb11  1  0.670741  0.669719  0.431234  1
  Al  Al12  1  0.666667  0.333333  0.500000  1
  Al  Al13  1  0.666667  0.333333  0.000000  1
  Al  Al14  1  0.333333  0.666667  0.000000  1
  Al  Al15  1  0.171705  0.999780  0.750237  1
  Al  Al16  1  0.828077  0.999780  0.249763  1
  Al  Al17  1  0.000220  0.171923  0.750237  1
  Al  Al18  1  0.000220  0.828295  0.249763  1
  Al  Al19  1  0.828077  0.828295  0.750237  1
  Al  Al20  1  0.171705  0.171923  0.249763  1
  Zn  Zn21  1  0.161462  0.495891  0.747174  1
  Zn  Zn22  1  0.839192  0.504666  0.249998  1
  Zn  Zn23  1  0.504109  0.665571  0.747174  1
  Zn  Zn24  1  0.495334  0.160808  0.750002  1
  Zn  Zn25  1  0.495334  0.334526  0.249998  1
  Zn  Zn26  1  0.504109  0.838538  0.252826  1
  Zn  Zn27  1  0.334429  0.838538  0.747174  1
  Zn  Zn28  1  0.665474  0.504666  0.750002  1
  Zn  Zn29  1  0.665474  0.160808  0.249998  1
  Zn  Zn30  1  0.334429  0.495891  0.252826  1
  Zn  Zn31  1  0.839192  0.334526  0.750002  1
  Zn  Zn32  1  0.161462  0.665571  0.252826  1
  Zn  Zn33  1  0.333333  0.666667  0.500000  1
  Os  Os34  1  0.000000  0.000000  0.500000  1
  Os  Os35  1  0.000000  0.000000  0.000000  1
