# generated using pymatgen
data_TbYEr5CoI12
_symmetry_space_group_name_H-M   'P 1'
_cell_length_a   9.74432231
_cell_length_b   9.73370309
_cell_length_c   9.73516155
_cell_angle_alpha   106.73803960
_cell_angle_beta   106.85984376
_cell_angle_gamma   106.82309203
_symmetry_Int_Tables_number   1
_chemical_formula_structural   TbYEr5CoI12
_chemical_formula_sum   'Tb1 Y1 Er5 Co1 I12'
_cell_volume   772.99860434
_cell_formula_units_Z   1
loop_
 _symmetry_equiv_pos_site_id
 _symmetry_equiv_pos_as_xyz
  1  'x, y, z'
loop_
 _atom_site_type_symbol
 _atom_site_label
 _atom_site_symmetry_multiplicity
 _atom_site_fract_x
 _atom_site_fract_y
 _atom_site_fract_z
 _atom_site_occupancy
  Tb  Tb0  1  0.711526  0.978634  0.907838  1
  Y  Y1  1  0.500337  0.500014  0.500099  1
  Er  Er2  1  0.021569  0.090531  0.284610  1
  Er  Er3  1  0.091420  0.284680  0.021178  1
  Er  Er4  1  0.284026  0.021023  0.090674  1
  Er  Er5  1  0.979068  0.909405  0.715578  1
  Er  Er6  1  0.909885  0.715481  0.979186  1
  Co  Co7  1  0.999936  0.000028  0.999976  1
  I  I8  1  0.159949  0.460974  0.384380  1
  I  I9  1  0.461262  0.384582  0.159885  1
  I  I10  1  0.384510  0.159757  0.461226  1
  I  I11  1  0.840529  0.539086  0.615674  1
  I  I12  1  0.538849  0.613551  0.840280  1
  I  I13  1  0.615789  0.839537  0.536586  1
  I  I14  1  0.678534  0.071813  0.225730  1
  I  I15  1  0.070983  0.222696  0.677890  1
  I  I16  1  0.222914  0.677544  0.070836  1
  I  I17  1  0.320806  0.928631  0.776563  1
  I  I18  1  0.929263  0.777319  0.322193  1
  I  I19  1  0.778847  0.324715  0.929619  1
