# generated using pymatgen
data_Ce2Er2LuRu2
_symmetry_space_group_name_H-M   'P 1'
_cell_length_a   6.34030096
_cell_length_b   7.00365262
_cell_length_c   8.74030377
_cell_angle_alpha   95.80388920
_cell_angle_beta   111.26640240
_cell_angle_gamma   89.99999881
_symmetry_Int_Tables_number   1
_chemical_formula_structural   Ce2Er2LuRu2
_chemical_formula_sum   'Ce4 Er4 Lu2 Ru4'
_cell_volume   359.55067109
_cell_formula_units_Z   2
loop_
 _symmetry_equiv_pos_site_id
 _symmetry_equiv_pos_as_xyz
  1  'x, y, z'
loop_
 _atom_site_type_symbol
 _atom_site_label
 _atom_site_symmetry_multiplicity
 _atom_site_fract_x
 _atom_site_fract_y
 _atom_site_fract_z
 _atom_site_occupancy
  Ce  Ce0  1  0.521875  0.094727  0.810403  1
  Ce  Ce1  1  0.478125  0.905273  0.189597  1
  Ce  Ce2  1  0.711472  0.405273  0.189597  1
  Ce  Ce3  1  0.288528  0.594727  0.810403  1
  Er  Er4  1  0.293683  0.313732  0.432522  1
  Er  Er5  1  0.706317  0.686268  0.567478  1
  Er  Er6  1  0.861162  0.186268  0.567478  1
  Er  Er7  1  0.138838  0.813732  0.432522  1
  Lu  Lu8  1  0.080506  0.250000  0.000000  1
  Lu  Lu9  1  0.919494  0.750000  0.000000  1
  Ru  Ru10  1  0.343682  0.592362  0.219870  1
  Ru  Ru11  1  0.656318  0.407638  0.780130  1
  Ru  Ru12  1  0.123814  0.907638  0.780130  1
  Ru  Ru13  1  0.876186  0.092362  0.219870  1
