# generated using pymatgen
data_Ca12Ac7NdPb16
_symmetry_space_group_name_H-M   'P 1'
_cell_length_a   8.27763554
_cell_length_b   16.70773063
_cell_length_c   8.84012600
_cell_angle_alpha   90.08678870
_cell_angle_beta   89.95511240
_cell_angle_gamma   90.03115800
_symmetry_Int_Tables_number   1
_chemical_formula_structural   Ca12Ac7NdPb16
_chemical_formula_sum   'Ca12 Ac7 Nd1 Pb16'
_cell_volume   1222.59193085
_cell_formula_units_Z   1
loop_
 _symmetry_equiv_pos_site_id
 _symmetry_equiv_pos_as_xyz
  1  'x, y, z'
loop_
 _atom_site_type_symbol
 _atom_site_label
 _atom_site_symmetry_multiplicity
 _atom_site_fract_x
 _atom_site_fract_y
 _atom_site_fract_z
 _atom_site_occupancy
  Ca  Ca0  1  0.669328  0.622753  0.162549  1
  Ca  Ca1  1  0.168680  0.875177  0.334421  1
  Ca  Ca2  1  0.329451  0.123025  0.833415  1
  Ca  Ca3  1  0.830795  0.377806  0.664128  1
  Ca  Ca4  1  0.331639  0.379318  0.830325  1
  Ca  Ca5  1  0.831282  0.122958  0.663350  1
  Ca  Ca6  1  0.668765  0.875956  0.163229  1
  Ca  Ca7  1  0.171102  0.623452  0.336740  1
  Ca  Ca8  1  0.498338  0.596537  0.688690  1
  Ca  Ca9  1  0.833414  0.747274  0.497074  1
  Ca  Ca10  1  0.336884  0.747660  0.001058  1
  Ca  Ca11  1  0.165107  0.250939  0.502897  1
  Ac  Ac12  1  0.003502  0.902666  0.813439  1
  Ac  Ac13  1  0.497208  0.093216  0.319077  1
  Ac  Ac14  1  0.999372  0.408230  0.185244  1
  Ac  Ac15  1  0.498249  0.409855  0.322057  1
  Ac  Ac16  1  0.000345  0.093329  0.185115  1
  Ac  Ac17  1  0.503011  0.904550  0.685759  1
  Ac  Ac18  1  0.001918  0.594880  0.812852  1
  Nd  Nd19  1  0.665365  0.251240  0.992648  1
  Pb  Pb20  1  0.671710  0.456140  0.963831  1
  Pb  Pb21  1  0.170635  0.041042  0.541000  1
  Pb  Pb22  1  0.328132  0.959414  0.039555  1
  Pb  Pb23  1  0.820486  0.541813  0.465153  1
  Pb  Pb24  1  0.329323  0.540320  0.037894  1
  Pb  Pb25  1  0.828075  0.959129  0.459103  1
  Pb  Pb26  1  0.670975  0.043309  0.961955  1
  Pb  Pb27  1  0.168499  0.459930  0.540681  1
  Pb  Pb28  1  0.471165  0.750111  0.384486  1
  Pb  Pb29  1  0.970279  0.749414  0.112363  1
  Pb  Pb30  1  0.531511  0.249882  0.615500  1
  Pb  Pb31  1  0.030721  0.250437  0.892658  1
  Pb  Pb32  1  0.705247  0.747908  0.857647  1
  Pb  Pb33  1  0.209534  0.749620  0.638664  1
  Pb  Pb34  1  0.298848  0.250591  0.140535  1
  Pb  Pb35  1  0.791100  0.250117  0.354910  1
