# generated using pymatgen
data_Er2TcB8W
_symmetry_space_group_name_H-M   'P 1'
_cell_length_a   3.59547300
_cell_length_b   5.98110963
_cell_length_c   11.56760114
_cell_angle_alpha   89.91551896
_cell_angle_beta   90.00000000
_cell_angle_gamma   90.00000000
_symmetry_Int_Tables_number   1
_chemical_formula_structural   Er2TcB8W
_chemical_formula_sum   'Er4 Tc2 B16 W2'
_cell_volume   248.76004558
_cell_formula_units_Z   2
loop_
 _symmetry_equiv_pos_site_id
 _symmetry_equiv_pos_as_xyz
  1  'x, y, z'
loop_
 _atom_site_type_symbol
 _atom_site_label
 _atom_site_symmetry_multiplicity
 _atom_site_fract_x
 _atom_site_fract_y
 _atom_site_fract_z
 _atom_site_occupancy
  Er  Er0  1  0.000000  0.627479  0.348337  1
  Er  Er1  1  0.000000  0.372521  0.651663  1
  Er  Er2  1  0.000000  0.128195  0.148132  1
  Er  Er3  1  0.000000  0.871805  0.851868  1
  Tc  Tc4  1  0.000000  0.634839  0.087040  1
  Tc  Tc5  1  0.000000  0.365161  0.912960  1
  B  B6  1  0.500000  0.785616  0.184448  1
  B  B7  1  0.500000  0.214384  0.815552  1
  B  B8  1  0.500000  0.290202  0.312225  1
  B  B9  1  0.500000  0.709798  0.687775  1
  B  B10  1  0.500000  0.864189  0.030655  1
  B  B11  1  0.500000  0.135811  0.969345  1
  B  B12  1  0.500000  0.367865  0.467477  1
  B  B13  1  0.500000  0.632135  0.532523  1
  B  B14  1  0.500000  0.884694  0.452269  1
  B  B15  1  0.500000  0.115306  0.547731  1
  B  B16  1  0.500000  0.386745  0.047258  1
  B  B17  1  0.500000  0.613255  0.952742  1
  B  B18  1  0.500000  0.975600  0.304967  1
  B  B19  1  0.500000  0.024400  0.695033  1
  B  B20  1  0.500000  0.477046  0.191529  1
  B  B21  1  0.500000  0.522954  0.808471  1
  W  W22  1  0.000000  0.130923  0.414245  1
  W  W23  1  0.000000  0.869077  0.585755  1
