# generated using pymatgen
data_TaTi2Rh5
_symmetry_space_group_name_H-M   'P 1'
_cell_length_a   4.14448300
_cell_length_b   5.46765669
_cell_length_c   10.67495737
_cell_angle_alpha   90.95769920
_cell_angle_beta   90.00000000
_cell_angle_gamma   90.00000000
_symmetry_Int_Tables_number   1
_chemical_formula_structural   TaTi2Rh5
_chemical_formula_sum   'Ta2 Ti4 Rh10'
_cell_volume   241.86725611
_cell_formula_units_Z   2
loop_
 _symmetry_equiv_pos_site_id
 _symmetry_equiv_pos_as_xyz
  1  'x, y, z'
loop_
 _atom_site_type_symbol
 _atom_site_label
 _atom_site_symmetry_multiplicity
 _atom_site_fract_x
 _atom_site_fract_y
 _atom_site_fract_z
 _atom_site_occupancy
  Ta  Ta0  1  0.500000  0.333883  0.147460  1
  Ta  Ta1  1  0.500000  0.666117  0.852540  1
  Ti  Ti2  1  0.000000  0.000000  0.000000  1
  Ti  Ti3  1  0.000000  0.500000  0.500000  1
  Ti  Ti4  1  0.500000  0.836647  0.357430  1
  Ti  Ti5  1  0.500000  0.163353  0.642570  1
  Rh  Rh6  1  0.000000  0.000000  0.500000  1
  Rh  Rh7  1  0.000000  0.500000  0.000000  1
  Rh  Rh8  1  0.000000  0.091684  0.239468  1
  Rh  Rh9  1  0.000000  0.908316  0.760532  1
  Rh  Rh10  1  0.000000  0.593801  0.261886  1
  Rh  Rh11  1  0.000000  0.406199  0.738114  1
  Rh  Rh12  1  0.500000  0.312912  0.394002  1
  Rh  Rh13  1  0.500000  0.687088  0.605998  1
  Rh  Rh14  1  0.500000  0.812581  0.105746  1
  Rh  Rh15  1  0.500000  0.187419  0.894254  1
