# generated using pymatgen
data_Ba2Li3Ag23
_symmetry_space_group_name_H-M   'P 1'
_cell_length_a   9.36378369
_cell_length_b   9.33552446
_cell_length_c   9.36837969
_cell_angle_alpha   60.08341723
_cell_angle_beta   59.75869414
_cell_angle_gamma   60.13231718
_symmetry_Int_Tables_number   1
_chemical_formula_structural   Ba2Li3Ag23
_chemical_formula_sum   'Ba2 Li3 Ag23'
_cell_volume   578.95491800
_cell_formula_units_Z   1
loop_
 _symmetry_equiv_pos_site_id
 _symmetry_equiv_pos_as_xyz
  1  'x, y, z'
loop_
 _atom_site_type_symbol
 _atom_site_label
 _atom_site_symmetry_multiplicity
 _atom_site_fract_x
 _atom_site_fract_y
 _atom_site_fract_z
 _atom_site_occupancy
  Ba  Ba0  1  0.753320  0.749235  0.750644  1
  Ba  Ba1  1  0.249356  0.253198  0.246680  1
  Li  Li2  1  0.432545  0.796245  0.567455  1
  Li  Li3  1  0.001672  0.999599  0.998328  1
  Li  Li4  1  0.500042  0.496808  0.499958  1
  Ag  Ag5  1  0.066450  0.936651  0.704591  1
  Ag  Ag6  1  0.563071  0.439695  0.792370  1
  Ag  Ag7  1  0.789772  0.565317  0.438119  1
  Ag  Ag8  1  0.207630  0.795137  0.436929  1
  Ag  Ag9  1  0.706028  0.062686  0.937144  1
  Ag  Ag10  1  0.436998  0.562400  0.206161  1
  Ag  Ag11  1  0.705292  0.934276  0.294708  1
  Ag  Ag12  1  0.436711  0.206417  0.794237  1
  Ag  Ag13  1  0.937181  0.705393  0.062819  1
  Ag  Ag14  1  0.063024  0.294945  0.936976  1
  Ag  Ag15  1  0.935935  0.295075  0.704897  1
  Ag  Ag16  1  0.706644  0.292829  0.063285  1
  Ag  Ag17  1  0.205763  0.437366  0.563289  1
  Ag  Ag18  1  0.792573  0.436315  0.207427  1
  Ag  Ag19  1  0.295409  0.707693  0.933550  1
  Ag  Ag20  1  0.062856  0.705858  0.293972  1
  Ag  Ag21  1  0.561881  0.793207  0.210228  1
  Ag  Ag22  1  0.295103  0.935907  0.064065  1
  Ag  Ag23  1  0.209073  0.565641  0.790927  1
  Ag  Ag24  1  0.293069  0.061667  0.706931  1
  Ag  Ag25  1  0.793839  0.205560  0.563002  1
  Ag  Ag26  1  0.936715  0.062757  0.293356  1
  Ag  Ag27  1  0.562047  0.202124  0.437953  1
