# generated using pymatgen
data_Er12Tc2IrRu
_symmetry_space_group_name_H-M   'P 1'
_cell_length_a   6.23967809
_cell_length_b   7.35044337
_cell_length_c   9.01967300
_cell_angle_alpha   90.00000000
_cell_angle_beta   90.00000000
_cell_angle_gamma   90.05213813
_symmetry_Int_Tables_number   1
_chemical_formula_structural   Er12Tc2IrRu
_chemical_formula_sum   'Er12 Tc2 Ir1 Ru1'
_cell_volume   413.68172344
_cell_formula_units_Z   1
loop_
 _symmetry_equiv_pos_site_id
 _symmetry_equiv_pos_as_xyz
  1  'x, y, z'
loop_
 _atom_site_type_symbol
 _atom_site_label
 _atom_site_symmetry_multiplicity
 _atom_site_fract_x
 _atom_site_fract_y
 _atom_site_fract_z
 _atom_site_occupancy
  Er  Er0  1  0.333902  0.676069  0.063719  1
  Er  Er1  1  0.162099  0.175999  0.437085  1
  Er  Er2  1  0.663810  0.322695  0.561401  1
  Er  Er3  1  0.835275  0.825103  0.937746  1
  Er  Er4  1  0.663810  0.322695  0.938599  1
  Er  Er5  1  0.835275  0.825103  0.562254  1
  Er  Er6  1  0.333902  0.676069  0.436281  1
  Er  Er7  1  0.162099  0.175999  0.062915  1
  Er  Er8  1  0.875170  0.541875  0.250000  1
  Er  Er9  1  0.626101  0.038579  0.250000  1
  Er  Er10  1  0.130709  0.458976  0.750000  1
  Er  Er11  1  0.372506  0.960322  0.750000  1
  Tc  Tc12  1  0.463239  0.385121  0.250000  1
  Tc  Tc13  1  0.961325  0.115751  0.750000  1
  Ir  Ir14  1  0.542248  0.617338  0.750000  1
  Ru  Ru15  1  0.038529  0.882307  0.250000  1
