# generated using pymatgen
data_TmZr21Os8
_symmetry_space_group_name_H-M   'P 1'
_cell_length_a   9.58893190
_cell_length_b   9.58893167
_cell_length_c   9.57838000
_cell_angle_alpha   60.03639431
_cell_angle_beta   60.03639511
_cell_angle_gamma   59.92720657
_symmetry_Int_Tables_number   1
_chemical_formula_structural   TmZr21Os8
_chemical_formula_sum   'Tm1 Zr21 Os8'
_cell_volume   622.75390503
_cell_formula_units_Z   1
loop_
 _symmetry_equiv_pos_site_id
 _symmetry_equiv_pos_as_xyz
  1  'x, y, z'
loop_
 _atom_site_type_symbol
 _atom_site_label
 _atom_site_symmetry_multiplicity
 _atom_site_fract_x
 _atom_site_fract_y
 _atom_site_fract_z
 _atom_site_occupancy
  Tm  Tm0  1  0.799934  0.799934  0.200066  1
  Zr  Zr1  1  0.200118  0.799174  0.200826  1
  Zr  Zr2  1  0.799174  0.200118  0.200826  1
  Zr  Zr3  1  0.203241  0.203241  0.796759  1
  Zr  Zr4  1  0.799174  0.200118  0.799882  1
  Zr  Zr5  1  0.200118  0.799174  0.799882  1
  Zr  Zr6  1  0.615158  0.615158  0.150116  1
  Zr  Zr7  1  0.617133  0.150017  0.616424  1
  Zr  Zr8  1  0.150017  0.617133  0.616424  1
  Zr  Zr9  1  0.615158  0.615158  0.619568  1
  Zr  Zr10  1  0.383576  0.383576  0.849983  1
  Zr  Zr11  1  0.380432  0.849884  0.384842  1
  Zr  Zr12  1  0.849884  0.380432  0.384842  1
  Zr  Zr13  1  0.383576  0.383576  0.382867  1
  Zr  Zr14  1  0.836318  0.836318  0.493080  1
  Zr  Zr15  1  0.837893  0.488394  0.836856  1
  Zr  Zr16  1  0.488394  0.837893  0.836856  1
  Zr  Zr17  1  0.836318  0.836318  0.834283  1
  Zr  Zr18  1  0.163144  0.163144  0.511606  1
  Zr  Zr19  1  0.165717  0.506920  0.163682  1
  Zr  Zr20  1  0.506920  0.165717  0.163682  1
  Zr  Zr21  1  0.163144  0.163144  0.162107  1
  Os  Os22  1  0.006398  0.006398  0.993602  1
  Os  Os23  1  0.500449  0.500449  0.499551  1
  Os  Os24  1  0.000440  0.000440  0.499560  1
  Os  Os25  1  0.499521  0.999345  0.500479  1
  Os  Os26  1  0.999345  0.499521  0.500479  1
  Os  Os27  1  0.500440  0.500440  0.999560  1
  Os  Os28  1  0.999345  0.499521  0.000655  1
  Os  Os29  1  0.499521  0.999345  0.000655  1
