# generated using pymatgen
data_Hf9TaRe3P
_symmetry_space_group_name_H-M   'P 1'
_cell_length_a   8.64218500
_cell_length_b   8.64218546
_cell_length_c   8.57047600
_cell_angle_alpha   90.00000000
_cell_angle_beta   90.00000000
_cell_angle_gamma   120.00000206
_symmetry_Int_Tables_number   1
_chemical_formula_structural   Hf9TaRe3P
_chemical_formula_sum   'Hf18 Ta2 Re6 P2'
_cell_volume   554.34828306
_cell_formula_units_Z   2
loop_
 _symmetry_equiv_pos_site_id
 _symmetry_equiv_pos_as_xyz
  1  'x, y, z'
loop_
 _atom_site_type_symbol
 _atom_site_label
 _atom_site_symmetry_multiplicity
 _atom_site_fract_x
 _atom_site_fract_y
 _atom_site_fract_z
 _atom_site_occupancy
  Hf  Hf0  1  0.197669  0.802331  0.451424  1
  Hf  Hf1  1  0.197669  0.395338  0.451424  1
  Hf  Hf2  1  0.604662  0.802331  0.451424  1
  Hf  Hf3  1  0.802331  0.197669  0.548576  1
  Hf  Hf4  1  0.802331  0.604662  0.548576  1
  Hf  Hf5  1  0.395338  0.197669  0.548576  1
  Hf  Hf6  1  0.802331  0.197669  0.951424  1
  Hf  Hf7  1  0.802331  0.604662  0.951424  1
  Hf  Hf8  1  0.395338  0.197669  0.951424  1
  Hf  Hf9  1  0.197669  0.802331  0.048576  1
  Hf  Hf10  1  0.197669  0.395338  0.048576  1
  Hf  Hf11  1  0.604662  0.802331  0.048576  1
  Hf  Hf12  1  0.538978  0.461022  0.250000  1
  Hf  Hf13  1  0.538978  0.077956  0.250000  1
  Hf  Hf14  1  0.922044  0.461022  0.250000  1
  Hf  Hf15  1  0.461022  0.538978  0.750000  1
  Hf  Hf16  1  0.461022  0.922044  0.750000  1
  Hf  Hf17  1  0.077956  0.538978  0.750000  1
  Ta  Ta18  1  0.000000  0.000000  0.500000  1
  Ta  Ta19  1  0.000000  0.000000  0.000000  1
  Re  Re20  1  0.887994  0.112006  0.250000  1
  Re  Re21  1  0.887994  0.775988  0.250000  1
  Re  Re22  1  0.224012  0.112006  0.250000  1
  Re  Re23  1  0.112006  0.887994  0.750000  1
  Re  Re24  1  0.112006  0.224012  0.750000  1
  Re  Re25  1  0.775988  0.887994  0.750000  1
  P  P26  1  0.333333  0.666667  0.250000  1
  P  P27  1  0.666667  0.333333  0.750000  1
