# generated using pymatgen
data_Mn4As3Ru2
_symmetry_space_group_name_H-M   'P 1'
_cell_length_a   7.39825669
_cell_length_b   7.39825706
_cell_length_c   7.39817234
_cell_angle_alpha   127.77968396
_cell_angle_beta   123.40524913
_cell_angle_gamma   80.60901604
_symmetry_Int_Tables_number   1
_chemical_formula_structural   Mn4As3Ru2
_chemical_formula_sum   'Mn8 As6 Ru4'
_cell_volume   257.70446938
_cell_formula_units_Z   2
loop_
 _symmetry_equiv_pos_site_id
 _symmetry_equiv_pos_as_xyz
  1  'x, y, z'
loop_
 _atom_site_type_symbol
 _atom_site_label
 _atom_site_symmetry_multiplicity
 _atom_site_fract_x
 _atom_site_fract_y
 _atom_site_fract_z
 _atom_site_occupancy
  Mn  Mn0  1  0.462288  0.679021  0.716773  1
  Mn  Mn1  1  0.537752  0.254486  0.216773  1
  Mn  Mn2  1  0.743396  0.834921  0.591523  1
  Mn  Mn3  1  0.256601  0.848127  0.091523  1
  Mn  Mn4  1  0.060844  0.270961  0.710079  1
  Mn  Mn5  1  0.939118  0.649236  0.210079  1
  Mn  Mn6  1  0.499998  0.510845  0.010843  1
  Mn  Mn7  1  0.999998  0.510845  0.510843  1
  As  As8  1  0.274224  0.280997  0.506775  1
  As  As9  1  0.725777  0.232551  0.006775  1
  As  As10  1  0.331185  0.585549  0.244345  1
  As  As11  1  0.668837  0.913171  0.254394  1
  As  As12  1  0.158796  0.913160  0.744345  1
  As  As13  1  0.841223  0.585557  0.754394  1
  Ru  Ru14  1  0.096602  0.252696  0.088994  1
  Ru  Ru15  1  0.903379  0.992391  0.156072  1
  Ru  Ru16  1  0.336299  0.992392  0.588994  1
  Ru  Ru17  1  0.663682  0.252693  0.656072  1
