# generated using pymatgen
data_Sc3AlPd2
_symmetry_space_group_name_H-M   'P 1'
_cell_length_a   8.61965954
_cell_length_b   8.61965910
_cell_length_c   8.61966000
_cell_angle_alpha   59.99999656
_cell_angle_beta   59.99999823
_cell_angle_gamma   59.99999936
_symmetry_Int_Tables_number   1
_chemical_formula_structural   Sc3AlPd2
_chemical_formula_sum   'Sc12 Al4 Pd8'
_cell_volume   452.85098962
_cell_formula_units_Z   4
loop_
 _symmetry_equiv_pos_site_id
 _symmetry_equiv_pos_as_xyz
  1  'x, y, z'
loop_
 _atom_site_type_symbol
 _atom_site_label
 _atom_site_symmetry_multiplicity
 _atom_site_fract_x
 _atom_site_fract_y
 _atom_site_fract_z
 _atom_site_occupancy
  Sc  Sc0  1  0.806528  0.806528  0.193472  1
  Sc  Sc1  1  0.193472  0.193472  0.806528  1
  Sc  Sc2  1  0.806528  0.193472  0.806528  1
  Sc  Sc3  1  0.193472  0.806528  0.193472  1
  Sc  Sc4  1  0.193472  0.806528  0.806528  1
  Sc  Sc5  1  0.806528  0.193472  0.193472  1
  Sc  Sc6  1  0.443472  0.443472  0.056528  1
  Sc  Sc7  1  0.056528  0.056528  0.443472  1
  Sc  Sc8  1  0.443472  0.056528  0.443472  1
  Sc  Sc9  1  0.056528  0.443472  0.056528  1
  Sc  Sc10  1  0.056528  0.443472  0.443472  1
  Sc  Sc11  1  0.443472  0.056528  0.056528  1
  Al  Al12  1  0.125000  0.625000  0.625000  1
  Al  Al13  1  0.625000  0.125000  0.625000  1
  Al  Al14  1  0.625000  0.625000  0.125000  1
  Al  Al15  1  0.625000  0.625000  0.625000  1
  Pd  Pd16  1  0.763108  0.412297  0.412297  1
  Pd  Pd17  1  0.412297  0.763108  0.412297  1
  Pd  Pd18  1  0.412297  0.412297  0.763108  1
  Pd  Pd19  1  0.412297  0.412297  0.412297  1
  Pd  Pd20  1  0.486892  0.837703  0.837703  1
  Pd  Pd21  1  0.837703  0.486892  0.837703  1
  Pd  Pd22  1  0.837703  0.837703  0.486892  1
  Pd  Pd23  1  0.837703  0.837703  0.837703  1
