# generated using pymatgen
data_DyZn7Ag5
_symmetry_space_group_name_H-M   'P 1'
_cell_length_a   7.03703415
_cell_length_b   7.03703362
_cell_length_c   7.03703417
_cell_angle_alpha   97.89082899
_cell_angle_beta   97.45350294
_cell_angle_gamma   137.13783531
_symmetry_Int_Tables_number   1
_chemical_formula_structural   DyZn7Ag5
_chemical_formula_sum   'Dy1 Zn7 Ag5'
_cell_volume   220.65227357
_cell_formula_units_Z   1
loop_
 _symmetry_equiv_pos_site_id
 _symmetry_equiv_pos_as_xyz
  1  'x, y, z'
loop_
 _atom_site_type_symbol
 _atom_site_label
 _atom_site_symmetry_multiplicity
 _atom_site_fract_x
 _atom_site_fract_y
 _atom_site_fract_z
 _atom_site_occupancy
  Dy  Dy0  1  0.000000  0.000058  0.000058  1
  Zn  Zn1  1  0.997011  0.998390  0.496369  1
  Zn  Zn2  1  0.497979  0.499358  0.496369  1
  Zn  Zn3  1  0.502021  0.998390  0.001379  1
  Zn  Zn4  1  0.002989  0.499358  0.001379  1
  Zn  Zn5  1  0.500000  0.712277  0.212277  1
  Zn  Zn6  1  0.715627  0.501233  0.216860  1
  Zn  Zn7  1  0.284373  0.501233  0.785605  1
  Ag  Ag8  1  0.000000  0.343929  0.343929  1
  Ag  Ag9  1  0.000000  0.648504  0.648504  1
  Ag  Ag10  1  0.653914  0.999873  0.653787  1
  Ag  Ag11  1  0.346086  0.999873  0.345959  1
  Ag  Ag12  1  0.500000  0.297524  0.797524  1
