# generated using pymatgen
data_Ac7Nd5(Si7Cl3)2
_symmetry_space_group_name_H-M   'P 1'
_cell_length_a   4.10538300
_cell_length_b   11.88469149
_cell_length_c   16.66033700
_cell_angle_alpha   89.48801065
_cell_angle_beta   90.00000000
_cell_angle_gamma   90.00000000
_symmetry_Int_Tables_number   1
_chemical_formula_structural   Ac7Nd5(Si7Cl3)2
_chemical_formula_sum   'Ac7 Nd5 Si14 Cl6'
_cell_volume   812.84555423
_cell_formula_units_Z   1
loop_
 _symmetry_equiv_pos_site_id
 _symmetry_equiv_pos_as_xyz
  1  'x, y, z'
loop_
 _atom_site_type_symbol
 _atom_site_label
 _atom_site_symmetry_multiplicity
 _atom_site_fract_x
 _atom_site_fract_y
 _atom_site_fract_z
 _atom_site_occupancy
  Ac  Ac0  1  0.500000  0.328613  0.502324  1
  Ac  Ac1  1  0.000000  0.670028  0.993549  1
  Ac  Ac2  1  0.000000  0.646592  0.253060  1
  Ac  Ac3  1  0.500000  0.058599  0.875207  1
  Ac  Ac4  1  0.000000  0.939508  0.628195  1
  Ac  Ac5  1  0.500000  0.062991  0.124274  1
  Ac  Ac6  1  0.000000  0.942762  0.378647  1
  Nd  Nd7  1  0.500000  0.360327  0.757710  1
  Nd  Nd8  1  0.000000  0.636522  0.742179  1
  Nd  Nd9  1  0.500000  0.362731  0.240737  1
  Nd  Nd10  1  0.500000  0.357413  0.996976  1
  Nd  Nd11  1  0.000000  0.640100  0.502237  1
  Si  Si12  1  0.000000  0.157242  0.998692  1
  Si  Si13  1  0.500000  0.844458  0.503979  1
  Si  Si14  1  0.500000  0.565824  0.871348  1
  Si  Si15  1  0.000000  0.431902  0.627293  1
  Si  Si16  1  0.500000  0.562629  0.117795  1
  Si  Si17  1  0.000000  0.430942  0.375947  1
  Si  Si18  1  0.000000  0.256545  0.872328  1
  Si  Si19  1  0.500000  0.740219  0.627893  1
  Si  Si20  1  0.000000  0.259411  0.124381  1
  Si  Si21  1  0.500000  0.742600  0.380331  1
  Si  Si22  1  0.000000  0.458488  0.875232  1
  Si  Si23  1  0.500000  0.538526  0.624291  1
  Si  Si24  1  0.500000  0.539148  0.378126  1
  Si  Si25  1  0.000000  0.458263  0.119447  1
  Cl  Cl26  1  0.500000  0.116542  0.693838  1
  Cl  Cl27  1  0.000000  0.881105  0.808519  1
  Cl  Cl28  1  0.000000  0.131178  0.501828  1
  Cl  Cl29  1  0.500000  0.868116  0.001917  1
  Cl  Cl30  1  0.500000  0.116225  0.306533  1
  Cl  Cl31  1  0.000000  0.894450  0.195188  1
