# generated using pymatgen
data_Hf2BS
_symmetry_space_group_name_H-M   'P 1'
_cell_length_a   3.47649600
_cell_length_b   3.47649699
_cell_length_c   12.18346000
_cell_angle_alpha   90.00000000
_cell_angle_beta   90.00000000
_cell_angle_gamma   119.99999054
_symmetry_Int_Tables_number   1
_chemical_formula_structural   Hf2BS
_chemical_formula_sum   'Hf4 B2 S2'
_cell_volume   127.52193884
_cell_formula_units_Z   2
loop_
 _symmetry_equiv_pos_site_id
 _symmetry_equiv_pos_as_xyz
  1  'x, y, z'
loop_
 _atom_site_type_symbol
 _atom_site_label
 _atom_site_symmetry_multiplicity
 _atom_site_fract_x
 _atom_site_fract_y
 _atom_site_fract_z
 _atom_site_occupancy
  Hf  Hf0  1  0.333333  0.666667  0.396513  1
  Hf  Hf1  1  0.666667  0.333333  0.896513  1
  Hf  Hf2  1  0.666667  0.333333  0.603487  1
  Hf  Hf3  1  0.333333  0.666667  0.103487  1
  B  B4  1  0.000000  0.000000  0.500000  1
  B  B5  1  0.000000  0.000000  0.000000  1
  S  S6  1  0.666667  0.333333  0.250000  1
  S  S7  1  0.333333  0.666667  0.750000  1
