# generated using pymatgen
data_Eu3(CuSi)4
_symmetry_space_group_name_H-M   'P 1'
_cell_length_a   4.15690088
_cell_length_b   4.13350415
_cell_length_c   12.33732607
_cell_angle_alpha   99.64367424
_cell_angle_beta   99.69877812
_cell_angle_gamma   90.00001295
_symmetry_Int_Tables_number   1
_chemical_formula_structural   Eu3(CuSi)4
_chemical_formula_sum   'Eu3 Cu4 Si4'
_cell_volume   205.91727468
_cell_formula_units_Z   1
loop_
 _symmetry_equiv_pos_site_id
 _symmetry_equiv_pos_as_xyz
  1  'x, y, z'
loop_
 _atom_site_type_symbol
 _atom_site_label
 _atom_site_symmetry_multiplicity
 _atom_site_fract_x
 _atom_site_fract_y
 _atom_site_fract_z
 _atom_site_occupancy
  Eu  Eu0  1  0.850399  0.350399  0.700798  1
  Eu  Eu1  1  0.149601  0.649601  0.299202  1
  Eu  Eu2  1  0.000000  0.000000  0.000000  1
  Cu  Cu3  1  0.249574  0.249574  0.499147  1
  Cu  Cu4  1  0.750426  0.750426  0.500853  1
  Cu  Cu5  1  0.597853  0.097853  0.195707  1
  Cu  Cu6  1  0.402147  0.902147  0.804293  1
  Si  Si7  1  0.450348  0.450348  0.900696  1
  Si  Si8  1  0.549652  0.549652  0.099304  1
  Si  Si9  1  0.697479  0.197479  0.394959  1
  Si  Si10  1  0.302521  0.802521  0.605041  1
