# generated using pymatgen
data_YHo15TlIn5Co2
_symmetry_space_group_name_H-M   'P 1'
_cell_length_a   10.30675500
_cell_length_b   10.32337237
_cell_length_c   6.99021831
_cell_angle_alpha   90.06115463
_cell_angle_beta   90.00000000
_cell_angle_gamma   119.94676313
_symmetry_Int_Tables_number   1
_chemical_formula_structural   YHo15TlIn5Co2
_chemical_formula_sum   'Y1 Ho15 Tl1 In5 Co2'
_cell_volume   644.46200003
_cell_formula_units_Z   1
loop_
 _symmetry_equiv_pos_site_id
 _symmetry_equiv_pos_as_xyz
  1  'x, y, z'
loop_
 _atom_site_type_symbol
 _atom_site_label
 _atom_site_symmetry_multiplicity
 _atom_site_fract_x
 _atom_site_fract_y
 _atom_site_fract_z
 _atom_site_occupancy
  Y  Y0  1  0.534451  0.068901  0.504875  1
  Ho  Ho1  1  0.929667  0.464729  0.504301  1
  Ho  Ho2  1  0.535062  0.464729  0.504301  1
  Ho  Ho3  1  0.464608  0.929217  0.004775  1
  Ho  Ho4  1  0.070942  0.534898  0.005541  1
  Ho  Ho5  1  0.463956  0.534898  0.005541  1
  Ho  Ho6  1  0.178308  0.356615  0.712613  1
  Ho  Ho7  1  0.644040  0.821533  0.712895  1
  Ho  Ho8  1  0.177493  0.821533  0.712895  1
  Ho  Ho9  1  0.822079  0.644158  0.211412  1
  Ho  Ho10  1  0.356255  0.178443  0.212007  1
  Ho  Ho11  1  0.822186  0.178443  0.212007  1
  Ho  Ho12  1  0.666714  0.333427  0.895802  1
  Ho  Ho13  1  0.332968  0.665938  0.395390  1
  Ho  Ho14  1  0.000409  0.000817  0.492365  1
  Ho  Ho15  1  0.000292  0.000584  0.994069  1
  Tl  Tl16  1  0.836815  0.673629  0.753284  1
  In  In17  1  0.325562  0.162826  0.752596  1
  In  In18  1  0.837263  0.162826  0.752596  1
  In  In19  1  0.162826  0.325652  0.252561  1
  In  In20  1  0.674169  0.837251  0.252838  1
  In  In21  1  0.163081  0.837251  0.252838  1
  Co  Co22  1  0.667476  0.334950  0.279821  1
  Co  Co23  1  0.333375  0.666751  0.780715  1
