# generated using pymatgen
data_Hf2Ta3B4SbRu10
_symmetry_space_group_name_H-M   'P 1'
_cell_length_a   9.45669726
_cell_length_b   9.47789353
_cell_length_c   3.06967700
_cell_angle_alpha   90.00000000
_cell_angle_beta   90.00000000
_cell_angle_gamma   90.22709795
_symmetry_Int_Tables_number   1
_chemical_formula_structural   Hf2Ta3B4SbRu10
_chemical_formula_sum   'Hf2 Ta3 B4 Sb1 Ru10'
_cell_volume   275.13166764
_cell_formula_units_Z   1
loop_
 _symmetry_equiv_pos_site_id
 _symmetry_equiv_pos_as_xyz
  1  'x, y, z'
loop_
 _atom_site_type_symbol
 _atom_site_label
 _atom_site_symmetry_multiplicity
 _atom_site_fract_x
 _atom_site_fract_y
 _atom_site_fract_z
 _atom_site_occupancy
  Hf  Hf0  1  0.825280  0.676664  0.000000  1
  Hf  Hf1  1  0.174720  0.323336  0.000000  1
  Ta  Ta2  1  0.321827  0.827610  0.000000  1
  Ta  Ta3  1  0.678173  0.172390  0.000000  1
  Ta  Ta4  1  0.000000  0.000000  0.000000  1
  B  B5  1  0.620352  0.877814  0.000000  1
  B  B6  1  0.379648  0.122186  0.000000  1
  B  B7  1  0.121854  0.620835  0.000000  1
  B  B8  1  0.878146  0.379165  0.000000  1
  Sb  Sb9  1  0.500000  0.500000  0.000000  1
  Ru  Ru10  1  0.568242  0.720943  0.500000  1
  Ru  Ru11  1  0.431758  0.279057  0.500000  1
  Ru  Ru12  1  0.072523  0.783170  0.500000  1
  Ru  Ru13  1  0.927477  0.216830  0.500000  1
  Ru  Ru14  1  0.282701  0.578706  0.500000  1
  Ru  Ru15  1  0.717299  0.421294  0.500000  1
  Ru  Ru16  1  0.219665  0.067382  0.500000  1
  Ru  Ru17  1  0.780335  0.932618  0.500000  1
  Ru  Ru18  1  0.500000  0.000000  0.500000  1
  Ru  Ru19  1  0.000000  0.500000  0.500000  1
