# generated using pymatgen
data_NaCa(NdB12)2
_symmetry_space_group_name_H-M   'P 1'
_cell_length_a   7.17390850
_cell_length_b   7.17390704
_cell_length_c   5.86476900
_cell_angle_alpha   90.00000000
_cell_angle_beta   90.00000000
_cell_angle_gamma   109.44883073
_symmetry_Int_Tables_number   1
_chemical_formula_structural   NaCa(NdB12)2
_chemical_formula_sum   'Na1 Ca1 Nd2 B24'
_cell_volume   284.60740310
_cell_formula_units_Z   1
loop_
 _symmetry_equiv_pos_site_id
 _symmetry_equiv_pos_as_xyz
  1  'x, y, z'
loop_
 _atom_site_type_symbol
 _atom_site_label
 _atom_site_symmetry_multiplicity
 _atom_site_fract_x
 _atom_site_fract_y
 _atom_site_fract_z
 _atom_site_occupancy
  Na  Na0  1  0.000000  0.000000  0.000000  1
  Ca  Ca1  1  0.500000  0.500000  0.000000  1
  Nd  Nd2  1  0.750296  0.249704  0.500000  1
  Nd  Nd3  1  0.249704  0.750296  0.500000  1
  B  B4  1  0.175624  0.324690  0.650152  1
  B  B5  1  0.924738  0.574906  0.148793  1
  B  B6  1  0.675310  0.824376  0.650152  1
  B  B7  1  0.425094  0.075262  0.148793  1
  B  B8  1  0.175624  0.324690  0.349848  1
  B  B9  1  0.924738  0.574906  0.851207  1
  B  B10  1  0.675310  0.824376  0.349848  1
  B  B11  1  0.425094  0.075262  0.851207  1
  B  B12  1  0.399609  0.399609  0.500000  1
  B  B13  1  0.149024  0.650096  0.000000  1
  B  B14  1  0.899331  0.899331  0.500000  1
  B  B15  1  0.650096  0.149024  0.000000  1
  B  B16  1  0.324690  0.175624  0.650152  1
  B  B17  1  0.075262  0.425094  0.148793  1
  B  B18  1  0.824376  0.675310  0.650152  1
  B  B19  1  0.574906  0.924738  0.148793  1
  B  B20  1  0.100669  0.100669  0.500000  1
  B  B21  1  0.850976  0.349904  0.000000  1
  B  B22  1  0.600391  0.600391  0.500000  1
  B  B23  1  0.349904  0.850976  0.000000  1
  B  B24  1  0.324690  0.175624  0.349848  1
  B  B25  1  0.075262  0.425094  0.851207  1
  B  B26  1  0.824376  0.675310  0.349848  1
  B  B27  1  0.574906  0.924738  0.851207  1
