# generated using pymatgen
data_Dy4Tm4Sc12Si15Ge
_symmetry_space_group_name_H-M   'P 1'
_cell_length_a   7.08476894
_cell_length_b   7.37522340
_cell_length_c   13.96908211
_cell_angle_alpha   90.02117242
_cell_angle_beta   89.89189804
_cell_angle_gamma   90.09465887
_symmetry_Int_Tables_number   1
_chemical_formula_structural   Dy4Tm4Sc12Si15Ge
_chemical_formula_sum   'Dy4 Tm4 Sc12 Si15 Ge1'
_cell_volume   729.90669235
_cell_formula_units_Z   1
loop_
 _symmetry_equiv_pos_site_id
 _symmetry_equiv_pos_as_xyz
  1  'x, y, z'
loop_
 _atom_site_type_symbol
 _atom_site_label
 _atom_site_symmetry_multiplicity
 _atom_site_fract_x
 _atom_site_fract_y
 _atom_site_fract_z
 _atom_site_occupancy
  Dy  Dy0  1  0.011927  0.176133  0.096535  1
  Dy  Dy1  1  0.988140  0.824438  0.903571  1
  Dy  Dy2  1  0.488791  0.675558  0.904108  1
  Dy  Dy3  1  0.987843  0.824790  0.596121  1
  Tm  Tm4  1  0.511765  0.323705  0.097069  1
  Tm  Tm5  1  0.010778  0.176199  0.402365  1
  Tm  Tm6  1  0.512158  0.322083  0.402585  1
  Tm  Tm7  1  0.491077  0.677739  0.596866  1
  Sc  Sc8  1  0.161133  0.502655  0.751116  1
  Sc  Sc9  1  0.838550  0.496693  0.250276  1
  Sc  Sc10  1  0.339095  0.003273  0.250156  1
  Sc  Sc11  1  0.661061  0.997143  0.749915  1
  Sc  Sc12  1  0.333739  0.174698  0.626141  1
  Sc  Sc13  1  0.667560  0.823819  0.374053  1
  Sc  Sc14  1  0.167583  0.676915  0.374102  1
  Sc  Sc15  1  0.668384  0.822881  0.125688  1
  Sc  Sc16  1  0.830054  0.323811  0.625107  1
  Sc  Sc17  1  0.331698  0.176981  0.874556  1
  Sc  Sc18  1  0.830973  0.323433  0.874606  1
  Sc  Sc19  1  0.169110  0.676344  0.125691  1
  Si  Si20  1  0.033486  0.116040  0.749998  1
  Si  Si21  1  0.966749  0.885430  0.249984  1
  Si  Si22  1  0.466573  0.614035  0.249858  1
  Si  Si23  1  0.532994  0.385585  0.749891  1
  Si  Si24  1  0.286089  0.871719  0.749729  1
  Si  Si25  1  0.714125  0.128722  0.250145  1
  Si  Si26  1  0.215095  0.371614  0.250476  1
  Si  Si27  1  0.785346  0.627446  0.749542  1
  Si  Si28  1  0.834649  0.535091  0.459365  1
  Si  Si29  1  0.340274  0.965421  0.460328  1
  Si  Si30  1  0.840396  0.534522  0.039663  1
  Si  Si31  1  0.658393  0.035671  0.539038  1
  Si  Si32  1  0.158365  0.464627  0.960927  1
  Si  Si33  1  0.657793  0.036262  0.961057  1
  Si  Si34  1  0.342490  0.965727  0.039763  1
  Ge  Ge35  1  0.165766  0.462794  0.539608  1
