# generated using pymatgen
data_YTa3(NbN2)6
_symmetry_space_group_name_H-M   'P 1'
_cell_length_a   5.30464000
_cell_length_b   5.30464050
_cell_length_c   10.53864200
_cell_angle_alpha   90.00000000
_cell_angle_beta   90.00000000
_cell_angle_gamma   120.00000934
_symmetry_Int_Tables_number   1
_chemical_formula_structural   YTa3(NbN2)6
_chemical_formula_sum   'Y1 Ta3 Nb6 N12'
_cell_volume   256.81897905
_cell_formula_units_Z   1
loop_
 _symmetry_equiv_pos_site_id
 _symmetry_equiv_pos_as_xyz
  1  'x, y, z'
loop_
 _atom_site_type_symbol
 _atom_site_label
 _atom_site_symmetry_multiplicity
 _atom_site_fract_x
 _atom_site_fract_y
 _atom_site_fract_z
 _atom_site_occupancy
  Y  Y0  1  0.333333  0.666667  0.500000  1
  Ta  Ta1  1  0.666667  0.333333  0.000000  1
  Ta  Ta2  1  0.666667  0.333333  0.500000  1
  Ta  Ta3  1  0.333333  0.666667  0.000000  1
  Nb  Nb4  1  0.675091  0.998353  0.754908  1
  Nb  Nb5  1  0.675091  0.676738  0.245092  1
  Nb  Nb6  1  0.001647  0.324909  0.245092  1
  Nb  Nb7  1  0.001647  0.676738  0.754908  1
  Nb  Nb8  1  0.323262  0.324909  0.754908  1
  Nb  Nb9  1  0.323262  0.998353  0.245092  1
  N  N10  1  0.352930  0.332918  0.370252  1
  N  N11  1  0.667082  0.020011  0.370252  1
  N  N12  1  0.979989  0.647070  0.370252  1
  N  N13  1  0.000099  0.342796  0.883736  1
  N  N14  1  0.657204  0.999901  0.116264  1
  N  N15  1  0.657204  0.657304  0.883736  1
  N  N16  1  0.342696  0.999901  0.883736  1
  N  N17  1  0.667082  0.647070  0.629748  1
  N  N18  1  0.979989  0.332918  0.629748  1
  N  N19  1  0.000099  0.657304  0.116264  1
  N  N20  1  0.352930  0.020011  0.629748  1
  N  N21  1  0.342696  0.342796  0.116264  1
