# generated using pymatgen
data_Sm2Al20CrRh3
_symmetry_space_group_name_H-M   'P 1'
_cell_length_a   6.85550316
_cell_length_b   6.87758355
_cell_length_c   9.19413723
_cell_angle_alpha   90.29895485
_cell_angle_beta   90.38387802
_cell_angle_gamma   97.05131184
_symmetry_Int_Tables_number   1
_chemical_formula_structural   Sm2Al20CrRh3
_chemical_formula_sum   'Sm2 Al20 Cr1 Rh3'
_cell_volume   430.20076488
_cell_formula_units_Z   1
loop_
 _symmetry_equiv_pos_site_id
 _symmetry_equiv_pos_as_xyz
  1  'x, y, z'
loop_
 _atom_site_type_symbol
 _atom_site_label
 _atom_site_symmetry_multiplicity
 _atom_site_fract_x
 _atom_site_fract_y
 _atom_site_fract_z
 _atom_site_occupancy
  Sm  Sm0  1  0.868663  0.123006  0.748006  1
  Sm  Sm1  1  0.131337  0.876994  0.251994  1
  Al  Al2  1  0.618426  0.372740  0.547664  1
  Al  Al3  1  0.381574  0.627260  0.452336  1
  Al  Al4  1  0.378945  0.622061  0.050029  1
  Al  Al5  1  0.621055  0.377939  0.949971  1
  Al  Al6  1  0.227951  0.221392  0.498234  1
  Al  Al7  1  0.772049  0.778608  0.501766  1
  Al  Al8  1  0.775496  0.776190  0.000714  1
  Al  Al9  1  0.224504  0.223810  0.999286  1
  Al  Al10  1  0.843321  0.158357  0.103835  1
  Al  Al11  1  0.156679  0.841643  0.896165  1
  Al  Al12  1  0.161467  0.845216  0.600133  1
  Al  Al13  1  0.838533  0.154784  0.399867  1
  Al  Al14  1  0.858704  0.591809  0.749268  1
  Al  Al15  1  0.141296  0.408191  0.250732  1
  Al  Al16  1  0.410217  0.139639  0.746626  1
  Al  Al17  1  0.589783  0.860361  0.253374  1
  Al  Al18  1  0.223968  0.480458  0.751132  1
  Al  Al19  1  0.776032  0.519542  0.248868  1
  Al  Al20  1  0.518519  0.778827  0.744648  1
  Al  Al21  1  0.481481  0.221173  0.255352  1
  Cr  Cr22  1  0.500000  0.000000  0.500000  1
  Rh  Rh23  1  0.000000  0.500000  0.500000  1
  Rh  Rh24  1  0.000000  0.500000  0.000000  1
  Rh  Rh25  1  0.500000  0.000000  0.000000  1
