# generated using pymatgen
data_Er4Sc4Ir3Ru
_symmetry_space_group_name_H-M   'P 1'
_cell_length_a   4.25945300
_cell_length_b   7.15026837
_cell_length_c   8.54303941
_cell_angle_alpha   90.40181437
_cell_angle_beta   90.00000000
_cell_angle_gamma   90.00000000
_symmetry_Int_Tables_number   1
_chemical_formula_structural   Er4Sc4Ir3Ru
_chemical_formula_sum   'Er4 Sc4 Ir3 Ru1'
_cell_volume   260.18239259
_cell_formula_units_Z   1
loop_
 _symmetry_equiv_pos_site_id
 _symmetry_equiv_pos_as_xyz
  1  'x, y, z'
loop_
 _atom_site_type_symbol
 _atom_site_label
 _atom_site_symmetry_multiplicity
 _atom_site_fract_x
 _atom_site_fract_y
 _atom_site_fract_z
 _atom_site_occupancy
  Er  Er0  1  0.250000  0.979338  0.325720  1
  Er  Er1  1  0.250000  0.480855  0.170766  1
  Er  Er2  1  0.750000  0.020924  0.674693  1
  Er  Er3  1  0.750000  0.519937  0.828922  1
  Sc  Sc4  1  0.250000  0.358739  0.566212  1
  Sc  Sc5  1  0.250000  0.856588  0.933050  1
  Sc  Sc6  1  0.750000  0.641376  0.432842  1
  Sc  Sc7  1  0.750000  0.143999  0.063731  1
  Ir  Ir8  1  0.250000  0.739184  0.607734  1
  Ir  Ir9  1  0.750000  0.762449  0.110865  1
  Ir  Ir10  1  0.750000  0.258512  0.393164  1
  Ru  Ru11  1  0.250000  0.238100  0.892301  1
