# generated using pymatgen
data_Tb3Ho(PSe4)4
_symmetry_space_group_name_H-M   'P 1'
_cell_length_a   6.91799739
_cell_length_b   9.27937304
_cell_length_c   13.44095000
_cell_angle_alpha   59.21542328
_cell_angle_beta   89.94324253
_cell_angle_gamma   89.96548024
_symmetry_Int_Tables_number   1
_chemical_formula_structural   Tb3Ho(PSe4)4
_chemical_formula_sum   'Tb3 Ho1 P4 Se16'
_cell_volume   741.26131386
_cell_formula_units_Z   1
loop_
 _symmetry_equiv_pos_site_id
 _symmetry_equiv_pos_as_xyz
  1  'x, y, z'
loop_
 _atom_site_type_symbol
 _atom_site_label
 _atom_site_symmetry_multiplicity
 _atom_site_fract_x
 _atom_site_fract_y
 _atom_site_fract_z
 _atom_site_occupancy
  Tb  Tb0  1  0.319325  0.557167  0.834400  1
  Tb  Tb1  1  0.819785  0.443477  0.665363  1
  Tb  Tb2  1  0.680469  0.443896  0.165293  1
  Ho  Ho3  1  0.179097  0.555577  0.335085  1
  P  P4  1  0.230230  0.685604  0.040497  1
  P  P5  1  0.730530  0.315262  0.460283  1
  P  P6  1  0.769740  0.313934  0.960563  1
  P  P7  1  0.269634  0.685226  0.538641  1
  Se  Se8  1  0.230797  0.416213  0.589062  1
  Se  Se9  1  0.731210  0.583393  0.909624  1
  Se  Se10  1  0.771911  0.584222  0.409533  1
  Se  Se11  1  0.268994  0.416688  0.090316  1
  Se  Se12  1  0.254000  0.846629  0.350380  1
  Se  Se13  1  0.754083  0.150956  0.148627  1
  Se  Se14  1  0.745177  0.151497  0.648328  1
  Se  Se15  1  0.245999  0.849150  0.852370  1
  Se  Se16  1  0.543628  0.721662  0.612992  1
  Se  Se17  1  0.044292  0.278154  0.886042  1
  Se  Se18  1  0.455596  0.280407  0.385802  1
  Se  Se19  1  0.956397  0.720960  0.115755  1
  Se  Se20  1  0.046018  0.739993  0.635378  1
  Se  Se21  1  0.545709  0.260163  0.863843  1
  Se  Se22  1  0.954648  0.260925  0.363638  1
  Se  Se23  1  0.452731  0.738845  0.138182  1
