# generated using pymatgen
data_Pr3Lu2ThGa4
_symmetry_space_group_name_H-M   'P 1'
_cell_length_a   7.70954291
_cell_length_b   7.70954291
_cell_length_c   4.53178900
_cell_angle_alpha   90.00000000
_cell_angle_beta   90.00000000
_cell_angle_gamma   90.24003245
_symmetry_Int_Tables_number   1
_chemical_formula_structural   Pr3Lu2ThGa4
_chemical_formula_sum   'Pr3 Lu2 Th1 Ga4'
_cell_volume   269.35381446
_cell_formula_units_Z   1
loop_
 _symmetry_equiv_pos_site_id
 _symmetry_equiv_pos_as_xyz
  1  'x, y, z'
loop_
 _atom_site_type_symbol
 _atom_site_label
 _atom_site_symmetry_multiplicity
 _atom_site_fract_x
 _atom_site_fract_y
 _atom_site_fract_z
 _atom_site_occupancy
  Pr  Pr0  1  0.675068  0.175068  0.500000  1
  Pr  Pr1  1  0.176284  0.324646  0.500000  1
  Pr  Pr2  1  0.824646  0.676284  0.500000  1
  Lu  Lu3  1  0.000368  0.000099  0.000000  1
  Lu  Lu4  1  0.500099  0.500368  0.000000  1
  Th  Th5  1  0.325819  0.825819  0.500000  1
  Ga  Ga6  1  0.880169  0.380169  0.000000  1
  Ga  Ga7  1  0.377712  0.117123  0.000000  1
  Ga  Ga8  1  0.617123  0.877712  0.000000  1
  Ga  Ga9  1  0.122712  0.622712  0.000000  1
