# generated using pymatgen
data_Nd3Lu2Sc5(Si5Ir2)4
_symmetry_space_group_name_H-M   'P 1'
_cell_length_a   12.55108498
_cell_length_b   12.55266043
_cell_length_c   4.20224600
_cell_angle_alpha   90.00000000
_cell_angle_beta   90.00000000
_cell_angle_gamma   90.24842727
_symmetry_Int_Tables_number   1
_chemical_formula_structural   Nd3Lu2Sc5(Si5Ir2)4
_chemical_formula_sum   'Nd3 Lu2 Sc5 Si20 Ir8'
_cell_volume   662.05556594
_cell_formula_units_Z   1
loop_
 _symmetry_equiv_pos_site_id
 _symmetry_equiv_pos_as_xyz
  1  'x, y, z'
loop_
 _atom_site_type_symbol
 _atom_site_label
 _atom_site_symmetry_multiplicity
 _atom_site_fract_x
 _atom_site_fract_y
 _atom_site_fract_z
 _atom_site_occupancy
  Nd  Nd0  1  0.115920  0.615318  0.500000  1
  Nd  Nd1  1  0.884045  0.384711  0.500000  1
  Nd  Nd2  1  0.614679  0.884781  0.500000  1
  Lu  Lu3  1  0.384832  0.115378  0.500000  1
  Lu  Lu4  1  0.000979  0.000045  0.000000  1
  Sc  Sc5  1  0.672968  0.174800  0.500000  1
  Sc  Sc6  1  0.325704  0.826513  0.500000  1
  Sc  Sc7  1  0.175674  0.325013  0.500000  1
  Sc  Sc8  1  0.825398  0.674004  0.500000  1
  Sc  Sc9  1  0.499930  0.498966  0.000000  1
  Si  Si10  1  0.567069  0.068881  0.000000  1
  Si  Si11  1  0.432034  0.931989  0.000000  1
  Si  Si12  1  0.069883  0.431063  0.000000  1
  Si  Si13  1  0.930394  0.568704  0.000000  1
  Si  Si14  1  0.201341  0.165498  0.000000  1
  Si  Si15  1  0.800157  0.834957  0.000000  1
  Si  Si16  1  0.166036  0.801610  0.000000  1
  Si  Si17  1  0.697841  0.334397  0.000000  1
  Si  Si18  1  0.834409  0.199917  0.000000  1
  Si  Si19  1  0.300596  0.665210  0.000000  1
  Si  Si20  1  0.664669  0.699366  0.000000  1
  Si  Si21  1  0.334917  0.299132  0.000000  1
  Si  Si22  1  0.009262  0.153669  0.500000  1
  Si  Si23  1  0.991869  0.846576  0.500000  1
  Si  Si24  1  0.156010  0.992766  0.500000  1
  Si  Si25  1  0.507350  0.347646  0.500000  1
  Si  Si26  1  0.846312  0.010435  0.500000  1
  Si  Si27  1  0.489688  0.650117  0.500000  1
  Si  Si28  1  0.649553  0.508079  0.500000  1
  Si  Si29  1  0.350102  0.490696  0.500000  1
  Ir  Ir30  1  0.022824  0.242572  0.000000  1
  Ir  Ir31  1  0.978000  0.757552  0.000000  1
  Ir  Ir32  1  0.246729  0.980949  0.000000  1
  Ir  Ir33  1  0.519010  0.254772  0.000000  1
  Ir  Ir34  1  0.755862  0.022072  0.000000  1
  Ir  Ir35  1  0.478075  0.742659  0.000000  1
  Ir  Ir36  1  0.740821  0.521890  0.000000  1
  Ir  Ir37  1  0.259053  0.477304  0.000000  1
