# generated using pymatgen
data_CaY3Sc2(Si3Ru)8
_symmetry_space_group_name_H-M   'P 1'
_cell_length_a   10.08544110
_cell_length_b   10.08544246
_cell_length_c   8.11270203
_cell_angle_alpha   89.88269670
_cell_angle_beta   90.11730087
_cell_angle_gamma   132.58012196
_symmetry_Int_Tables_number   1
_chemical_formula_structural   CaY3Sc2(Si3Ru)8
_chemical_formula_sum   'Ca1 Y3 Sc2 Si24 Ru8'
_cell_volume   607.61417180
_cell_formula_units_Z   1
loop_
 _symmetry_equiv_pos_site_id
 _symmetry_equiv_pos_as_xyz
  1  'x, y, z'
loop_
 _atom_site_type_symbol
 _atom_site_label
 _atom_site_symmetry_multiplicity
 _atom_site_fract_x
 _atom_site_fract_y
 _atom_site_fract_z
 _atom_site_occupancy
  Ca  Ca0  1  0.001875  0.501875  0.250000  1
  Y  Y1  1  0.498594  0.998594  0.750000  1
  Y  Y2  1  0.997123  0.497123  0.750000  1
  Y  Y3  1  0.502667  0.002667  0.250000  1
  Sc  Sc4  1  0.000364  0.000542  0.000661  1
  Sc  Sc5  1  0.500542  0.500364  0.499339  1
  Si  Si6  1  0.294003  0.704110  0.000136  1
  Si  Si7  1  0.795475  0.205846  0.498772  1
  Si  Si8  1  0.705846  0.295475  0.001228  1
  Si  Si9  1  0.204110  0.794003  0.499864  1
  Si  Si10  1  0.831789  0.833308  0.332322  1
  Si  Si11  1  0.167668  0.169333  0.667606  1
  Si  Si12  1  0.669333  0.667668  0.832394  1
  Si  Si13  1  0.333308  0.331789  0.167678  1
  Si  Si14  1  0.619444  0.386970  0.229346  1
  Si  Si15  1  0.610332  0.378756  0.771093  1
  Si  Si16  1  0.111057  0.879602  0.729658  1
  Si  Si17  1  0.122561  0.890733  0.270603  1
  Si  Si18  1  0.379602  0.611057  0.770342  1
  Si  Si19  1  0.390733  0.622561  0.229397  1
  Si  Si20  1  0.886970  0.119444  0.270654  1
  Si  Si21  1  0.878756  0.110332  0.728907  1
  Si  Si22  1  0.844907  0.613576  0.002564  1
  Si  Si23  1  0.386148  0.155089  0.994898  1
  Si  Si24  1  0.885950  0.654380  0.505851  1
  Si  Si25  1  0.344458  0.113943  0.495413  1
  Si  Si26  1  0.154380  0.385950  0.994149  1
  Si  Si27  1  0.613943  0.844458  0.004587  1
  Si  Si28  1  0.113576  0.344907  0.497436  1
  Si  Si29  1  0.655089  0.886148  0.505102  1
  Ru  Ru30  1  0.169282  0.832069  0.999790  1
  Ru  Ru31  1  0.666636  0.330146  0.501779  1
  Ru  Ru32  1  0.830146  0.166636  0.998221  1
  Ru  Ru33  1  0.332069  0.669282  0.500210  1
  Ru  Ru34  1  0.627328  0.626866  0.127581  1
  Ru  Ru35  1  0.373190  0.373879  0.872753  1
  Ru  Ru36  1  0.873879  0.873190  0.627247  1
  Ru  Ru37  1  0.126866  0.127328  0.372419  1
