# generated using pymatgen
data_Bi4Ir3RhS4
_symmetry_space_group_name_H-M   'P 1'
_cell_length_a   6.22550481
_cell_length_b   6.22550481
_cell_length_c   6.22550481
_cell_angle_alpha   89.93816988
_cell_angle_beta   89.93816988
_cell_angle_gamma   90.06183012
_symmetry_Int_Tables_number   1
_chemical_formula_structural   Bi4Ir3RhS4
_chemical_formula_sum   'Bi4 Ir3 Rh1 S4'
_cell_volume   241.28090912
_cell_formula_units_Z   1
loop_
 _symmetry_equiv_pos_site_id
 _symmetry_equiv_pos_as_xyz
  1  'x, y, z'
loop_
 _atom_site_type_symbol
 _atom_site_label
 _atom_site_symmetry_multiplicity
 _atom_site_fract_x
 _atom_site_fract_y
 _atom_site_fract_z
 _atom_site_occupancy
  Bi  Bi0  1  0.129486  0.629486  0.870514  1
  Bi  Bi1  1  0.628602  0.871542  0.130454  1
  Bi  Bi2  1  0.869546  0.128602  0.628458  1
  Bi  Bi3  1  0.371542  0.369546  0.371398  1
  Ir  Ir4  1  0.976778  0.523024  0.475918  1
  Ir  Ir5  1  0.524082  0.476778  0.976976  1
  Ir  Ir6  1  0.023024  0.024082  0.023222  1
  Rh  Rh7  1  0.476626  0.976626  0.523374  1
  S  S8  1  0.881862  0.381862  0.118138  1
  S  S9  1  0.381659  0.120827  0.884032  1
  S  S10  1  0.115968  0.881659  0.379173  1
  S  S11  1  0.620827  0.615968  0.618341  1
