# generated using pymatgen
data_Dy7Er(OsI4)2
_symmetry_space_group_name_H-M   'P 1'
_cell_length_a   11.68818957
_cell_length_b   11.66854032
_cell_length_c   6.19675953
_cell_angle_alpha   90.04009951
_cell_angle_beta   89.98633781
_cell_angle_gamma   89.99554046
_symmetry_Int_Tables_number   1
_chemical_formula_structural   Dy7Er(OsI4)2
_chemical_formula_sum   'Dy7 Er1 Os2 I8'
_cell_volume   845.13930834
_cell_formula_units_Z   1
loop_
 _symmetry_equiv_pos_site_id
 _symmetry_equiv_pos_as_xyz
  1  'x, y, z'
loop_
 _atom_site_type_symbol
 _atom_site_label
 _atom_site_symmetry_multiplicity
 _atom_site_fract_x
 _atom_site_fract_y
 _atom_site_fract_z
 _atom_site_occupancy
  Dy  Dy0  1  0.078945  0.808233  0.501016  1
  Dy  Dy1  1  0.078629  0.191803  0.001023  1
  Dy  Dy2  1  0.191538  0.078967  0.500976  1
  Dy  Dy3  1  0.921086  0.808326  0.999015  1
  Dy  Dy4  1  0.920462  0.191848  0.499067  1
  Dy  Dy5  1  0.191580  0.920871  0.998873  1
  Dy  Dy6  1  0.807984  0.921408  0.499107  1
  Er  Er7  1  0.811032  0.078069  0.001468  1
  Os  Os8  1  0.000089  0.999833  0.250093  1
  Os  Os9  1  0.999681  0.000227  0.750007  1
  I  I10  1  0.654378  0.143398  0.488024  1
  I  I11  1  0.855656  0.655572  0.506712  1
  I  I12  1  0.344133  0.144280  0.993262  1
  I  I13  1  0.144144  0.344509  0.493268  1
  I  I14  1  0.655934  0.856853  0.006703  1
  I  I15  1  0.345455  0.856673  0.511388  1
  I  I16  1  0.143232  0.654369  0.988545  1
  I  I17  1  0.856042  0.344760  0.011450  1
