# generated using pymatgen
data_Pa2SnPtRh
_symmetry_space_group_name_H-M   'P 1'
_cell_length_a   7.74371800
_cell_length_b   7.74620700
_cell_length_c   3.67617300
_cell_angle_alpha   90.00000000
_cell_angle_beta   90.00000000
_cell_angle_gamma   90.00000000
_symmetry_Int_Tables_number   1
_chemical_formula_structural   Pa2SnPtRh
_chemical_formula_sum   'Pa4 Sn2 Pt2 Rh2'
_cell_volume   220.51318822
_cell_formula_units_Z   2
loop_
 _symmetry_equiv_pos_site_id
 _symmetry_equiv_pos_as_xyz
  1  'x, y, z'
loop_
 _atom_site_type_symbol
 _atom_site_label
 _atom_site_symmetry_multiplicity
 _atom_site_fract_x
 _atom_site_fract_y
 _atom_site_fract_z
 _atom_site_occupancy
  Pa  Pa0  1  0.322526  0.174620  0.500000  1
  Pa  Pa1  1  0.668308  0.827502  0.500000  1
  Pa  Pa2  1  0.177474  0.674620  0.500000  1
  Pa  Pa3  1  0.831692  0.327502  0.500000  1
  Sn  Sn4  1  0.004627  0.002059  0.000000  1
  Sn  Sn5  1  0.495373  0.502059  0.000000  1
  Pt  Pt6  1  0.628279  0.129411  0.000000  1
  Pt  Pt7  1  0.871721  0.629411  0.000000  1
  Rh  Rh8  1  0.366656  0.866407  0.000000  1
  Rh  Rh9  1  0.133344  0.366407  0.000000  1
