# generated using pymatgen
data_Tm5LuAl24(RuRh3)2
_symmetry_space_group_name_H-M   'P 1'
_cell_length_a   8.80430208
_cell_length_b   8.80430238
_cell_length_c   9.46223400
_cell_angle_alpha   90.00000000
_cell_angle_beta   90.00000000
_cell_angle_gamma   120.05680687
_symmetry_Int_Tables_number   1
_chemical_formula_structural   Tm5LuAl24(RuRh3)2
_chemical_formula_sum   'Tm5 Lu1 Al24 Ru2 Rh6'
_cell_volume   634.84150907
_cell_formula_units_Z   1
loop_
 _symmetry_equiv_pos_site_id
 _symmetry_equiv_pos_as_xyz
  1  'x, y, z'
loop_
 _atom_site_type_symbol
 _atom_site_label
 _atom_site_symmetry_multiplicity
 _atom_site_fract_x
 _atom_site_fract_y
 _atom_site_fract_z
 _atom_site_occupancy
  Tm  Tm0  1  0.192827  0.807173  0.250000  1
  Tm  Tm1  1  0.386100  0.193052  0.750000  1
  Tm  Tm2  1  0.614329  0.807140  0.250000  1
  Tm  Tm3  1  0.806948  0.613900  0.750000  1
  Tm  Tm4  1  0.192860  0.385671  0.250000  1
  Lu  Lu5  1  0.806724  0.193276  0.750000  1
  Al  Al6  1  0.666743  0.333257  0.969543  1
  Al  Al7  1  0.333400  0.666600  0.030398  1
  Al  Al8  1  0.333400  0.666600  0.469602  1
  Al  Al9  1  0.666743  0.333257  0.530457  1
  Al  Al10  1  0.837175  0.162825  0.423226  1
  Al  Al11  1  0.162821  0.837179  0.576893  1
  Al  Al12  1  0.325757  0.162872  0.423091  1
  Al  Al13  1  0.162821  0.837179  0.923107  1
  Al  Al14  1  0.674297  0.837254  0.576866  1
  Al  Al15  1  0.837175  0.162825  0.076774  1
  Al  Al16  1  0.837128  0.674243  0.423091  1
  Al  Al17  1  0.674297  0.837254  0.923134  1
  Al  Al18  1  0.162746  0.325703  0.576866  1
  Al  Al19  1  0.325757  0.162872  0.076909  1
  Al  Al20  1  0.162746  0.325703  0.923134  1
  Al  Al21  1  0.837128  0.674243  0.076909  1
  Al  Al22  1  0.438519  0.561481  0.750000  1
  Al  Al23  1  0.561458  0.438542  0.250000  1
  Al  Al24  1  0.122698  0.561153  0.750000  1
  Al  Al25  1  0.877058  0.438595  0.250000  1
  Al  Al26  1  0.438847  0.877302  0.750000  1
  Al  Al27  1  0.561405  0.122942  0.250000  1
  Al  Al28  1  0.999918  0.000082  0.750000  1
  Al  Al29  1  0.000004  0.999996  0.250000  1
  Ru  Ru30  1  0.999984  0.000016  0.999765  1
  Ru  Ru31  1  0.999984  0.000016  0.500235  1
  Rh  Rh32  1  0.500066  0.499934  0.999851  1
  Rh  Rh33  1  0.999939  0.499903  0.999870  1
  Rh  Rh34  1  0.500066  0.499934  0.500149  1
  Rh  Rh35  1  0.500097  0.000061  0.999870  1
  Rh  Rh36  1  0.999939  0.499903  0.500130  1
  Rh  Rh37  1  0.500097  0.000061  0.500130  1
