# generated using pymatgen
data_Nd5Hf2ThBi10
_symmetry_space_group_name_H-M   'P 1'
_cell_length_a   9.74120800
_cell_length_b   9.74022024
_cell_length_c   6.49699000
_cell_angle_alpha   90.00000000
_cell_angle_beta   90.00000000
_cell_angle_gamma   120.00335470
_symmetry_Int_Tables_number   1
_chemical_formula_structural   Nd5Hf2ThBi10
_chemical_formula_sum   'Nd5 Hf2 Th1 Bi10'
_cell_volume   533.83831566
_cell_formula_units_Z   1
loop_
 _symmetry_equiv_pos_site_id
 _symmetry_equiv_pos_as_xyz
  1  'x, y, z'
loop_
 _atom_site_type_symbol
 _atom_site_label
 _atom_site_symmetry_multiplicity
 _atom_site_fract_x
 _atom_site_fract_y
 _atom_site_fract_z
 _atom_site_occupancy
  Nd  Nd0  1  0.380161  0.000000  0.750000  1
  Nd  Nd1  1  0.001189  0.620001  0.250000  1
  Nd  Nd2  1  0.999697  0.382612  0.750000  1
  Nd  Nd3  1  0.381187  0.379999  0.250000  1
  Nd  Nd4  1  0.617085  0.617388  0.750000  1
  Hf  Hf5  1  0.001045  0.000000  0.997870  1
  Hf  Hf6  1  0.001045  0.000000  0.502130  1
  Th  Th7  1  0.617497  0.000000  0.250000  1
  Bi  Bi8  1  0.265268  0.000000  0.250000  1
  Bi  Bi9  1  0.733987  0.000000  0.750000  1
  Bi  Bi10  1  0.999966  0.264741  0.250000  1
  Bi  Bi11  1  0.999149  0.734076  0.750000  1
  Bi  Bi12  1  0.735225  0.735259  0.250000  1
  Bi  Bi13  1  0.265074  0.265924  0.750000  1
  Bi  Bi14  1  0.334538  0.667863  0.000170  1
  Bi  Bi15  1  0.666675  0.332137  0.000170  1
  Bi  Bi16  1  0.666675  0.332137  0.499830  1
  Bi  Bi17  1  0.334538  0.667863  0.499830  1
