# generated using pymatgen
data_Th3GeSe2
_symmetry_space_group_name_H-M   'P 1'
_cell_length_a   7.30113013
_cell_length_b   7.30112949
_cell_length_c   7.30113071
_cell_angle_alpha   145.82196006
_cell_angle_beta   131.79785901
_cell_angle_gamma   60.40930996
_symmetry_Int_Tables_number   1
_chemical_formula_structural   Th3GeSe2
_chemical_formula_sum   'Th3 Ge1 Se2'
_cell_volume   161.44617249
_cell_formula_units_Z   1
loop_
 _symmetry_equiv_pos_site_id
 _symmetry_equiv_pos_as_xyz
  1  'x, y, z'
loop_
 _atom_site_type_symbol
 _atom_site_label
 _atom_site_symmetry_multiplicity
 _atom_site_fract_x
 _atom_site_fract_y
 _atom_site_fract_z
 _atom_site_occupancy
  Th  Th0  1  0.336880  0.336880  0.000000  1
  Th  Th1  1  0.000000  0.000000  0.000000  1
  Th  Th2  1  0.663120  0.663120  0.000000  1
  Ge  Ge3  1  0.500000  0.000000  0.500000  1
  Se  Se4  1  0.165980  0.665980  0.500000  1
  Se  Se5  1  0.834020  0.334020  0.500000  1
