# generated using pymatgen
data_Dy3GeSe2O10F
_symmetry_space_group_name_H-M   'P 1'
_cell_length_a   6.03968500
_cell_length_b   10.52244600
_cell_length_c   15.74427800
_cell_angle_alpha   90.00000000
_cell_angle_beta   90.00000000
_cell_angle_gamma   90.00000000
_symmetry_Int_Tables_number   1
_chemical_formula_structural   Dy3GeSe2O10F
_chemical_formula_sum   'Dy12 Ge4 Se8 O40 F4'
_cell_volume   1000.58443747
_cell_formula_units_Z   4
loop_
 _symmetry_equiv_pos_site_id
 _symmetry_equiv_pos_as_xyz
  1  'x, y, z'
loop_
 _atom_site_type_symbol
 _atom_site_label
 _atom_site_symmetry_multiplicity
 _atom_site_fract_x
 _atom_site_fract_y
 _atom_site_fract_z
 _atom_site_occupancy
  Dy  Dy0  1  0.925905  0.886033  0.655393  1
  Dy  Dy1  1  0.074095  0.113967  0.344607  1
  Dy  Dy2  1  0.250000  0.375198  0.500000  1
  Dy  Dy3  1  0.750000  0.624802  0.500000  1
  Dy  Dy4  1  0.425905  0.113967  0.655393  1
  Dy  Dy5  1  0.425905  0.386033  0.844607  1
  Dy  Dy6  1  0.574095  0.613967  0.155393  1
  Dy  Dy7  1  0.750000  0.875198  0.000000  1
  Dy  Dy8  1  0.925905  0.613967  0.844607  1
  Dy  Dy9  1  0.074095  0.386033  0.155393  1
  Dy  Dy10  1  0.574095  0.886033  0.344607  1
  Dy  Dy11  1  0.250000  0.124802  0.000000  1
  Ge  Ge12  1  0.750000  0.357098  0.000000  1
  Ge  Ge13  1  0.250000  0.857098  0.500000  1
  Ge  Ge14  1  0.750000  0.142902  0.500000  1
  Ge  Ge15  1  0.250000  0.642902  0.000000  1
  Se  Se16  1  0.026766  0.884631  0.174187  1
  Se  Se17  1  0.973234  0.115369  0.825813  1
  Se  Se18  1  0.973234  0.384631  0.674187  1
  Se  Se19  1  0.526766  0.115369  0.174187  1
  Se  Se20  1  0.526766  0.384631  0.325813  1
  Se  Se21  1  0.473234  0.615369  0.674187  1
  Se  Se22  1  0.026766  0.615369  0.325813  1
  Se  Se23  1  0.473234  0.884631  0.825813  1
  O  O24  1  0.482549  0.983899  0.913894  1
  O  O25  1  0.982549  0.016101  0.913894  1
  O  O26  1  0.240528  0.550170  0.094572  1
  O  O27  1  0.009560  0.772502  0.531524  1
  O  O28  1  0.380748  0.033021  0.252625  1
  O  O29  1  0.740528  0.449830  0.094572  1
  O  O30  1  0.017451  0.983899  0.086106  1
  O  O31  1  0.740528  0.050170  0.405428  1
  O  O32  1  0.490440  0.727498  0.031524  1
  O  O33  1  0.990440  0.227498  0.468476  1
  O  O34  1  0.490440  0.772502  0.468476  1
  O  O35  1  0.880748  0.966979  0.252625  1
  O  O36  1  0.517451  0.016101  0.086106  1
  O  O37  1  0.819791  0.783293  0.138947  1
  O  O38  1  0.982549  0.483899  0.586106  1
  O  O39  1  0.180209  0.216707  0.861053  1
  O  O40  1  0.880748  0.533021  0.247375  1
  O  O41  1  0.759472  0.050170  0.594572  1
  O  O42  1  0.240528  0.949830  0.405428  1
  O  O43  1  0.119252  0.466979  0.752625  1
  O  O44  1  0.380748  0.466979  0.247375  1
  O  O45  1  0.509560  0.227498  0.531524  1
  O  O46  1  0.319791  0.283293  0.361053  1
  O  O47  1  0.759472  0.449830  0.905428  1
  O  O48  1  0.259472  0.550170  0.905428  1
  O  O49  1  0.319791  0.216707  0.138947  1
  O  O50  1  0.509560  0.272502  0.968476  1
  O  O51  1  0.180209  0.283293  0.638947  1
  O  O52  1  0.482549  0.516101  0.586106  1
  O  O53  1  0.009560  0.727498  0.968476  1
  O  O54  1  0.819791  0.716707  0.361053  1
  O  O55  1  0.619252  0.533021  0.752625  1
  O  O56  1  0.680209  0.783293  0.861053  1
  O  O57  1  0.517451  0.483899  0.413894  1
  O  O58  1  0.259472  0.949830  0.594572  1
  O  O59  1  0.119252  0.033021  0.747375  1
  O  O60  1  0.680209  0.716707  0.638947  1
  O  O61  1  0.017451  0.516101  0.413894  1
  O  O62  1  0.990440  0.272502  0.031524  1
  O  O63  1  0.619252  0.966979  0.747375  1
  F  F64  1  0.437404  0.750000  0.250000  1
  F  F65  1  0.937404  0.250000  0.250000  1
  F  F66  1  0.562596  0.250000  0.750000  1
  F  F67  1  0.062596  0.750000  0.750000  1
