# generated using pymatgen
data_Nb12Al11V2Cu11
_symmetry_space_group_name_H-M   'P 1'
_cell_length_a   8.70090033
_cell_length_b   8.68661466
_cell_length_c   8.21160400
_cell_angle_alpha   90.00000000
_cell_angle_beta   90.00000000
_cell_angle_gamma   120.21820859
_symmetry_Int_Tables_number   1
_chemical_formula_structural   Nb12Al11V2Cu11
_chemical_formula_sum   'Nb12 Al11 V2 Cu11'
_cell_volume   536.30795725
_cell_formula_units_Z   1
loop_
 _symmetry_equiv_pos_site_id
 _symmetry_equiv_pos_as_xyz
  1  'x, y, z'
loop_
 _atom_site_type_symbol
 _atom_site_label
 _atom_site_symmetry_multiplicity
 _atom_site_fract_x
 _atom_site_fract_y
 _atom_site_fract_z
 _atom_site_occupancy
  Nb  Nb0  1  0.326099  0.996964  0.061687  1
  Nb  Nb1  1  0.671743  0.000818  0.938583  1
  Nb  Nb2  1  0.999383  0.327775  0.059441  1
  Nb  Nb3  1  0.671743  0.000818  0.561417  1
  Nb  Nb4  1  0.999383  0.327775  0.440559  1
  Nb  Nb5  1  0.001904  0.671482  0.938962  1
  Nb  Nb6  1  0.326099  0.996964  0.438313  1
  Nb  Nb7  1  0.001904  0.671482  0.561038  1
  Nb  Nb8  1  0.670634  0.670078  0.061046  1
  Nb  Nb9  1  0.329611  0.328323  0.938605  1
  Nb  Nb10  1  0.329611  0.328323  0.561395  1
  Nb  Nb11  1  0.670634  0.670078  0.438954  1
  Al  Al12  1  0.158579  0.655136  0.250000  1
  Al  Al13  1  0.339722  0.666287  0.506483  1
  Al  Al14  1  0.666481  0.332911  0.499496  1
  Al  Al15  1  0.666481  0.332911  0.000504  1
  Al  Al16  1  0.339722  0.666287  0.993517  1
  Al  Al17  1  0.182643  0.000437  0.750000  1
  Al  Al18  1  0.815524  0.000352  0.250000  1
  Al  Al19  1  0.000798  0.183497  0.750000  1
  Al  Al20  1  0.992236  0.822037  0.250000  1
  Al  Al21  1  0.819429  0.818001  0.750000  1
  Al  Al22  1  0.182359  0.183392  0.250000  1
  V  V23  1  0.000340  0.003438  0.500776  1
  V  V24  1  0.000340  0.003438  0.999224  1
  Cu  Cu25  1  0.163146  0.501151  0.750000  1
  Cu  Cu26  1  0.835178  0.500685  0.250000  1
  Cu  Cu27  1  0.502001  0.661856  0.750000  1
  Cu  Cu28  1  0.501331  0.163308  0.750000  1
  Cu  Cu29  1  0.499694  0.336973  0.250000  1
  Cu  Cu30  1  0.496549  0.835888  0.250000  1
  Cu  Cu31  1  0.338987  0.838277  0.750000  1
  Cu  Cu32  1  0.663291  0.498842  0.750000  1
  Cu  Cu33  1  0.661084  0.163104  0.250000  1
  Cu  Cu34  1  0.338381  0.502662  0.250000  1
  Cu  Cu35  1  0.836955  0.338253  0.750000  1
