# generated using pymatgen
data_Tb4Pr(CoO6)2
_symmetry_space_group_name_H-M   'P 1'
_cell_length_a   6.84012759
_cell_length_b   6.84012841
_cell_length_c   7.30736641
_cell_angle_alpha   74.60767860
_cell_angle_beta   74.60766638
_cell_angle_gamma   50.10875465
_symmetry_Int_Tables_number   1
_chemical_formula_structural   Tb4Pr(CoO6)2
_chemical_formula_sum   'Tb4 Pr1 Co2 O12'
_cell_volume   250.80904649
_cell_formula_units_Z   1
loop_
 _symmetry_equiv_pos_site_id
 _symmetry_equiv_pos_as_xyz
  1  'x, y, z'
loop_
 _atom_site_type_symbol
 _atom_site_label
 _atom_site_symmetry_multiplicity
 _atom_site_fract_x
 _atom_site_fract_y
 _atom_site_fract_z
 _atom_site_occupancy
  Tb  Tb0  1  0.694164  0.694164  0.662066  1
  Tb  Tb1  1  0.692873  0.692873  0.145311  1
  Tb  Tb2  1  0.307127  0.307127  0.854689  1
  Tb  Tb3  1  0.305836  0.305836  0.337934  1
  Pr  Pr4  1  0.000000  0.000000  0.000000  1
  Co  Co5  1  0.244887  0.755113  0.500000  1
  Co  Co6  1  0.755113  0.244887  0.500000  1
  O  O7  1  0.412295  0.904174  0.918766  1
  O  O8  1  0.584755  0.100928  0.576596  1
  O  O9  1  0.899072  0.415245  0.423404  1
  O  O10  1  0.095826  0.587705  0.081234  1
  O  O11  1  0.000704  0.000704  0.334373  1
  O  O12  1  0.500302  0.500302  0.673382  1
  O  O13  1  0.904174  0.412295  0.918766  1
  O  O14  1  0.100928  0.584755  0.576596  1
  O  O15  1  0.415245  0.899072  0.423404  1
  O  O16  1  0.587705  0.095826  0.081234  1
  O  O17  1  0.499698  0.499698  0.326618  1
  O  O18  1  0.999296  0.999296  0.665627  1
