# generated using pymatgen
data_Pr6Y9Th(CdIr)4
_symmetry_space_group_name_H-M   'P 1'
_cell_length_a   9.81554493
_cell_length_b   9.81554417
_cell_length_c   9.81554465
_cell_angle_alpha   60.16417866
_cell_angle_beta   60.16418258
_cell_angle_gamma   60.16417555
_symmetry_Int_Tables_number   1
_chemical_formula_structural   Pr6Y9Th(CdIr)4
_chemical_formula_sum   'Pr6 Y9 Th1 Cd4 Ir4'
_cell_volume   671.18172151
_cell_formula_units_Z   1
loop_
 _symmetry_equiv_pos_site_id
 _symmetry_equiv_pos_as_xyz
  1  'x, y, z'
loop_
 _atom_site_type_symbol
 _atom_site_label
 _atom_site_symmetry_multiplicity
 _atom_site_fract_x
 _atom_site_fract_y
 _atom_site_fract_z
 _atom_site_occupancy
  Pr  Pr0  1  0.940613  0.560762  0.560762  1
  Pr  Pr1  1  0.558045  0.942373  0.942373  1
  Pr  Pr2  1  0.560762  0.940613  0.560762  1
  Pr  Pr3  1  0.942373  0.558045  0.942373  1
  Pr  Pr4  1  0.560762  0.560762  0.940613  1
  Pr  Pr5  1  0.942373  0.942373  0.558045  1
  Y  Y6  1  0.349125  0.349125  0.953237  1
  Y  Y7  1  0.349125  0.953237  0.349125  1
  Y  Y8  1  0.953237  0.349125  0.349125  1
  Y  Y9  1  0.813265  0.187188  0.187188  1
  Y  Y10  1  0.186542  0.811763  0.811763  1
  Y  Y11  1  0.187188  0.813265  0.187188  1
  Y  Y12  1  0.811763  0.186542  0.811763  1
  Y  Y13  1  0.187188  0.187188  0.813265  1
  Y  Y14  1  0.811763  0.811763  0.186542  1
  Th  Th15  1  0.344970  0.344970  0.344970  1
  Cd  Cd16  1  0.578623  0.578623  0.578623  1
  Cd  Cd17  1  0.579702  0.579702  0.261457  1
  Cd  Cd18  1  0.579702  0.261457  0.579702  1
  Cd  Cd19  1  0.261457  0.579702  0.579702  1
  Ir  Ir20  1  0.142128  0.142128  0.142128  1
  Ir  Ir21  1  0.142642  0.142642  0.574006  1
  Ir  Ir22  1  0.142642  0.574006  0.142642  1
  Ir  Ir23  1  0.574006  0.142642  0.142642  1
