# generated using pymatgen
data_Pr10Nd2Fe2I17
_symmetry_space_group_name_H-M   'P 1'
_cell_length_a   10.04445342
_cell_length_b   12.06737518
_cell_length_c   12.13514460
_cell_angle_alpha   93.51317864
_cell_angle_beta   104.74414548
_cell_angle_gamma   114.32737255
_symmetry_Int_Tables_number   1
_chemical_formula_structural   Pr10Nd2Fe2I17
_chemical_formula_sum   'Pr10 Nd2 Fe2 I17'
_cell_volume   1272.92325204
_cell_formula_units_Z   1
loop_
 _symmetry_equiv_pos_site_id
 _symmetry_equiv_pos_as_xyz
  1  'x, y, z'
loop_
 _atom_site_type_symbol
 _atom_site_label
 _atom_site_symmetry_multiplicity
 _atom_site_fract_x
 _atom_site_fract_y
 _atom_site_fract_z
 _atom_site_occupancy
  Pr  Pr0  1  0.054057  0.506902  0.320030  1
  Pr  Pr1  1  0.986632  0.809930  0.581793  1
  Pr  Pr2  1  0.648164  0.240771  0.282367  1
  Pr  Pr3  1  0.011081  0.191121  0.414867  1
  Pr  Pr4  1  0.224990  0.670966  0.989835  1
  Pr  Pr5  1  0.258227  0.986281  0.891581  1
  Pr  Pr6  1  0.346291  0.758955  0.719001  1
  Pr  Pr7  1  0.941894  0.489107  0.677696  1
  Pr  Pr8  1  0.743018  0.017593  0.108868  1
  Pr  Pr9  1  0.148166  0.286935  0.150966  1
  Nd  Nd10  1  0.778689  0.328566  0.014617  1
  Nd  Nd11  1  0.859240  0.713073  0.846968  1
  Fe  Fe12  1  0.103840  0.737841  0.785597  1
  Fe  Fe13  1  0.896472  0.262097  0.214244  1
  I  I14  1  0.782978  0.527862  0.418685  1
  I  I15  1  0.644873  0.421437  0.762801  1
  I  I16  1  0.843176  0.895886  0.324712  1
  I  I17  1  0.326782  0.212988  0.369174  1
  I  I18  1  0.156780  0.104608  0.674252  1
  I  I19  1  0.586977  0.053302  0.844175  1
  I  I20  1  0.756551  0.184439  0.537545  1
  I  I21  1  0.550269  0.709609  0.952959  1
  I  I22  1  0.358558  0.581187  0.240808  1
  I  I23  1  0.215169  0.471945  0.582241  1
  I  I24  1  0.054634  0.368162  0.897542  1
  I  I25  1  0.452627  0.291969  0.045394  1
  I  I26  1  0.998034  0.997518  0.998466  1
  I  I27  1  0.242042  0.813898  0.462869  1
  I  I28  1  0.412068  0.947992  0.156252  1
  I  I29  1  0.674545  0.785999  0.633759  1
  I  I30  1  0.943173  0.631063  0.099934  1
