# generated using pymatgen
data_Dy2Er3Zr3Pt4
_symmetry_space_group_name_H-M   'P 1'
_cell_length_a   4.72431400
_cell_length_b   7.06318476
_cell_length_c   8.36862608
_cell_angle_alpha   90.92117866
_cell_angle_beta   90.00000000
_cell_angle_gamma   90.00000000
_symmetry_Int_Tables_number   1
_chemical_formula_structural   Dy2Er3Zr3Pt4
_chemical_formula_sum   'Dy2 Er3 Zr3 Pt4'
_cell_volume   279.21410457
_cell_formula_units_Z   1
loop_
 _symmetry_equiv_pos_site_id
 _symmetry_equiv_pos_as_xyz
  1  'x, y, z'
loop_
 _atom_site_type_symbol
 _atom_site_label
 _atom_site_symmetry_multiplicity
 _atom_site_fract_x
 _atom_site_fract_y
 _atom_site_fract_z
 _atom_site_occupancy
  Dy  Dy0  1  0.750000  0.511275  0.825691  1
  Dy  Dy1  1  0.750000  0.018175  0.671437  1
  Er  Er2  1  0.250000  0.851773  0.918425  1
  Er  Er3  1  0.250000  0.481612  0.181535  1
  Er  Er4  1  0.250000  0.984963  0.320089  1
  Zr  Zr5  1  0.750000  0.643688  0.422349  1
  Zr  Zr6  1  0.250000  0.352304  0.580040  1
  Zr  Zr7  1  0.750000  0.147587  0.079175  1
  Pt  Pt8  1  0.750000  0.266336  0.405903  1
  Pt  Pt9  1  0.250000  0.733170  0.582296  1
  Pt  Pt10  1  0.750000  0.762797  0.105402  1
  Pt  Pt11  1  0.250000  0.246320  0.907658  1
