# generated using pymatgen
data_YbYEr2(SiPt2)4
_symmetry_space_group_name_H-M   'P 1'
_cell_length_a   5.52092853
_cell_length_b   6.96306000
_cell_length_c   7.31094524
_cell_angle_alpha   90.00000000
_cell_angle_beta   89.96041516
_cell_angle_gamma   90.00000000
_symmetry_Int_Tables_number   1
_chemical_formula_structural   YbYEr2(SiPt2)4
_chemical_formula_sum   'Yb1 Y1 Er2 Si4 Pt8'
_cell_volume   281.05135887
_cell_formula_units_Z   1
loop_
 _symmetry_equiv_pos_site_id
 _symmetry_equiv_pos_as_xyz
  1  'x, y, z'
loop_
 _atom_site_type_symbol
 _atom_site_label
 _atom_site_symmetry_multiplicity
 _atom_site_fract_x
 _atom_site_fract_y
 _atom_site_fract_z
 _atom_site_occupancy
  Yb  Yb0  1  0.866006  0.250000  0.522933  1
  Y  Y1  1  0.133154  0.750000  0.475491  1
  Er  Er2  1  0.365550  0.750000  0.976283  1
  Er  Er3  1  0.635328  0.250000  0.024540  1
  Si  Si4  1  0.133556  0.250000  0.877576  1
  Si  Si5  1  0.367512  0.250000  0.380246  1
  Si  Si6  1  0.632361  0.750000  0.621623  1
  Si  Si7  1  0.866765  0.750000  0.121145  1
  Pt  Pt8  1  0.098544  0.051257  0.178522  1
  Pt  Pt9  1  0.098544  0.448743  0.178522  1
  Pt  Pt10  1  0.405442  0.050633  0.680428  1
  Pt  Pt11  1  0.405442  0.449367  0.680428  1
  Pt  Pt12  1  0.592662  0.550471  0.317610  1
  Pt  Pt13  1  0.592662  0.949529  0.317610  1
  Pt  Pt14  1  0.903237  0.551263  0.823521  1
  Pt  Pt15  1  0.903237  0.948737  0.823521  1
