# generated using pymatgen
data_Lu5InPt4
_symmetry_space_group_name_H-M   'P 1'
_cell_length_a   7.67576300
_cell_length_b   7.67576300
_cell_length_c   3.68562500
_cell_angle_alpha   90.00000000
_cell_angle_beta   90.00000000
_cell_angle_gamma   90.00000000
_symmetry_Int_Tables_number   1
_chemical_formula_structural   Lu5InPt4
_chemical_formula_sum   'Lu5 In1 Pt4'
_cell_volume   217.14721251
_cell_formula_units_Z   1
loop_
 _symmetry_equiv_pos_site_id
 _symmetry_equiv_pos_as_xyz
  1  'x, y, z'
loop_
 _atom_site_type_symbol
 _atom_site_label
 _atom_site_symmetry_multiplicity
 _atom_site_fract_x
 _atom_site_fract_y
 _atom_site_fract_z
 _atom_site_occupancy
  Lu  Lu0  1  0.678096  0.854321  0.500000  1
  Lu  Lu1  1  0.854321  0.321904  0.500000  1
  Lu  Lu2  1  0.321904  0.145679  0.500000  1
  Lu  Lu3  1  0.145679  0.678096  0.500000  1
  Lu  Lu4  1  0.500000  0.500000  0.000000  1
  In  In5  1  0.000000  0.000000  0.000000  1
  Pt  Pt6  1  0.624802  0.145415  0.000000  1
  Pt  Pt7  1  0.854585  0.624802  0.000000  1
  Pt  Pt8  1  0.145415  0.375198  0.000000  1
  Pt  Pt9  1  0.375198  0.854585  0.000000  1
