# generated using pymatgen
data_MnZn3P6N13
_symmetry_space_group_name_H-M   'P 1'
_cell_length_a   7.01194884
_cell_length_b   6.96990977
_cell_length_c   7.01194974
_cell_angle_alpha   109.34980531
_cell_angle_beta   109.59234448
_cell_angle_gamma   109.34982514
_symmetry_Int_Tables_number   1
_chemical_formula_structural   MnZn3P6N13
_chemical_formula_sum   'Mn1 Zn3 P6 N13'
_cell_volume   264.19911337
_cell_formula_units_Z   1
loop_
 _symmetry_equiv_pos_site_id
 _symmetry_equiv_pos_as_xyz
  1  'x, y, z'
loop_
 _atom_site_type_symbol
 _atom_site_label
 _atom_site_symmetry_multiplicity
 _atom_site_fract_x
 _atom_site_fract_y
 _atom_site_fract_z
 _atom_site_occupancy
  Mn  Mn0  1  0.000000  0.709504  0.000000  1
  Zn  Zn1  1  0.711794  0.995276  0.000000  1
  Zn  Zn2  1  0.000000  0.995276  0.711794  1
  Zn  Zn3  1  0.288206  0.283482  0.288206  1
  P  P4  1  0.498253  0.250258  0.748806  1
  P  P5  1  0.501747  0.752005  0.250553  1
  P  P6  1  0.749447  0.501452  0.251194  1
  P  P7  1  0.250553  0.752005  0.501747  1
  P  P8  1  0.748806  0.250258  0.498253  1
  P  P9  1  0.251194  0.501452  0.749447  1
  N  N10  1  0.000000  0.737316  0.457008  1
  N  N11  1  0.275556  0.540332  0.539291  1
  N  N12  1  0.734519  0.463359  0.000000  1
  N  N13  1  0.265481  0.728842  0.265481  1
  N  N14  1  0.460709  0.001042  0.736266  1
  N  N15  1  0.724444  0.264776  0.263734  1
  N  N16  1  0.542992  0.280308  0.542992  1
  N  N17  1  0.736266  0.001042  0.460709  1
  N  N18  1  0.263734  0.264776  0.724444  1
  N  N19  1  0.457008  0.737316  0.000000  1
  N  N20  1  0.539291  0.540332  0.275556  1
  N  N21  1  0.000000  0.463359  0.734519  1
  N  N22  1  0.000000  0.986234  0.000000  1
