# generated using pymatgen
data_Rb4LuUTe6
_symmetry_space_group_name_H-M   'P 1'
_cell_length_a   8.14729138
_cell_length_b   8.14729094
_cell_length_c   8.95990315
_cell_angle_alpha   81.15477868
_cell_angle_beta   81.15477202
_cell_angle_gamma   120.05394280
_symmetry_Int_Tables_number   1
_chemical_formula_structural   Rb4LuUTe6
_chemical_formula_sum   'Rb4 Lu1 U1 Te6'
_cell_volume   489.79362485
_cell_formula_units_Z   1
loop_
 _symmetry_equiv_pos_site_id
 _symmetry_equiv_pos_as_xyz
  1  'x, y, z'
loop_
 _atom_site_type_symbol
 _atom_site_label
 _atom_site_symmetry_multiplicity
 _atom_site_fract_x
 _atom_site_fract_y
 _atom_site_fract_z
 _atom_site_occupancy
  Rb  Rb0  1  0.500044  0.499956  0.000000  1
  Rb  Rb1  1  0.654857  0.345143  0.500000  1
  Rb  Rb2  1  0.345022  0.654978  0.500000  1
  Rb  Rb3  1  0.000022  0.999978  0.500000  1
  Lu  Lu4  1  0.832270  0.167730  0.000000  1
  U  U5  1  0.167825  0.832175  0.000000  1
  Te  Te6  1  0.814300  0.809046  0.198225  1
  Te  Te7  1  0.190954  0.185700  0.801775  1
  Te  Te8  1  0.426264  0.049166  0.201315  1
  Te  Te9  1  0.562672  0.945065  0.798365  1
  Te  Te10  1  0.950834  0.573736  0.798685  1
  Te  Te11  1  0.054935  0.437328  0.201635  1
