# generated using pymatgen
data_Ta4Fe4Pt7Rh
_symmetry_space_group_name_H-M   'P 1'
_cell_length_a   5.49866912
_cell_length_b   4.85010306
_cell_length_c   9.15609899
_cell_angle_alpha   79.65503481
_cell_angle_beta   89.97380272
_cell_angle_gamma   90.07577788
_symmetry_Int_Tables_number   1
_chemical_formula_structural   Ta4Fe4Pt7Rh
_chemical_formula_sum   'Ta4 Fe4 Pt7 Rh1'
_cell_volume   240.21538757
_cell_formula_units_Z   1
loop_
 _symmetry_equiv_pos_site_id
 _symmetry_equiv_pos_as_xyz
  1  'x, y, z'
loop_
 _atom_site_type_symbol
 _atom_site_label
 _atom_site_symmetry_multiplicity
 _atom_site_fract_x
 _atom_site_fract_y
 _atom_site_fract_z
 _atom_site_occupancy
  Ta  Ta0  1  0.255438  0.385350  0.878999  1
  Ta  Ta1  1  0.746983  0.619615  0.117038  1
  Ta  Ta2  1  0.249502  0.212467  0.371328  1
  Ta  Ta3  1  0.747107  0.787530  0.632570  1
  Fe  Fe4  1  0.251170  0.624516  0.123012  1
  Fe  Fe5  1  0.750021  0.373941  0.876567  1
  Fe  Fe6  1  0.250433  0.795092  0.626217  1
  Fe  Fe7  1  0.749603  0.206305  0.374305  1
  Pt  Pt8  1  0.998196  0.129145  0.125228  1
  Pt  Pt9  1  0.502158  0.128655  0.124575  1
  Pt  Pt10  1  0.003681  0.870507  0.874802  1
  Pt  Pt11  1  0.499461  0.708052  0.374992  1
  Pt  Pt12  1  0.999886  0.292315  0.624887  1
  Pt  Pt13  1  0.500059  0.291650  0.625377  1
  Pt  Pt14  1  0.998849  0.707799  0.375451  1
  Rh  Rh15  1  0.497454  0.867061  0.874651  1
