# generated using pymatgen
data_Rb2Ti3V9Te14
_symmetry_space_group_name_H-M   'P 1'
_cell_length_a   10.38420247
_cell_length_b   10.25265186
_cell_length_c   10.45699181
_cell_angle_alpha   60.95518357
_cell_angle_beta   60.07412826
_cell_angle_gamma   61.15741918
_symmetry_Int_Tables_number   1
_chemical_formula_structural   Rb2Ti3V9Te14
_chemical_formula_sum   'Rb2 Ti3 V9 Te14'
_cell_volume   800.02045068
_cell_formula_units_Z   1
loop_
 _symmetry_equiv_pos_site_id
 _symmetry_equiv_pos_as_xyz
  1  'x, y, z'
loop_
 _atom_site_type_symbol
 _atom_site_label
 _atom_site_symmetry_multiplicity
 _atom_site_fract_x
 _atom_site_fract_y
 _atom_site_fract_z
 _atom_site_occupancy
  Rb  Rb0  1  0.621105  0.626975  0.627246  1
  Rb  Rb1  1  0.374793  0.372652  0.372786  1
  Ti  Ti2  1  0.665784  0.887278  0.029220  1
  Ti  Ti3  1  0.027225  0.678284  0.891979  1
  Ti  Ti4  1  0.891917  0.028042  0.669728  1
  V  V5  1  0.314441  0.113309  0.983885  1
  V  V6  1  0.991597  0.296565  0.108522  1
  V  V7  1  0.110520  0.986955  0.311283  1
  V  V8  1  0.936340  0.814282  0.115544  1
  V  V9  1  0.108133  0.954731  0.804338  1
  V  V10  1  0.847338  0.067622  0.949631  1
  V  V11  1  0.067645  0.187951  0.881955  1
  V  V12  1  0.884461  0.050776  0.198060  1
  V  V13  1  0.151290  0.931067  0.054070  1
  Te  Te14  1  0.401012  0.807575  0.164383  1
  Te  Te15  1  0.181321  0.412780  0.808152  1
  Te  Te16  1  0.806967  0.171241  0.414620  1
  Te  Te17  1  0.588518  0.192203  0.841786  1
  Te  Te18  1  0.828800  0.576232  0.190505  1
  Te  Te19  1  0.196034  0.837185  0.574195  1
  Te  Te20  1  0.633146  0.978717  0.252774  1
  Te  Te21  1  0.243250  0.654126  0.982172  1
  Te  Te22  1  0.981760  0.254907  0.640764  1
  Te  Te23  1  0.365189  0.016567  0.755147  1
  Te  Te24  1  0.764781  0.345610  0.016183  1
  Te  Te25  1  0.013601  0.755311  0.361027  1
  Te  Te26  1  0.788935  0.777436  0.784679  1
  Te  Te27  1  0.214097  0.223624  0.215364  1
