# generated using pymatgen
data_Dy2Tm3Pt4
_symmetry_space_group_name_H-M   'P 1'
_cell_length_a   7.41207400
_cell_length_b   7.47923100
_cell_length_c   14.76547300
_cell_angle_alpha   90.00000000
_cell_angle_beta   90.00000000
_cell_angle_gamma   90.00000000
_symmetry_Int_Tables_number   1
_chemical_formula_structural   Dy2Tm3Pt4
_chemical_formula_sum   'Dy8 Tm12 Pt16'
_cell_volume   818.54782184
_cell_formula_units_Z   4
loop_
 _symmetry_equiv_pos_site_id
 _symmetry_equiv_pos_as_xyz
  1  'x, y, z'
loop_
 _atom_site_type_symbol
 _atom_site_label
 _atom_site_symmetry_multiplicity
 _atom_site_fract_x
 _atom_site_fract_y
 _atom_site_fract_z
 _atom_site_occupancy
  Dy  Dy0  1  0.467653  0.671665  0.598044  1
  Dy  Dy1  1  0.967653  0.828335  0.901956  1
  Dy  Dy2  1  0.532347  0.328335  0.098044  1
  Dy  Dy3  1  0.032347  0.171665  0.401956  1
  Dy  Dy4  1  0.532347  0.328335  0.401956  1
  Dy  Dy5  1  0.032347  0.171665  0.098044  1
  Dy  Dy6  1  0.467653  0.671665  0.901956  1
  Dy  Dy7  1  0.967653  0.828335  0.598044  1
  Tm  Tm8  1  0.623409  0.167560  0.620081  1
  Tm  Tm9  1  0.123409  0.332440  0.879919  1
  Tm  Tm10  1  0.376591  0.832440  0.120081  1
  Tm  Tm11  1  0.876591  0.667560  0.379919  1
  Tm  Tm12  1  0.376591  0.832440  0.379919  1
  Tm  Tm13  1  0.876591  0.667560  0.120081  1
  Tm  Tm14  1  0.623409  0.167560  0.879919  1
  Tm  Tm15  1  0.123409  0.332440  0.620081  1
  Tm  Tm16  1  0.787202  0.507604  0.750000  1
  Tm  Tm17  1  0.287202  0.992396  0.750000  1
  Tm  Tm18  1  0.212798  0.492396  0.250000  1
  Tm  Tm19  1  0.712798  0.007604  0.250000  1
  Pt  Pt20  1  0.706540  0.976298  0.456133  1
  Pt  Pt21  1  0.206540  0.523702  0.043867  1
  Pt  Pt22  1  0.293460  0.023702  0.956133  1
  Pt  Pt23  1  0.793460  0.476298  0.543867  1
  Pt  Pt24  1  0.293460  0.023702  0.543867  1
  Pt  Pt25  1  0.793460  0.476298  0.956133  1
  Pt  Pt26  1  0.706540  0.976298  0.043867  1
  Pt  Pt27  1  0.206540  0.523702  0.456133  1
  Pt  Pt28  1  0.418852  0.378467  0.750000  1
  Pt  Pt29  1  0.918852  0.121533  0.750000  1
  Pt  Pt30  1  0.581148  0.621533  0.250000  1
  Pt  Pt31  1  0.081148  0.878467  0.250000  1
  Pt  Pt32  1  0.649698  0.860246  0.750000  1
  Pt  Pt33  1  0.149698  0.639754  0.750000  1
  Pt  Pt34  1  0.350302  0.139754  0.250000  1
  Pt  Pt35  1  0.850302  0.360246  0.250000  1
