# generated using pymatgen
data_LiY4P8Pd15
_symmetry_space_group_name_H-M   'P 1'
_cell_length_a   4.18694200
_cell_length_b   7.42715354
_cell_length_c   15.06792500
_cell_angle_alpha   90.15317663
_cell_angle_beta   90.00000000
_cell_angle_gamma   90.00000000
_symmetry_Int_Tables_number   1
_chemical_formula_structural   LiY4P8Pd15
_chemical_formula_sum   'Li1 Y4 P8 Pd15'
_cell_volume   468.56650996
_cell_formula_units_Z   1
loop_
 _symmetry_equiv_pos_site_id
 _symmetry_equiv_pos_as_xyz
  1  'x, y, z'
loop_
 _atom_site_type_symbol
 _atom_site_label
 _atom_site_symmetry_multiplicity
 _atom_site_fract_x
 _atom_site_fract_y
 _atom_site_fract_z
 _atom_site_occupancy
  Li  Li0  1  0.250000  0.444095  0.542453  1
  Y  Y1  1  0.250000  0.856645  0.184024  1
  Y  Y2  1  0.750000  0.145389  0.814987  1
  Y  Y3  1  0.250000  0.357790  0.317135  1
  Y  Y4  1  0.750000  0.644198  0.681878  1
  P  P5  1  0.250000  0.314918  0.694127  1
  P  P6  1  0.250000  0.767873  0.558272  1
  P  P7  1  0.750000  0.223681  0.447121  1
  P  P8  1  0.750000  0.189313  0.194937  1
  P  P9  1  0.250000  0.812500  0.804272  1
  P  P10  1  0.250000  0.278692  0.945625  1
  P  P11  1  0.750000  0.721275  0.054810  1
  P  P12  1  0.750000  0.689085  0.308678  1
  Pd  Pd13  1  0.250000  0.989675  0.673795  1
  Pd  Pd14  1  0.250000  0.485957  0.826042  1
  Pd  Pd15  1  0.750000  0.378965  0.992365  1
  Pd  Pd16  1  0.750000  0.740811  0.883143  1
  Pd  Pd17  1  0.750000  0.531645  0.448526  1
  Pd  Pd18  1  0.750000  0.260431  0.612303  1
  Pd  Pd19  1  0.750000  0.517114  0.176165  1
  Pd  Pd20  1  0.750000  0.031658  0.057258  1
  Pd  Pd21  1  0.250000  0.760275  0.384305  1
  Pd  Pd22  1  0.250000  0.259255  0.116788  1
  Pd  Pd23  1  0.250000  0.967982  0.941765  1
  Pd  Pd24  1  0.250000  0.114377  0.492292  1
  Pd  Pd25  1  0.750000  0.878015  0.512065  1
  Pd  Pd26  1  0.750000  0.017875  0.326319  1
  Pd  Pd27  1  0.250000  0.620513  0.008549  1
