# generated using pymatgen
data_Hf6AlSnP
_symmetry_space_group_name_H-M   'P 1'
_cell_length_a   3.70374200
_cell_length_b   7.52323462
_cell_length_c   7.52355300
_cell_angle_alpha   60.00125231
_cell_angle_beta   90.00000000
_cell_angle_gamma   90.00000000
_symmetry_Int_Tables_number   1
_chemical_formula_structural   Hf6AlSnP
_chemical_formula_sum   'Hf6 Al1 Sn1 P1'
_cell_volume   181.55341785
_cell_formula_units_Z   1
loop_
 _symmetry_equiv_pos_site_id
 _symmetry_equiv_pos_as_xyz
  1  'x, y, z'
loop_
 _atom_site_type_symbol
 _atom_site_label
 _atom_site_symmetry_multiplicity
 _atom_site_fract_x
 _atom_site_fract_y
 _atom_site_fract_z
 _atom_site_occupancy
  Hf  Hf0  1  0.500000  0.612887  0.394170  1
  Hf  Hf1  1  0.500000  0.394109  0.992960  1
  Hf  Hf2  1  0.500000  0.992939  0.612909  1
  Hf  Hf3  1  0.000000  0.251170  0.753639  1
  Hf  Hf4  1  0.000000  0.753629  0.995226  1
  Hf  Hf5  1  0.000000  0.995163  0.251184  1
  Al  Al6  1  0.000000  0.666657  0.666693  1
  Sn  Sn7  1  0.000000  0.333316  0.333341  1
  P  P8  1  0.500000  0.000030  0.999977  1
