# generated using pymatgen
data_LiDy5V2(P3Ir4)4
_symmetry_space_group_name_H-M   'P 1'
_cell_length_a   12.72911256
_cell_length_b   12.66048110
_cell_length_c   3.95405800
_cell_angle_alpha   90.00000000
_cell_angle_beta   90.00000000
_cell_angle_gamma   119.82180561
_symmetry_Int_Tables_number   1
_chemical_formula_structural   LiDy5V2(P3Ir4)4
_chemical_formula_sum   'Li1 Dy5 V2 P12 Ir16'
_cell_volume   552.83945169
_cell_formula_units_Z   1
loop_
 _symmetry_equiv_pos_site_id
 _symmetry_equiv_pos_as_xyz
  1  'x, y, z'
loop_
 _atom_site_type_symbol
 _atom_site_label
 _atom_site_symmetry_multiplicity
 _atom_site_fract_x
 _atom_site_fract_y
 _atom_site_fract_z
 _atom_site_occupancy
  Li  Li0  1  0.000000  0.444892  0.500000  1
  Dy  Dy1  1  0.335324  0.666735  0.500000  1
  Dy  Dy2  1  0.664676  0.331409  0.500000  1
  Dy  Dy3  1  0.000000  0.810937  0.000000  1
  Dy  Dy4  1  0.191015  0.188439  0.000000  1
  Dy  Dy5  1  0.808985  0.997424  0.000000  1
  V  V6  1  0.551294  0.551411  0.500000  1
  V  V7  1  0.448706  0.000117  0.500000  1
  P  P8  1  0.000000  0.633866  0.500000  1
  P  P9  1  0.365417  0.366562  0.500000  1
  P  P10  1  0.634583  0.001145  0.500000  1
  P  P11  1  0.516728  0.682884  0.000000  1
  P  P12  1  0.315399  0.833140  0.000000  1
  P  P13  1  0.169926  0.483998  0.000000  1
  P  P14  1  0.483272  0.166157  0.000000  1
  P  P15  1  0.684601  0.517742  0.000000  1
  P  P16  1  0.830074  0.314074  0.000000  1
  P  P17  1  0.000000  0.180331  0.500000  1
  P  P18  1  0.822107  0.823628  0.500000  1
  P  P19  1  0.177893  0.001521  0.500000  1
  Ir  Ir20  1  0.506924  0.865584  0.000000  1
  Ir  Ir21  1  0.133320  0.644625  0.000000  1
  Ir  Ir22  1  0.359767  0.488109  0.000000  1
  Ir  Ir23  1  0.493076  0.358659  0.000000  1
  Ir  Ir24  1  0.866680  0.511304  0.000000  1
  Ir  Ir25  1  0.640233  0.128341  0.000000  1
  Ir  Ir26  1  0.000000  0.279723  0.000000  1
  Ir  Ir27  1  0.715261  0.716527  0.000000  1
  Ir  Ir28  1  0.284739  0.001266  0.000000  1
  Ir  Ir29  1  0.625703  0.805638  0.500000  1
  Ir  Ir30  1  0.195464  0.822395  0.500000  1
  Ir  Ir31  1  0.180255  0.376253  0.500000  1
  Ir  Ir32  1  0.374297  0.179934  0.500000  1
  Ir  Ir33  1  0.804536  0.626932  0.500000  1
  Ir  Ir34  1  0.819745  0.195999  0.500000  1
  Ir  Ir35  1  0.000000  0.002301  0.500000  1
