# generated using pymatgen
data_Ba3ThF10
_symmetry_space_group_name_H-M   'P 1'
_cell_length_a   8.91400237
_cell_length_b   8.91400226
_cell_length_c   6.44198000
_cell_angle_alpha   90.00000000
_cell_angle_beta   90.00000000
_cell_angle_gamma   101.28024293
_symmetry_Int_Tables_number   1
_chemical_formula_structural   Ba3ThF10
_chemical_formula_sum   'Ba6 Th2 F20'
_cell_volume   501.98776900
_cell_formula_units_Z   2
loop_
 _symmetry_equiv_pos_site_id
 _symmetry_equiv_pos_as_xyz
  1  'x, y, z'
loop_
 _atom_site_type_symbol
 _atom_site_label
 _atom_site_symmetry_multiplicity
 _atom_site_fract_x
 _atom_site_fract_y
 _atom_site_fract_z
 _atom_site_occupancy
  Ba  Ba0  1  0.825885  0.609573  0.750000  1
  Ba  Ba1  1  0.174115  0.390427  0.250000  1
  Ba  Ba2  1  0.390427  0.174115  0.750000  1
  Ba  Ba3  1  0.609573  0.825885  0.250000  1
  Ba  Ba4  1  0.891832  0.108168  0.750000  1
  Ba  Ba5  1  0.108168  0.891832  0.250000  1
  Th  Th6  1  0.319542  0.680458  0.750000  1
  Th  Th7  1  0.680458  0.319542  0.250000  1
  F  F8  1  0.135426  0.135426  0.500000  1
  F  F9  1  0.864574  0.864574  0.500000  1
  F  F10  1  0.864574  0.864574  0.000000  1
  F  F11  1  0.135426  0.135426  0.000000  1
  F  F12  1  0.100850  0.651865  0.527975  1
  F  F13  1  0.899150  0.348135  0.472025  1
  F  F14  1  0.899150  0.348135  0.027975  1
  F  F15  1  0.348135  0.899150  0.972025  1
  F  F16  1  0.100850  0.651865  0.972025  1
  F  F17  1  0.651865  0.100850  0.027975  1
  F  F18  1  0.651865  0.100850  0.472025  1
  F  F19  1  0.348135  0.899150  0.527975  1
  F  F20  1  0.242485  0.415827  0.750000  1
  F  F21  1  0.757515  0.584173  0.250000  1
  F  F22  1  0.584173  0.757515  0.750000  1
  F  F23  1  0.415827  0.242485  0.250000  1
  F  F24  1  0.599286  0.400714  0.554904  1
  F  F25  1  0.400714  0.599286  0.445096  1
  F  F26  1  0.400714  0.599286  0.054904  1
  F  F27  1  0.599286  0.400714  0.945096  1
