# generated using pymatgen
data_Hf9Re4Ir
_symmetry_space_group_name_H-M   'P 1'
_cell_length_a   8.56120900
_cell_length_b   8.64448530
_cell_length_c   8.64448503
_cell_angle_alpha   120.00181373
_cell_angle_beta   90.00000000
_cell_angle_gamma   90.00000000
_symmetry_Int_Tables_number   1
_chemical_formula_structural   Hf9Re4Ir
_chemical_formula_sum   'Hf18 Re8 Ir2'
_cell_volume   554.03354448
_cell_formula_units_Z   2
loop_
 _symmetry_equiv_pos_site_id
 _symmetry_equiv_pos_as_xyz
  1  'x, y, z'
loop_
 _atom_site_type_symbol
 _atom_site_label
 _atom_site_symmetry_multiplicity
 _atom_site_fract_x
 _atom_site_fract_y
 _atom_site_fract_z
 _atom_site_occupancy
  Hf  Hf0  1  0.554104  0.804267  0.608550  1
  Hf  Hf1  1  0.554085  0.804273  0.195727  1
  Hf  Hf2  1  0.554104  0.391450  0.195733  1
  Hf  Hf3  1  0.445896  0.195733  0.391450  1
  Hf  Hf4  1  0.445915  0.195727  0.804273  1
  Hf  Hf5  1  0.445896  0.608550  0.804267  1
  Hf  Hf6  1  0.054104  0.195733  0.391450  1
  Hf  Hf7  1  0.054085  0.195727  0.804273  1
  Hf  Hf8  1  0.054104  0.608550  0.804267  1
  Hf  Hf9  1  0.945896  0.804267  0.608550  1
  Hf  Hf10  1  0.945915  0.804273  0.195727  1
  Hf  Hf11  1  0.945896  0.391450  0.195733  1
  Hf  Hf12  1  0.750000  0.458137  0.916242  1
  Hf  Hf13  1  0.750000  0.458116  0.541884  1
  Hf  Hf14  1  0.750000  0.083758  0.541863  1
  Hf  Hf15  1  0.250000  0.541863  0.083758  1
  Hf  Hf16  1  0.250000  0.541884  0.458116  1
  Hf  Hf17  1  0.250000  0.916242  0.458137  1
  Re  Re18  1  0.750000  0.110112  0.220212  1
  Re  Re19  1  0.750000  0.110135  0.889865  1
  Re  Re20  1  0.750000  0.779788  0.889888  1
  Re  Re21  1  0.250000  0.889888  0.779788  1
  Re  Re22  1  0.250000  0.889865  0.110135  1
  Re  Re23  1  0.250000  0.220212  0.110112  1
  Re  Re24  1  0.500000  0.000000  0.000000  1
  Re  Re25  1  0.000000  0.000000  0.000000  1
  Ir  Ir26  1  0.750000  0.666677  0.333323  1
  Ir  Ir27  1  0.250000  0.333323  0.666677  1
