# generated using pymatgen
data_Ti2AlSnPd4
_symmetry_space_group_name_H-M   'P 1'
_cell_length_a   7.81813147
_cell_length_b   7.81813180
_cell_length_c   7.81813190
_cell_angle_alpha   33.43638932
_cell_angle_beta   33.43638548
_cell_angle_gamma   33.43638898
_symmetry_Int_Tables_number   1
_chemical_formula_structural   Ti2AlSnPd4
_chemical_formula_sum   'Ti2 Al1 Sn1 Pd4'
_cell_volume   129.20696793
_cell_formula_units_Z   1
loop_
 _symmetry_equiv_pos_site_id
 _symmetry_equiv_pos_as_xyz
  1  'x, y, z'
loop_
 _atom_site_type_symbol
 _atom_site_label
 _atom_site_symmetry_multiplicity
 _atom_site_fract_x
 _atom_site_fract_y
 _atom_site_fract_z
 _atom_site_occupancy
  Ti  Ti0  1  0.249323  0.249323  0.249323  1
  Ti  Ti1  1  0.750677  0.750677  0.750677  1
  Al  Al2  1  0.000000  0.000000  0.000000  1
  Sn  Sn3  1  0.500000  0.500000  0.500000  1
  Pd  Pd4  1  0.630574  0.630574  0.630574  1
  Pd  Pd5  1  0.115171  0.115171  0.115171  1
  Pd  Pd6  1  0.884829  0.884829  0.884829  1
  Pd  Pd7  1  0.369426  0.369426  0.369426  1
