# generated using pymatgen
data_Ac7Ni3
_symmetry_space_group_name_H-M   'P 1'
_cell_length_a   6.80644100
_cell_length_b   10.53493018
_cell_length_c   10.53493016
_cell_angle_alpha   119.98763221
_cell_angle_beta   90.00000000
_cell_angle_gamma   90.00000000
_symmetry_Int_Tables_number   1
_chemical_formula_structural   Ac7Ni3
_chemical_formula_sum   'Ac14 Ni6'
_cell_volume   654.28678577
_cell_formula_units_Z   2
loop_
 _symmetry_equiv_pos_site_id
 _symmetry_equiv_pos_as_xyz
  1  'x, y, z'
loop_
 _atom_site_type_symbol
 _atom_site_label
 _atom_site_symmetry_multiplicity
 _atom_site_fract_x
 _atom_site_fract_y
 _atom_site_fract_z
 _atom_site_occupancy
  Ac  Ac0  1  0.466173  0.333487  0.666513  1
  Ac  Ac1  1  0.966173  0.666513  0.333487  1
  Ac  Ac2  1  0.259236  0.125900  0.874100  1
  Ac  Ac3  1  0.259160  0.748133  0.874158  1
  Ac  Ac4  1  0.259160  0.125842  0.251867  1
  Ac  Ac5  1  0.759236  0.874100  0.125900  1
  Ac  Ac6  1  0.759160  0.251867  0.125842  1
  Ac  Ac7  1  0.759160  0.874158  0.748133  1
  Ac  Ac8  1  0.431177  0.540797  0.459203  1
  Ac  Ac9  1  0.430590  0.918468  0.459363  1
  Ac  Ac10  1  0.430590  0.540637  0.081532  1
  Ac  Ac11  1  0.931177  0.459203  0.540797  1
  Ac  Ac12  1  0.930590  0.081532  0.540637  1
  Ac  Ac13  1  0.930590  0.459363  0.918468  1
  Ni  Ni14  1  0.183561  0.810872  0.189128  1
  Ni  Ni15  1  0.186677  0.377186  0.188632  1
  Ni  Ni16  1  0.186677  0.811368  0.622814  1
  Ni  Ni17  1  0.683561  0.189128  0.810872  1
  Ni  Ni18  1  0.686677  0.622814  0.811368  1
  Ni  Ni19  1  0.686677  0.188632  0.377186  1
