# generated using pymatgen
data_Ce3UAl18Ir5Rh
_symmetry_space_group_name_H-M   'P 1'
_cell_length_a   7.62322664
_cell_length_b   7.62620285
_cell_length_c   9.43765437
_cell_angle_alpha   89.99210894
_cell_angle_beta   89.93358593
_cell_angle_gamma   119.64056561
_symmetry_Int_Tables_number   1
_chemical_formula_structural   Ce3UAl18Ir5Rh
_chemical_formula_sum   'Ce3 U1 Al18 Ir5 Rh1'
_cell_volume   476.87334897
_cell_formula_units_Z   1
loop_
 _symmetry_equiv_pos_site_id
 _symmetry_equiv_pos_as_xyz
  1  'x, y, z'
loop_
 _atom_site_type_symbol
 _atom_site_label
 _atom_site_symmetry_multiplicity
 _atom_site_fract_x
 _atom_site_fract_y
 _atom_site_fract_z
 _atom_site_occupancy
  Ce  Ce0  1  0.997417  0.671183  0.249441  1
  Ce  Ce1  1  0.003682  0.330222  0.750422  1
  Ce  Ce2  1  0.668428  0.995784  0.249473  1
  U  U3  1  0.330064  0.004608  0.750589  1
  Al  Al4  1  0.129255  0.127832  0.250622  1
  Al  Al5  1  0.873419  0.871284  0.749184  1
  Al  Al6  1  0.002789  0.335035  0.075167  1
  Al  Al7  1  0.997463  0.664677  0.923923  1
  Al  Al8  1  0.997471  0.665077  0.576270  1
  Al  Al9  1  0.334693  0.002705  0.427761  1
  Al  Al10  1  0.002827  0.334865  0.424660  1
  Al  Al11  1  0.665115  0.997543  0.576220  1
  Al  Al12  1  0.665102  0.997607  0.924015  1
  Al  Al13  1  0.334924  0.002667  0.072230  1
  Al  Al14  1  0.334067  0.333996  0.553692  1
  Al  Al15  1  0.665685  0.665579  0.448295  1
  Al  Al16  1  0.665562  0.665507  0.051461  1
  Al  Al17  1  0.334364  0.334493  0.946642  1
  Al  Al18  1  0.341645  0.547297  0.250046  1
  Al  Al19  1  0.655594  0.449935  0.749990  1
  Al  Al20  1  0.547375  0.340140  0.250077  1
  Al  Al21  1  0.452900  0.661535  0.749945  1
  Ir  Ir22  1  0.672601  0.328000  0.999509  1
  Ir  Ir23  1  0.327654  0.671977  0.999433  1
  Ir  Ir24  1  0.327389  0.672028  0.500589  1
  Ir  Ir25  1  0.672808  0.327841  0.500609  1
  Ir  Ir26  1  0.999997  0.000278  0.999345  1
  Rh  Rh27  1  0.999710  0.000300  0.500391  1
