# generated using pymatgen
data_Li4Tb3ZrPt4
_symmetry_space_group_name_H-M   'P 1'
_cell_length_a   3.90026300
_cell_length_b   6.97367073
_cell_length_c   8.45552800
_cell_angle_alpha   90.62033764
_cell_angle_beta   90.00000000
_cell_angle_gamma   90.00000000
_symmetry_Int_Tables_number   1
_chemical_formula_structural   Li4Tb3ZrPt4
_chemical_formula_sum   'Li4 Tb3 Zr1 Pt4'
_cell_volume   229.96969433
_cell_formula_units_Z   1
loop_
 _symmetry_equiv_pos_site_id
 _symmetry_equiv_pos_as_xyz
  1  'x, y, z'
loop_
 _atom_site_type_symbol
 _atom_site_label
 _atom_site_symmetry_multiplicity
 _atom_site_fract_x
 _atom_site_fract_y
 _atom_site_fract_z
 _atom_site_occupancy
  Li  Li0  1  0.250000  0.883472  0.946109  1
  Li  Li1  1  0.250000  0.372818  0.554507  1
  Li  Li2  1  0.750000  0.124016  0.058187  1
  Li  Li3  1  0.750000  0.622858  0.441195  1
  Tb  Tb4  1  0.250000  0.452045  0.185705  1
  Tb  Tb5  1  0.750000  0.050938  0.676570  1
  Tb  Tb6  1  0.750000  0.556381  0.821222  1
  Zr  Zr7  1  0.250000  0.940729  0.321540  1
  Pt  Pt8  1  0.250000  0.261291  0.875422  1
  Pt  Pt9  1  0.250000  0.759296  0.614714  1
  Pt  Pt10  1  0.750000  0.757136  0.135273  1
  Pt  Pt11  1  0.750000  0.219022  0.369552  1
