# generated using pymatgen
data_Co8Mo15PN4
_symmetry_space_group_name_H-M   'P 1'
_cell_length_a   7.98405212
_cell_length_b   7.98405179
_cell_length_c   7.87465561
_cell_angle_alpha   59.53937493
_cell_angle_beta   59.53937538
_cell_angle_gamma   60.00000134
_symmetry_Int_Tables_number   1
_chemical_formula_structural   Co8Mo15PN4
_chemical_formula_sum   'Co8 Mo15 P1 N4'
_cell_volume   352.45544769
_cell_formula_units_Z   1
loop_
 _symmetry_equiv_pos_site_id
 _symmetry_equiv_pos_as_xyz
  1  'x, y, z'
loop_
 _atom_site_type_symbol
 _atom_site_label
 _atom_site_symmetry_multiplicity
 _atom_site_fract_x
 _atom_site_fract_y
 _atom_site_fract_z
 _atom_site_occupancy
  Co  Co0  1  0.245146  0.928530  0.897794  1
  Co  Co1  1  0.928530  0.245146  0.897794  1
  Co  Co2  1  0.928530  0.928530  0.897794  1
  Co  Co3  1  0.920564  0.920564  0.238307  1
  Co  Co4  1  0.004854  0.321470  0.352206  1
  Co  Co5  1  0.329436  0.329436  0.011693  1
  Co  Co6  1  0.321470  0.004854  0.352206  1
  Co  Co7  1  0.321470  0.321470  0.352206  1
  Mo  Mo8  1  0.683852  0.314233  0.687683  1
  Mo  Mo9  1  0.625000  0.125000  0.125000  1
  Mo  Mo10  1  0.555918  0.555918  0.945858  1
  Mo  Mo11  1  0.566148  0.935767  0.562317  1
  Mo  Mo12  1  0.935767  0.935767  0.562317  1
  Mo  Mo13  1  0.935767  0.566148  0.562317  1
  Mo  Mo14  1  0.942306  0.555918  0.945858  1
  Mo  Mo15  1  0.694082  0.307694  0.304142  1
  Mo  Mo16  1  0.307694  0.694082  0.304142  1
  Mo  Mo17  1  0.314233  0.314233  0.687683  1
  Mo  Mo18  1  0.314233  0.683852  0.687683  1
  Mo  Mo19  1  0.694082  0.694082  0.304142  1
  Mo  Mo20  1  0.125000  0.625000  0.125000  1
  Mo  Mo21  1  0.125000  0.125000  0.125000  1
  Mo  Mo22  1  0.555918  0.942306  0.945858  1
  P  P23  1  0.125000  0.125000  0.625000  1
  N  N24  1  0.625000  0.625000  0.625000  1
  N  N25  1  0.125000  0.625000  0.625000  1
  N  N26  1  0.625000  0.125000  0.625000  1
  N  N27  1  0.625000  0.625000  0.125000  1
