# generated using pymatgen
data_Yb2PuRh3
_symmetry_space_group_name_H-M   'P 1'
_cell_length_a   5.30487963
_cell_length_b   5.30457145
_cell_length_c   5.30490294
_cell_angle_alpha   66.64043477
_cell_angle_beta   66.64191305
_cell_angle_gamma   66.64023686
_symmetry_Int_Tables_number   1
_chemical_formula_structural   Yb2PuRh3
_chemical_formula_sum   'Yb2 Pu1 Rh3'
_cell_volume   120.63516127
_cell_formula_units_Z   1
loop_
 _symmetry_equiv_pos_site_id
 _symmetry_equiv_pos_as_xyz
  1  'x, y, z'
loop_
 _atom_site_type_symbol
 _atom_site_label
 _atom_site_symmetry_multiplicity
 _atom_site_fract_x
 _atom_site_fract_y
 _atom_site_fract_z
 _atom_site_occupancy
  Yb  Yb0  1  0.374562  0.374555  0.374550  1
  Yb  Yb1  1  0.625438  0.625445  0.625450  1
  Pu  Pu2  1  0.000000  0.000000  0.000000  1
  Rh  Rh3  1  0.500000  0.000000  0.000000  1
  Rh  Rh4  1  0.000000  0.500000  0.000000  1
  Rh  Rh5  1  0.000000  0.000000  0.500000  1
