# generated using pymatgen
data_H12PtRh3
_symmetry_space_group_name_H-M   'P 1'
_cell_length_a   5.79966521
_cell_length_b   5.79966398
_cell_length_c   5.88574592
_cell_angle_alpha   60.48263195
_cell_angle_beta   60.48262588
_cell_angle_gamma   60.00000181
_symmetry_Int_Tables_number   1
_chemical_formula_structural   H12PtRh3
_chemical_formula_sum   'H12 Pt1 Rh3'
_cell_volume   141.00100300
_cell_formula_units_Z   1
loop_
 _symmetry_equiv_pos_site_id
 _symmetry_equiv_pos_as_xyz
  1  'x, y, z'
loop_
 _atom_site_type_symbol
 _atom_site_label
 _atom_site_symmetry_multiplicity
 _atom_site_fract_x
 _atom_site_fract_y
 _atom_site_fract_z
 _atom_site_occupancy
  H  H0  1  0.763519  0.763519  0.237819  1
  H  H1  1  0.232636  0.232636  0.770493  1
  H  H2  1  0.764235  0.232636  0.770493  1
  H  H3  1  0.235145  0.763519  0.237819  1
  H  H4  1  0.232636  0.764235  0.770493  1
  H  H5  1  0.763519  0.235145  0.237819  1
  H  H6  1  0.486481  0.486481  0.012181  1
  H  H7  1  0.017364  0.017364  0.479507  1
  H  H8  1  0.485765  0.017364  0.479507  1
  H  H9  1  0.014855  0.486481  0.012181  1
  H  H10  1  0.017364  0.485765  0.479507  1
  H  H11  1  0.486481  0.014855  0.012181  1
  Pt  Pt12  1  0.125000  0.125000  0.625000  1
  Rh  Rh13  1  0.625000  0.125000  0.125000  1
  Rh  Rh14  1  0.125000  0.625000  0.125000  1
  Rh  Rh15  1  0.125000  0.125000  0.125000  1
