# generated using pymatgen
data_Tb4Sn3As3Ir7
_symmetry_space_group_name_H-M   'P 1'
_cell_length_a   7.51268004
_cell_length_b   7.43776561
_cell_length_c   7.43776600
_cell_angle_alpha   109.26628940
_cell_angle_beta   109.67536923
_cell_angle_gamma   109.67538789
_symmetry_Int_Tables_number   1
_chemical_formula_structural   Tb4Sn3As3Ir7
_chemical_formula_sum   'Tb4 Sn3 As3 Ir7'
_cell_volume   319.12260829
_cell_formula_units_Z   1
loop_
 _symmetry_equiv_pos_site_id
 _symmetry_equiv_pos_as_xyz
  1  'x, y, z'
loop_
 _atom_site_type_symbol
 _atom_site_label
 _atom_site_symmetry_multiplicity
 _atom_site_fract_x
 _atom_site_fract_y
 _atom_site_fract_z
 _atom_site_occupancy
  Tb  Tb0  1  0.551633  0.000000  0.000000  1
  Tb  Tb1  1  0.991235  0.475584  0.000000  1
  Tb  Tb2  1  0.991235  0.000000  0.475584  1
  Tb  Tb3  1  0.515650  0.524416  0.524416  1
  Sn  Sn4  1  0.018654  0.710163  0.710163  1
  Sn  Sn5  1  0.308490  0.000000  0.289837  1
  Sn  Sn6  1  0.308490  0.289837  0.000000  1
  As  As7  1  0.009806  0.342740  0.342740  1
  As  As8  1  0.667067  0.000000  0.657260  1
  As  As9  1  0.667067  0.657260  0.000000  1
  Ir  Ir10  1  0.955708  0.000000  0.000000  1
  Ir  Ir11  1  0.499158  0.744542  0.245449  1
  Ir  Ir12  1  0.754616  0.500907  0.255458  1
  Ir  Ir13  1  0.253709  0.754551  0.499093  1
  Ir  Ir14  1  0.253709  0.499093  0.754551  1
  Ir  Ir15  1  0.499158  0.245449  0.744542  1
  Ir  Ir16  1  0.754616  0.255458  0.500907  1
