# generated using pymatgen
data_Li2PrNd3Sn8
_symmetry_space_group_name_H-M   'P 1'
_cell_length_a   4.50510500
_cell_length_b   9.04949622
_cell_length_c   17.73167900
_cell_angle_alpha   89.98734991
_cell_angle_beta   90.00000000
_cell_angle_gamma   90.00000000
_symmetry_Int_Tables_number   1
_chemical_formula_structural   Li2PrNd3Sn8
_chemical_formula_sum   'Li4 Pr2 Nd6 Sn16'
_cell_volume   722.90157421
_cell_formula_units_Z   2
loop_
 _symmetry_equiv_pos_site_id
 _symmetry_equiv_pos_as_xyz
  1  'x, y, z'
loop_
 _atom_site_type_symbol
 _atom_site_label
 _atom_site_symmetry_multiplicity
 _atom_site_fract_x
 _atom_site_fract_y
 _atom_site_fract_z
 _atom_site_occupancy
  Li  Li0  1  0.750000  0.366498  0.570103  1
  Li  Li1  1  0.250000  0.633338  0.429883  1
  Li  Li2  1  0.750000  0.133171  0.069973  1
  Li  Li3  1  0.250000  0.866705  0.929962  1
  Pr  Pr4  1  0.250000  0.613611  0.647008  1
  Pr  Pr5  1  0.250000  0.367321  0.146182  1
  Nd  Nd6  1  0.250000  0.886212  0.146651  1
  Nd  Nd7  1  0.750000  0.113419  0.853339  1
  Nd  Nd8  1  0.750000  0.632931  0.853887  1
  Nd  Nd9  1  0.250000  0.132546  0.645911  1
  Nd  Nd10  1  0.750000  0.867301  0.354058  1
  Nd  Nd11  1  0.750000  0.386506  0.353015  1
  Sn  Sn12  1  0.250000  0.613308  0.005990  1
  Sn  Sn13  1  0.750000  0.861452  0.007573  1
  Sn  Sn14  1  0.750000  0.627538  0.178388  1
  Sn  Sn15  1  0.250000  0.126271  0.322239  1
  Sn  Sn16  1  0.750000  0.386818  0.993310  1
  Sn  Sn17  1  0.750000  0.371322  0.714466  1
  Sn  Sn18  1  0.750000  0.638404  0.507320  1
  Sn  Sn19  1  0.250000  0.873430  0.786205  1
  Sn  Sn20  1  0.750000  0.112972  0.493678  1
  Sn  Sn21  1  0.250000  0.373484  0.822365  1
  Sn  Sn22  1  0.750000  0.126484  0.214295  1
  Sn  Sn23  1  0.250000  0.360923  0.491680  1
  Sn  Sn24  1  0.250000  0.628033  0.286063  1
  Sn  Sn25  1  0.750000  0.874609  0.678482  1
  Sn  Sn26  1  0.250000  0.887051  0.506075  1
  Sn  Sn27  1  0.250000  0.138341  0.991899  1
