# generated using pymatgen
data_Pr6Gd3TmSn6
_symmetry_space_group_name_H-M   'P 1'
_cell_length_a   6.70205800
_cell_length_b   9.21069893
_cell_length_c   9.21104700
_cell_angle_alpha   119.99856008
_cell_angle_beta   89.99993161
_cell_angle_gamma   89.99997199
_symmetry_Int_Tables_number   1
_chemical_formula_structural   Pr6Gd3TmSn6
_chemical_formula_sum   'Pr6 Gd3 Tm1 Sn6'
_cell_volume   492.43249094
_cell_formula_units_Z   1
loop_
 _symmetry_equiv_pos_site_id
 _symmetry_equiv_pos_as_xyz
  1  'x, y, z'
loop_
 _atom_site_type_symbol
 _atom_site_label
 _atom_site_symmetry_multiplicity
 _atom_site_fract_x
 _atom_site_fract_y
 _atom_site_fract_z
 _atom_site_occupancy
  Pr  Pr0  1  0.750441  0.242124  0.999743  1
  Pr  Pr1  1  0.750488  0.757481  0.757778  1
  Pr  Pr2  1  0.750375  0.000249  0.242448  1
  Pr  Pr3  1  0.249473  0.757602  0.999748  1
  Pr  Pr4  1  0.249593  0.242188  0.242422  1
  Pr  Pr5  1  0.249590  0.000288  0.757832  1
  Gd  Gd6  1  0.499992  0.333328  0.666618  1
  Gd  Gd7  1  0.500130  0.666754  0.333374  1
  Gd  Gd8  1  0.999926  0.666750  0.333403  1
  Tm  Tm9  1  0.000005  0.333405  0.666719  1
  Sn  Sn10  1  0.751414  0.600145  0.998663  1
  Sn  Sn11  1  0.751396  0.398472  0.399801  1
  Sn  Sn12  1  0.751352  0.001320  0.601521  1
  Sn  Sn13  1  0.248586  0.398483  0.998652  1
  Sn  Sn14  1  0.248585  0.600147  0.601512  1
  Sn  Sn15  1  0.248650  0.001263  0.399765  1
