# generated using pymatgen
data_Ho8Er4Ni4SnRu
_symmetry_space_group_name_H-M   'P 1'
_cell_length_a   8.27231008
_cell_length_b   8.27230985
_cell_length_c   8.27231024
_cell_angle_alpha   111.52703329
_cell_angle_beta   109.99079508
_cell_angle_gamma   106.92925621
_symmetry_Int_Tables_number   1
_chemical_formula_structural   Ho8Er4Ni4SnRu
_chemical_formula_sum   'Ho8 Er4 Ni4 Sn1 Ru1'
_cell_volume   435.04942638
_cell_formula_units_Z   1
loop_
 _symmetry_equiv_pos_site_id
 _symmetry_equiv_pos_as_xyz
  1  'x, y, z'
loop_
 _atom_site_type_symbol
 _atom_site_label
 _atom_site_symmetry_multiplicity
 _atom_site_fract_x
 _atom_site_fract_y
 _atom_site_fract_z
 _atom_site_occupancy
  Ho  Ho0  1  0.182255  0.290146  0.472401  1
  Ho  Ho1  1  0.817745  0.709854  0.527599  1
  Ho  Ho2  1  0.182255  0.709854  0.892110  1
  Ho  Ho3  1  0.817745  0.290146  0.107890  1
  Ho  Ho4  1  0.319631  0.625517  0.305886  1
  Ho  Ho5  1  0.680369  0.374483  0.694114  1
  Ho  Ho6  1  0.319631  0.013745  0.694114  1
  Ho  Ho7  1  0.680369  0.986255  0.305886  1
  Er  Er8  1  0.404674  0.214638  0.190036  1
  Er  Er9  1  0.595326  0.785362  0.809964  1
  Er  Er10  1  0.024601  0.214638  0.809964  1
  Er  Er11  1  0.975399  0.785362  0.190036  1
  Ni  Ni12  1  0.362613  0.000000  0.362613  1
  Ni  Ni13  1  0.637387  0.000000  0.637387  1
  Ni  Ni14  1  0.122854  0.622854  0.500000  1
  Ni  Ni15  1  0.877146  0.377146  0.500000  1
  Sn  Sn16  1  0.500000  0.500000  0.000000  1
  Ru  Ru17  1  0.000000  0.000000  0.000000  1
