# generated using pymatgen
data_Y12Ho4MgCd3Pt4
_symmetry_space_group_name_H-M   'P 1'
_cell_length_a   9.70015415
_cell_length_b   9.70015414
_cell_length_c   9.70015313
_cell_angle_alpha   60.13520746
_cell_angle_beta   60.13520891
_cell_angle_gamma   60.13520605
_symmetry_Int_Tables_number   1
_chemical_formula_structural   Y12Ho4MgCd3Pt4
_chemical_formula_sum   'Y12 Ho4 Mg1 Cd3 Pt4'
_cell_volume   647.36470545
_cell_formula_units_Z   1
loop_
 _symmetry_equiv_pos_site_id
 _symmetry_equiv_pos_as_xyz
  1  'x, y, z'
loop_
 _atom_site_type_symbol
 _atom_site_label
 _atom_site_symmetry_multiplicity
 _atom_site_fract_x
 _atom_site_fract_y
 _atom_site_fract_z
 _atom_site_occupancy
  Y  Y0  1  0.809405  0.191597  0.191597  1
  Y  Y1  1  0.188849  0.811358  0.811358  1
  Y  Y2  1  0.191597  0.809405  0.191597  1
  Y  Y3  1  0.811358  0.188849  0.811358  1
  Y  Y4  1  0.191597  0.191597  0.809405  1
  Y  Y5  1  0.811358  0.811358  0.188849  1
  Y  Y6  1  0.936328  0.565240  0.565240  1
  Y  Y7  1  0.562712  0.937110  0.937110  1
  Y  Y8  1  0.565240  0.936328  0.565240  1
  Y  Y9  1  0.937110  0.562712  0.937110  1
  Y  Y10  1  0.565240  0.565240  0.936328  1
  Y  Y11  1  0.937110  0.937110  0.562712  1
  Ho  Ho12  1  0.349590  0.349590  0.349590  1
  Ho  Ho13  1  0.352856  0.352856  0.944316  1
  Ho  Ho14  1  0.352856  0.944316  0.352856  1
  Ho  Ho15  1  0.944316  0.352856  0.352856  1
  Mg  Mg16  1  0.576777  0.576777  0.576777  1
  Cd  Cd17  1  0.581320  0.581320  0.254452  1
  Cd  Cd18  1  0.581320  0.254452  0.581320  1
  Cd  Cd19  1  0.254452  0.581320  0.581320  1
  Pt  Pt20  1  0.144883  0.144883  0.144883  1
  Pt  Pt21  1  0.142596  0.142596  0.568536  1
  Pt  Pt22  1  0.142596  0.568536  0.142596  1
  Pt  Pt23  1  0.568536  0.142596  0.142596  1
