# generated using pymatgen
data_Li3Ac3Pd2Pt
_symmetry_space_group_name_H-M   'P 1'
_cell_length_a   7.60586700
_cell_length_b   7.60586535
_cell_length_c   4.28324700
_cell_angle_alpha   90.00000000
_cell_angle_beta   90.00000000
_cell_angle_gamma   119.99999413
_symmetry_Int_Tables_number   1
_chemical_formula_structural   Li3Ac3Pd2Pt
_chemical_formula_sum   'Li3 Ac3 Pd2 Pt1'
_cell_volume   214.58587739
_cell_formula_units_Z   1
loop_
 _symmetry_equiv_pos_site_id
 _symmetry_equiv_pos_as_xyz
  1  'x, y, z'
loop_
 _atom_site_type_symbol
 _atom_site_label
 _atom_site_symmetry_multiplicity
 _atom_site_fract_x
 _atom_site_fract_y
 _atom_site_fract_z
 _atom_site_occupancy
  Li  Li0  1  0.773400  0.774583  0.000000  1
  Li  Li1  1  0.001183  0.226600  0.000000  1
  Li  Li2  1  0.225417  0.998817  0.000000  1
  Ac  Ac3  1  0.587878  0.997317  0.500000  1
  Ac  Ac4  1  0.409439  0.412122  0.500000  1
  Ac  Ac5  1  0.002683  0.590561  0.500000  1
  Pd  Pd6  1  0.000000  0.000000  0.500000  1
  Pd  Pd7  1  0.666667  0.333333  0.000000  1
  Pt  Pt8  1  0.333333  0.666667  0.000000  1
