# generated using pymatgen
data_Th2Ni17H3
_symmetry_space_group_name_H-M   'P 1'
_cell_length_a   6.31809462
_cell_length_b   6.31809373
_cell_length_c   6.31809461
_cell_angle_alpha   83.72000516
_cell_angle_beta   83.72000076
_cell_angle_gamma   83.71999483
_symmetry_Int_Tables_number   1
_chemical_formula_structural   Th2Ni17H3
_chemical_formula_sum   'Th2 Ni17 H3'
_cell_volume   247.97556627
_cell_formula_units_Z   1
loop_
 _symmetry_equiv_pos_site_id
 _symmetry_equiv_pos_as_xyz
  1  'x, y, z'
loop_
 _atom_site_type_symbol
 _atom_site_label
 _atom_site_symmetry_multiplicity
 _atom_site_fract_x
 _atom_site_fract_y
 _atom_site_fract_z
 _atom_site_occupancy
  Th  Th0  1  0.662006  0.662006  0.662006  1
  Th  Th1  1  0.337994  0.337994  0.337994  1
  Ni  Ni2  1  0.000000  0.000000  0.500000  1
  Ni  Ni3  1  0.500000  0.000000  0.000000  1
  Ni  Ni4  1  0.000000  0.500000  0.000000  1
  Ni  Ni5  1  0.711027  0.288973  0.000000  1
  Ni  Ni6  1  0.000000  0.711027  0.288973  1
  Ni  Ni7  1  0.288973  0.000000  0.711027  1
  Ni  Ni8  1  0.000000  0.288973  0.711027  1
  Ni  Ni9  1  0.711027  0.000000  0.288973  1
  Ni  Ni10  1  0.288973  0.711027  0.000000  1
  Ni  Ni11  1  0.345891  0.345891  0.848978  1
  Ni  Ni12  1  0.848978  0.345891  0.345891  1
  Ni  Ni13  1  0.345891  0.848978  0.345891  1
  Ni  Ni14  1  0.654109  0.654109  0.151022  1
  Ni  Ni15  1  0.151022  0.654109  0.654109  1
  Ni  Ni16  1  0.654109  0.151022  0.654109  1
  Ni  Ni17  1  0.900195  0.900195  0.900195  1
  Ni  Ni18  1  0.099805  0.099805  0.099805  1
  H  H19  1  0.500000  0.500000  0.000000  1
  H  H20  1  0.000000  0.500000  0.500000  1
  H  H21  1  0.500000  0.000000  0.500000  1
