# generated using pymatgen
data_Dy16Cd4NiRh3
_symmetry_space_group_name_H-M   'P 1'
_cell_length_a   9.59539020
_cell_length_b   9.59538971
_cell_length_c   9.64214800
_cell_angle_alpha   60.16028703
_cell_angle_beta   60.16028870
_cell_angle_gamma   60.00000280
_symmetry_Int_Tables_number   1
_chemical_formula_structural   Dy16Cd4NiRh3
_chemical_formula_sum   'Dy16 Cd4 Ni1 Rh3'
_cell_volume   629.26273281
_cell_formula_units_Z   1
loop_
 _symmetry_equiv_pos_site_id
 _symmetry_equiv_pos_as_xyz
  1  'x, y, z'
loop_
 _atom_site_type_symbol
 _atom_site_label
 _atom_site_symmetry_multiplicity
 _atom_site_fract_x
 _atom_site_fract_y
 _atom_site_fract_z
 _atom_site_occupancy
  Dy  Dy0  1  0.564767  0.564767  0.936000  1
  Dy  Dy1  1  0.152485  0.546877  0.148153  1
  Dy  Dy2  1  0.688474  0.311630  0.311423  1
  Dy  Dy3  1  0.935813  0.564262  0.564112  1
  Dy  Dy4  1  0.934467  0.564767  0.936000  1
  Dy  Dy5  1  0.688474  0.688474  0.311423  1
  Dy  Dy6  1  0.564767  0.934467  0.936000  1
  Dy  Dy7  1  0.152485  0.152485  0.148153  1
  Dy  Dy8  1  0.311630  0.688474  0.311423  1
  Dy  Dy9  1  0.546877  0.152485  0.148153  1
  Dy  Dy10  1  0.311825  0.311825  0.689724  1
  Dy  Dy11  1  0.311825  0.686627  0.689724  1
  Dy  Dy12  1  0.150174  0.150174  0.549478  1
  Dy  Dy13  1  0.686627  0.311825  0.689724  1
  Dy  Dy14  1  0.935813  0.935813  0.564112  1
  Dy  Dy15  1  0.564262  0.935813  0.564112  1
  Cd  Cd16  1  0.919143  0.919143  0.919182  1
  Cd  Cd17  1  0.242532  0.919143  0.919182  1
  Cd  Cd18  1  0.919060  0.919060  0.242819  1
  Cd  Cd19  1  0.919143  0.242532  0.919182  1
  Ni  Ni20  1  0.357844  0.357844  0.926468  1
  Rh  Rh21  1  0.357420  0.357420  0.358485  1
  Rh  Rh22  1  0.926675  0.357420  0.358485  1
  Rh  Rh23  1  0.357420  0.926675  0.358485  1
