# generated using pymatgen
data_CeNd2In3PdPt2
_symmetry_space_group_name_H-M   'P 1'
_cell_length_a   7.78965726
_cell_length_b   7.81634806
_cell_length_c   3.99111500
_cell_angle_alpha   90.00000000
_cell_angle_beta   90.00000000
_cell_angle_gamma   120.11341221
_symmetry_Int_Tables_number   1
_chemical_formula_structural   CeNd2In3PdPt2
_chemical_formula_sum   'Ce1 Nd2 In3 Pd1 Pt2'
_cell_volume   210.20820255
_cell_formula_units_Z   1
loop_
 _symmetry_equiv_pos_site_id
 _symmetry_equiv_pos_as_xyz
  1  'x, y, z'
loop_
 _atom_site_type_symbol
 _atom_site_label
 _atom_site_symmetry_multiplicity
 _atom_site_fract_x
 _atom_site_fract_y
 _atom_site_fract_z
 _atom_site_occupancy
  Ce  Ce0  1  0.000000  0.585486  0.500000  1
  Nd  Nd1  1  0.587974  0.001119  0.500000  1
  Nd  Nd2  1  0.412026  0.413145  0.500000  1
  In  In3  1  0.000000  0.250111  0.000000  1
  In  In4  1  0.254366  0.001156  0.000000  1
  In  In5  1  0.745634  0.746790  0.000000  1
  Pd  Pd6  1  0.000000  0.996639  0.500000  1
  Pt  Pt7  1  0.679477  0.342515  0.000000  1
  Pt  Pt8  1  0.320523  0.663039  0.000000  1
