# generated using pymatgen
data_Pr4Co19P12Ru
_symmetry_space_group_name_H-M   'P 1'
_cell_length_a   3.70991800
_cell_length_b   10.47642279
_cell_length_c   11.85550108
_cell_angle_alpha   90.06746654
_cell_angle_beta   90.00000000
_cell_angle_gamma   90.00000000
_symmetry_Int_Tables_number   1
_chemical_formula_structural   Pr4Co19P12Ru
_chemical_formula_sum   'Pr4 Co19 P12 Ru1'
_cell_volume   460.78352276
_cell_formula_units_Z   1
loop_
 _symmetry_equiv_pos_site_id
 _symmetry_equiv_pos_as_xyz
  1  'x, y, z'
loop_
 _atom_site_type_symbol
 _atom_site_label
 _atom_site_symmetry_multiplicity
 _atom_site_fract_x
 _atom_site_fract_y
 _atom_site_fract_z
 _atom_site_occupancy
  Pr  Pr0  1  0.250000  0.584059  0.702053  1
  Pr  Pr1  1  0.250000  0.917789  0.201051  1
  Pr  Pr2  1  0.750000  0.415706  0.298438  1
  Pr  Pr3  1  0.750000  0.085756  0.796309  1
  Co  Co4  1  0.250000  0.786815  0.490885  1
  Co  Co5  1  0.750000  0.287127  0.009480  1
  Co  Co6  1  0.750000  0.212757  0.509752  1
  Co  Co7  1  0.250000  0.404888  0.490635  1
  Co  Co8  1  0.250000  0.094852  0.989683  1
  Co  Co9  1  0.750000  0.594894  0.509470  1
  Co  Co10  1  0.750000  0.907167  0.007593  1
  Co  Co11  1  0.250000  0.220371  0.175973  1
  Co  Co12  1  0.250000  0.278761  0.674811  1
  Co  Co13  1  0.750000  0.779320  0.824027  1
  Co  Co14  1  0.750000  0.722180  0.324993  1
  Co  Co15  1  0.250000  0.883237  0.697273  1
  Co  Co16  1  0.250000  0.614836  0.200556  1
  Co  Co17  1  0.750000  0.116698  0.303442  1
  Co  Co18  1  0.750000  0.382581  0.801852  1
  Co  Co19  1  0.250000  0.465301  0.933277  1
  Co  Co20  1  0.250000  0.030970  0.433111  1
  Co  Co21  1  0.750000  0.531524  0.067791  1
  Co  Co22  1  0.750000  0.968958  0.567201  1
  P  P23  1  0.250000  0.416863  0.110057  1
  P  P24  1  0.250000  0.081985  0.609091  1
  P  P25  1  0.750000  0.579234  0.889449  1
  P  P26  1  0.750000  0.918833  0.390580  1
  P  P27  1  0.250000  0.275313  0.868964  1
  P  P28  1  0.250000  0.223062  0.369717  1
  P  P29  1  0.750000  0.722879  0.133685  1
  P  P30  1  0.750000  0.776529  0.629672  1
  P  P31  1  0.250000  0.605435  0.394875  1
  P  P32  1  0.250000  0.900081  0.890980  1
  P  P33  1  0.750000  0.393686  0.606250  1
  P  P34  1  0.750000  0.107366  0.106713  1
  Ru  Ru35  1  0.250000  0.712188  0.990314  1
