# generated using pymatgen
data_Dy4HgPt10Au
_symmetry_space_group_name_H-M   'P 1'
_cell_length_a   4.23536600
_cell_length_b   5.85292881
_cell_length_c   11.71235300
_cell_angle_alpha   86.87906365
_cell_angle_beta   90.00000000
_cell_angle_gamma   90.00000000
_symmetry_Int_Tables_number   1
_chemical_formula_structural   Dy4HgPt10Au
_chemical_formula_sum   'Dy4 Hg1 Pt10 Au1'
_cell_volume   289.91036051
_cell_formula_units_Z   1
loop_
 _symmetry_equiv_pos_site_id
 _symmetry_equiv_pos_as_xyz
  1  'x, y, z'
loop_
 _atom_site_type_symbol
 _atom_site_label
 _atom_site_symmetry_multiplicity
 _atom_site_fract_x
 _atom_site_fract_y
 _atom_site_fract_z
 _atom_site_occupancy
  Dy  Dy0  1  0.500000  0.749033  0.371371  1
  Dy  Dy1  1  0.500000  0.725329  0.865921  1
  Dy  Dy2  1  0.500000  0.274671  0.134079  1
  Dy  Dy3  1  0.500000  0.250967  0.628629  1
  Hg  Hg4  1  0.000000  0.000000  0.000000  1
  Pt  Pt5  1  0.000000  0.012766  0.251243  1
  Pt  Pt6  1  0.000000  0.987234  0.748757  1
  Pt  Pt7  1  0.000000  0.500000  0.000000  1
  Pt  Pt8  1  0.000000  0.500000  0.500000  1
  Pt  Pt9  1  0.000000  0.513444  0.250017  1
  Pt  Pt10  1  0.000000  0.486556  0.749983  1
  Pt  Pt11  1  0.500000  0.255079  0.377599  1
  Pt  Pt12  1  0.500000  0.234944  0.877022  1
  Pt  Pt13  1  0.500000  0.765056  0.122978  1
  Pt  Pt14  1  0.500000  0.744921  0.622401  1
  Au  Au15  1  0.000000  0.000000  0.500000  1
