# generated using pymatgen
data_Tb9Ho(CoPd2)2
_symmetry_space_group_name_H-M   'P 1'
_cell_length_a   7.94042700
_cell_length_b   8.24759710
_cell_length_c   11.82447314
_cell_angle_alpha   89.98216077
_cell_angle_beta   90.00000000
_cell_angle_gamma   90.00000000
_symmetry_Int_Tables_number   1
_chemical_formula_structural   Tb9Ho(CoPd2)2
_chemical_formula_sum   'Tb18 Ho2 Co4 Pd8'
_cell_volume   774.37811881
_cell_formula_units_Z   2
loop_
 _symmetry_equiv_pos_site_id
 _symmetry_equiv_pos_as_xyz
  1  'x, y, z'
loop_
 _atom_site_type_symbol
 _atom_site_label
 _atom_site_symmetry_multiplicity
 _atom_site_fract_x
 _atom_site_fract_y
 _atom_site_fract_z
 _atom_site_occupancy
  Tb  Tb0  1  0.163794  0.749416  0.214409  1
  Tb  Tb1  1  0.663794  0.250584  0.285591  1
  Tb  Tb2  1  0.835846  0.250133  0.785711  1
  Tb  Tb3  1  0.335846  0.749867  0.714289  1
  Tb  Tb4  1  0.460888  0.749647  0.004624  1
  Tb  Tb5  1  0.960888  0.250353  0.495376  1
  Tb  Tb6  1  0.540023  0.250489  0.995462  1
  Tb  Tb7  1  0.040023  0.749511  0.504538  1
  Tb  Tb8  1  0.629529  0.749365  0.306226  1
  Tb  Tb9  1  0.129529  0.250635  0.193774  1
  Tb  Tb10  1  0.370091  0.250183  0.693249  1
  Tb  Tb11  1  0.870091  0.749817  0.806751  1
  Tb  Tb12  1  0.828319  0.965563  0.080727  1
  Tb  Tb13  1  0.328319  0.034437  0.419273  1
  Tb  Tb14  1  0.171282  0.465857  0.919614  1
  Tb  Tb15  1  0.671282  0.534143  0.580386  1
  Tb  Tb16  1  0.171591  0.034076  0.919352  1
  Tb  Tb17  1  0.671591  0.965924  0.580648  1
  Ho  Ho18  1  0.829168  0.534146  0.080750  1
  Ho  Ho19  1  0.329168  0.465854  0.419250  1
  Co  Co20  1  0.435181  0.749665  0.494963  1
  Co  Co21  1  0.935181  0.250335  0.005037  1
  Co  Co22  1  0.563787  0.250359  0.504760  1
  Co  Co23  1  0.063787  0.749641  0.995240  1
  Pd  Pd24  1  0.935549  0.983349  0.330165  1
  Pd  Pd25  1  0.435549  0.016651  0.169835  1
  Pd  Pd26  1  0.064331  0.483192  0.669746  1
  Pd  Pd27  1  0.564331  0.516808  0.830254  1
  Pd  Pd28  1  0.064330  0.016769  0.669811  1
  Pd  Pd29  1  0.564330  0.983231  0.830189  1
  Pd  Pd30  1  0.936292  0.516756  0.329670  1
  Pd  Pd31  1  0.436292  0.483244  0.170330  1
