# generated using pymatgen
data_Tb2Mo2P7Rh9W
_symmetry_space_group_name_H-M   'P 1'
_cell_length_a   3.94376106
_cell_length_b   9.52441412
_cell_length_c   9.53169527
_cell_angle_alpha   119.99748761
_cell_angle_beta   90.00055646
_cell_angle_gamma   89.99891029
_symmetry_Int_Tables_number   1
_chemical_formula_structural   Tb2Mo2P7Rh9W
_chemical_formula_sum   'Tb2 Mo2 P7 Rh9 W1'
_cell_volume   310.07063624
_cell_formula_units_Z   1
loop_
 _symmetry_equiv_pos_site_id
 _symmetry_equiv_pos_as_xyz
  1  'x, y, z'
loop_
 _atom_site_type_symbol
 _atom_site_label
 _atom_site_symmetry_multiplicity
 _atom_site_fract_x
 _atom_site_fract_y
 _atom_site_fract_z
 _atom_site_occupancy
  Tb  Tb0  1  0.261920  0.666424  0.333362  1
  Tb  Tb1  1  0.761955  0.333281  0.666642  1
  Mo  Mo2  1  0.761906  0.090643  0.871666  1
  Mo  Mo3  1  0.761896  0.128173  0.220143  1
  P  P4  1  0.261932  0.000257  0.000266  1
  P  P5  1  0.761893  0.882049  0.593530  1
  P  P6  1  0.761871  0.405710  0.287552  1
  P  P7  1  0.761852  0.711903  0.118292  1
  P  P8  1  0.261925  0.117548  0.411970  1
  P  P9  1  0.261918  0.587711  0.705221  1
  P  P10  1  0.261916  0.294395  0.882447  1
  Rh  Rh11  1  0.261869  0.885149  0.160048  1
  Rh  Rh12  1  0.261874  0.839824  0.725340  1
  Rh  Rh13  1  0.261873  0.275507  0.115282  1
  Rh  Rh14  1  0.761926  0.612943  0.558694  1
  Rh  Rh15  1  0.761910  0.441041  0.053685  1
  Rh  Rh16  1  0.761928  0.945953  0.387311  1
  Rh  Rh17  1  0.261921  0.370099  0.438304  1
  Rh  Rh18  1  0.261910  0.561994  0.931160  1
  Rh  Rh19  1  0.261929  0.068150  0.629906  1
  W  W20  1  0.761873  0.781246  0.909180  1
