# generated using pymatgen
data_Li2Th4Si3Ge
_symmetry_space_group_name_H-M   'P 1'
_cell_length_a   7.37531552
_cell_length_b   7.37531552
_cell_length_c   4.31458300
_cell_angle_alpha   90.00000000
_cell_angle_beta   90.00000000
_cell_angle_gamma   89.62013094
_symmetry_Int_Tables_number   1
_chemical_formula_structural   Li2Th4Si3Ge
_chemical_formula_sum   'Li2 Th4 Si3 Ge1'
_cell_volume   234.68778828
_cell_formula_units_Z   1
loop_
 _symmetry_equiv_pos_site_id
 _symmetry_equiv_pos_as_xyz
  1  'x, y, z'
loop_
 _atom_site_type_symbol
 _atom_site_label
 _atom_site_symmetry_multiplicity
 _atom_site_fract_x
 _atom_site_fract_y
 _atom_site_fract_z
 _atom_site_occupancy
  Li  Li0  1  0.500580  0.499770  0.000000  1
  Li  Li1  1  0.999770  0.000580  0.000000  1
  Th  Th2  1  0.680648  0.180648  0.500000  1
  Th  Th3  1  0.321721  0.821721  0.500000  1
  Th  Th4  1  0.180585  0.316563  0.500000  1
  Th  Th5  1  0.816563  0.680585  0.500000  1
  Si  Si6  1  0.881925  0.381925  0.000000  1
  Si  Si7  1  0.615402  0.884433  0.000000  1
  Si  Si8  1  0.384433  0.115402  0.000000  1
  Ge  Ge9  1  0.118372  0.618372  0.000000  1
