# generated using pymatgen
data_Dy4Lu4B24MoRh3
_symmetry_space_group_name_H-M   'P 1'
_cell_length_a   3.63268400
_cell_length_b   9.11656917
_cell_length_c   11.49900426
_cell_angle_alpha   90.21547495
_cell_angle_beta   90.00000000
_cell_angle_gamma   90.00000000
_symmetry_Int_Tables_number   1
_chemical_formula_structural   Dy4Lu4B24MoRh3
_chemical_formula_sum   'Dy4 Lu4 B24 Mo1 Rh3'
_cell_volume   380.81690257
_cell_formula_units_Z   1
loop_
 _symmetry_equiv_pos_site_id
 _symmetry_equiv_pos_as_xyz
  1  'x, y, z'
loop_
 _atom_site_type_symbol
 _atom_site_label
 _atom_site_symmetry_multiplicity
 _atom_site_fract_x
 _atom_site_fract_y
 _atom_site_fract_z
 _atom_site_occupancy
  Dy  Dy0  1  0.500000  0.319320  0.411418  1
  Dy  Dy1  1  0.500000  0.677407  0.584912  1
  Dy  Dy2  1  0.500000  0.178652  0.916759  1
  Dy  Dy3  1  0.500000  0.823359  0.086554  1
  Lu  Lu4  1  0.500000  0.444792  0.125984  1
  Lu  Lu5  1  0.500000  0.556555  0.872009  1
  Lu  Lu6  1  0.500000  0.055718  0.628592  1
  Lu  Lu7  1  0.500000  0.945602  0.373709  1
  B  B8  1  0.000000  0.103832  0.473719  1
  B  B9  1  0.000000  0.895414  0.529266  1
  B  B10  1  0.000000  0.398091  0.970333  1
  B  B11  1  0.000000  0.604982  0.027551  1
  B  B12  1  0.000000  0.131467  0.317746  1
  B  B13  1  0.000000  0.867397  0.683085  1
  B  B14  1  0.000000  0.368997  0.816870  1
  B  B15  1  0.000000  0.632062  0.183167  1
  B  B16  1  0.000000  0.052309  0.064953  1
  B  B17  1  0.000000  0.945462  0.932835  1
  B  B18  1  0.000000  0.444583  0.565994  1
  B  B19  1  0.000000  0.554062  0.433610  1
  B  B20  1  0.000000  0.483706  0.286702  1
  B  B21  1  0.000000  0.516953  0.713074  1
  B  B22  1  0.000000  0.016702  0.786433  1
  B  B23  1  0.000000  0.980130  0.214642  1
  B  B24  1  0.000000  0.252765  0.079035  1
  B  B25  1  0.000000  0.749717  0.919093  1
  B  B26  1  0.000000  0.248832  0.580091  1
  B  B27  1  0.000000  0.750530  0.420225  1
  B  B28  1  0.000000  0.296268  0.235944  1
  B  B29  1  0.000000  0.705393  0.763843  1
  B  B30  1  0.000000  0.207014  0.736121  1
  B  B31  1  0.000000  0.792792  0.265854  1
  Mo  Mo32  1  0.500000  0.139178  0.179922  1
  Rh  Rh33  1  0.500000  0.859776  0.819604  1
  Rh  Rh34  1  0.500000  0.360159  0.680283  1
  Rh  Rh35  1  0.500000  0.640023  0.320071  1
