# generated using pymatgen
data_RbCr(CuSe2)2
_symmetry_space_group_name_H-M   'P 1'
_cell_length_a   9.98695029
_cell_length_b   9.98695100
_cell_length_c   7.65944300
_cell_angle_alpha   90.00000000
_cell_angle_beta   90.00000000
_cell_angle_gamma   147.03203048
_symmetry_Int_Tables_number   1
_chemical_formula_structural   RbCr(CuSe2)2
_chemical_formula_sum   'Rb2 Cr2 Cu4 Se8'
_cell_volume   415.71689259
_cell_formula_units_Z   2
loop_
 _symmetry_equiv_pos_site_id
 _symmetry_equiv_pos_as_xyz
  1  'x, y, z'
loop_
 _atom_site_type_symbol
 _atom_site_label
 _atom_site_symmetry_multiplicity
 _atom_site_fract_x
 _atom_site_fract_y
 _atom_site_fract_z
 _atom_site_occupancy
  Rb  Rb0  1  0.175537  0.547125  0.750000  1
  Rb  Rb1  1  0.547125  0.175537  0.250000  1
  Cr  Cr2  1  0.708610  0.495049  0.750000  1
  Cr  Cr3  1  0.495049  0.708610  0.250000  1
  Cu  Cu4  1  0.623373  0.623373  0.500000  1
  Cu  Cu5  1  0.994371  0.208002  0.250000  1
  Cu  Cu6  1  0.208002  0.994371  0.750000  1
  Cu  Cu7  1  0.623373  0.623373  0.000000  1
  Se  Se8  1  0.730064  0.946519  0.002883  1
  Se  Se9  1  0.369189  0.355994  0.750000  1
  Se  Se10  1  0.355994  0.369189  0.250000  1
  Se  Se11  1  0.946519  0.730064  0.502883  1
  Se  Se12  1  0.573102  0.164908  0.750000  1
  Se  Se13  1  0.946519  0.730064  0.997117  1
  Se  Se14  1  0.164908  0.573102  0.250000  1
  Se  Se15  1  0.730064  0.946519  0.497117  1
