# generated using pymatgen
data_Ac7(YbIr3)2
_symmetry_space_group_name_H-M   'P 1'
_cell_length_a   7.95090965
_cell_length_b   7.95090901
_cell_length_c   7.95090985
_cell_angle_alpha   69.97703670
_cell_angle_beta   69.97704781
_cell_angle_gamma   69.97703974
_symmetry_Int_Tables_number   1
_chemical_formula_structural   Ac7(YbIr3)2
_chemical_formula_sum   'Ac7 Yb2 Ir6'
_cell_volume   429.03009731
_cell_formula_units_Z   1
loop_
 _symmetry_equiv_pos_site_id
 _symmetry_equiv_pos_as_xyz
  1  'x, y, z'
loop_
 _atom_site_type_symbol
 _atom_site_label
 _atom_site_symmetry_multiplicity
 _atom_site_fract_x
 _atom_site_fract_y
 _atom_site_fract_z
 _atom_site_occupancy
  Ac  Ac0  1  0.191588  0.191588  0.191588  1
  Ac  Ac1  1  0.141581  0.398372  0.681491  1
  Ac  Ac2  1  0.681491  0.141581  0.398372  1
  Ac  Ac3  1  0.398372  0.681491  0.141581  1
  Ac  Ac4  1  0.852335  0.610638  0.318070  1
  Ac  Ac5  1  0.318070  0.852335  0.610638  1
  Ac  Ac6  1  0.610638  0.318070  0.852335  1
  Yb  Yb7  1  0.996055  0.996055  0.996055  1
  Yb  Yb8  1  0.807189  0.807189  0.807189  1
  Ir  Ir9  1  0.955489  0.175040  0.584998  1
  Ir  Ir10  1  0.584998  0.955489  0.175040  1
  Ir  Ir11  1  0.175040  0.584998  0.955489  1
  Ir  Ir12  1  0.046403  0.825769  0.414981  1
  Ir  Ir13  1  0.414981  0.046403  0.825769  1
  Ir  Ir14  1  0.825769  0.414981  0.046403  1
