# generated using pymatgen
data_Ba4CePr7Se16
_symmetry_space_group_name_H-M   'P 1'
_cell_length_a   4.39561100
_cell_length_b   13.15449608
_cell_length_c   15.75600965
_cell_angle_alpha   89.92274750
_cell_angle_beta   90.00000000
_cell_angle_gamma   90.00000000
_symmetry_Int_Tables_number   1
_chemical_formula_structural   Ba4CePr7Se16
_chemical_formula_sum   'Ba4 Ce1 Pr7 Se16'
_cell_volume   911.04391325
_cell_formula_units_Z   1
loop_
 _symmetry_equiv_pos_site_id
 _symmetry_equiv_pos_as_xyz
  1  'x, y, z'
loop_
 _atom_site_type_symbol
 _atom_site_label
 _atom_site_symmetry_multiplicity
 _atom_site_fract_x
 _atom_site_fract_y
 _atom_site_fract_z
 _atom_site_occupancy
  Ba  Ba0  1  0.250000  0.755250  0.339041  1
  Ba  Ba1  1  0.250000  0.257104  0.161638  1
  Ba  Ba2  1  0.750000  0.243304  0.660611  1
  Ba  Ba3  1  0.750000  0.743634  0.838857  1
  Ce  Ce4  1  0.750000  0.078898  0.397578  1
  Pr  Pr5  1  0.250000  0.427709  0.392216  1
  Pr  Pr6  1  0.250000  0.928761  0.109025  1
  Pr  Pr7  1  0.750000  0.571220  0.609057  1
  Pr  Pr8  1  0.750000  0.072072  0.891627  1
  Pr  Pr9  1  0.250000  0.420872  0.898228  1
  Pr  Pr10  1  0.250000  0.921304  0.601944  1
  Pr  Pr11  1  0.750000  0.578483  0.102131  1
  Se  Se12  1  0.250000  0.208253  0.823298  1
  Se  Se13  1  0.250000  0.708980  0.674439  1
  Se  Se14  1  0.750000  0.791681  0.176390  1
  Se  Se15  1  0.750000  0.290816  0.325406  1
  Se  Se16  1  0.250000  0.130440  0.521334  1
  Se  Se17  1  0.250000  0.630341  0.975561  1
  Se  Se18  1  0.750000  0.871035  0.474559  1
  Se  Se19  1  0.750000  0.369062  0.024786  1
  Se  Se20  1  0.250000  0.520756  0.217680  1
  Se  Se21  1  0.250000  0.023006  0.283321  1
  Se  Se22  1  0.750000  0.478319  0.782997  1
  Se  Se23  1  0.750000  0.979232  0.716488  1
  Se  Se24  1  0.250000  0.417138  0.580291  1
  Se  Se25  1  0.250000  0.918067  0.920853  1
  Se  Se26  1  0.750000  0.581536  0.420771  1
  Se  Se27  1  0.750000  0.082728  0.079876  1
