# generated using pymatgen
data_Hf6Mn(Tl2Br9)2
_symmetry_space_group_name_H-M   'P 1'
_cell_length_a   10.53882345
_cell_length_b   10.75527785
_cell_length_c   10.86679700
_cell_angle_alpha   118.47456138
_cell_angle_beta   100.72614003
_cell_angle_gamma   103.57102723
_symmetry_Int_Tables_number   1
_chemical_formula_structural   Hf6Mn(Tl2Br9)2
_chemical_formula_sum   'Hf6 Mn1 Tl4 Br18'
_cell_volume   986.42170891
_cell_formula_units_Z   1
loop_
 _symmetry_equiv_pos_site_id
 _symmetry_equiv_pos_as_xyz
  1  'x, y, z'
loop_
 _atom_site_type_symbol
 _atom_site_label
 _atom_site_symmetry_multiplicity
 _atom_site_fract_x
 _atom_site_fract_y
 _atom_site_fract_z
 _atom_site_occupancy
  Hf  Hf0  1  0.148480  0.054980  0.226544  1
  Hf  Hf1  1  0.851520  0.945020  0.773456  1
  Hf  Hf2  1  0.859037  0.129435  0.135972  1
  Hf  Hf3  1  0.140963  0.870565  0.864028  1
  Hf  Hf4  1  0.148285  0.243213  0.045741  1
  Hf  Hf5  1  0.851715  0.756787  0.954259  1
  Mn  Mn6  1  0.000000  0.000000  0.000000  1
  Tl  Tl7  1  0.649711  0.537239  0.226440  1
  Tl  Tl8  1  0.350289  0.462761  0.773560  1
  Tl  Tl9  1  0.681820  0.223404  0.561697  1
  Tl  Tl10  1  0.318180  0.776596  0.438303  1
  Br  Br11  1  0.008555  0.409580  0.196876  1
  Br  Br12  1  0.991445  0.590420  0.803124  1
  Br  Br13  1  0.329345  0.331192  0.309375  1
  Br  Br14  1  0.670655  0.668808  0.690625  1
  Br  Br15  1  0.324041  0.521994  0.100166  1
  Br  Br16  1  0.675959  0.478006  0.899834  1
  Br  Br17  1  0.005241  0.796608  0.207828  1
  Br  Br18  1  0.994759  0.203392  0.792172  1
  Br  Br19  1  0.702236  0.276877  0.289684  1
  Br  Br20  1  0.297764  0.723123  0.710316  1
  Br  Br21  1  0.317665  0.127157  0.903877  1
  Br  Br22  1  0.682335  0.872843  0.096123  1
  Br  Br23  1  0.016368  0.203690  0.405907  1
  Br  Br24  1  0.983632  0.796310  0.594093  1
  Br  Br25  1  0.320318  0.922462  0.109107  1
  Br  Br26  1  0.679682  0.077538  0.890893  1
  Br  Br27  1  0.334779  0.121325  0.500036  1
  Br  Br28  1  0.665221  0.878675  0.499964  1
