# generated using pymatgen
data_Ca11Yb(Si2Ni3)4
_symmetry_space_group_name_H-M   'P 1'
_cell_length_a   9.25926014
_cell_length_b   3.93359900
_cell_length_c   18.13824327
_cell_angle_alpha   90.00000000
_cell_angle_beta   90.01970665
_cell_angle_gamma   90.00000000
_symmetry_Int_Tables_number   1
_chemical_formula_structural   Ca11Yb(Si2Ni3)4
_chemical_formula_sum   'Ca11 Yb1 Si8 Ni12'
_cell_volume   660.63498263
_cell_formula_units_Z   1
loop_
 _symmetry_equiv_pos_site_id
 _symmetry_equiv_pos_as_xyz
  1  'x, y, z'
loop_
 _atom_site_type_symbol
 _atom_site_label
 _atom_site_symmetry_multiplicity
 _atom_site_fract_x
 _atom_site_fract_y
 _atom_site_fract_z
 _atom_site_occupancy
  Ca  Ca0  1  0.374356  0.749999  0.683423  1
  Ca  Ca1  1  0.625796  0.249998  0.315550  1
  Ca  Ca2  1  0.874212  0.749999  0.816614  1
  Ca  Ca3  1  0.141146  0.249998  0.932071  1
  Ca  Ca4  1  0.358407  0.749999  0.431976  1
  Ca  Ca5  1  0.641436  0.249998  0.567451  1
  Ca  Ca6  1  0.860044  0.749999  0.067934  1
  Ca  Ca7  1  0.108200  0.249998  0.569258  1
  Ca  Ca8  1  0.390262  0.749999  0.069999  1
  Ca  Ca9  1  0.608055  0.249998  0.930598  1
  Ca  Ca10  1  0.892250  0.749999  0.430035  1
  Yb  Yb11  1  0.125767  0.249998  0.189814  1
  Si  Si12  1  0.626835  0.249998  0.107564  1
  Si  Si13  1  0.873228  0.749999  0.607067  1
  Si  Si14  1  0.126902  0.249998  0.392943  1
  Si  Si15  1  0.373066  0.749999  0.892874  1
  Si  Si16  1  0.122678  0.249998  0.750128  1
  Si  Si17  1  0.377327  0.749999  0.250116  1
  Si  Si18  1  0.622659  0.249998  0.749856  1
  Si  Si19  1  0.877113  0.749999  0.249745  1
  Ni  Ni20  1  0.307974  0.249998  0.308046  1
  Ni  Ni21  1  0.190380  0.749999  0.808958  1
  Ni  Ni22  1  0.812413  0.249998  0.190245  1
  Ni  Ni23  1  0.690537  0.749999  0.690988  1
  Ni  Ni24  1  0.872358  0.249998  0.684223  1
  Ni  Ni25  1  0.627729  0.749999  0.184300  1
  Ni  Ni26  1  0.372664  0.249998  0.815739  1
  Ni  Ni27  1  0.127176  0.749999  0.314102  1
  Ni  Ni28  1  0.441201  0.249998  0.190356  1
  Ni  Ni29  1  0.056199  0.749999  0.690948  1
  Ni  Ni30  1  0.945375  0.249998  0.308030  1
  Ni  Ni31  1  0.556255  0.749999  0.809049  1
