# generated using pymatgen
data_Pr4Nd4Cd2TcPd
_symmetry_space_group_name_H-M   'P 1'
_cell_length_a   10.00885522
_cell_length_b   10.00885589
_cell_length_c   10.11716900
_cell_angle_alpha   59.64135983
_cell_angle_beta   59.64135759
_cell_angle_gamma   59.34706746
_symmetry_Int_Tables_number   1
_chemical_formula_structural   Pr4Nd4Cd2TcPd
_chemical_formula_sum   'Pr8 Nd8 Cd4 Tc2 Pd2'
_cell_volume   709.20454478
_cell_formula_units_Z   2
loop_
 _symmetry_equiv_pos_site_id
 _symmetry_equiv_pos_as_xyz
  1  'x, y, z'
loop_
 _atom_site_type_symbol
 _atom_site_label
 _atom_site_symmetry_multiplicity
 _atom_site_fract_x
 _atom_site_fract_y
 _atom_site_fract_z
 _atom_site_occupancy
  Pr  Pr0  1  0.190482  0.190482  0.809518  1
  Pr  Pr1  1  0.806016  0.806016  0.193984  1
  Pr  Pr2  1  0.937188  0.557021  0.565719  1
  Pr  Pr3  1  0.557021  0.937188  0.940071  1
  Pr  Pr4  1  0.557021  0.937188  0.565719  1
  Pr  Pr5  1  0.937188  0.557021  0.940071  1
  Pr  Pr6  1  0.563051  0.563051  0.936949  1
  Pr  Pr7  1  0.940585  0.940585  0.559415  1
  Nd  Nd8  1  0.347348  0.347348  0.355724  1
  Nd  Nd9  1  0.347348  0.347348  0.949581  1
  Nd  Nd10  1  0.342966  0.957844  0.349596  1
  Nd  Nd11  1  0.957844  0.342966  0.349596  1
  Nd  Nd12  1  0.815180  0.190853  0.190528  1
  Nd  Nd13  1  0.190853  0.815180  0.803439  1
  Nd  Nd14  1  0.190853  0.815180  0.190528  1
  Nd  Nd15  1  0.815180  0.190853  0.803439  1
  Cd  Cd16  1  0.579648  0.579648  0.580139  1
  Cd  Cd17  1  0.579648  0.579648  0.260565  1
  Cd  Cd18  1  0.579578  0.259653  0.580384  1
  Cd  Cd19  1  0.259653  0.579578  0.580384  1
  Tc  Tc20  1  0.141915  0.141915  0.133582  1
  Tc  Tc21  1  0.141915  0.141915  0.582587  1
  Pd  Pd22  1  0.146852  0.574667  0.139240  1
  Pd  Pd23  1  0.574667  0.146852  0.139240  1
