# generated using pymatgen
data_NaLi4Yb(NiN)4
_symmetry_space_group_name_H-M   'P 1'
_cell_length_a   7.03991000
_cell_length_b   7.03991000
_cell_length_c   3.48234800
_cell_angle_alpha   90.00000000
_cell_angle_beta   90.00000000
_cell_angle_gamma   90.00000000
_symmetry_Int_Tables_number   1
_chemical_formula_structural   NaLi4Yb(NiN)4
_chemical_formula_sum   'Na1 Li4 Yb1 Ni4 N4'
_cell_volume   172.58632583
_cell_formula_units_Z   1
loop_
 _symmetry_equiv_pos_site_id
 _symmetry_equiv_pos_as_xyz
  1  'x, y, z'
loop_
 _atom_site_type_symbol
 _atom_site_label
 _atom_site_symmetry_multiplicity
 _atom_site_fract_x
 _atom_site_fract_y
 _atom_site_fract_z
 _atom_site_occupancy
  Na  Na0  1  0.500000  0.500000  0.000000  1
  Li  Li1  1  0.126243  0.610130  0.000000  1
  Li  Li2  1  0.873757  0.389870  0.000000  1
  Li  Li3  1  0.610130  0.873757  0.000000  1
  Li  Li4  1  0.389870  0.126243  0.000000  1
  Yb  Yb5  1  0.000000  0.000000  0.000000  1
  Ni  Ni6  1  0.687040  0.165167  0.500000  1
  Ni  Ni7  1  0.312960  0.834833  0.500000  1
  Ni  Ni8  1  0.165167  0.312960  0.500000  1
  Ni  Ni9  1  0.834833  0.687040  0.500000  1
  N  N10  1  0.685092  0.165829  0.000000  1
  N  N11  1  0.314908  0.834171  0.000000  1
  N  N12  1  0.165829  0.314908  0.000000  1
  N  N13  1  0.834171  0.685092  0.000000  1
