# generated using pymatgen
data_TmZr7(Si4Mo3)4
_symmetry_space_group_name_H-M   'P 1'
_cell_length_a   6.63238929
_cell_length_b   6.79436992
_cell_length_c   12.72881720
_cell_angle_alpha   90.05977672
_cell_angle_beta   90.01611591
_cell_angle_gamma   90.02253965
_symmetry_Int_Tables_number   1
_chemical_formula_structural   TmZr7(Si4Mo3)4
_chemical_formula_sum   'Tm1 Zr7 Si16 Mo12'
_cell_volume   573.59711740
_cell_formula_units_Z   1
loop_
 _symmetry_equiv_pos_site_id
 _symmetry_equiv_pos_as_xyz
  1  'x, y, z'
loop_
 _atom_site_type_symbol
 _atom_site_label
 _atom_site_symmetry_multiplicity
 _atom_site_fract_x
 _atom_site_fract_y
 _atom_site_fract_z
 _atom_site_occupancy
  Tm  Tm0  1  0.996729  0.168216  0.091430  1
  Zr  Zr1  1  0.498246  0.329382  0.093277  1
  Zr  Zr2  1  0.997267  0.171822  0.407006  1
  Zr  Zr3  1  0.503476  0.671519  0.593455  1
  Zr  Zr4  1  0.003767  0.826507  0.904567  1
  Zr  Zr5  1  0.504035  0.671424  0.905721  1
  Zr  Zr6  1  0.003150  0.828821  0.593818  1
  Zr  Zr7  1  0.496339  0.328860  0.407771  1
  Si  Si8  1  0.665667  0.041506  0.543076  1
  Si  Si9  1  0.166603  0.460519  0.955759  1
  Si  Si10  1  0.337669  0.957372  0.042681  1
  Si  Si11  1  0.834514  0.541572  0.457543  1
  Si  Si12  1  0.333883  0.958285  0.457528  1
  Si  Si13  1  0.834072  0.543240  0.042836  1
  Si  Si14  1  0.664258  0.040365  0.955671  1
  Si  Si15  1  0.165416  0.458552  0.543429  1
  Si  Si16  1  0.532081  0.375839  0.749582  1
  Si  Si17  1  0.032132  0.125126  0.750502  1
  Si  Si18  1  0.467242  0.624992  0.250336  1
  Si  Si19  1  0.967280  0.873402  0.251187  1
  Si  Si20  1  0.798212  0.636335  0.749504  1
  Si  Si21  1  0.299307  0.864095  0.749477  1
  Si  Si22  1  0.201421  0.363351  0.250655  1
  Si  Si23  1  0.699137  0.137553  0.250949  1
  Mo  Mo24  1  0.830881  0.334882  0.623724  1
  Mo  Mo25  1  0.332546  0.165196  0.875860  1
  Mo  Mo26  1  0.168758  0.664713  0.123974  1
  Mo  Mo27  1  0.667391  0.834829  0.376934  1
  Mo  Mo28  1  0.169288  0.663788  0.376790  1
  Mo  Mo29  1  0.667093  0.834398  0.124491  1
  Mo  Mo30  1  0.830177  0.336173  0.875499  1
  Mo  Mo31  1  0.331171  0.165056  0.623606  1
  Mo  Mo32  1  0.666312  0.988499  0.749185  1
  Mo  Mo33  1  0.165824  0.512542  0.750125  1
  Mo  Mo34  1  0.334421  0.009784  0.251024  1
  Mo  Mo35  1  0.834236  0.491485  0.251023  1
