# generated using pymatgen
data_TlAg(IO3)4
_symmetry_space_group_name_H-M   'P 1'
_cell_length_a   5.13053800
_cell_length_b   7.34543272
_cell_length_c   15.94652200
_cell_angle_alpha   78.73141190
_cell_angle_beta   90.00000000
_cell_angle_gamma   90.00000000
_symmetry_Int_Tables_number   1
_chemical_formula_structural   TlAg(IO3)4
_chemical_formula_sum   'Tl2 Ag2 I8 O24'
_cell_volume   589.37561012
_cell_formula_units_Z   2
loop_
 _symmetry_equiv_pos_site_id
 _symmetry_equiv_pos_as_xyz
  1  'x, y, z'
loop_
 _atom_site_type_symbol
 _atom_site_label
 _atom_site_symmetry_multiplicity
 _atom_site_fract_x
 _atom_site_fract_y
 _atom_site_fract_z
 _atom_site_occupancy
  Tl  Tl0  1  0.500000  0.000000  0.000000  1
  Tl  Tl1  1  0.000000  0.000000  0.500000  1
  Ag  Ag2  1  0.500000  0.500000  0.000000  1
  Ag  Ag3  1  0.000000  0.500000  0.500000  1
  I  I4  1  0.909237  0.663706  0.166537  1
  I  I5  1  0.409237  0.336294  0.333463  1
  I  I6  1  0.090763  0.336294  0.833463  1
  I  I7  1  0.590763  0.663706  0.666537  1
  I  I8  1  0.988732  0.182847  0.141487  1
  I  I9  1  0.488732  0.817153  0.358513  1
  I  I10  1  0.011268  0.817153  0.858513  1
  I  I11  1  0.511268  0.182847  0.641487  1
  O  O12  1  0.680608  0.733165  0.074088  1
  O  O13  1  0.180608  0.266835  0.425912  1
  O  O14  1  0.319392  0.266835  0.925912  1
  O  O15  1  0.819392  0.733165  0.574088  1
  O  O16  1  0.794617  0.827220  0.232294  1
  O  O17  1  0.294617  0.172780  0.267706  1
  O  O18  1  0.205383  0.172780  0.767706  1
  O  O19  1  0.705383  0.827220  0.732294  1
  O  O20  1  0.733986  0.447912  0.210802  1
  O  O21  1  0.233986  0.552088  0.289198  1
  O  O22  1  0.266014  0.552088  0.789198  1
  O  O23  1  0.766014  0.447912  0.710802  1
  O  O24  1  0.743706  0.206571  0.052232  1
  O  O25  1  0.243706  0.793429  0.447768  1
  O  O26  1  0.256294  0.793429  0.947768  1
  O  O27  1  0.756294  0.206571  0.552232  1
  O  O28  1  0.199487  0.002094  0.109264  1
  O  O29  1  0.699487  0.997906  0.390736  1
  O  O30  1  0.800513  0.997906  0.890736  1
  O  O31  1  0.300513  0.002094  0.609264  1
  O  O32  1  0.156676  0.397555  0.095832  1
  O  O33  1  0.656676  0.602445  0.404168  1
  O  O34  1  0.843324  0.602445  0.904168  1
  O  O35  1  0.343324  0.397555  0.595832  1
