# generated using pymatgen
data_Hf3Ga5Ru
_symmetry_space_group_name_H-M   'P 1'
_cell_length_a   6.64514700
_cell_length_b   6.64514629
_cell_length_c   4.08875500
_cell_angle_alpha   90.00000000
_cell_angle_beta   90.00000000
_cell_angle_gamma   120.00000854
_symmetry_Int_Tables_number   1
_chemical_formula_structural   Hf3Ga5Ru
_chemical_formula_sum   'Hf3 Ga5 Ru1'
_cell_volume   156.36185752
_cell_formula_units_Z   1
loop_
 _symmetry_equiv_pos_site_id
 _symmetry_equiv_pos_as_xyz
  1  'x, y, z'
loop_
 _atom_site_type_symbol
 _atom_site_label
 _atom_site_symmetry_multiplicity
 _atom_site_fract_x
 _atom_site_fract_y
 _atom_site_fract_z
 _atom_site_occupancy
  Hf  Hf0  1  0.586465  0.000000  0.000000  1
  Hf  Hf1  1  0.000000  0.586465  0.000000  1
  Hf  Hf2  1  0.413535  0.413535  0.000000  1
  Ga  Ga3  1  0.243990  0.000000  0.500000  1
  Ga  Ga4  1  0.000000  0.243990  0.500000  1
  Ga  Ga5  1  0.756010  0.756010  0.500000  1
  Ga  Ga6  1  0.333333  0.666667  0.500000  1
  Ga  Ga7  1  0.666667  0.333333  0.500000  1
  Ru  Ru8  1  0.000000  0.000000  0.000000  1
