# generated using pymatgen
data_Rb3Ac(VSe4)2
_symmetry_space_group_name_H-M   'P 1'
_cell_length_a   10.42328158
_cell_length_b   7.29549800
_cell_length_c   12.26313700
_cell_angle_alpha   90.00000000
_cell_angle_beta   90.63966603
_cell_angle_gamma   90.00000000
_symmetry_Int_Tables_number   1
_chemical_formula_structural   Rb3Ac(VSe4)2
_chemical_formula_sum   'Rb6 Ac2 V4 Se16'
_cell_volume   932.46797868
_cell_formula_units_Z   2
loop_
 _symmetry_equiv_pos_site_id
 _symmetry_equiv_pos_as_xyz
  1  'x, y, z'
loop_
 _atom_site_type_symbol
 _atom_site_label
 _atom_site_symmetry_multiplicity
 _atom_site_fract_x
 _atom_site_fract_y
 _atom_site_fract_z
 _atom_site_occupancy
  Rb  Rb0  1  0.365469  0.802061  0.088607  1
  Rb  Rb1  1  0.400510  0.304766  0.349011  1
  Rb  Rb2  1  0.838421  0.308391  0.426847  1
  Rb  Rb3  1  0.161579  0.808391  0.573154  1
  Rb  Rb4  1  0.599490  0.804766  0.650989  1
  Rb  Rb5  1  0.634532  0.302061  0.911393  1
  Ac  Ac6  1  0.888748  0.790174  0.152077  1
  Ac  Ac7  1  0.111252  0.290174  0.847923  1
  V  V8  1  0.096026  0.333306  0.163987  1
  V  V9  1  0.624259  0.807634  0.315299  1
  V  V10  1  0.375741  0.307633  0.684701  1
  V  V11  1  0.903974  0.833306  0.836013  1
  Se  Se12  1  0.927228  0.386403  0.045887  1
  Se  Se13  1  0.280988  0.306456  0.065362  1
  Se  Se14  1  0.648193  0.054598  0.199938  1
  Se  Se15  1  0.636979  0.552066  0.204437  1
  Se  Se16  1  0.070334  0.078135  0.269883  1
  Se  Se17  1  0.110483  0.578673  0.278422  1
  Se  Se18  1  0.434752  0.816914  0.402211  1
  Se  Se19  1  0.807632  0.802700  0.421447  1
  Se  Se20  1  0.192369  0.302699  0.578553  1
  Se  Se21  1  0.565247  0.316913  0.597789  1
  Se  Se22  1  0.889517  0.078672  0.721578  1
  Se  Se23  1  0.929666  0.578135  0.730117  1
  Se  Se24  1  0.363021  0.052067  0.795563  1
  Se  Se25  1  0.351807  0.554596  0.800062  1
  Se  Se26  1  0.719011  0.806457  0.934638  1
  Se  Se27  1  0.072772  0.886403  0.954112  1
