# generated using pymatgen
data_Hf6V7Co16
_symmetry_space_group_name_H-M   'P 1'
_cell_length_a   8.19093002
_cell_length_b   8.19188096
_cell_length_c   8.19193400
_cell_angle_alpha   120.00083356
_cell_angle_beta   90.00055953
_cell_angle_gamma   120.00221961
_symmetry_Int_Tables_number   1
_chemical_formula_structural   Hf6V7Co16
_chemical_formula_sum   'Hf6 V7 Co16'
_cell_volume   388.65667463
_cell_formula_units_Z   1
loop_
 _symmetry_equiv_pos_site_id
 _symmetry_equiv_pos_as_xyz
  1  'x, y, z'
loop_
 _atom_site_type_symbol
 _atom_site_label
 _atom_site_symmetry_multiplicity
 _atom_site_fract_x
 _atom_site_fract_y
 _atom_site_fract_z
 _atom_site_occupancy
  Hf  Hf0  1  0.204812  0.999980  0.204866  1
  Hf  Hf1  1  0.204827  0.409696  0.204835  1
  Hf  Hf2  1  0.795201  0.000025  0.204881  1
  Hf  Hf3  1  0.204840  0.000017  0.795131  1
  Hf  Hf4  1  0.795199  0.000047  0.795147  1
  Hf  Hf5  1  0.795170  0.590298  0.795168  1
  V  V6  1  0.500017  0.000071  0.999964  1
  V  V7  1  0.999963  0.499985  0.000002  1
  V  V8  1  0.499988  0.499862  0.999890  1
  V  V9  1  0.000117  0.999994  0.500009  1
  V  V10  1  0.499890  0.000083  0.500116  1
  V  V11  1  0.000029  0.500065  0.499996  1
  V  V12  1  0.500005  0.499912  0.499977  1
  Co  Co13  1  0.379373  0.758749  0.138173  1
  Co  Co14  1  0.512680  0.341829  0.170914  1
  Co  Co15  1  0.829154  0.341789  0.170889  1
  Co  Co16  1  0.829126  0.658262  0.170923  1
  Co  Co17  1  0.620594  0.241203  0.379433  1
  Co  Co18  1  0.138249  0.758854  0.379436  1
  Co  Co19  1  0.620607  0.758818  0.379418  1
  Co  Co20  1  0.829119  0.658259  0.487328  1
  Co  Co21  1  0.170875  0.341807  0.512780  1
  Co  Co22  1  0.379385  0.241163  0.620594  1
  Co  Co23  1  0.861815  0.241185  0.620604  1
  Co  Co24  1  0.379397  0.758791  0.620579  1
  Co  Co25  1  0.170877  0.341816  0.829048  1
  Co  Co26  1  0.170864  0.658110  0.829069  1
  Co  Co27  1  0.487249  0.658151  0.829087  1
  Co  Co28  1  0.620580  0.241174  0.861746  1
