# generated using pymatgen
data_Y3Al12Ru3Au
_symmetry_space_group_name_H-M   'P 1'
_cell_length_a   8.89824719
_cell_length_b   8.83085842
_cell_length_c   9.58929959
_cell_angle_alpha   90.00000227
_cell_angle_beta   90.19899212
_cell_angle_gamma   119.74979563
_symmetry_Int_Tables_number   1
_chemical_formula_structural   Y3Al12Ru3Au
_chemical_formula_sum   'Y6 Al24 Ru6 Au2'
_cell_volume   654.20050299
_cell_formula_units_Z   2
loop_
 _symmetry_equiv_pos_site_id
 _symmetry_equiv_pos_as_xyz
  1  'x, y, z'
loop_
 _atom_site_type_symbol
 _atom_site_label
 _atom_site_symmetry_multiplicity
 _atom_site_fract_x
 _atom_site_fract_y
 _atom_site_fract_z
 _atom_site_occupancy
  Y  Y0  1  0.191357  0.805508  0.246661  1
  Y  Y1  1  0.191357  0.385849  0.246661  1
  Y  Y2  1  0.615896  0.807948  0.251759  1
  Y  Y3  1  0.808643  0.194492  0.753339  1
  Y  Y4  1  0.808643  0.614151  0.753339  1
  Y  Y5  1  0.384104  0.192052  0.748241  1
  Al  Al6  1  0.564123  0.436673  0.242959  1
  Al  Al7  1  0.564123  0.127449  0.242959  1
  Al  Al8  1  0.879008  0.439504  0.250424  1
  Al  Al9  1  0.435877  0.563327  0.757041  1
  Al  Al10  1  0.435877  0.872551  0.757041  1
  Al  Al11  1  0.120992  0.560496  0.749576  1
  Al  Al12  1  0.318420  0.159210  0.415987  1
  Al  Al13  1  0.847904  0.171452  0.419261  1
  Al  Al14  1  0.847904  0.676451  0.419261  1
  Al  Al15  1  0.681580  0.840790  0.584013  1
  Al  Al16  1  0.152096  0.828548  0.580739  1
  Al  Al17  1  0.152096  0.323549  0.580739  1
  Al  Al18  1  0.673666  0.836834  0.927998  1
  Al  Al19  1  0.163857  0.836401  0.924456  1
  Al  Al20  1  0.163857  0.327456  0.924456  1
  Al  Al21  1  0.326334  0.163166  0.072002  1
  Al  Al22  1  0.836143  0.163599  0.075544  1
  Al  Al23  1  0.836143  0.672544  0.075544  1
  Al  Al24  1  0.678842  0.339420  0.529245  1
  Al  Al25  1  0.321158  0.660580  0.470755  1
  Al  Al26  1  0.333381  0.666691  0.025655  1
  Al  Al27  1  0.666619  0.333309  0.974345  1
  Al  Al28  1  0.996950  0.998475  0.249139  1
  Al  Al29  1  0.003050  0.001525  0.750861  1
  Ru  Ru30  1  0.000000  0.000000  0.500000  1
  Ru  Ru31  1  0.000000  0.000000  0.000000  1
  Ru  Ru32  1  0.000000  0.500000  0.500000  1
  Ru  Ru33  1  0.500000  0.500000  0.000000  1
  Ru  Ru34  1  0.500000  0.000000  0.000000  1
  Ru  Ru35  1  0.000000  0.500000  0.000000  1
  Au  Au36  1  0.500000  0.500000  0.500000  1
  Au  Au37  1  0.500000  0.000000  0.500000  1
