# generated using pymatgen
data_DyHo7ZnIn3
_symmetry_space_group_name_H-M   'P 1'
_cell_length_a   10.62958302
_cell_length_b   10.62958236
_cell_length_c   6.75099900
_cell_angle_alpha   89.99736997
_cell_angle_beta   90.00263310
_cell_angle_gamma   120.00359373
_symmetry_Int_Tables_number   1
_chemical_formula_structural   DyHo7ZnIn3
_chemical_formula_sum   'Dy2 Ho14 Zn2 In6'
_cell_volume   660.56472243
_cell_formula_units_Z   2
loop_
 _symmetry_equiv_pos_site_id
 _symmetry_equiv_pos_as_xyz
  1  'x, y, z'
loop_
 _atom_site_type_symbol
 _atom_site_label
 _atom_site_symmetry_multiplicity
 _atom_site_fract_x
 _atom_site_fract_y
 _atom_site_fract_z
 _atom_site_occupancy
  Dy  Dy0  1  0.521632  0.042907  0.509608  1
  Dy  Dy1  1  0.957093  0.478368  0.509608  1
  Ho  Ho2  1  0.521643  0.478357  0.509914  1
  Ho  Ho3  1  0.478497  0.957085  0.009761  1
  Ho  Ho4  1  0.042915  0.521503  0.009761  1
  Ho  Ho5  1  0.478584  0.521416  0.009951  1
  Ho  Ho6  1  0.173041  0.345687  0.725873  1
  Ho  Ho7  1  0.654313  0.826959  0.725873  1
  Ho  Ho8  1  0.172702  0.827298  0.725869  1
  Ho  Ho9  1  0.827360  0.654881  0.225453  1
  Ho  Ho10  1  0.345119  0.172640  0.225453  1
  Ho  Ho11  1  0.827336  0.172664  0.225019  1
  Ho  Ho12  1  0.666558  0.333442  0.860566  1
  Ho  Ho13  1  0.333543  0.666457  0.359702  1
  Ho  Ho14  1  0.000003  0.999997  0.490342  1
  Ho  Ho15  1  0.999985  0.000015  0.989987  1
  Zn  Zn16  1  0.666383  0.333617  0.291651  1
  Zn  Zn17  1  0.333244  0.666756  0.792144  1
  In  In18  1  0.835520  0.671619  0.743536  1
  In  In19  1  0.328381  0.164480  0.743536  1
  In  In20  1  0.836035  0.163965  0.743984  1
  In  In21  1  0.164261  0.328571  0.243499  1
  In  In22  1  0.671429  0.835739  0.243499  1
  In  In23  1  0.164423  0.835577  0.243451  1
