# generated using pymatgen
data_Ho13Er3In4Pd3Rh
_symmetry_space_group_name_H-M   'P 1'
_cell_length_a   9.66535393
_cell_length_b   9.67367020
_cell_length_c   9.66643574
_cell_angle_alpha   59.86740734
_cell_angle_beta   59.77793138
_cell_angle_gamma   59.84509457
_symmetry_Int_Tables_number   1
_chemical_formula_structural   Ho13Er3In4Pd3Rh
_chemical_formula_sum   'Ho13 Er3 In4 Pd3 Rh1'
_cell_volume   636.62300547
_cell_formula_units_Z   1
loop_
 _symmetry_equiv_pos_site_id
 _symmetry_equiv_pos_as_xyz
  1  'x, y, z'
loop_
 _atom_site_type_symbol
 _atom_site_label
 _atom_site_symmetry_multiplicity
 _atom_site_fract_x
 _atom_site_fract_y
 _atom_site_fract_z
 _atom_site_occupancy
  Ho  Ho0  1  0.190018  0.189882  0.809839  1
  Ho  Ho1  1  0.439722  0.062854  0.062718  1
  Ho  Ho2  1  0.436159  0.065270  0.435974  1
  Ho  Ho3  1  0.062633  0.440010  0.062400  1
  Ho  Ho4  1  0.649872  0.055958  0.649675  1
  Ho  Ho5  1  0.184263  0.810939  0.811361  1
  Ho  Ho6  1  0.062676  0.062509  0.439888  1
  Ho  Ho7  1  0.809673  0.189949  0.189996  1
  Ho  Ho8  1  0.811268  0.811069  0.184247  1
  Ho  Ho9  1  0.650174  0.649718  0.055651  1
  Ho  Ho10  1  0.647327  0.647292  0.647433  1
  Ho  Ho11  1  0.065370  0.436037  0.435907  1
  Ho  Ho12  1  0.055509  0.650074  0.650292  1
  Er  Er13  1  0.810858  0.184671  0.811053  1
  Er  Er14  1  0.436249  0.436183  0.065022  1
  Er  Er15  1  0.190224  0.809451  0.190069  1
  In  In16  1  0.416485  0.749551  0.416551  1
  In  In17  1  0.416583  0.416644  0.749695  1
  In  In18  1  0.749425  0.416658  0.416642  1
  In  In19  1  0.415984  0.416149  0.415849  1
  Pd  Pd20  1  0.855543  0.430677  0.855817  1
  Pd  Pd21  1  0.856451  0.855773  0.430843  1
  Pd  Pd22  1  0.430961  0.855587  0.856557  1
  Rh  Rh23  1  0.856577  0.857098  0.856523  1
