# generated using pymatgen
data_Tb7Ho9MgCd3Ir4
_symmetry_space_group_name_H-M   'P 1'
_cell_length_a   9.66636800
_cell_length_b   9.66503157
_cell_length_c   9.67723536
_cell_angle_alpha   59.73811887
_cell_angle_beta   59.75468138
_cell_angle_gamma   59.72675728
_symmetry_Int_Tables_number   1
_chemical_formula_structural   Tb7Ho9MgCd3Ir4
_chemical_formula_sum   'Tb7 Ho9 Mg1 Cd3 Ir4'
_cell_volume   635.52045579
_cell_formula_units_Z   1
loop_
 _symmetry_equiv_pos_site_id
 _symmetry_equiv_pos_as_xyz
  1  'x, y, z'
loop_
 _atom_site_type_symbol
 _atom_site_label
 _atom_site_symmetry_multiplicity
 _atom_site_fract_x
 _atom_site_fract_y
 _atom_site_fract_z
 _atom_site_occupancy
  Tb  Tb0  1  0.062160  0.062228  0.436271  1
  Tb  Tb1  1  0.189494  0.812018  0.812661  1
  Tb  Tb2  1  0.811233  0.188658  0.188193  1
  Tb  Tb3  1  0.812049  0.189495  0.812696  1
  Tb  Tb4  1  0.188675  0.811251  0.188200  1
  Tb  Tb5  1  0.811948  0.811949  0.189446  1
  Tb  Tb6  1  0.188208  0.188188  0.811737  1
  Ho  Ho7  1  0.598766  0.598755  0.599037  1
  Ho  Ho8  1  0.598410  0.598352  0.206048  1
  Ho  Ho9  1  0.597331  0.207037  0.598460  1
  Ho  Ho10  1  0.207003  0.597332  0.598497  1
  Ho  Ho11  1  0.060023  0.439488  0.438954  1
  Ho  Ho12  1  0.436705  0.062351  0.061663  1
  Ho  Ho13  1  0.439482  0.060022  0.438960  1
  Ho  Ho14  1  0.062333  0.436693  0.061682  1
  Ho  Ho15  1  0.438887  0.438895  0.060240  1
  Mg  Mg16  1  0.825825  0.825786  0.826476  1
  Cd  Cd17  1  0.830962  0.830967  0.506759  1
  Cd  Cd18  1  0.830997  0.506967  0.830925  1
  Cd  Cd19  1  0.506944  0.831013  0.830937  1
  Ir  Ir20  1  0.391791  0.391765  0.392056  1
  Ir  Ir21  1  0.392504  0.392533  0.825251  1
  Ir  Ir22  1  0.393911  0.824361  0.392429  1
  Ir  Ir23  1  0.824363  0.393899  0.392422  1
