# generated using pymatgen
data_DyTm2Sc(Co4P3)2
_symmetry_space_group_name_H-M   'P 1'
_cell_length_a   3.71053100
_cell_length_b   10.62946000
_cell_length_c   12.31337400
_cell_angle_alpha   90.00000000
_cell_angle_beta   90.00000000
_cell_angle_gamma   90.00000000
_symmetry_Int_Tables_number   1
_chemical_formula_structural   DyTm2Sc(Co4P3)2
_chemical_formula_sum   'Dy2 Tm4 Sc2 Co16 P12'
_cell_volume   485.65105551
_cell_formula_units_Z   2
loop_
 _symmetry_equiv_pos_site_id
 _symmetry_equiv_pos_as_xyz
  1  'x, y, z'
loop_
 _atom_site_type_symbol
 _atom_site_label
 _atom_site_symmetry_multiplicity
 _atom_site_fract_x
 _atom_site_fract_y
 _atom_site_fract_z
 _atom_site_occupancy
  Dy  Dy0  1  0.000000  0.500000  0.528409  1
  Dy  Dy1  1  0.500000  0.000000  0.471591  1
  Tm  Tm2  1  0.500000  0.822825  0.205493  1
  Tm  Tm3  1  0.500000  0.177175  0.205493  1
  Tm  Tm4  1  0.000000  0.677175  0.794507  1
  Tm  Tm5  1  0.000000  0.322825  0.794507  1
  Sc  Sc6  1  0.500000  0.500000  0.157514  1
  Sc  Sc7  1  0.000000  0.000000  0.842486  1
  Co  Co8  1  0.500000  0.500000  0.706295  1
  Co  Co9  1  0.000000  0.000000  0.293705  1
  Co  Co10  1  0.000000  0.500000  0.987560  1
  Co  Co11  1  0.500000  0.000000  0.012440  1
  Co  Co12  1  0.500000  0.331044  0.994661  1
  Co  Co13  1  0.500000  0.668956  0.994661  1
  Co  Co14  1  0.000000  0.168956  0.005339  1
  Co  Co15  1  0.000000  0.831044  0.005339  1
  Co  Co16  1  0.500000  0.295258  0.432748  1
  Co  Co17  1  0.500000  0.704742  0.432748  1
  Co  Co18  1  0.000000  0.204742  0.567252  1
  Co  Co19  1  0.000000  0.795258  0.567252  1
  Co  Co20  1  0.500000  0.877262  0.703165  1
  Co  Co21  1  0.500000  0.122738  0.703165  1
  Co  Co22  1  0.000000  0.622738  0.296835  1
  Co  Co23  1  0.000000  0.377262  0.296835  1
  P  P24  1  0.500000  0.500000  0.885325  1
  P  P25  1  0.000000  0.000000  0.114675  1
  P  P26  1  0.500000  0.500000  0.360541  1
  P  P27  1  0.000000  0.000000  0.639459  1
  P  P28  1  0.500000  0.310037  0.616462  1
  P  P29  1  0.500000  0.689963  0.616462  1
  P  P30  1  0.000000  0.189963  0.383538  1
  P  P31  1  0.000000  0.810037  0.383538  1
  P  P32  1  0.500000  0.838675  0.891704  1
  P  P33  1  0.500000  0.161325  0.891704  1
  P  P34  1  0.000000  0.661325  0.108296  1
  P  P35  1  0.000000  0.338675  0.108296  1
