# generated using pymatgen
data_Th10OsPb6S
_symmetry_space_group_name_H-M   'P 1'
_cell_length_a   9.61858700
_cell_length_b   9.61858752
_cell_length_c   6.65978100
_cell_angle_alpha   90.00000000
_cell_angle_beta   90.00000000
_cell_angle_gamma   120.00000166
_symmetry_Int_Tables_number   1
_chemical_formula_structural   Th10OsPb6S
_chemical_formula_sum   'Th10 Os1 Pb6 S1'
_cell_volume   533.59671957
_cell_formula_units_Z   1
loop_
 _symmetry_equiv_pos_site_id
 _symmetry_equiv_pos_as_xyz
  1  'x, y, z'
loop_
 _atom_site_type_symbol
 _atom_site_label
 _atom_site_symmetry_multiplicity
 _atom_site_fract_x
 _atom_site_fract_y
 _atom_site_fract_z
 _atom_site_occupancy
  Th  Th0  1  0.755101  0.755101  0.756771  1
  Th  Th1  1  0.244899  0.000000  0.756771  1
  Th  Th2  1  0.000000  0.244899  0.756771  1
  Th  Th3  1  0.244899  0.244899  0.243229  1
  Th  Th4  1  0.755101  0.000000  0.243229  1
  Th  Th5  1  0.000000  0.755101  0.243229  1
  Th  Th6  1  0.666667  0.333333  0.000000  1
  Th  Th7  1  0.333333  0.666667  0.000000  1
  Th  Th8  1  0.333333  0.666667  0.500000  1
  Th  Th9  1  0.666667  0.333333  0.500000  1
  Os  Os10  1  0.000000  0.000000  0.000000  1
  Pb  Pb11  1  0.394445  0.394445  0.749273  1
  Pb  Pb12  1  0.605555  0.000000  0.749273  1
  Pb  Pb13  1  0.000000  0.605555  0.749273  1
  Pb  Pb14  1  0.605555  0.605555  0.250727  1
  Pb  Pb15  1  0.394445  0.000000  0.250727  1
  Pb  Pb16  1  0.000000  0.394445  0.250727  1
  S  S17  1  0.000000  0.000000  0.500000  1
