# generated using pymatgen
data_Er3Lu9Rh4
_symmetry_space_group_name_H-M   'P 1'
_cell_length_a   7.09047007
_cell_length_b   9.12768300
_cell_length_c   6.24594806
_cell_angle_alpha   90.00000000
_cell_angle_beta   89.98389271
_cell_angle_gamma   90.00000000
_symmetry_Int_Tables_number   1
_chemical_formula_structural   Er3Lu9Rh4
_chemical_formula_sum   'Er3 Lu9 Rh4'
_cell_volume   404.23501385
_cell_formula_units_Z   1
loop_
 _symmetry_equiv_pos_site_id
 _symmetry_equiv_pos_as_xyz
  1  'x, y, z'
loop_
 _atom_site_type_symbol
 _atom_site_label
 _atom_site_symmetry_multiplicity
 _atom_site_fract_x
 _atom_site_fract_y
 _atom_site_fract_z
 _atom_site_occupancy
  Er  Er0  1  0.533539  0.750000  0.127401  1
  Er  Er1  1  0.033509  0.750000  0.372777  1
  Er  Er2  1  0.966308  0.250000  0.627700  1
  Lu  Lu3  1  0.820748  0.062535  0.172046  1
  Lu  Lu4  1  0.820748  0.437465  0.172046  1
  Lu  Lu5  1  0.321130  0.062621  0.326977  1
  Lu  Lu6  1  0.321130  0.437379  0.326977  1
  Lu  Lu7  1  0.678851  0.561958  0.672714  1
  Lu  Lu8  1  0.678851  0.938043  0.672714  1
  Lu  Lu9  1  0.179465  0.562099  0.827954  1
  Lu  Lu10  1  0.179465  0.937902  0.827954  1
  Lu  Lu11  1  0.465955  0.250000  0.872102  1
  Rh  Rh12  1  0.114666  0.250000  0.048279  1
  Rh  Rh13  1  0.613636  0.250000  0.452217  1
  Rh  Rh14  1  0.386010  0.750000  0.548788  1
  Rh  Rh15  1  0.885992  0.750000  0.951344  1
