# generated using pymatgen
data_YV9S16
_symmetry_space_group_name_H-M   'P 1'
_cell_length_a   6.38122100
_cell_length_b   6.38122205
_cell_length_c   12.52173500
_cell_angle_alpha   90.00000000
_cell_angle_beta   90.00000000
_cell_angle_gamma   119.99998935
_symmetry_Int_Tables_number   1
_chemical_formula_structural   YV9S16
_chemical_formula_sum   'Y1 V9 S16'
_cell_volume   441.57332487
_cell_formula_units_Z   1
loop_
 _symmetry_equiv_pos_site_id
 _symmetry_equiv_pos_as_xyz
  1  'x, y, z'
loop_
 _atom_site_type_symbol
 _atom_site_label
 _atom_site_symmetry_multiplicity
 _atom_site_fract_x
 _atom_site_fract_y
 _atom_site_fract_z
 _atom_site_occupancy
  Y  Y0  1  0.000000  0.000000  0.500000  1
  V  V1  1  0.000000  0.000000  0.235083  1
  V  V2  1  0.000000  0.000000  0.764917  1
  V  V3  1  0.506415  0.493585  0.232360  1
  V  V4  1  0.506415  0.012831  0.232360  1
  V  V5  1  0.987169  0.493585  0.232360  1
  V  V6  1  0.493585  0.506415  0.767640  1
  V  V7  1  0.493585  0.987169  0.767640  1
  V  V8  1  0.012831  0.506415  0.767640  1
  V  V9  1  0.000000  0.000000  0.000000  1
  S  S10  1  0.333333  0.666667  0.886991  1
  S  S11  1  0.666667  0.333333  0.113009  1
  S  S12  1  0.666667  0.333333  0.353972  1
  S  S13  1  0.333333  0.666667  0.646028  1
  S  S14  1  0.171137  0.828863  0.349795  1
  S  S15  1  0.171137  0.342274  0.349795  1
  S  S16  1  0.657726  0.828863  0.349795  1
  S  S17  1  0.828863  0.171137  0.650205  1
  S  S18  1  0.828863  0.657726  0.650205  1
  S  S19  1  0.342274  0.171137  0.650205  1
  S  S20  1  0.833135  0.166865  0.881539  1
  S  S21  1  0.833135  0.666269  0.881539  1
  S  S22  1  0.333731  0.166865  0.881539  1
  S  S23  1  0.166865  0.833135  0.118461  1
  S  S24  1  0.166865  0.333731  0.118461  1
  S  S25  1  0.666269  0.833135  0.118461  1
