# generated using pymatgen
data_Tm6Ga(P3Rh5)4
_symmetry_space_group_name_H-M   'P 1'
_cell_length_a   13.39887300
_cell_length_b   13.39887240
_cell_length_c   3.88940500
_cell_angle_alpha   90.00000000
_cell_angle_beta   90.00000000
_cell_angle_gamma   119.99999900
_symmetry_Int_Tables_number   1
_chemical_formula_structural   Tm6Ga(P3Rh5)4
_chemical_formula_sum   'Tm6 Ga1 P12 Rh20'
_cell_volume   604.71442199
_cell_formula_units_Z   1
loop_
 _symmetry_equiv_pos_site_id
 _symmetry_equiv_pos_as_xyz
  1  'x, y, z'
loop_
 _atom_site_type_symbol
 _atom_site_label
 _atom_site_symmetry_multiplicity
 _atom_site_fract_x
 _atom_site_fract_y
 _atom_site_fract_z
 _atom_site_occupancy
  Tm  Tm0  1  0.529608  0.717071  0.249886  1
  Tm  Tm1  1  0.282929  0.812538  0.249886  1
  Tm  Tm2  1  0.187462  0.470392  0.249886  1
  Tm  Tm3  1  0.470392  0.282929  0.750114  1
  Tm  Tm4  1  0.717071  0.187462  0.750114  1
  Tm  Tm5  1  0.812538  0.529608  0.750114  1
  Ga  Ga6  1  0.000000  0.000000  0.000000  1
  P  P7  1  0.528163  0.139538  0.250221  1
  P  P8  1  0.860462  0.388626  0.250221  1
  P  P9  1  0.611374  0.471837  0.250221  1
  P  P10  1  0.947255  0.716972  0.248674  1
  P  P11  1  0.283028  0.230284  0.248674  1
  P  P12  1  0.769716  0.052745  0.248674  1
  P  P13  1  0.388626  0.528163  0.749779  1
  P  P14  1  0.471837  0.860462  0.749779  1
  P  P15  1  0.139538  0.611374  0.749779  1
  P  P16  1  0.716972  0.769716  0.751326  1
  P  P17  1  0.230284  0.947255  0.751326  1
  P  P18  1  0.052745  0.283028  0.751326  1
  Rh  Rh19  1  0.333333  0.666667  0.752413  1
  Rh  Rh20  1  0.917993  0.251830  0.248144  1
  Rh  Rh21  1  0.748170  0.666164  0.248144  1
  Rh  Rh22  1  0.333836  0.082007  0.248144  1
  Rh  Rh23  1  0.439584  0.023320  0.749835  1
  Rh  Rh24  1  0.976680  0.416264  0.749835  1
  Rh  Rh25  1  0.583736  0.560416  0.749835  1
  Rh  Rh26  1  0.666667  0.333333  0.247587  1
  Rh  Rh27  1  0.095969  0.201201  0.254928  1
  Rh  Rh28  1  0.798799  0.894767  0.254928  1
  Rh  Rh29  1  0.105233  0.904031  0.254928  1
  Rh  Rh30  1  0.023320  0.583736  0.250165  1
  Rh  Rh31  1  0.416264  0.439584  0.250165  1
  Rh  Rh32  1  0.560416  0.976680  0.250165  1
  Rh  Rh33  1  0.666164  0.917993  0.751856  1
  Rh  Rh34  1  0.082007  0.748170  0.751856  1
  Rh  Rh35  1  0.251830  0.333836  0.751856  1
  Rh  Rh36  1  0.904031  0.798799  0.745072  1
  Rh  Rh37  1  0.201201  0.105233  0.745072  1
  Rh  Rh38  1  0.894767  0.095969  0.745072  1
