# generated using pymatgen
data_Y3Tm9(TcOs)2
_symmetry_space_group_name_H-M   'P 1'
_cell_length_a   6.22404616
_cell_length_b   7.41592600
_cell_length_c   8.95821700
_cell_angle_alpha   90.00000000
_cell_angle_beta   90.00000000
_cell_angle_gamma   90.15935067
_symmetry_Int_Tables_number   1
_chemical_formula_structural   Y3Tm9(TcOs)2
_chemical_formula_sum   'Y3 Tm9 Tc2 Os2'
_cell_volume   413.48341202
_cell_formula_units_Z   1
loop_
 _symmetry_equiv_pos_site_id
 _symmetry_equiv_pos_as_xyz
  1  'x, y, z'
loop_
 _atom_site_type_symbol
 _atom_site_label
 _atom_site_symmetry_multiplicity
 _atom_site_fract_x
 _atom_site_fract_y
 _atom_site_fract_z
 _atom_site_occupancy
  Y  Y0  1  0.878980  0.538301  0.250000  1
  Y  Y1  1  0.620045  0.037117  0.250000  1
  Y  Y2  1  0.373157  0.961374  0.750000  1
  Tm  Tm3  1  0.339715  0.672826  0.060856  1
  Tm  Tm4  1  0.158508  0.176360  0.438726  1
  Tm  Tm5  1  0.662396  0.326333  0.563104  1
  Tm  Tm6  1  0.840432  0.824117  0.936461  1
  Tm  Tm7  1  0.662396  0.326333  0.936896  1
  Tm  Tm8  1  0.840432  0.824117  0.563539  1
  Tm  Tm9  1  0.339715  0.672826  0.439144  1
  Tm  Tm10  1  0.158508  0.176360  0.061274  1
  Tm  Tm11  1  0.128720  0.458898  0.750000  1
  Tc  Tc12  1  0.047154  0.883823  0.250000  1
  Tc  Tc13  1  0.453246  0.383659  0.250000  1
  Os  Os14  1  0.955016  0.120004  0.750000  1
  Os  Os15  1  0.541578  0.617549  0.750000  1
