# generated using pymatgen
data_SmYPa2(Al3Rh)6
_symmetry_space_group_name_H-M   'P 1'
_cell_length_a   7.61552807
_cell_length_b   7.61432346
_cell_length_c   9.41546100
_cell_angle_alpha   90.00000000
_cell_angle_beta   90.00000000
_cell_angle_gamma   119.61029316
_symmetry_Int_Tables_number   1
_chemical_formula_structural   SmYPa2(Al3Rh)6
_chemical_formula_sum   'Sm1 Y1 Pa2 Al18 Rh6'
_cell_volume   474.67423209
_cell_formula_units_Z   1
loop_
 _symmetry_equiv_pos_site_id
 _symmetry_equiv_pos_as_xyz
  1  'x, y, z'
loop_
 _atom_site_type_symbol
 _atom_site_label
 _atom_site_symmetry_multiplicity
 _atom_site_fract_x
 _atom_site_fract_y
 _atom_site_fract_z
 _atom_site_occupancy
  Sm  Sm0  1  0.669837  0.993709  0.250000  1
  Y  Y1  1  0.329944  0.006306  0.750000  1
  Pa  Pa2  1  0.997111  0.670933  0.250000  1
  Pa  Pa3  1  0.002899  0.328963  0.750000  1
  Al  Al4  1  0.130534  0.126817  0.250000  1
  Al  Al5  1  0.870504  0.873778  0.750000  1
  Al  Al6  1  0.001341  0.333232  0.076192  1
  Al  Al7  1  0.999588  0.667519  0.923032  1
  Al  Al8  1  0.999588  0.667519  0.576968  1
  Al  Al9  1  0.336642  0.002583  0.425720  1
  Al  Al10  1  0.001341  0.333232  0.423808  1
  Al  Al11  1  0.662596  0.997485  0.575689  1
  Al  Al12  1  0.662596  0.997485  0.924311  1
  Al  Al13  1  0.336642  0.002583  0.074280  1
  Al  Al14  1  0.334629  0.333324  0.552545  1
  Al  Al15  1  0.665214  0.665977  0.448242  1
  Al  Al16  1  0.665214  0.665977  0.051758  1
  Al  Al17  1  0.334629  0.333324  0.947455  1
  Al  Al18  1  0.339008  0.547557  0.250000  1
  Al  Al19  1  0.660471  0.451384  0.750000  1
  Al  Al20  1  0.549289  0.342220  0.250000  1
  Al  Al21  1  0.450037  0.657902  0.750000  1
  Rh  Rh22  1  0.674960  0.329852  0.999338  1
  Rh  Rh23  1  0.324680  0.670255  0.999956  1
  Rh  Rh24  1  0.324680  0.670255  0.500044  1
  Rh  Rh25  1  0.674960  0.329852  0.500662  1
  Rh  Rh26  1  0.000532  0.999990  0.999607  1
  Rh  Rh27  1  0.000532  0.999990  0.500393  1
