# generated using pymatgen
data_Tm(OsO3)3
_symmetry_space_group_name_H-M   'P 1'
_cell_length_a   7.33648200
_cell_length_b   5.15674811
_cell_length_c   8.19931214
_cell_angle_alpha   85.46811540
_cell_angle_beta   90.00000000
_cell_angle_gamma   90.00000000
_symmetry_Int_Tables_number   1
_chemical_formula_structural   Tm(OsO3)3
_chemical_formula_sum   'Tm2 Os6 O18'
_cell_volume   309.22973837
_cell_formula_units_Z   2
loop_
 _symmetry_equiv_pos_site_id
 _symmetry_equiv_pos_as_xyz
  1  'x, y, z'
loop_
 _atom_site_type_symbol
 _atom_site_label
 _atom_site_symmetry_multiplicity
 _atom_site_fract_x
 _atom_site_fract_y
 _atom_site_fract_z
 _atom_site_occupancy
  Tm  Tm0  1  0.250000  0.971206  0.427898  1
  Tm  Tm1  1  0.750000  0.028794  0.572102  1
  Os  Os2  1  0.000000  0.000000  0.000000  1
  Os  Os3  1  0.500000  0.000000  0.000000  1
  Os  Os4  1  0.495556  0.539505  0.691940  1
  Os  Os5  1  0.004444  0.539505  0.691940  1
  Os  Os6  1  0.995556  0.460495  0.308060  1
  Os  Os7  1  0.504444  0.460495  0.308060  1
  O  O8  1  0.250000  0.894336  0.982910  1
  O  O9  1  0.932008  0.855586  0.787881  1
  O  O10  1  0.567992  0.855586  0.787881  1
  O  O11  1  0.958010  0.743937  0.470676  1
  O  O12  1  0.541990  0.743937  0.470676  1
  O  O13  1  0.250000  0.674065  0.661316  1
  O  O14  1  0.953729  0.682283  0.121360  1
  O  O15  1  0.546271  0.682283  0.121360  1
  O  O16  1  0.250000  0.589196  0.313382  1
  O  O17  1  0.750000  0.410804  0.686618  1
  O  O18  1  0.046271  0.317717  0.878640  1
  O  O19  1  0.453729  0.317717  0.878640  1
  O  O20  1  0.750000  0.325935  0.338684  1
  O  O21  1  0.041990  0.256063  0.529324  1
  O  O22  1  0.458010  0.256063  0.529324  1
  O  O23  1  0.067992  0.144414  0.212119  1
  O  O24  1  0.432008  0.144414  0.212119  1
  O  O25  1  0.750000  0.105664  0.017090  1
