# generated using pymatgen
data_V9BiS16
_symmetry_space_group_name_H-M   'P 1'
_cell_length_a   6.38122100
_cell_length_b   6.38122205
_cell_length_c   12.52173500
_cell_angle_alpha   90.00000000
_cell_angle_beta   90.00000000
_cell_angle_gamma   119.99998935
_symmetry_Int_Tables_number   1
_chemical_formula_structural   V9BiS16
_chemical_formula_sum   'V9 Bi1 S16'
_cell_volume   441.57332487
_cell_formula_units_Z   1
loop_
 _symmetry_equiv_pos_site_id
 _symmetry_equiv_pos_as_xyz
  1  'x, y, z'
loop_
 _atom_site_type_symbol
 _atom_site_label
 _atom_site_symmetry_multiplicity
 _atom_site_fract_x
 _atom_site_fract_y
 _atom_site_fract_z
 _atom_site_occupancy
  V  V0  1  0.000000  0.000000  0.229278  1
  V  V1  1  0.000000  0.000000  0.770722  1
  V  V2  1  0.507188  0.492812  0.227556  1
  V  V3  1  0.507188  0.014376  0.227556  1
  V  V4  1  0.985624  0.492812  0.227556  1
  V  V5  1  0.492812  0.507188  0.772444  1
  V  V6  1  0.492812  0.985624  0.772444  1
  V  V7  1  0.014376  0.507188  0.772444  1
  V  V8  1  0.000000  0.000000  0.000000  1
  Bi  Bi9  1  0.000000  0.000000  0.500000  1
  S  S10  1  0.333333  0.666667  0.892315  1
  S  S11  1  0.666667  0.333333  0.107685  1
  S  S12  1  0.666667  0.333333  0.349575  1
  S  S13  1  0.333333  0.666667  0.650425  1
  S  S14  1  0.171552  0.828448  0.343344  1
  S  S15  1  0.171552  0.343104  0.343344  1
  S  S16  1  0.656896  0.828448  0.343344  1
  S  S17  1  0.828448  0.171552  0.656656  1
  S  S18  1  0.828448  0.656896  0.656656  1
  S  S19  1  0.343104  0.171552  0.656656  1
  S  S20  1  0.832174  0.167826  0.885684  1
  S  S21  1  0.832174  0.664347  0.885684  1
  S  S22  1  0.335653  0.167826  0.885684  1
  S  S23  1  0.167826  0.832174  0.114316  1
  S  S24  1  0.167826  0.335653  0.114316  1
  S  S25  1  0.664347  0.832174  0.114316  1
