# generated using pymatgen
data_Mn7Zn(AsO5)4
_symmetry_space_group_name_H-M   'P 1'
_cell_length_a   6.08759200
_cell_length_b   8.80252557
_cell_length_c   8.63505821
_cell_angle_alpha   90.20819661
_cell_angle_beta   90.00000000
_cell_angle_gamma   90.00000000
_symmetry_Int_Tables_number   1
_chemical_formula_structural   Mn7Zn(AsO5)4
_chemical_formula_sum   'Mn7 Zn1 As4 O20'
_cell_volume   462.71676538
_cell_formula_units_Z   1
loop_
 _symmetry_equiv_pos_site_id
 _symmetry_equiv_pos_as_xyz
  1  'x, y, z'
loop_
 _atom_site_type_symbol
 _atom_site_label
 _atom_site_symmetry_multiplicity
 _atom_site_fract_x
 _atom_site_fract_y
 _atom_site_fract_z
 _atom_site_occupancy
  Mn  Mn0  1  0.741827  0.501191  0.499572  1
  Mn  Mn1  1  0.760176  0.000066  0.001104  1
  Mn  Mn2  1  0.258173  0.501191  0.499572  1
  Mn  Mn3  1  0.239824  0.000066  0.001104  1
  Mn  Mn4  1  0.000000  0.122449  0.646271  1
  Mn  Mn5  1  0.500000  0.374686  0.148282  1
  Mn  Mn6  1  0.500000  0.627028  0.852855  1
  Zn  Zn7  1  0.000000  0.871763  0.348596  1
  As  As8  1  0.500000  0.747506  0.239049  1
  As  As9  1  0.500000  0.255195  0.763778  1
  As  As10  1  0.000000  0.240823  0.264041  1
  As  As11  1  0.000000  0.757132  0.734975  1
  O  O12  1  0.000000  0.929809  0.125037  1
  O  O13  1  0.000000  0.068674  0.870392  1
  O  O14  1  0.500000  0.432446  0.372595  1
  O  O15  1  0.500000  0.568295  0.628097  1
  O  O16  1  0.500000  0.918796  0.131365  1
  O  O17  1  0.500000  0.083068  0.869802  1
  O  O18  1  0.000000  0.414507  0.368633  1
  O  O19  1  0.000000  0.582368  0.632729  1
  O  O20  1  0.500000  0.609748  0.097248  1
  O  O21  1  0.500000  0.393026  0.905061  1
  O  O22  1  0.000000  0.103621  0.404627  1
  O  O23  1  0.000000  0.891626  0.591856  1
  O  O24  1  0.731345  0.734567  0.351721  1
  O  O25  1  0.730772  0.267597  0.651189  1
  O  O26  1  0.769831  0.228614  0.150579  1
  O  O27  1  0.769927  0.771681  0.848192  1
  O  O28  1  0.269228  0.267597  0.651189  1
  O  O29  1  0.268655  0.734567  0.351721  1
  O  O30  1  0.230073  0.771681  0.848192  1
  O  O31  1  0.230169  0.228614  0.150579  1
