# generated using pymatgen
data_TbDy4(TcB3)2
_symmetry_space_group_name_H-M   'P 1'
_cell_length_a   5.53321117
_cell_length_b   5.53321066
_cell_length_c   8.50763105
_cell_angle_alpha   71.02285412
_cell_angle_beta   71.02285501
_cell_angle_gamma   59.99998030
_symmetry_Int_Tables_number   1
_chemical_formula_structural   TbDy4(TcB3)2
_chemical_formula_sum   'Tb1 Dy4 Tc2 B6'
_cell_volume   209.06941895
_cell_formula_units_Z   1
loop_
 _symmetry_equiv_pos_site_id
 _symmetry_equiv_pos_as_xyz
  1  'x, y, z'
loop_
 _atom_site_type_symbol
 _atom_site_label
 _atom_site_symmetry_multiplicity
 _atom_site_fract_x
 _atom_site_fract_y
 _atom_site_fract_z
 _atom_site_occupancy
  Tb  Tb0  1  0.000000  0.000000  0.000000  1
  Dy  Dy1  1  0.247665  0.247665  0.257008  1
  Dy  Dy2  1  0.752335  0.752335  0.742992  1
  Dy  Dy3  1  0.418881  0.418881  0.743358  1
  Dy  Dy4  1  0.581119  0.581119  0.256642  1
  Tc  Tc5  1  0.111077  0.111077  0.666771  1
  Tc  Tc6  1  0.888923  0.888923  0.333229  1
  B  B7  1  0.171071  0.828929  0.500000  1
  B  B8  1  0.828929  0.500000  0.500000  1
  B  B9  1  0.500000  0.171071  0.500000  1
  B  B10  1  0.171071  0.500000  0.500000  1
  B  B11  1  0.500000  0.828929  0.500000  1
  B  B12  1  0.828929  0.171071  0.500000  1
