# generated using pymatgen
data_Tb2Y3Ho3(CdIr)2
_symmetry_space_group_name_H-M   'P 1'
_cell_length_a   9.63748899
_cell_length_b   9.63748846
_cell_length_c   9.63748800
_cell_angle_alpha   59.99999471
_cell_angle_beta   59.99999653
_cell_angle_gamma   59.99999784
_symmetry_Int_Tables_number   1
_chemical_formula_structural   Tb2Y3Ho3(CdIr)2
_chemical_formula_sum   'Tb4 Y6 Ho6 Cd4 Ir4'
_cell_volume   632.96046167
_cell_formula_units_Z   2
loop_
 _symmetry_equiv_pos_site_id
 _symmetry_equiv_pos_as_xyz
  1  'x, y, z'
loop_
 _atom_site_type_symbol
 _atom_site_label
 _atom_site_symmetry_multiplicity
 _atom_site_fract_x
 _atom_site_fract_y
 _atom_site_fract_z
 _atom_site_occupancy
  Tb  Tb0  1  0.348921  0.348921  0.348921  1
  Tb  Tb1  1  0.348921  0.348921  0.953238  1
  Tb  Tb2  1  0.348921  0.953238  0.348921  1
  Tb  Tb3  1  0.953238  0.348921  0.348921  1
  Y  Y4  1  0.938381  0.561619  0.561619  1
  Y  Y5  1  0.561619  0.938381  0.938381  1
  Y  Y6  1  0.561619  0.938381  0.561619  1
  Y  Y7  1  0.938381  0.561619  0.938381  1
  Y  Y8  1  0.561619  0.561619  0.938381  1
  Y  Y9  1  0.938381  0.938381  0.561619  1
  Ho  Ho10  1  0.810990  0.189010  0.189010  1
  Ho  Ho11  1  0.189010  0.810990  0.810990  1
  Ho  Ho12  1  0.189010  0.810990  0.189010  1
  Ho  Ho13  1  0.810990  0.189010  0.810990  1
  Ho  Ho14  1  0.189010  0.189010  0.810990  1
  Ho  Ho15  1  0.810990  0.810990  0.189010  1
  Cd  Cd16  1  0.580701  0.580701  0.580701  1
  Cd  Cd17  1  0.580701  0.580701  0.257896  1
  Cd  Cd18  1  0.580701  0.257896  0.580701  1
  Cd  Cd19  1  0.257896  0.580701  0.580701  1
  Ir  Ir20  1  0.141181  0.141181  0.141181  1
  Ir  Ir21  1  0.141181  0.141181  0.576458  1
  Ir  Ir22  1  0.141181  0.576458  0.141181  1
  Ir  Ir23  1  0.576458  0.141181  0.141181  1
