# generated using pymatgen
data_Nb2P7Ru12
_symmetry_space_group_name_H-M   'P 1'
_cell_length_a   9.40940200
_cell_length_b   9.40940172
_cell_length_c   3.82214200
_cell_angle_alpha   90.00000000
_cell_angle_beta   90.00000000
_cell_angle_gamma   119.99999909
_symmetry_Int_Tables_number   1
_chemical_formula_structural   Nb2P7Ru12
_chemical_formula_sum   'Nb2 P7 Ru12'
_cell_volume   293.06333502
_cell_formula_units_Z   1
loop_
 _symmetry_equiv_pos_site_id
 _symmetry_equiv_pos_as_xyz
  1  'x, y, z'
loop_
 _atom_site_type_symbol
 _atom_site_label
 _atom_site_symmetry_multiplicity
 _atom_site_fract_x
 _atom_site_fract_y
 _atom_site_fract_z
 _atom_site_occupancy
  Nb  Nb0  1  0.666667  0.333333  0.500000  1
  Nb  Nb1  1  0.333333  0.666667  0.000000  1
  P  P2  1  0.593010  0.711870  0.500000  1
  P  P3  1  0.000000  0.000000  0.000000  1
  P  P4  1  0.288130  0.881140  0.500000  1
  P  P5  1  0.118860  0.406990  0.500000  1
  P  P6  1  0.884258  0.590384  0.000000  1
  P  P7  1  0.409616  0.293873  0.000000  1
  P  P8  1  0.706127  0.115742  0.000000  1
  Ru  Ru9  1  0.548682  0.932985  0.500000  1
  Ru  Ru10  1  0.384304  0.451318  0.500000  1
  Ru  Ru11  1  0.893168  0.137598  0.500000  1
  Ru  Ru12  1  0.244430  0.106832  0.500000  1
  Ru  Ru13  1  0.862402  0.755570  0.500000  1
  Ru  Ru14  1  0.726401  0.878937  0.000000  1
  Ru  Ru15  1  0.121063  0.847462  0.000000  1
  Ru  Ru16  1  0.152538  0.273599  0.000000  1
  Ru  Ru17  1  0.449134  0.076556  0.000000  1
  Ru  Ru18  1  0.923444  0.372579  0.000000  1
  Ru  Ru19  1  0.627421  0.550866  0.000000  1
  Ru  Ru20  1  0.067015  0.615696  0.500000  1
