# generated using pymatgen
data_Er4Tm8GaCo4Ir
_symmetry_space_group_name_H-M   'P 1'
_cell_length_a   8.13680329
_cell_length_b   8.13276856
_cell_length_c   8.13479912
_cell_angle_alpha   111.13278255
_cell_angle_beta   110.81039057
_cell_angle_gamma   106.50877720
_symmetry_Int_Tables_number   1
_chemical_formula_structural   Er4Tm8GaCo4Ir
_chemical_formula_sum   'Er4 Tm8 Ga1 Co4 Ir1'
_cell_volume   413.57856506
_cell_formula_units_Z   1
loop_
 _symmetry_equiv_pos_site_id
 _symmetry_equiv_pos_as_xyz
  1  'x, y, z'
loop_
 _atom_site_type_symbol
 _atom_site_label
 _atom_site_symmetry_multiplicity
 _atom_site_fract_x
 _atom_site_fract_y
 _atom_site_fract_z
 _atom_site_occupancy
  Er  Er0  1  0.582708  0.275485  0.306867  1
  Er  Er1  1  0.182417  0.217241  0.400321  1
  Er  Er2  1  0.183062  0.782216  0.965233  1
  Er  Er3  1  0.683097  0.486973  0.804633  1
  Tm  Tm4  1  0.682762  0.877926  0.195924  1
  Tm  Tm5  1  0.969040  0.274855  0.693820  1
  Tm  Tm6  1  0.031710  0.724544  0.307478  1
  Tm  Tm7  1  0.317115  0.121667  0.804383  1
  Tm  Tm8  1  0.317297  0.513186  0.195741  1
  Tm  Tm9  1  0.816861  0.217909  0.034805  1
  Tm  Tm10  1  0.816878  0.782356  0.598562  1
  Tm  Tm11  1  0.418734  0.725390  0.693684  1
  Ga  Ga12  1  0.499769  0.999017  0.499895  1
  Co  Co13  1  0.885806  0.887091  0.998992  1
  Co  Co14  1  0.373017  0.500003  0.873656  1
  Co  Co15  1  0.626700  0.500244  0.127081  1
  Co  Co16  1  0.111869  0.113396  0.998199  1
  Ir  Ir17  1  0.001159  0.500501  0.500728  1
