# generated using pymatgen
data_Y2Mn3Al20Co
_symmetry_space_group_name_H-M   'P 1'
_cell_length_a   6.79364535
_cell_length_b   6.81287931
_cell_length_c   9.01580908
_cell_angle_alpha   89.97774960
_cell_angle_beta   90.37249179
_cell_angle_gamma   97.23646222
_symmetry_Int_Tables_number   1
_chemical_formula_structural   Y2Mn3Al20Co
_chemical_formula_sum   'Y2 Mn3 Al20 Co1'
_cell_volume   413.95767218
_cell_formula_units_Z   1
loop_
 _symmetry_equiv_pos_site_id
 _symmetry_equiv_pos_as_xyz
  1  'x, y, z'
loop_
 _atom_site_type_symbol
 _atom_site_label
 _atom_site_symmetry_multiplicity
 _atom_site_fract_x
 _atom_site_fract_y
 _atom_site_fract_z
 _atom_site_occupancy
  Y  Y0  1  0.877087  0.130312  0.249837  1
  Y  Y1  1  0.122913  0.869688  0.750163  1
  Mn  Mn2  1  0.000000  0.500000  0.500000  1
  Mn  Mn3  1  0.000000  0.500000  0.000000  1
  Mn  Mn4  1  0.500000  0.000000  0.000000  1
  Al  Al5  1  0.227460  0.228065  0.499837  1
  Al  Al6  1  0.771014  0.771521  0.000143  1
  Al  Al7  1  0.772540  0.771935  0.500163  1
  Al  Al8  1  0.228986  0.228479  0.999857  1
  Al  Al9  1  0.374611  0.623027  0.546931  1
  Al  Al10  1  0.624617  0.374504  0.046216  1
  Al  Al11  1  0.587476  0.867478  0.749783  1
  Al  Al12  1  0.412524  0.132522  0.250217  1
  Al  Al13  1  0.867330  0.588250  0.250257  1
  Al  Al14  1  0.132670  0.411750  0.749743  1
  Al  Al15  1  0.475266  0.218752  0.752226  1
  Al  Al16  1  0.524734  0.781248  0.247774  1
  Al  Al17  1  0.220434  0.476848  0.251019  1
  Al  Al18  1  0.779566  0.523152  0.748981  1
  Al  Al19  1  0.156724  0.842410  0.403018  1
  Al  Al20  1  0.841397  0.157535  0.903977  1
  Al  Al21  1  0.843276  0.157590  0.596982  1
  Al  Al22  1  0.158603  0.842465  0.096023  1
  Al  Al23  1  0.375383  0.625496  0.953784  1
  Al  Al24  1  0.625389  0.376973  0.453069  1
  Co  Co25  1  0.500000  0.000000  0.500000  1
