# generated using pymatgen
data_Y4Tm6Os3Ru
_symmetry_space_group_name_H-M   'P 1'
_cell_length_a   6.29821484
_cell_length_b   7.31455841
_cell_length_c   8.40395920
_cell_angle_alpha   97.04057451
_cell_angle_beta   112.03826693
_cell_angle_gamma   90.03735305
_symmetry_Int_Tables_number   1
_chemical_formula_structural   Y4Tm6Os3Ru
_chemical_formula_sum   'Y4 Tm6 Os3 Ru1'
_cell_volume   355.70661881
_cell_formula_units_Z   1
loop_
 _symmetry_equiv_pos_site_id
 _symmetry_equiv_pos_as_xyz
  1  'x, y, z'
loop_
 _atom_site_type_symbol
 _atom_site_label
 _atom_site_symmetry_multiplicity
 _atom_site_fract_x
 _atom_site_fract_y
 _atom_site_fract_z
 _atom_site_occupancy
  Y  Y0  1  0.789672  0.081711  0.812976  1
  Y  Y1  1  0.974854  0.418351  0.186397  1
  Y  Y2  1  0.212496  0.919220  0.190025  1
  Y  Y3  1  0.025050  0.582599  0.814376  1
  Tm  Tm4  1  0.200148  0.182799  0.565372  1
  Tm  Tm5  1  0.637175  0.317802  0.435868  1
  Tm  Tm6  1  0.797836  0.816212  0.433780  1
  Tm  Tm7  1  0.363797  0.681238  0.563659  1
  Tm  Tm8  1  0.421963  0.249839  0.000229  1
  Tm  Tm9  1  0.578721  0.750283  0.000210  1
  Os  Os10  1  0.595094  0.423069  0.778678  1
  Os  Os11  1  0.815589  0.076978  0.221695  1
  Os  Os12  1  0.404563  0.576970  0.220341  1
  Ru  Ru13  1  0.183042  0.922930  0.776396  1
