# generated using pymatgen
data_Sr3Hg3Pt2Au
_symmetry_space_group_name_H-M   'P 1'
_cell_length_a   7.95088600
_cell_length_b   7.95088664
_cell_length_c   4.29097300
_cell_angle_alpha   90.00000000
_cell_angle_beta   90.00000000
_cell_angle_gamma   119.99999733
_symmetry_Int_Tables_number   1
_chemical_formula_structural   Sr3Hg3Pt2Au
_chemical_formula_sum   'Sr3 Hg3 Pt2 Au1'
_cell_volume   234.91865921
_cell_formula_units_Z   1
loop_
 _symmetry_equiv_pos_site_id
 _symmetry_equiv_pos_as_xyz
  1  'x, y, z'
loop_
 _atom_site_type_symbol
 _atom_site_label
 _atom_site_symmetry_multiplicity
 _atom_site_fract_x
 _atom_site_fract_y
 _atom_site_fract_z
 _atom_site_occupancy
  Sr  Sr0  1  0.605181  0.011780  0.500000  1
  Sr  Sr1  1  0.406598  0.394819  0.500000  1
  Sr  Sr2  1  0.988220  0.593402  0.500000  1
  Hg  Hg3  1  0.752508  0.743356  0.000000  1
  Hg  Hg4  1  0.990848  0.247492  0.000000  1
  Hg  Hg5  1  0.256644  0.009152  0.000000  1
  Pt  Pt6  1  0.000000  0.000000  0.500000  1
  Pt  Pt7  1  0.666667  0.333333  0.000000  1
  Au  Au8  1  0.333333  0.666667  0.000000  1
