# generated using pymatgen
data_Ba8Tb4Al3FeO20
_symmetry_space_group_name_H-M   'P 1'
_cell_length_a   6.11162309
_cell_length_b   7.79406269
_cell_length_c   12.74042848
_cell_angle_alpha   91.59398848
_cell_angle_beta   90.01151527
_cell_angle_gamma   90.01597344
_symmetry_Int_Tables_number   1
_chemical_formula_structural   Ba8Tb4Al3FeO20
_chemical_formula_sum   'Ba8 Tb4 Al3 Fe1 O20'
_cell_volume   606.64745198
_cell_formula_units_Z   1
loop_
 _symmetry_equiv_pos_site_id
 _symmetry_equiv_pos_as_xyz
  1  'x, y, z'
loop_
 _atom_site_type_symbol
 _atom_site_label
 _atom_site_symmetry_multiplicity
 _atom_site_fract_x
 _atom_site_fract_y
 _atom_site_fract_z
 _atom_site_occupancy
  Ba  Ba0  1  0.760731  0.480493  0.348373  1
  Ba  Ba1  1  0.737114  0.983644  0.845404  1
  Ba  Ba2  1  0.240176  0.517176  0.651564  1
  Ba  Ba3  1  0.262004  0.020914  0.154782  1
  Ba  Ba4  1  0.758098  0.996244  0.377875  1
  Ba  Ba5  1  0.739907  0.493428  0.875896  1
  Ba  Ba6  1  0.244024  0.005859  0.620754  1
  Ba  Ba7  1  0.259744  0.502446  0.124415  1
  Tb  Tb8  1  0.750119  0.266577  0.625410  1
  Tb  Tb9  1  0.750904  0.765916  0.128698  1
  Tb  Tb10  1  0.250802  0.733540  0.374782  1
  Tb  Tb11  1  0.249537  0.232201  0.873878  1
  Al  Al12  1  0.736281  0.745262  0.580236  1
  Al  Al13  1  0.764765  0.244263  0.080942  1
  Al  Al14  1  0.264199  0.255153  0.419240  1
  Fe  Fe15  1  0.233207  0.756369  0.918088  1
  O  O16  1  0.763617  0.962593  0.629880  1
  O  O17  1  0.737000  0.460763  0.132394  1
  O  O18  1  0.237043  0.038015  0.369452  1
  O  O19  1  0.268308  0.527310  0.866790  1
  O  O20  1  0.737938  0.072846  0.170601  1
  O  O21  1  0.764135  0.572956  0.668953  1
  O  O22  1  0.269204  0.937662  0.824056  1
  O  O23  1  0.237921  0.427342  0.330654  1
  O  O24  1  0.543948  0.746585  0.273180  1
  O  O25  1  0.958291  0.247546  0.769737  1
  O  O26  1  0.460305  0.253809  0.728754  1
  O  O27  1  0.045655  0.752790  0.229410  1
  O  O28  1  0.555727  0.223413  0.981376  1
  O  O29  1  0.944390  0.724513  0.480620  1
  O  O30  1  0.442596  0.777294  0.027777  1
  O  O31  1  0.054679  0.276404  0.518148  1
  O  O32  1  0.030757  0.233476  0.021031  1
  O  O33  1  0.469758  0.734220  0.521295  1
  O  O34  1  0.947489  0.765529  0.976252  1
  O  O35  1  0.529627  0.265448  0.479302  1
