# generated using pymatgen
data_Ti6ReSi6MoRu4
_symmetry_space_group_name_H-M   'P 1'
_cell_length_a   7.44379185
_cell_length_b   7.44559303
_cell_length_c   7.44559317
_cell_angle_alpha   126.63220433
_cell_angle_beta   125.35076635
_cell_angle_gamma   79.91209151
_symmetry_Int_Tables_number   1
_chemical_formula_structural   Ti6ReSi6MoRu4
_chemical_formula_sum   'Ti6 Re1 Si6 Mo1 Ru4'
_cell_volume   260.81972817
_cell_formula_units_Z   1
loop_
 _symmetry_equiv_pos_site_id
 _symmetry_equiv_pos_as_xyz
  1  'x, y, z'
loop_
 _atom_site_type_symbol
 _atom_site_label
 _atom_site_symmetry_multiplicity
 _atom_site_fract_x
 _atom_site_fract_y
 _atom_site_fract_z
 _atom_site_occupancy
  Ti  Ti0  1  0.246206  0.908520  0.164121  1
  Ti  Ti1  1  0.961553  0.486892  0.026182  1
  Ti  Ti2  1  0.038447  0.064628  0.525336  1
  Ti  Ti3  1  0.441224  0.484474  0.543143  1
  Ti  Ti4  1  0.753794  0.917916  0.662313  1
  Ti  Ti5  1  0.558776  0.101919  0.043250  1
  Re  Re6  1  0.000000  0.243623  0.243623  1
  Si  Si7  1  0.775422  0.539873  0.265146  1
  Si  Si8  1  0.175574  0.159399  0.996987  1
  Si  Si9  1  0.662202  0.159936  0.482937  1
  Si  Si10  1  0.337798  0.820735  0.497734  1
  Si  Si11  1  0.224578  0.489723  0.764452  1
  Si  Si12  1  0.824426  0.821412  0.983824  1
  Mo  Mo13  1  0.500000  0.243391  0.743391  1
  Ru  Ru14  1  0.839936  0.496173  0.593238  1
  Ru  Ru15  1  0.597639  0.754282  0.093648  1
  Ru  Ru16  1  0.402361  0.496010  0.156643  1
  Ru  Ru17  1  0.160064  0.753302  0.656237  1
