# generated using pymatgen
data_La5Hg2Ru3
_symmetry_space_group_name_H-M   'P 1'
_cell_length_a   8.76484079
_cell_length_b   8.76484069
_cell_length_c   8.76484100
_cell_angle_alpha   109.47122367
_cell_angle_beta   109.47122344
_cell_angle_gamma   109.47122133
_symmetry_Int_Tables_number   1
_chemical_formula_structural   La5Hg2Ru3
_chemical_formula_sum   'La10 Hg4 Ru6'
_cell_volume   518.33456970
_cell_formula_units_Z   2
loop_
 _symmetry_equiv_pos_site_id
 _symmetry_equiv_pos_as_xyz
  1  'x, y, z'
loop_
 _atom_site_type_symbol
 _atom_site_label
 _atom_site_symmetry_multiplicity
 _atom_site_fract_x
 _atom_site_fract_y
 _atom_site_fract_z
 _atom_site_occupancy
  La  La0  1  0.250000  0.687019  0.437020  1
  La  La1  1  0.750000  0.812981  0.062981  1
  La  La2  1  0.437020  0.250000  0.687019  1
  La  La3  1  0.687019  0.437020  0.250000  1
  La  La4  1  0.062981  0.750000  0.812981  1
  La  La5  1  0.812981  0.062981  0.750000  1
  La  La6  1  0.211043  0.211043  0.211043  1
  La  La7  1  0.500001  0.000000  0.288957  1
  La  La8  1  0.288957  0.500001  0.000000  1
  La  La9  1  0.000000  0.288957  0.500001  1
  Hg  Hg10  1  0.500001  0.000000  0.912846  1
  Hg  Hg11  1  0.587154  0.587154  0.587154  1
  Hg  Hg12  1  0.912846  0.500001  0.000000  1
  Hg  Hg13  1  0.000000  0.912846  0.500001  1
  Ru  Ru14  1  0.250001  0.143396  0.893396  1
  Ru  Ru15  1  0.750000  0.356603  0.606603  1
  Ru  Ru16  1  0.893396  0.250001  0.143396  1
  Ru  Ru17  1  0.143396  0.893396  0.250001  1
  Ru  Ru18  1  0.606603  0.750000  0.356603  1
  Ru  Ru19  1  0.356603  0.606603  0.750000  1
