# generated using pymatgen
data_LiYb2TcH6
_symmetry_space_group_name_H-M   'P 1'
_cell_length_a   5.12679364
_cell_length_b   5.12679288
_cell_length_c   5.12679300
_cell_angle_alpha   119.99999429
_cell_angle_beta   119.99998945
_cell_angle_gamma   60.00000219
_symmetry_Int_Tables_number   1
_chemical_formula_structural   LiYb2TcH6
_chemical_formula_sum   'Li1 Yb2 Tc1 H6'
_cell_volume   95.28454286
_cell_formula_units_Z   1
loop_
 _symmetry_equiv_pos_site_id
 _symmetry_equiv_pos_as_xyz
  1  'x, y, z'
loop_
 _atom_site_type_symbol
 _atom_site_label
 _atom_site_symmetry_multiplicity
 _atom_site_fract_x
 _atom_site_fract_y
 _atom_site_fract_z
 _atom_site_occupancy
  Li  Li0  1  0.500001  0.500001  0.500002  1
  Yb  Yb1  1  0.750000  0.750000  0.249999  1
  Yb  Yb2  1  0.249999  0.249999  0.749998  1
  Tc  Tc3  1  0.000000  0.000000  0.000000  1
  H  H4  1  0.245124  0.245124  0.245123  1
  H  H5  1  0.754876  0.245124  0.245125  1
  H  H6  1  0.245124  0.754876  0.245125  1
  H  H7  1  0.754875  0.754875  0.754874  1
  H  H8  1  0.754877  0.245124  0.754877  1
  H  H9  1  0.245124  0.754877  0.754877  1
