# generated using pymatgen
data_ErScSi14RuRh5
_symmetry_space_group_name_H-M   'P 1'
_cell_length_a   7.93442528
_cell_length_b   7.93508212
_cell_length_c   7.95752179
_cell_angle_alpha   57.12859399
_cell_angle_beta   57.12229789
_cell_angle_gamma   57.16858929
_symmetry_Int_Tables_number   1
_chemical_formula_structural   ErScSi14RuRh5
_chemical_formula_sum   'Er1 Sc1 Si14 Ru1 Rh5'
_cell_volume   330.91882634
_cell_formula_units_Z   1
loop_
 _symmetry_equiv_pos_site_id
 _symmetry_equiv_pos_as_xyz
  1  'x, y, z'
loop_
 _atom_site_type_symbol
 _atom_site_label
 _atom_site_symmetry_multiplicity
 _atom_site_fract_x
 _atom_site_fract_y
 _atom_site_fract_z
 _atom_site_occupancy
  Er  Er0  1  0.498041  0.499396  0.501907  1
  Sc  Sc1  1  0.000864  0.002863  0.997596  1
  Si  Si2  1  0.752643  0.746611  0.749676  1
  Si  Si3  1  0.249782  0.250941  0.250308  1
  Si  Si4  1  0.851520  0.065046  0.673142  1
  Si  Si5  1  0.672809  0.852711  0.064650  1
  Si  Si6  1  0.065757  0.670383  0.851703  1
  Si  Si7  1  0.648913  0.828903  0.433200  1
  Si  Si8  1  0.432490  0.650273  0.828596  1
  Si  Si9  1  0.831087  0.431874  0.649801  1
  Si  Si10  1  0.169655  0.567212  0.354229  1
  Si  Si11  1  0.567171  0.350860  0.171255  1
  Si  Si12  1  0.349206  0.172419  0.567042  1
  Si  Si13  1  0.934724  0.328519  0.144606  1
  Si  Si14  1  0.325812  0.148912  0.935307  1
  Si  Si15  1  0.147639  0.935271  0.326908  1
  Ru  Ru16  1  0.073410  0.423804  0.751618  1
  Rh  Rh17  1  0.248837  0.928913  0.572721  1
  Rh  Rh18  1  0.573498  0.248109  0.929649  1
  Rh  Rh19  1  0.928435  0.574130  0.248333  1
  Rh  Rh20  1  0.426751  0.751936  0.070599  1
  Rh  Rh21  1  0.750956  0.070915  0.427156  1
