# generated using pymatgen
data_SrTbHo2(Al8Pt3)3
_symmetry_space_group_name_H-M   'P 1'
_cell_length_a   7.54401544
_cell_length_b   7.56427571
_cell_length_c   13.24985007
_cell_angle_alpha   84.60348184
_cell_angle_beta   79.12124269
_cell_angle_gamma   59.94280178
_symmetry_Int_Tables_number   1
_chemical_formula_structural   SrTbHo2(Al8Pt3)3
_chemical_formula_sum   'Sr1 Tb1 Ho2 Al24 Pt9'
_cell_volume   642.66558972
_cell_formula_units_Z   1
loop_
 _symmetry_equiv_pos_site_id
 _symmetry_equiv_pos_as_xyz
  1  'x, y, z'
loop_
 _atom_site_type_symbol
 _atom_site_label
 _atom_site_symmetry_multiplicity
 _atom_site_fract_x
 _atom_site_fract_y
 _atom_site_fract_z
 _atom_site_occupancy
  Sr  Sr0  1  0.393159  0.167999  0.809482  1
  Tb  Tb1  1  0.605103  0.832261  0.192676  1
  Ho  Ho2  1  0.733710  0.498580  0.807546  1
  Ho  Ho3  1  0.266499  0.500980  0.193036  1
  Al  Al4  1  0.686158  0.831486  0.947564  1
  Al  Al5  1  0.314858  0.166673  0.057698  1
  Al  Al6  1  0.147087  0.832359  0.559648  1
  Al  Al7  1  0.853850  0.167781  0.437407  1
  Al  Al8  1  0.480396  0.166657  0.557260  1
  Al  Al9  1  0.520509  0.833400  0.440208  1
  Al  Al10  1  0.217553  0.165742  0.329000  1
  Al  Al11  1  0.784152  0.834387  0.666952  1
  Al  Al12  1  0.438225  0.506748  0.666588  1
  Al  Al13  1  0.563096  0.493065  0.329265  1
  Al  Al14  1  0.110198  0.160144  0.665336  1
  Al  Al15  1  0.890814  0.839866  0.330528  1
  Al  Al16  1  0.351099  0.501962  0.947950  1
  Al  Al17  1  0.645967  0.501082  0.056920  1
  Al  Al18  1  0.012184  0.167363  0.958095  1
  Al  Al19  1  0.984006  0.831402  0.048864  1
  Al  Al20  1  0.186933  0.499304  0.440160  1
  Al  Al21  1  0.813773  0.500438  0.557579  1
  Al  Al22  1  0.733835  0.165052  0.183947  1
  Al  Al23  1  0.268615  0.826849  0.816442  1
  Al  Al24  1  0.053569  0.636717  0.815550  1
  Al  Al25  1  0.938248  0.369448  0.185163  1
  Al  Al26  1  0.861398  0.043963  0.816308  1
  Al  Al27  1  0.144561  0.958160  0.184499  1
  Pt  Pt28  1  0.118765  0.494516  0.636528  1
  Pt  Pt29  1  0.880436  0.508045  0.361073  1
  Pt  Pt30  1  0.657321  0.171095  0.001620  1
  Pt  Pt31  1  0.341587  0.828452  0.002011  1
  Pt  Pt32  1  0.538130  0.166856  0.361105  1
  Pt  Pt33  1  0.462081  0.831322  0.636458  1
  Pt  Pt34  1  0.781455  0.174282  0.635260  1
  Pt  Pt35  1  0.221444  0.824866  0.362193  1
  Pt  Pt36  1  0.999229  0.500695  0.002085  1
