# generated using pymatgen
data_Yb3(ErPb2)2
_symmetry_space_group_name_H-M   'P 1'
_cell_length_a   7.92493000
_cell_length_b   8.55521800
_cell_length_c   16.19259100
_cell_angle_alpha   90.00000000
_cell_angle_beta   90.00000000
_cell_angle_gamma   90.00000000
_symmetry_Int_Tables_number   1
_chemical_formula_structural   Yb3(ErPb2)2
_chemical_formula_sum   'Yb12 Er8 Pb16'
_cell_volume   1097.84963479
_cell_formula_units_Z   4
loop_
 _symmetry_equiv_pos_site_id
 _symmetry_equiv_pos_as_xyz
  1  'x, y, z'
loop_
 _atom_site_type_symbol
 _atom_site_label
 _atom_site_symmetry_multiplicity
 _atom_site_fract_x
 _atom_site_fract_y
 _atom_site_fract_z
 _atom_site_occupancy
  Yb  Yb0  1  0.498947  0.688837  0.592418  1
  Yb  Yb1  1  0.998947  0.811163  0.907582  1
  Yb  Yb2  1  0.501053  0.311163  0.092418  1
  Yb  Yb3  1  0.001053  0.188837  0.407582  1
  Yb  Yb4  1  0.501053  0.311163  0.407582  1
  Yb  Yb5  1  0.001053  0.188837  0.092418  1
  Yb  Yb6  1  0.498947  0.688837  0.907582  1
  Yb  Yb7  1  0.998947  0.811163  0.592418  1
  Yb  Yb8  1  0.830339  0.509667  0.750000  1
  Yb  Yb9  1  0.330339  0.990333  0.750000  1
  Yb  Yb10  1  0.169661  0.490333  0.250000  1
  Yb  Yb11  1  0.669661  0.009667  0.250000  1
  Er  Er12  1  0.670808  0.162401  0.621418  1
  Er  Er13  1  0.170808  0.337599  0.878582  1
  Er  Er14  1  0.329192  0.837599  0.121418  1
  Er  Er15  1  0.829192  0.662401  0.378582  1
  Er  Er16  1  0.329192  0.837599  0.378582  1
  Er  Er17  1  0.829192  0.662401  0.121418  1
  Er  Er18  1  0.670808  0.162401  0.878582  1
  Er  Er19  1  0.170808  0.337599  0.621418  1
  Pb  Pb20  1  0.680057  0.964246  0.457929  1
  Pb  Pb21  1  0.180057  0.535754  0.042071  1
  Pb  Pb22  1  0.319943  0.035754  0.957929  1
  Pb  Pb23  1  0.819943  0.464246  0.542071  1
  Pb  Pb24  1  0.319943  0.035754  0.542071  1
  Pb  Pb25  1  0.819943  0.464246  0.957929  1
  Pb  Pb26  1  0.680057  0.964246  0.042071  1
  Pb  Pb27  1  0.180057  0.535754  0.457929  1
  Pb  Pb28  1  0.470591  0.369882  0.750000  1
  Pb  Pb29  1  0.970591  0.130118  0.750000  1
  Pb  Pb30  1  0.529409  0.630118  0.250000  1
  Pb  Pb31  1  0.029409  0.869882  0.250000  1
  Pb  Pb32  1  0.706976  0.866968  0.750000  1
  Pb  Pb33  1  0.206976  0.633032  0.750000  1
  Pb  Pb34  1  0.293024  0.133032  0.250000  1
  Pb  Pb35  1  0.793024  0.366968  0.250000  1
