# generated using pymatgen
data_Eu2MgPtRh
_symmetry_space_group_name_H-M   'P 1'
_cell_length_a   5.82955765
_cell_length_b   5.82955742
_cell_length_c   5.82955756
_cell_angle_alpha   136.54127356
_cell_angle_beta   117.52112733
_cell_angle_gamma   79.16708781
_symmetry_Int_Tables_number   1
_chemical_formula_structural   Eu2MgPtRh
_chemical_formula_sum   'Eu2 Mg1 Pt1 Rh1'
_cell_volume   117.26242955
_cell_formula_units_Z   1
loop_
 _symmetry_equiv_pos_site_id
 _symmetry_equiv_pos_as_xyz
  1  'x, y, z'
loop_
 _atom_site_type_symbol
 _atom_site_label
 _atom_site_symmetry_multiplicity
 _atom_site_fract_x
 _atom_site_fract_y
 _atom_site_fract_z
 _atom_site_occupancy
  Eu  Eu0  1  0.703813  0.200217  0.503596  1
  Eu  Eu1  1  0.303379  0.799783  0.503596  1
  Mg  Mg2  1  0.997060  0.000000  0.997060  1
  Pt  Pt3  1  0.267951  0.500000  0.767951  1
  Rh  Rh4  1  0.727795  0.500000  0.227795  1
