# generated using pymatgen
data_Pr8DyY3In20
_symmetry_space_group_name_H-M   'P 1'
_cell_length_a   6.69720100
_cell_length_b   10.57822800
_cell_length_c   12.51976100
_cell_angle_alpha   90.00000000
_cell_angle_beta   90.00000000
_cell_angle_gamma   90.00000000
_symmetry_Int_Tables_number   1
_chemical_formula_structural   Pr8DyY3In20
_chemical_formula_sum   'Pr8 Dy1 Y3 In20'
_cell_volume   886.95644779
_cell_formula_units_Z   1
loop_
 _symmetry_equiv_pos_site_id
 _symmetry_equiv_pos_as_xyz
  1  'x, y, z'
loop_
 _atom_site_type_symbol
 _atom_site_label
 _atom_site_symmetry_multiplicity
 _atom_site_fract_x
 _atom_site_fract_y
 _atom_site_fract_z
 _atom_site_occupancy
  Pr  Pr0  1  0.889014  0.490415  0.143992  1
  Pr  Pr1  1  0.610986  0.009585  0.643992  1
  Pr  Pr2  1  0.110986  0.990415  0.856008  1
  Pr  Pr3  1  0.389014  0.509585  0.356008  1
  Pr  Pr4  1  0.110986  0.509585  0.856008  1
  Pr  Pr5  1  0.389014  0.990415  0.356008  1
  Pr  Pr6  1  0.889014  0.009585  0.143992  1
  Pr  Pr7  1  0.610986  0.490415  0.643992  1
  Dy  Dy8  1  0.349687  0.750000  0.060555  1
  Y  Y9  1  0.150313  0.750000  0.560555  1
  Y  Y10  1  0.650313  0.250000  0.939445  1
  Y  Y11  1  0.849687  0.250000  0.439445  1
  In  In12  1  0.617448  0.750000  0.502181  1
  In  In13  1  0.882552  0.750000  0.002181  1
  In  In14  1  0.382552  0.250000  0.497819  1
  In  In15  1  0.117448  0.250000  0.997819  1
  In  In16  1  0.655026  0.750000  0.244106  1
  In  In17  1  0.844974  0.750000  0.744106  1
  In  In18  1  0.344974  0.250000  0.755894  1
  In  In19  1  0.155026  0.250000  0.255894  1
  In  In20  1  0.110086  0.750000  0.284487  1
  In  In21  1  0.389914  0.750000  0.784487  1
  In  In22  1  0.889914  0.250000  0.715513  1
  In  In23  1  0.610086  0.250000  0.215513  1
  In  In24  1  0.875240  0.545521  0.404327  1
  In  In25  1  0.624760  0.954479  0.904327  1
  In  In26  1  0.124760  0.045521  0.595673  1
  In  In27  1  0.375240  0.454479  0.095673  1
  In  In28  1  0.124760  0.454479  0.595673  1
  In  In29  1  0.375240  0.045521  0.095673  1
  In  In30  1  0.875240  0.954479  0.404327  1
  In  In31  1  0.624760  0.545521  0.904327  1
