# generated using pymatgen
data_YNb6CoS12
_symmetry_space_group_name_H-M   'P 1'
_cell_length_a   5.83391600
_cell_length_b   5.83391560
_cell_length_c   12.84053000
_cell_angle_alpha   90.00000000
_cell_angle_beta   90.00000000
_cell_angle_gamma   120.00000226
_symmetry_Int_Tables_number   1
_chemical_formula_structural   YNb6CoS12
_chemical_formula_sum   'Y1 Nb6 Co1 S12'
_cell_volume   378.47211337
_cell_formula_units_Z   1
loop_
 _symmetry_equiv_pos_site_id
 _symmetry_equiv_pos_as_xyz
  1  'x, y, z'
loop_
 _atom_site_type_symbol
 _atom_site_label
 _atom_site_symmetry_multiplicity
 _atom_site_fract_x
 _atom_site_fract_y
 _atom_site_fract_z
 _atom_site_occupancy
  Y  Y0  1  0.666667  0.333333  0.750000  1
  Nb  Nb1  1  0.333333  0.666667  0.018595  1
  Nb  Nb2  1  0.666667  0.333333  0.479719  1
  Nb  Nb3  1  0.333333  0.666667  0.481405  1
  Nb  Nb4  1  0.000000  0.000000  0.020602  1
  Nb  Nb5  1  0.666667  0.333333  0.020281  1
  Nb  Nb6  1  0.000000  0.000000  0.479398  1
  Co  Co7  1  0.333333  0.666667  0.250000  1
  S  S8  1  0.000507  0.666899  0.140690  1
  S  S9  1  0.668356  0.671165  0.603956  1
  S  S10  1  0.000507  0.333608  0.359310  1
  S  S11  1  0.333101  0.333608  0.140690  1
  S  S12  1  0.328835  0.997191  0.603956  1
  S  S13  1  0.328835  0.331644  0.896044  1
  S  S14  1  0.666392  0.666899  0.359310  1
  S  S15  1  0.002809  0.671165  0.896044  1
  S  S16  1  0.668356  0.997191  0.896044  1
  S  S17  1  0.333101  0.999493  0.359310  1
  S  S18  1  0.666392  0.999493  0.140690  1
  S  S19  1  0.002809  0.331644  0.603956  1
