# generated using pymatgen
data_TbEr(Th2In5)2
_symmetry_space_group_name_H-M   'P 1'
_cell_length_a   6.57889403
_cell_length_b   6.57889382
_cell_length_c   10.31981300
_cell_angle_alpha   90.00000000
_cell_angle_beta   90.00000000
_cell_angle_gamma   102.32857015
_symmetry_Int_Tables_number   1
_chemical_formula_structural   TbEr(Th2In5)2
_chemical_formula_sum   'Tb1 Er1 Th4 In10'
_cell_volume   436.36021136
_cell_formula_units_Z   1
loop_
 _symmetry_equiv_pos_site_id
 _symmetry_equiv_pos_as_xyz
  1  'x, y, z'
loop_
 _atom_site_type_symbol
 _atom_site_label
 _atom_site_symmetry_multiplicity
 _atom_site_fract_x
 _atom_site_fract_y
 _atom_site_fract_z
 _atom_site_occupancy
  Tb  Tb0  1  0.128770  0.128770  0.750000  1
  Er  Er1  1  0.870905  0.870905  0.250000  1
  Th  Th2  1  0.705847  0.294017  0.000134  1
  Th  Th3  1  0.705847  0.294017  0.499866  1
  Th  Th4  1  0.294017  0.705847  0.000134  1
  Th  Th5  1  0.294017  0.705847  0.499866  1
  In  In6  1  0.509147  0.509147  0.750000  1
  In  In7  1  0.491466  0.491466  0.250000  1
  In  In8  1  0.810936  0.810936  0.545940  1
  In  In9  1  0.188847  0.188847  0.453248  1
  In  In10  1  0.810936  0.810936  0.954060  1
  In  In11  1  0.188847  0.188847  0.046752  1
  In  In12  1  0.990705  0.565914  0.750000  1
  In  In13  1  0.434834  0.008966  0.250000  1
  In  In14  1  0.008966  0.434834  0.250000  1
  In  In15  1  0.565914  0.990705  0.750000  1
