# generated using pymatgen
data_Sr3TbBi3
_symmetry_space_group_name_H-M   'P 1'
_cell_length_a   8.62088644
_cell_length_b   8.75394469
_cell_length_c   8.62088649
_cell_angle_alpha   109.74816353
_cell_angle_beta   108.86959022
_cell_angle_gamma   109.74816424
_symmetry_Int_Tables_number   1
_chemical_formula_structural   Sr3TbBi3
_chemical_formula_sum   'Sr6 Tb2 Bi6'
_cell_volume   501.09021123
_cell_formula_units_Z   2
loop_
 _symmetry_equiv_pos_site_id
 _symmetry_equiv_pos_as_xyz
  1  'x, y, z'
loop_
 _atom_site_type_symbol
 _atom_site_label
 _atom_site_symmetry_multiplicity
 _atom_site_fract_x
 _atom_site_fract_y
 _atom_site_fract_z
 _atom_site_occupancy
  Sr  Sr0  1  0.359974  0.355198  0.357603  1
  Sr  Sr1  1  0.999885  0.139045  0.497124  1
  Sr  Sr2  1  0.857603  0.855198  0.859974  1
  Sr  Sr3  1  0.997124  0.639045  0.499885  1
  Sr  Sr4  1  0.504829  0.004762  0.139051  1
  Sr  Sr5  1  0.639051  0.504762  0.004829  1
  Tb  Tb6  1  0.502030  0.003942  0.640744  1
  Tb  Tb7  1  0.140744  0.503942  0.002030  1
  Bi  Bi8  1  0.876635  0.252807  0.105065  1
  Bi  Bi9  1  0.138938  0.866167  0.255929  1
  Bi  Bi10  1  0.370225  0.628079  0.751967  1
  Bi  Bi11  1  0.251967  0.128079  0.870225  1
  Bi  Bi12  1  0.755929  0.366167  0.638938  1
  Bi  Bi13  1  0.605065  0.752807  0.376635  1
