# generated using pymatgen
data_Ca2LaNd7Ir4
_symmetry_space_group_name_H-M   'P 1'
_cell_length_a   8.91776209
_cell_length_b   8.92981939
_cell_length_c   7.41236543
_cell_angle_alpha   83.59777393
_cell_angle_beta   83.36437663
_cell_angle_gamma   43.92312594
_symmetry_Int_Tables_number   1
_chemical_formula_structural   Ca2LaNd7Ir4
_chemical_formula_sum   'Ca2 La1 Nd7 Ir4'
_cell_volume   406.38471208
_cell_formula_units_Z   1
loop_
 _symmetry_equiv_pos_site_id
 _symmetry_equiv_pos_as_xyz
  1  'x, y, z'
loop_
 _atom_site_type_symbol
 _atom_site_label
 _atom_site_symmetry_multiplicity
 _atom_site_fract_x
 _atom_site_fract_y
 _atom_site_fract_z
 _atom_site_occupancy
  Ca  Ca0  1  0.016249  0.798461  0.916676  1
  Ca  Ca1  1  0.201037  0.983149  0.583119  1
  La  La2  1  0.984182  0.200966  0.088105  1
  Nd  Nd3  1  0.797189  0.017434  0.416534  1
  Nd  Nd4  1  0.352879  0.213278  0.817025  1
  Nd  Nd5  1  0.787008  0.648356  0.681144  1
  Nd  Nd6  1  0.653156  0.787863  0.182787  1
  Nd  Nd7  1  0.214349  0.346476  0.317561  1
  Nd  Nd8  1  0.562225  0.437736  0.749282  1
  Nd  Nd9  1  0.428443  0.570153  0.250661  1
  Ir  Ir10  1  0.179136  0.588884  0.569506  1
  Ir  Ir11  1  0.409604  0.822100  0.930464  1
  Ir  Ir12  1  0.818232  0.401851  0.421070  1
  Ir  Ir13  1  0.596311  0.183292  0.076065  1
