# generated using pymatgen
data_Pr3Nd(Sn2Pt)4
_symmetry_space_group_name_H-M   'P 1'
_cell_length_a   4.68028234
_cell_length_b   9.58535400
_cell_length_c   9.23333200
_cell_angle_alpha   90.00000000
_cell_angle_beta   104.37357478
_cell_angle_gamma   90.00000000
_symmetry_Int_Tables_number   1
_chemical_formula_structural   Pr3Nd(Sn2Pt)4
_chemical_formula_sum   'Pr3 Nd1 Sn8 Pt4'
_cell_volume   401.26100333
_cell_formula_units_Z   1
loop_
 _symmetry_equiv_pos_site_id
 _symmetry_equiv_pos_as_xyz
  1  'x, y, z'
loop_
 _atom_site_type_symbol
 _atom_site_label
 _atom_site_symmetry_multiplicity
 _atom_site_fract_x
 _atom_site_fract_y
 _atom_site_fract_z
 _atom_site_occupancy
  Pr  Pr0  1  0.000135  0.000082  0.000196  1
  Pr  Pr1  1  0.000135  0.499918  0.000196  1
  Pr  Pr2  1  0.795600  0.250000  0.596244  1
  Nd  Nd3  1  0.204043  0.750000  0.403057  1
  Sn  Sn4  1  0.577104  0.750000  0.148033  1
  Sn  Sn5  1  0.583982  0.250000  0.169328  1
  Sn  Sn6  1  0.198080  0.092341  0.396594  1
  Sn  Sn7  1  0.198080  0.407659  0.396594  1
  Sn  Sn8  1  0.801653  0.593325  0.602899  1
  Sn  Sn9  1  0.801653  0.906676  0.602899  1
  Sn  Sn10  1  0.416313  0.750000  0.831128  1
  Sn  Sn11  1  0.423277  0.250000  0.852895  1
  Pt  Pt12  1  0.650064  0.506504  0.298559  1
  Pt  Pt13  1  0.650064  0.993496  0.298559  1
  Pt  Pt14  1  0.349907  0.005921  0.701409  1
  Pt  Pt15  1  0.349907  0.494079  0.701409  1
