# generated using pymatgen
data_Ba2Sr2Zr(WO6)2
_symmetry_space_group_name_H-M   'P 1'
_cell_length_a   5.79869723
_cell_length_b   5.79869675
_cell_length_c   10.06315743
_cell_angle_alpha   73.25485136
_cell_angle_beta   106.74514684
_cell_angle_gamma   120.00000904
_symmetry_Int_Tables_number   1
_chemical_formula_structural   Ba2Sr2Zr(WO6)2
_chemical_formula_sum   'Ba2 Sr2 Zr1 W2 O12'
_cell_volume   276.34690660
_cell_formula_units_Z   1
loop_
 _symmetry_equiv_pos_site_id
 _symmetry_equiv_pos_as_xyz
  1  'x, y, z'
loop_
 _atom_site_type_symbol
 _atom_site_label
 _atom_site_symmetry_multiplicity
 _atom_site_fract_x
 _atom_site_fract_y
 _atom_site_fract_z
 _atom_site_occupancy
  Ba  Ba0  1  0.135998  0.864002  0.407996  1
  Ba  Ba1  1  0.864002  0.135998  0.592004  1
  Sr  Sr2  1  0.712324  0.287676  0.136973  1
  Sr  Sr3  1  0.287676  0.712325  0.863027  1
  Zr  Zr4  1  0.000000  0.000000  0.000000  1
  W  W5  1  0.419451  0.580549  0.258352  1
  W  W6  1  0.580549  0.419450  0.741648  1
  O  O7  1  0.691968  0.784676  0.122615  1
  O  O8  1  0.215324  0.308032  0.122615  1
  O  O9  1  0.215324  0.784677  0.122615  1
  O  O10  1  0.614439  0.385562  0.355681  1
  O  O11  1  0.614439  0.873196  0.355681  1
  O  O12  1  0.126806  0.385562  0.355681  1
  O  O13  1  0.873194  0.614437  0.644319  1
  O  O14  1  0.385561  0.126805  0.644319  1
  O  O15  1  0.385561  0.614438  0.644319  1
  O  O16  1  0.784676  0.215324  0.877385  1
  O  O17  1  0.784676  0.691968  0.877385  1
  O  O18  1  0.308032  0.215323  0.877385  1
