# generated using pymatgen
data_Dy4FeCu2Ru5
_symmetry_space_group_name_H-M   'P 1'
_cell_length_a   5.30725464
_cell_length_b   5.13742024
_cell_length_c   8.79562600
_cell_angle_alpha   90.00000000
_cell_angle_beta   90.00000000
_cell_angle_gamma   119.87905465
_symmetry_Int_Tables_number   1
_chemical_formula_structural   Dy4FeCu2Ru5
_chemical_formula_sum   'Dy4 Fe1 Cu2 Ru5'
_cell_volume   207.94113016
_cell_formula_units_Z   1
loop_
 _symmetry_equiv_pos_site_id
 _symmetry_equiv_pos_as_xyz
  1  'x, y, z'
loop_
 _atom_site_type_symbol
 _atom_site_label
 _atom_site_symmetry_multiplicity
 _atom_site_fract_x
 _atom_site_fract_y
 _atom_site_fract_z
 _atom_site_occupancy
  Dy  Dy0  1  0.676374  0.340625  0.564368  1
  Dy  Dy1  1  0.339948  0.669791  0.437342  1
  Dy  Dy2  1  0.339948  0.669791  0.062658  1
  Dy  Dy3  1  0.676374  0.340625  0.935632  1
  Fe  Fe4  1  0.162520  0.321116  0.750000  1
  Cu  Cu5  1  0.812586  0.653254  0.250000  1
  Cu  Cu6  1  0.815653  0.161850  0.250000  1
  Ru  Ru7  1  0.018271  0.013578  0.498483  1
  Ru  Ru8  1  0.018271  0.013578  0.001517  1
  Ru  Ru9  1  0.175991  0.832876  0.750000  1
  Ru  Ru10  1  0.653387  0.828126  0.750000  1
  Ru  Ru11  1  0.310675  0.154792  0.250000  1
