# generated using pymatgen
data_Zr5ZnGaSb2
_symmetry_space_group_name_H-M   'P 1'
_cell_length_a   8.59607002
_cell_length_b   8.61264965
_cell_length_c   5.82708300
_cell_angle_alpha   90.00000000
_cell_angle_beta   90.00000000
_cell_angle_gamma   120.06381419
_symmetry_Int_Tables_number   1
_chemical_formula_structural   Zr5ZnGaSb2
_chemical_formula_sum   'Zr10 Zn2 Ga2 Sb4'
_cell_volume   373.36958400
_cell_formula_units_Z   2
loop_
 _symmetry_equiv_pos_site_id
 _symmetry_equiv_pos_as_xyz
  1  'x, y, z'
loop_
 _atom_site_type_symbol
 _atom_site_label
 _atom_site_symmetry_multiplicity
 _atom_site_fract_x
 _atom_site_fract_y
 _atom_site_fract_z
 _atom_site_occupancy
  Zr  Zr0  1  0.276230  0.001614  0.250000  1
  Zr  Zr1  1  0.276230  0.274616  0.750000  1
  Zr  Zr2  1  0.991999  0.726705  0.750000  1
  Zr  Zr3  1  0.991999  0.265296  0.250000  1
  Zr  Zr4  1  0.725375  0.736933  0.250000  1
  Zr  Zr5  1  0.725375  0.988443  0.750000  1
  Zr  Zr6  1  0.339170  0.669585  0.000000  1
  Zr  Zr7  1  0.665429  0.332715  0.500000  1
  Zr  Zr8  1  0.665429  0.332715  0.000000  1
  Zr  Zr9  1  0.339170  0.669585  0.500000  1
  Zn  Zn10  1  0.000267  0.000133  0.000000  1
  Zn  Zn11  1  0.000267  0.000133  0.500000  1
  Ga  Ga12  1  0.617775  0.001368  0.250000  1
  Ga  Ga13  1  0.617775  0.616407  0.750000  1
  Sb  Sb14  1  0.998847  0.380818  0.750000  1
  Sb  Sb15  1  0.998847  0.618028  0.250000  1
  Sb  Sb16  1  0.384908  0.386354  0.250000  1
  Sb  Sb17  1  0.384908  0.998554  0.750000  1
