# generated using pymatgen
data_LiSm7(Si4Mo3)4
_symmetry_space_group_name_H-M   'P 1'
_cell_length_a   6.81859963
_cell_length_b   6.99321828
_cell_length_c   13.02167525
_cell_angle_alpha   89.92922374
_cell_angle_beta   90.14141674
_cell_angle_gamma   90.09329180
_symmetry_Int_Tables_number   1
_chemical_formula_structural   LiSm7(Si4Mo3)4
_chemical_formula_sum   'Li1 Sm7 Si16 Mo12'
_cell_volume   620.92179911
_cell_formula_units_Z   1
loop_
 _symmetry_equiv_pos_site_id
 _symmetry_equiv_pos_as_xyz
  1  'x, y, z'
loop_
 _atom_site_type_symbol
 _atom_site_label
 _atom_site_symmetry_multiplicity
 _atom_site_fract_x
 _atom_site_fract_y
 _atom_site_fract_z
 _atom_site_occupancy
  Li  Li0  1  0.520432  0.670142  0.594944  1
  Sm  Sm1  1  0.995917  0.165690  0.094382  1
  Sm  Sm2  1  0.000968  0.832687  0.901795  1
  Sm  Sm3  1  0.499635  0.666257  0.906066  1
  Sm  Sm4  1  0.000867  0.833015  0.594181  1
  Sm  Sm5  1  0.496189  0.334810  0.094522  1
  Sm  Sm6  1  0.999470  0.165340  0.409287  1
  Sm  Sm7  1  0.498602  0.337980  0.412309  1
  Si  Si8  1  0.034671  0.138859  0.749446  1
  Si  Si9  1  0.963899  0.861895  0.250647  1
  Si  Si10  1  0.464573  0.637818  0.251438  1
  Si  Si11  1  0.532444  0.369655  0.745239  1
  Si  Si12  1  0.315028  0.866258  0.741951  1
  Si  Si13  1  0.692385  0.125560  0.252850  1
  Si  Si14  1  0.195686  0.374242  0.251724  1
  Si  Si15  1  0.793805  0.625009  0.743573  1
  Si  Si16  1  0.169508  0.465471  0.549604  1
  Si  Si17  1  0.843620  0.544763  0.455396  1
  Si  Si18  1  0.346202  0.947001  0.455728  1
  Si  Si19  1  0.841718  0.545897  0.047403  1
  Si  Si20  1  0.651155  0.032350  0.549915  1
  Si  Si21  1  0.155818  0.453509  0.951174  1
  Si  Si22  1  0.656813  0.046882  0.952509  1
  Si  Si23  1  0.341027  0.954509  0.046862  1
  Mo  Mo24  1  0.165286  0.499176  0.748735  1
  Mo  Mo25  1  0.834441  0.502036  0.250619  1
  Mo  Mo26  1  0.333756  0.996483  0.250797  1
  Mo  Mo27  1  0.664283  0.005868  0.749892  1
  Mo  Mo28  1  0.327813  0.168908  0.627422  1
  Mo  Mo29  1  0.670659  0.833437  0.374912  1
  Mo  Mo30  1  0.166895  0.664642  0.373951  1
  Mo  Mo31  1  0.668738  0.837005  0.126400  1
  Mo  Mo32  1  0.830985  0.332981  0.624576  1
  Mo  Mo33  1  0.330411  0.164136  0.872373  1
  Mo  Mo34  1  0.828740  0.336167  0.871049  1
  Mo  Mo35  1  0.167562  0.663563  0.126330  1
