# generated using pymatgen
data_Ho4Co2Sn5
_symmetry_space_group_name_H-M   'P 1'
_cell_length_a   7.24495239
_cell_length_b   7.24495258
_cell_length_c   10.60154714
_cell_angle_alpha   54.43745890
_cell_angle_beta   54.43745625
_cell_angle_gamma   35.51831198
_symmetry_Int_Tables_number   1
_chemical_formula_structural   Ho4Co2Sn5
_chemical_formula_sum   'Ho4 Co2 Sn5'
_cell_volume   256.00094740
_cell_formula_units_Z   1
loop_
 _symmetry_equiv_pos_site_id
 _symmetry_equiv_pos_as_xyz
  1  'x, y, z'
loop_
 _atom_site_type_symbol
 _atom_site_label
 _atom_site_symmetry_multiplicity
 _atom_site_fract_x
 _atom_site_fract_y
 _atom_site_fract_z
 _atom_site_occupancy
  Ho  Ho0  1  0.067566  0.067566  0.782206  1
  Ho  Ho1  1  0.932434  0.932434  0.217794  1
  Ho  Ho2  1  0.327581  0.327581  0.785598  1
  Ho  Ho3  1  0.672419  0.672419  0.214402  1
  Co  Co4  1  0.771317  0.771317  0.647626  1
  Co  Co5  1  0.228683  0.228683  0.352374  1
  Sn  Sn6  1  0.374521  0.374521  0.044302  1
  Sn  Sn7  1  0.625479  0.625479  0.955698  1
  Sn  Sn8  1  0.000000  0.000000  0.500000  1
  Sn  Sn9  1  0.350577  0.350577  0.471621  1
  Sn  Sn10  1  0.649423  0.649423  0.528379  1
