# generated using pymatgen
data_Cs3Rb(AlSb4)4
_symmetry_space_group_name_H-M   'P 1'
_cell_length_a   4.32471300
_cell_length_b   10.90673792
_cell_length_c   18.91283779
_cell_angle_alpha   89.72221476
_cell_angle_beta   90.00000000
_cell_angle_gamma   90.00000000
_symmetry_Int_Tables_number   1
_chemical_formula_structural   Cs3Rb(AlSb4)4
_chemical_formula_sum   'Cs3 Rb1 Al4 Sb16'
_cell_volume   892.07991784
_cell_formula_units_Z   1
loop_
 _symmetry_equiv_pos_site_id
 _symmetry_equiv_pos_as_xyz
  1  'x, y, z'
loop_
 _atom_site_type_symbol
 _atom_site_label
 _atom_site_symmetry_multiplicity
 _atom_site_fract_x
 _atom_site_fract_y
 _atom_site_fract_z
 _atom_site_occupancy
  Cs  Cs0  1  0.750000  0.179880  0.431865  1
  Cs  Cs1  1  0.250000  0.820183  0.568229  1
  Cs  Cs2  1  0.750000  0.680741  0.067948  1
  Rb  Rb3  1  0.250000  0.319462  0.931637  1
  Al  Al4  1  0.750000  0.321186  0.634763  1
  Al  Al5  1  0.250000  0.678001  0.367760  1
  Al  Al6  1  0.750000  0.820869  0.868382  1
  Al  Al7  1  0.250000  0.179484  0.130658  1
  Sb  Sb8  1  0.750000  0.822884  0.389877  1
  Sb  Sb9  1  0.250000  0.177475  0.610694  1
  Sb  Sb10  1  0.750000  0.323900  0.106276  1
  Sb  Sb11  1  0.250000  0.675029  0.891824  1
  Sb  Sb12  1  0.750000  0.400660  0.770868  1
  Sb  Sb13  1  0.250000  0.597742  0.232136  1
  Sb  Sb14  1  0.750000  0.901177  0.732430  1
  Sb  Sb15  1  0.250000  0.098861  0.266860  1
  Sb  Sb16  1  0.750000  0.526690  0.550768  1
  Sb  Sb17  1  0.250000  0.473366  0.452380  1
  Sb  Sb18  1  0.750000  0.030188  0.948451  1
  Sb  Sb19  1  0.250000  0.975420  0.047055  1
  Sb  Sb20  1  0.750000  0.922863  0.247910  1
  Sb  Sb21  1  0.250000  0.076783  0.752369  1
  Sb  Sb22  1  0.750000  0.420734  0.248511  1
  Sb  Sb23  1  0.250000  0.576421  0.750348  1
