# generated using pymatgen
data_Ho4ReOsRu6
_symmetry_space_group_name_H-M   'P 1'
_cell_length_a   5.16965442
_cell_length_b   5.41365605
_cell_length_c   8.96860600
_cell_angle_alpha   90.00000000
_cell_angle_beta   90.00000000
_cell_angle_gamma   120.62435138
_symmetry_Int_Tables_number   1
_chemical_formula_structural   Ho4ReOsRu6
_chemical_formula_sum   'Ho4 Re1 Os1 Ru6'
_cell_volume   215.99361489
_cell_formula_units_Z   1
loop_
 _symmetry_equiv_pos_site_id
 _symmetry_equiv_pos_as_xyz
  1  'x, y, z'
loop_
 _atom_site_type_symbol
 _atom_site_label
 _atom_site_symmetry_multiplicity
 _atom_site_fract_x
 _atom_site_fract_y
 _atom_site_fract_z
 _atom_site_occupancy
  Ho  Ho0  1  0.328421  0.665743  0.433552  1
  Ho  Ho1  1  0.655695  0.327370  0.564862  1
  Ho  Ho2  1  0.655695  0.327370  0.935138  1
  Ho  Ho3  1  0.328421  0.665743  0.066448  1
  Re  Re4  1  0.684551  0.844993  0.750000  1
  Os  Os5  1  0.182157  0.830192  0.750000  1
  Ru  Ru6  1  0.976228  0.984044  0.499077  1
  Ru  Ru7  1  0.976228  0.984044  0.000923  1
  Ru  Ru8  1  0.839714  0.168039  0.250000  1
  Ru  Ru9  1  0.835202  0.667860  0.250000  1
  Ru  Ru10  1  0.357112  0.179707  0.250000  1
  Ru  Ru11  1  0.180576  0.354893  0.750000  1
