# generated using pymatgen
data_TbPaS6
_symmetry_space_group_name_H-M   'P 1'
_cell_length_a   4.01107900
_cell_length_b   5.42707449
_cell_length_c   9.47342386
_cell_angle_alpha   82.68328774
_cell_angle_beta   90.00000000
_cell_angle_gamma   90.00000000
_symmetry_Int_Tables_number   1
_chemical_formula_structural   TbPaS6
_chemical_formula_sum   'Tb1 Pa1 S6'
_cell_volume   204.54232010
_cell_formula_units_Z   1
loop_
 _symmetry_equiv_pos_site_id
 _symmetry_equiv_pos_as_xyz
  1  'x, y, z'
loop_
 _atom_site_type_symbol
 _atom_site_label
 _atom_site_symmetry_multiplicity
 _atom_site_fract_x
 _atom_site_fract_y
 _atom_site_fract_z
 _atom_site_occupancy
  Tb  Tb0  1  0.250000  0.716926  0.149047  1
  Pa  Pa1  1  0.750000  0.280178  0.863686  1
  S  S2  1  0.250000  0.128855  0.690723  1
  S  S3  1  0.750000  0.872947  0.314479  1
  S  S4  1  0.750000  0.486840  0.314546  1
  S  S5  1  0.250000  0.509022  0.691057  1
  S  S6  1  0.750000  0.766662  0.925099  1
  S  S7  1  0.250000  0.238572  0.051363  1
