# generated using pymatgen
data_Er8Zn3Si12Pd
_symmetry_space_group_name_H-M   'P 1'
_cell_length_a   8.09995700
_cell_length_b   8.09995679
_cell_length_c   7.96509600
_cell_angle_alpha   90.00000000
_cell_angle_beta   90.00000000
_cell_angle_gamma   120.00000494
_symmetry_Int_Tables_number   1
_chemical_formula_structural   Er8Zn3Si12Pd
_chemical_formula_sum   'Er8 Zn3 Si12 Pd1'
_cell_volume   452.57133180
_cell_formula_units_Z   1
loop_
 _symmetry_equiv_pos_site_id
 _symmetry_equiv_pos_as_xyz
  1  'x, y, z'
loop_
 _atom_site_type_symbol
 _atom_site_label
 _atom_site_symmetry_multiplicity
 _atom_site_fract_x
 _atom_site_fract_y
 _atom_site_fract_z
 _atom_site_occupancy
  Er  Er0  1  0.997797  0.498898  0.249328  1
  Er  Er1  1  0.501102  0.498898  0.249328  1
  Er  Er2  1  0.498929  0.997857  0.750820  1
  Er  Er3  1  0.002143  0.501071  0.750820  1
  Er  Er4  1  0.498929  0.501071  0.750820  1
  Er  Er5  1  0.501102  0.002203  0.249328  1
  Er  Er6  1  0.000000  0.000000  0.749942  1
  Er  Er7  1  0.000000  0.000000  0.249657  1
  Zn  Zn8  1  0.333333  0.666667  0.005445  1
  Zn  Zn9  1  0.666667  0.333333  0.993739  1
  Zn  Zn10  1  0.666667  0.333333  0.501467  1
  Si  Si11  1  0.167317  0.832683  0.498333  1
  Si  Si12  1  0.167317  0.334633  0.498333  1
  Si  Si13  1  0.665367  0.832683  0.498333  1
  Si  Si14  1  0.334316  0.167159  0.001643  1
  Si  Si15  1  0.834871  0.669744  0.501733  1
  Si  Si16  1  0.832841  0.167159  0.001643  1
  Si  Si17  1  0.832841  0.665684  0.001643  1
  Si  Si18  1  0.166442  0.332883  0.998530  1
  Si  Si19  1  0.667117  0.833558  0.998530  1
  Si  Si20  1  0.330256  0.165129  0.501733  1
  Si  Si21  1  0.834871  0.165129  0.501733  1
  Si  Si22  1  0.166442  0.833558  0.998530  1
  Pd  Pd23  1  0.333333  0.666667  0.498588  1
