# generated using pymatgen
data_Er2Lu10ZnCo4Bi
_symmetry_space_group_name_H-M   'P 1'
_cell_length_a   8.21828484
_cell_length_b   8.19033638
_cell_length_c   8.21828447
_cell_angle_alpha   110.02796382
_cell_angle_beta   111.56636313
_cell_angle_gamma   106.98375729
_symmetry_Int_Tables_number   1
_chemical_formula_structural   Er2Lu10ZnCo4Bi
_chemical_formula_sum   'Er2 Lu10 Zn1 Co4 Bi1'
_cell_volume   424.44490148
_cell_formula_units_Z   1
loop_
 _symmetry_equiv_pos_site_id
 _symmetry_equiv_pos_as_xyz
  1  'x, y, z'
loop_
 _atom_site_type_symbol
 _atom_site_label
 _atom_site_symmetry_multiplicity
 _atom_site_fract_x
 _atom_site_fract_y
 _atom_site_fract_z
 _atom_site_occupancy
  Er  Er0  1  0.220449  0.013238  0.792789  1
  Er  Er1  1  0.779551  0.986762  0.207211  1
  Lu  Lu2  1  0.285707  0.182466  0.466727  1
  Lu  Lu3  1  0.714293  0.817534  0.533273  1
  Lu  Lu4  1  0.284260  0.817534  0.103240  1
  Lu  Lu5  1  0.715740  0.182466  0.896760  1
  Lu  Lu6  1  0.620823  0.314925  0.308798  1
  Lu  Lu7  1  0.379177  0.685075  0.691202  1
  Lu  Lu8  1  0.006128  0.314925  0.694103  1
  Lu  Lu9  1  0.993872  0.685075  0.305897  1
  Lu  Lu10  1  0.220169  0.427645  0.207475  1
  Lu  Lu11  1  0.779831  0.572355  0.792525  1
  Zn  Zn12  1  0.000000  0.000000  0.000000  1
  Co  Co13  1  0.001107  0.377544  0.376437  1
  Co  Co14  1  0.998893  0.622456  0.623563  1
  Co  Co15  1  0.386683  0.886301  0.499618  1
  Co  Co16  1  0.613317  0.113699  0.500382  1
  Bi  Bi17  1  0.500000  0.500000  0.000000  1
