# generated using pymatgen
data_Tb4Yb5HoRu4
_symmetry_space_group_name_H-M   'P 1'
_cell_length_a   6.43471560
_cell_length_b   7.29114066
_cell_length_c   8.56199727
_cell_angle_alpha   96.86168596
_cell_angle_beta   112.75452240
_cell_angle_gamma   90.33117281
_symmetry_Int_Tables_number   1
_chemical_formula_structural   Tb4Yb5HoRu4
_chemical_formula_sum   'Tb4 Yb5 Ho1 Ru4'
_cell_volume   367.18754819
_cell_formula_units_Z   1
loop_
 _symmetry_equiv_pos_site_id
 _symmetry_equiv_pos_as_xyz
  1  'x, y, z'
loop_
 _atom_site_type_symbol
 _atom_site_label
 _atom_site_symmetry_multiplicity
 _atom_site_fract_x
 _atom_site_fract_y
 _atom_site_fract_z
 _atom_site_occupancy
  Tb  Tb0  1  0.203514  0.681437  0.565217  1
  Tb  Tb1  1  0.366318  0.181688  0.565734  1
  Tb  Tb2  1  0.797233  0.317136  0.432052  1
  Tb  Tb3  1  0.432108  0.751446  0.002800  1
  Yb  Yb4  1  0.976918  0.919918  0.179891  1
  Yb  Yb5  1  0.795216  0.579773  0.819816  1
  Yb  Yb6  1  0.022763  0.080613  0.820712  1
  Yb  Yb7  1  0.205076  0.418629  0.182204  1
  Yb  Yb8  1  0.639760  0.816318  0.436666  1
  Ho  Ho9  1  0.567057  0.250722  0.000975  1
  Ru  Ru10  1  0.823348  0.569131  0.224546  1
  Ru  Ru11  1  0.583709  0.927584  0.779365  1
  Ru  Ru12  1  0.179650  0.425527  0.765408  1
  Ru  Ru13  1  0.407326  0.080082  0.224616  1
