# generated using pymatgen
data_Ce5Sn3C
_symmetry_space_group_name_H-M   'P 1'
_cell_length_a   9.33143500
_cell_length_b   9.33143545
_cell_length_c   6.33578500
_cell_angle_alpha   90.00000000
_cell_angle_beta   90.00000000
_cell_angle_gamma   120.00000193
_symmetry_Int_Tables_number   1
_chemical_formula_structural   Ce5Sn3C
_chemical_formula_sum   'Ce10 Sn6 C2'
_cell_volume   477.77997816
_cell_formula_units_Z   2
loop_
 _symmetry_equiv_pos_site_id
 _symmetry_equiv_pos_as_xyz
  1  'x, y, z'
loop_
 _atom_site_type_symbol
 _atom_site_label
 _atom_site_symmetry_multiplicity
 _atom_site_fract_x
 _atom_site_fract_y
 _atom_site_fract_z
 _atom_site_occupancy
  Ce  Ce0  1  0.333333  0.666667  0.500000  1
  Ce  Ce1  1  0.666667  0.333333  0.500000  1
  Ce  Ce2  1  0.666667  0.333333  0.000000  1
  Ce  Ce3  1  0.333333  0.666667  0.000000  1
  Ce  Ce4  1  0.215115  0.000000  0.750000  1
  Ce  Ce5  1  0.784885  0.000000  0.250000  1
  Ce  Ce6  1  0.000000  0.215115  0.750000  1
  Ce  Ce7  1  0.000000  0.784885  0.250000  1
  Ce  Ce8  1  0.784885  0.784885  0.750000  1
  Ce  Ce9  1  0.215115  0.215115  0.250000  1
  Sn  Sn10  1  0.600883  0.000000  0.750000  1
  Sn  Sn11  1  0.399117  0.000000  0.250000  1
  Sn  Sn12  1  0.000000  0.600883  0.750000  1
  Sn  Sn13  1  0.000000  0.399117  0.250000  1
  Sn  Sn14  1  0.399117  0.399117  0.750000  1
  Sn  Sn15  1  0.600883  0.600883  0.250000  1
  C  C16  1  0.000000  0.000000  0.500000  1
  C  C17  1  0.000000  0.000000  0.000000  1
