# generated using pymatgen
data_Dy4Y2ReBi2
_symmetry_space_group_name_H-M   'P 1'
_cell_length_a   4.34779600
_cell_length_b   8.28927808
_cell_length_c   8.29600491
_cell_angle_alpha   119.97317402
_cell_angle_beta   90.00000000
_cell_angle_gamma   90.00000000
_symmetry_Int_Tables_number   1
_chemical_formula_structural   Dy4Y2ReBi2
_chemical_formula_sum   'Dy4 Y2 Re1 Bi2'
_cell_volume   259.00183048
_cell_formula_units_Z   1
loop_
 _symmetry_equiv_pos_site_id
 _symmetry_equiv_pos_as_xyz
  1  'x, y, z'
loop_
 _atom_site_type_symbol
 _atom_site_label
 _atom_site_symmetry_multiplicity
 _atom_site_fract_x
 _atom_site_fract_y
 _atom_site_fract_z
 _atom_site_occupancy
  Dy  Dy0  1  0.500000  0.767836  0.767916  1
  Dy  Dy1  1  0.500000  0.999920  0.232084  1
  Dy  Dy2  1  0.500000  0.232196  0.000000  1
  Dy  Dy3  1  0.000000  0.610384  0.000000  1
  Y  Y4  1  0.000000  0.389806  0.389831  1
  Y  Y5  1  0.000000  0.999975  0.610169  1
  Re  Re6  1  0.000000  0.999852  0.000000  1
  Bi  Bi7  1  0.500000  0.666697  0.333361  1
  Bi  Bi8  1  0.500000  0.333335  0.666639  1
