# generated using pymatgen
data_PrSm3(In2Pd3)4
_symmetry_space_group_name_H-M   'P 1'
_cell_length_a   4.67156200
_cell_length_b   9.98108200
_cell_length_c   10.37009200
_cell_angle_alpha   89.99999447
_cell_angle_beta   90.00000000
_cell_angle_gamma   90.00000000
_symmetry_Int_Tables_number   1
_chemical_formula_structural   PrSm3(In2Pd3)4
_chemical_formula_sum   'Pr1 Sm3 In8 Pd12'
_cell_volume   483.52880366
_cell_formula_units_Z   1
loop_
 _symmetry_equiv_pos_site_id
 _symmetry_equiv_pos_as_xyz
  1  'x, y, z'
loop_
 _atom_site_type_symbol
 _atom_site_label
 _atom_site_symmetry_multiplicity
 _atom_site_fract_x
 _atom_site_fract_y
 _atom_site_fract_z
 _atom_site_occupancy
  Pr  Pr0  1  0.250000  0.443496  0.729439  1
  Sm  Sm1  1  0.250000  0.056715  0.227774  1
  Sm  Sm2  1  0.750000  0.556763  0.272146  1
  Sm  Sm3  1  0.750000  0.943101  0.772376  1
  In  In4  1  0.250000  0.884673  0.515339  1
  In  In5  1  0.250000  0.615621  0.016436  1
  In  In6  1  0.750000  0.115333  0.484309  1
  In  In7  1  0.750000  0.384520  0.984947  1
  In  In8  1  0.250000  0.158622  0.894502  1
  In  In9  1  0.250000  0.340222  0.393453  1
  In  In10  1  0.750000  0.840501  0.106129  1
  In  In11  1  0.750000  0.660397  0.605408  1
  Pd  Pd12  1  0.250000  0.142840  0.620333  1
  Pd  Pd13  1  0.250000  0.355977  0.120535  1
  Pd  Pd14  1  0.750000  0.856091  0.379426  1
  Pd  Pd15  1  0.750000  0.645019  0.880054  1
  Pd  Pd16  1  0.250000  0.742112  0.741868  1
  Pd  Pd17  1  0.250000  0.760021  0.241687  1
  Pd  Pd18  1  0.750000  0.259675  0.258135  1
  Pd  Pd19  1  0.750000  0.238186  0.758225  1
  Pd  Pd20  1  0.250000  0.895363  0.973872  1
  Pd  Pd21  1  0.250000  0.605091  0.472474  1
  Pd  Pd22  1  0.750000  0.104293  0.026372  1
  Pd  Pd23  1  0.750000  0.395369  0.524760  1
