# generated using pymatgen
data_Tb7Dy3(Bi3Se)2
_symmetry_space_group_name_H-M   'P 1'
_cell_length_a   9.30434400
_cell_length_b   9.30434513
_cell_length_c   6.62945300
_cell_angle_alpha   90.00000000
_cell_angle_beta   90.00000000
_cell_angle_gamma   120.00000308
_symmetry_Int_Tables_number   1
_chemical_formula_structural   Tb7Dy3(Bi3Se)2
_chemical_formula_sum   'Tb7 Dy3 Bi6 Se2'
_cell_volume   497.02688898
_cell_formula_units_Z   1
loop_
 _symmetry_equiv_pos_site_id
 _symmetry_equiv_pos_as_xyz
  1  'x, y, z'
loop_
 _atom_site_type_symbol
 _atom_site_label
 _atom_site_symmetry_multiplicity
 _atom_site_fract_x
 _atom_site_fract_y
 _atom_site_fract_z
 _atom_site_occupancy
  Tb  Tb0  1  0.666667  0.333333  0.000000  1
  Tb  Tb1  1  0.745399  0.745400  0.250030  1
  Tb  Tb2  1  0.254600  0.999999  0.250030  1
  Tb  Tb3  1  0.000001  0.254601  0.250030  1
  Tb  Tb4  1  0.254600  0.254601  0.749970  1
  Tb  Tb5  1  0.745399  0.999999  0.749970  1
  Tb  Tb6  1  0.000001  0.745400  0.749970  1
  Dy  Dy7  1  0.666667  0.333333  0.500000  1
  Dy  Dy8  1  0.333333  0.666667  0.500000  1
  Dy  Dy9  1  0.333333  0.666667  0.000000  1
  Bi  Bi10  1  0.394084  0.394165  0.250080  1
  Bi  Bi11  1  0.605835  0.999919  0.250080  1
  Bi  Bi12  1  0.000081  0.605916  0.250080  1
  Bi  Bi13  1  0.605835  0.605916  0.749920  1
  Bi  Bi14  1  0.394084  0.999919  0.749920  1
  Bi  Bi15  1  0.000081  0.394165  0.749920  1
  Se  Se16  1  0.000000  0.000000  0.500000  1
  Se  Se17  1  0.000000  0.000000  0.000000  1
