# generated using pymatgen
data_YEr5(RuI3)2
_symmetry_space_group_name_H-M   'P 1'
_cell_length_a   4.20879100
_cell_length_b   8.83221243
_cell_length_c   12.24494562
_cell_angle_alpha   86.06879450
_cell_angle_beta   90.00000000
_cell_angle_gamma   90.00000000
_symmetry_Int_Tables_number   1
_chemical_formula_structural   YEr5(RuI3)2
_chemical_formula_sum   'Y1 Er5 Ru2 I6'
_cell_volume   454.10958185
_cell_formula_units_Z   1
loop_
 _symmetry_equiv_pos_site_id
 _symmetry_equiv_pos_as_xyz
  1  'x, y, z'
loop_
 _atom_site_type_symbol
 _atom_site_label
 _atom_site_symmetry_multiplicity
 _atom_site_fract_x
 _atom_site_fract_y
 _atom_site_fract_z
 _atom_site_occupancy
  Y  Y0  1  0.750000  0.738867  0.103577  1
  Er  Er1  1  0.750000  0.131140  0.126448  1
  Er  Er2  1  0.250000  0.869524  0.873257  1
  Er  Er3  1  0.750000  0.099328  0.685713  1
  Er  Er4  1  0.250000  0.901526  0.314644  1
  Er  Er5  1  0.250000  0.257195  0.896491  1
  Ru  Ru6  1  0.750000  0.053000  0.907450  1
  Ru  Ru7  1  0.250000  0.949000  0.092003  1
  I  I8  1  0.250000  0.353370  0.636045  1
  I  I9  1  0.750000  0.646796  0.364422  1
  I  I10  1  0.750000  0.141856  0.393005  1
  I  I11  1  0.250000  0.858204  0.607084  1
  I  I12  1  0.250000  0.426370  0.133100  1
  I  I13  1  0.750000  0.573824  0.866761  1
