# generated using pymatgen
data_DyNp7F30
_symmetry_space_group_name_H-M   'P 1'
_cell_length_a   8.65222945
_cell_length_b   8.66335183
_cell_length_c   8.65223013
_cell_angle_alpha   100.57899251
_cell_angle_beta   100.14729577
_cell_angle_gamma   100.57899002
_symmetry_Int_Tables_number   1
_chemical_formula_structural   DyNp7F30
_chemical_formula_sum   'Dy1 Np7 F30'
_cell_volume   611.72647306
_cell_formula_units_Z   1
loop_
 _symmetry_equiv_pos_site_id
 _symmetry_equiv_pos_as_xyz
  1  'x, y, z'
loop_
 _atom_site_type_symbol
 _atom_site_label
 _atom_site_symmetry_multiplicity
 _atom_site_fract_x
 _atom_site_fract_y
 _atom_site_fract_z
 _atom_site_occupancy
  Dy  Dy0  1  0.823612  0.250000  0.676388  1
  Np  Np1  1  0.250623  0.250000  0.249377  1
  Np  Np2  1  0.177480  0.750000  0.322520  1
  Np  Np3  1  0.246559  0.675809  0.822581  1
  Np  Np4  1  0.677419  0.824191  0.253441  1
  Np  Np5  1  0.749599  0.750000  0.750401  1
  Np  Np6  1  0.324011  0.178949  0.747754  1
  Np  Np7  1  0.752246  0.321051  0.175989  1
  F  F8  1  0.968992  0.530466  0.251945  1
  F  F9  1  0.816103  0.336334  0.442348  1
  F  F10  1  0.486575  0.716613  0.717113  1
  F  F11  1  0.344205  0.449581  0.826603  1
  F  F12  1  0.013493  0.785382  0.784089  1
  F  F13  1  0.752589  0.030459  0.466305  1
  F  F14  1  0.946376  0.839302  0.323028  1
  F  F15  1  0.218169  0.219261  0.989458  1
  F  F16  1  0.780948  0.008347  0.777814  1
  F  F17  1  0.324308  0.946841  0.838673  1
  F  F18  1  0.282606  0.286796  0.512344  1
  F  F19  1  0.447093  0.825729  0.343633  1
  F  F20  1  0.529268  0.250000  0.970732  1
  F  F21  1  0.284215  0.512667  0.280842  1
  F  F22  1  0.156367  0.674271  0.052907  1
  F  F23  1  0.839472  0.319470  0.946870  1
  F  F24  1  0.722186  0.491653  0.719052  1
  F  F25  1  0.465104  0.750000  0.034896  1
  F  F26  1  0.553130  0.180530  0.660528  1
  F  F27  1  0.715911  0.714618  0.486507  1
  F  F28  1  0.673397  0.050419  0.155795  1
  F  F29  1  0.219158  0.987333  0.215785  1
  F  F30  1  0.782887  0.783387  0.013425  1
  F  F31  1  0.057652  0.163666  0.683897  1
  F  F32  1  0.248055  0.969534  0.531008  1
  F  F33  1  0.987656  0.213204  0.217394  1
  F  F34  1  0.661327  0.553159  0.175692  1
  F  F35  1  0.510542  0.280739  0.281831  1
  F  F36  1  0.176972  0.660698  0.553624  1
  F  F37  1  0.033695  0.469541  0.747411  1
