# generated using pymatgen
data_Li(Cd5Pt)2
_symmetry_space_group_name_H-M   'P 1'
_cell_length_a   8.76729886
_cell_length_b   8.76730032
_cell_length_c   8.75237313
_cell_angle_alpha   109.42178195
_cell_angle_beta   109.42178498
_cell_angle_gamma   109.63900144
_symmetry_Int_Tables_number   1
_chemical_formula_structural   Li(Cd5Pt)2
_chemical_formula_sum   'Li2 Cd20 Pt4'
_cell_volume   517.44499844
_cell_formula_units_Z   2
loop_
 _symmetry_equiv_pos_site_id
 _symmetry_equiv_pos_as_xyz
  1  'x, y, z'
loop_
 _atom_site_type_symbol
 _atom_site_label
 _atom_site_symmetry_multiplicity
 _atom_site_fract_x
 _atom_site_fract_y
 _atom_site_fract_z
 _atom_site_occupancy
  Li  Li0  1  0.200114  0.999235  0.000000  1
  Li  Li1  1  0.999235  0.200114  0.000000  1
  Cd  Cd2  1  0.006509  0.006509  0.201185  1
  Cd  Cd3  1  0.805324  0.805324  0.798815  1
  Cd  Cd4  1  0.007208  0.647908  0.649809  1
  Cd  Cd5  1  0.357398  0.998097  0.350191  1
  Cd  Cd6  1  0.338366  0.338366  0.000000  1
  Cd  Cd7  1  0.998097  0.357398  0.350191  1
  Cd  Cd8  1  0.647908  0.007208  0.649809  1
  Cd  Cd9  1  0.634998  0.634998  0.000000  1
  Cd  Cd10  1  0.350771  0.751833  0.000000  1
  Cd  Cd11  1  0.599327  0.249528  0.250240  1
  Cd  Cd12  1  0.349087  0.999288  0.749760  1
  Cd  Cd13  1  0.751833  0.350771  0.000000  1
  Cd  Cd14  1  0.999288  0.349087  0.749760  1
  Cd  Cd15  1  0.249528  0.599327  0.250240  1
  Cd  Cd16  1  0.261353  0.261353  0.613191  1
  Cd  Cd17  1  0.999185  0.743637  0.350584  1
  Cd  Cd18  1  0.743637  0.999185  0.350584  1
  Cd  Cd19  1  0.648162  0.648162  0.386809  1
  Cd  Cd20  1  0.393053  0.648600  0.649416  1
  Cd  Cd21  1  0.648600  0.393053  0.649416  1
  Pt  Pt22  1  0.661732  0.003637  0.000000  1
  Pt  Pt23  1  0.003637  0.661732  0.000000  1
  Pt  Pt24  1  0.003883  0.003883  0.662117  1
  Pt  Pt25  1  0.341767  0.341767  0.337883  1
