# generated using pymatgen
data_Ta17NbNi4(GePt2)2
_symmetry_space_group_name_H-M   'P 1'
_cell_length_a   5.12748749
_cell_length_b   9.80815762
_cell_length_c   9.81227350
_cell_angle_alpha   86.06979768
_cell_angle_beta   74.85402184
_cell_angle_gamma   74.84751171
_symmetry_Int_Tables_number   1
_chemical_formula_structural   Ta17NbNi4(GePt2)2
_chemical_formula_sum   'Ta17 Nb1 Ni4 Ge2 Pt4'
_cell_volume   459.76920580
_cell_formula_units_Z   1
loop_
 _symmetry_equiv_pos_site_id
 _symmetry_equiv_pos_as_xyz
  1  'x, y, z'
loop_
 _atom_site_type_symbol
 _atom_site_label
 _atom_site_symmetry_multiplicity
 _atom_site_fract_x
 _atom_site_fract_y
 _atom_site_fract_z
 _atom_site_occupancy
  Ta  Ta0  1  0.750111  0.500019  0.499934  1
  Ta  Ta1  1  0.249935  0.500019  0.499934  1
  Ta  Ta2  1  0.790089  0.780606  0.639215  1
  Ta  Ta3  1  0.209815  0.219619  0.360753  1
  Ta  Ta4  1  0.710222  0.359774  0.219784  1
  Ta  Ta5  1  0.290110  0.639303  0.780476  1
  Ta  Ta6  1  0.570598  0.639296  0.219511  1
  Ta  Ta7  1  0.429346  0.360725  0.780580  1
  Ta  Ta8  1  0.070612  0.219504  0.639275  1
  Ta  Ta9  1  0.929454  0.780384  0.360706  1
  Ta  Ta10  1  0.585199  0.077191  0.752411  1
  Ta  Ta11  1  0.414710  0.922710  0.247868  1
  Ta  Ta12  1  0.915018  0.247324  0.922639  1
  Ta  Ta13  1  0.085241  0.752326  0.077192  1
  Ta  Ta14  1  0.662396  0.752502  0.922707  1
  Ta  Ta15  1  0.337585  0.248157  0.076672  1
  Ta  Ta16  1  0.162237  0.922794  0.752733  1
  Nb  Nb17  1  0.838203  0.077461  0.246132  1
  Ni  Ni18  1  0.499730  0.000036  0.500496  1
  Ni  Ni19  1  0.999737  0.000036  0.500496  1
  Ni  Ni20  1  0.500163  0.500028  0.000098  1
  Ni  Ni21  1  0.999711  0.500028  0.000098  1
  Ge  Ge22  1  0.250001  0.000056  0.999984  1
  Ge  Ge23  1  0.749959  0.000056  0.999984  1
  Pt  Pt24  1  0.130231  0.500002  0.239536  1
  Pt  Pt25  1  0.869816  0.499957  0.760412  1
  Pt  Pt26  1  0.369792  0.760430  0.499985  1
  Pt  Pt27  1  0.629977  0.239657  0.500390  1
