# generated using pymatgen
data_Sr12AlGe11Au12
_symmetry_space_group_name_H-M   'P 1'
_cell_length_a   4.67666100
_cell_length_b   8.02914035
_cell_length_c   23.22901313
_cell_angle_alpha   89.88364789
_cell_angle_beta   90.00000000
_cell_angle_gamma   90.00000000
_symmetry_Int_Tables_number   1
_chemical_formula_structural   Sr12AlGe11Au12
_chemical_formula_sum   'Sr12 Al1 Ge11 Au12'
_cell_volume   872.23759903
_cell_formula_units_Z   1
loop_
 _symmetry_equiv_pos_site_id
 _symmetry_equiv_pos_as_xyz
  1  'x, y, z'
loop_
 _atom_site_type_symbol
 _atom_site_label
 _atom_site_symmetry_multiplicity
 _atom_site_fract_x
 _atom_site_fract_y
 _atom_site_fract_z
 _atom_site_occupancy
  Sr  Sr0  1  0.750000  0.210550  0.498520  1
  Sr  Sr1  1  0.250000  0.794541  0.166377  1
  Sr  Sr2  1  0.250000  0.787420  0.500799  1
  Sr  Sr3  1  0.250000  0.795598  0.833139  1
  Sr  Sr4  1  0.250000  0.704534  0.332332  1
  Sr  Sr5  1  0.750000  0.206728  0.834955  1
  Sr  Sr6  1  0.750000  0.285920  0.999388  1
  Sr  Sr7  1  0.750000  0.296726  0.667886  1
  Sr  Sr8  1  0.750000  0.294220  0.333575  1
  Sr  Sr9  1  0.250000  0.703052  0.664674  1
  Sr  Sr10  1  0.250000  0.714412  0.001728  1
  Sr  Sr11  1  0.750000  0.205137  0.167713  1
  Al  Al12  1  0.750000  0.918784  0.726343  1
  Ge  Ge13  1  0.250000  0.409983  0.564917  1
  Ge  Ge14  1  0.250000  0.081843  0.392821  1
  Ge  Ge15  1  0.250000  0.089648  0.067444  1
  Ge  Ge16  1  0.250000  0.419377  0.893417  1
  Ge  Ge17  1  0.750000  0.582761  0.106854  1
  Ge  Ge18  1  0.250000  0.418264  0.774779  1
  Ge  Ge19  1  0.750000  0.580667  0.225597  1
  Ge  Ge20  1  0.750000  0.588516  0.432368  1
  Ge  Ge21  1  0.750000  0.910231  0.934538  1
  Ge  Ge22  1  0.250000  0.080802  0.274362  1
  Ge  Ge23  1  0.750000  0.917278  0.606411  1
  Au  Au24  1  0.250000  0.085374  0.594722  1
  Au  Au25  1  0.250000  0.079530  0.738059  1
  Au  Au26  1  0.750000  0.586126  0.905816  1
  Au  Au27  1  0.750000  0.913430  0.403380  1
  Au  Au28  1  0.750000  0.580008  0.566935  1
  Au  Au29  1  0.750000  0.598868  0.761407  1
  Au  Au30  1  0.250000  0.417773  0.431548  1
  Au  Au31  1  0.250000  0.413715  0.237388  1
  Au  Au32  1  0.750000  0.918028  0.068764  1
  Au  Au33  1  0.250000  0.414035  0.096037  1
  Au  Au34  1  0.250000  0.082510  0.932517  1
  Au  Au35  1  0.750000  0.913610  0.262490  1
