# generated using pymatgen
data_Ho3ThAgIr
_symmetry_space_group_name_H-M   'P 1'
_cell_length_a   9.62663125
_cell_length_b   9.62663182
_cell_length_c   9.62663100
_cell_angle_alpha   59.99999939
_cell_angle_beta   59.99999743
_cell_angle_gamma   60.00000025
_symmetry_Int_Tables_number   1
_chemical_formula_structural   Ho3ThAgIr
_chemical_formula_sum   'Ho12 Th4 Ag4 Ir4'
_cell_volume   630.82372184
_cell_formula_units_Z   4
loop_
 _symmetry_equiv_pos_site_id
 _symmetry_equiv_pos_as_xyz
  1  'x, y, z'
loop_
 _atom_site_type_symbol
 _atom_site_label
 _atom_site_symmetry_multiplicity
 _atom_site_fract_x
 _atom_site_fract_y
 _atom_site_fract_z
 _atom_site_occupancy
  Ho  Ho0  1  0.061872  0.438128  0.438128  1
  Ho  Ho1  1  0.438128  0.061872  0.061872  1
  Ho  Ho2  1  0.438128  0.061872  0.438128  1
  Ho  Ho3  1  0.061872  0.438128  0.061872  1
  Ho  Ho4  1  0.438128  0.438128  0.061872  1
  Ho  Ho5  1  0.061872  0.061872  0.438128  1
  Ho  Ho6  1  0.184251  0.815749  0.815749  1
  Ho  Ho7  1  0.815749  0.184251  0.184251  1
  Ho  Ho8  1  0.815749  0.184251  0.815749  1
  Ho  Ho9  1  0.184251  0.815749  0.184251  1
  Ho  Ho10  1  0.815749  0.815749  0.184251  1
  Ho  Ho11  1  0.184251  0.184251  0.815749  1
  Th  Th12  1  0.602213  0.602213  0.602213  1
  Th  Th13  1  0.602213  0.602213  0.193361  1
  Th  Th14  1  0.602213  0.193361  0.602213  1
  Th  Th15  1  0.193361  0.602213  0.602213  1
  Ag  Ag16  1  0.833447  0.833447  0.833447  1
  Ag  Ag17  1  0.833447  0.833447  0.499658  1
  Ag  Ag18  1  0.833447  0.499658  0.833447  1
  Ag  Ag19  1  0.499658  0.833447  0.833447  1
  Ir  Ir20  1  0.393118  0.393118  0.393118  1
  Ir  Ir21  1  0.393118  0.393118  0.820646  1
  Ir  Ir22  1  0.393118  0.820646  0.393118  1
  Ir  Ir23  1  0.820646  0.393118  0.393118  1
