# generated using pymatgen
data_Pa2Nb4Pd11Rh7
_symmetry_space_group_name_H-M   'P 1'
_cell_length_a   5.67789072
_cell_length_b   5.67789031
_cell_length_c   13.90922281
_cell_angle_alpha   90.44246305
_cell_angle_beta   89.55753683
_cell_angle_gamma   120.23173584
_symmetry_Int_Tables_number   1
_chemical_formula_structural   Pa2Nb4Pd11Rh7
_chemical_formula_sum   'Pa2 Nb4 Pd11 Rh7'
_cell_volume   387.41053097
_cell_formula_units_Z   1
loop_
 _symmetry_equiv_pos_site_id
 _symmetry_equiv_pos_as_xyz
  1  'x, y, z'
loop_
 _atom_site_type_symbol
 _atom_site_label
 _atom_site_symmetry_multiplicity
 _atom_site_fract_x
 _atom_site_fract_y
 _atom_site_fract_z
 _atom_site_occupancy
  Pa  Pa0  1  0.999072  0.000928  0.250107  1
  Pa  Pa1  1  0.005275  0.994725  0.745885  1
  Nb  Nb2  1  0.327687  0.672313  0.405115  1
  Nb  Nb3  1  0.666233  0.333767  0.598074  1
  Nb  Nb4  1  0.668701  0.331299  0.900027  1
  Nb  Nb5  1  0.333913  0.666087  0.099801  1
  Pd  Pd6  1  0.169904  0.335458  0.920081  1
  Pd  Pd7  1  0.664542  0.830096  0.920081  1
  Pd  Pd8  1  0.170626  0.829374  0.920121  1
  Pd  Pd9  1  0.831521  0.661935  0.079488  1
  Pd  Pd10  1  0.338065  0.168479  0.079488  1
  Pd  Pd11  1  0.831388  0.168612  0.079829  1
  Pd  Pd12  1  0.830312  0.665132  0.420521  1
  Pd  Pd13  1  0.334868  0.169688  0.420521  1
  Pd  Pd14  1  0.829173  0.170827  0.419555  1
  Pd  Pd15  1  0.167728  0.341043  0.578801  1
  Pd  Pd16  1  0.658957  0.832272  0.578801  1
  Rh  Rh17  1  0.500196  0.499804  0.250098  1
  Rh  Rh18  1  0.500114  0.004445  0.250199  1
  Rh  Rh19  1  0.995555  0.499886  0.250199  1
  Rh  Rh20  1  0.501418  0.498582  0.750382  1
  Rh  Rh21  1  0.502020  0.993607  0.750728  1
  Rh  Rh22  1  0.006393  0.497980  0.750728  1
  Rh  Rh23  1  0.166339  0.833661  0.581375  1
