# generated using pymatgen
data_TbY2Lu3MnSb2
_symmetry_space_group_name_H-M   'P 1'
_cell_length_a   8.07472786
_cell_length_b   8.07472795
_cell_length_c   4.25071700
_cell_angle_alpha   90.00000000
_cell_angle_beta   90.00000000
_cell_angle_gamma   120.07774641
_symmetry_Int_Tables_number   1
_chemical_formula_structural   TbY2Lu3MnSb2
_chemical_formula_sum   'Tb1 Y2 Lu3 Mn1 Sb2'
_cell_volume   239.83239631
_cell_formula_units_Z   1
loop_
 _symmetry_equiv_pos_site_id
 _symmetry_equiv_pos_as_xyz
  1  'x, y, z'
loop_
 _atom_site_type_symbol
 _atom_site_label
 _atom_site_symmetry_multiplicity
 _atom_site_fract_x
 _atom_site_fract_y
 _atom_site_fract_z
 _atom_site_occupancy
  Tb  Tb0  1  0.395208  0.395208  0.000000  1
  Y  Y1  1  0.604815  0.000186  0.000000  1
  Y  Y2  1  0.000186  0.604815  0.000000  1
  Lu  Lu3  1  0.233121  0.999959  0.500000  1
  Lu  Lu4  1  0.999959  0.233121  0.500000  1
  Lu  Lu5  1  0.766644  0.766644  0.500000  1
  Mn  Mn6  1  0.999877  0.999877  0.000000  1
  Sb  Sb7  1  0.333213  0.666977  0.500000  1
  Sb  Sb8  1  0.666977  0.333213  0.500000  1
