# generated using pymatgen
data_Tb2Y3Er5Bi6
_symmetry_space_group_name_H-M   'P 1'
_cell_length_a   8.25357600
_cell_length_b   9.48795812
_cell_length_c   12.07027602
_cell_angle_alpha   90.00595035
_cell_angle_beta   90.00000000
_cell_angle_gamma   90.00000000
_symmetry_Int_Tables_number   1
_chemical_formula_structural   Tb2Y3Er5Bi6
_chemical_formula_sum   'Tb4 Y6 Er10 Bi12'
_cell_volume   945.21828114
_cell_formula_units_Z   2
loop_
 _symmetry_equiv_pos_site_id
 _symmetry_equiv_pos_as_xyz
  1  'x, y, z'
loop_
 _atom_site_type_symbol
 _atom_site_label
 _atom_site_symmetry_multiplicity
 _atom_site_fract_x
 _atom_site_fract_y
 _atom_site_fract_z
 _atom_site_occupancy
  Tb  Tb0  1  0.186342  0.749999  0.718810  1
  Tb  Tb1  1  0.686342  0.750001  0.781190  1
  Tb  Tb2  1  0.813566  0.249748  0.281011  1
  Tb  Tb3  1  0.313566  0.250252  0.218989  1
  Y  Y4  1  0.306584  0.062934  0.940351  1
  Y  Y5  1  0.806584  0.437066  0.559649  1
  Y  Y6  1  0.353792  0.750166  0.215582  1
  Y  Y7  1  0.853792  0.749834  0.284418  1
  Y  Y8  1  0.645899  0.249861  0.784537  1
  Y  Y9  1  0.145899  0.250139  0.715463  1
  Er  Er10  1  0.025317  0.749868  0.988961  1
  Er  Er11  1  0.525317  0.750132  0.511039  1
  Er  Er12  1  0.973824  0.250413  0.011210  1
  Er  Er13  1  0.473824  0.249587  0.488790  1
  Er  Er14  1  0.306456  0.435489  0.940186  1
  Er  Er15  1  0.806456  0.064511  0.559814  1
  Er  Er16  1  0.693652  0.934952  0.059743  1
  Er  Er17  1  0.193652  0.565048  0.440257  1
  Er  Er18  1  0.693754  0.564926  0.059833  1
  Er  Er19  1  0.193754  0.935074  0.440167  1
  Bi  Bi20  1  0.434049  0.003835  0.672728  1
  Bi  Bi21  1  0.934049  0.496165  0.827272  1
  Bi  Bi22  1  0.566089  0.503825  0.326962  1
  Bi  Bi23  1  0.066089  0.996175  0.173038  1
  Bi  Bi24  1  0.566169  0.996095  0.327210  1
  Bi  Bi25  1  0.066169  0.503905  0.172790  1
  Bi  Bi26  1  0.433580  0.496053  0.672944  1
  Bi  Bi27  1  0.933580  0.003947  0.827056  1
  Bi  Bi28  1  0.408548  0.748433  0.958453  1
  Bi  Bi29  1  0.908548  0.751567  0.541547  1
  Bi  Bi30  1  0.592380  0.250454  0.042175  1
  Bi  Bi31  1  0.092380  0.249546  0.457825  1
