# generated using pymatgen
data_TbY3Ga18PdRh5
_symmetry_space_group_name_H-M   'P 1'
_cell_length_a   7.59378940
_cell_length_b   7.59379201
_cell_length_c   9.52597100
_cell_angle_alpha   90.03346713
_cell_angle_beta   90.03493030
_cell_angle_gamma   119.86598778
_symmetry_Int_Tables_number   1
_chemical_formula_structural   TbY3Ga18PdRh5
_chemical_formula_sum   'Tb1 Y3 Ga18 Pd1 Rh5'
_cell_volume   476.36704775
_cell_formula_units_Z   1
loop_
 _symmetry_equiv_pos_site_id
 _symmetry_equiv_pos_as_xyz
  1  'x, y, z'
loop_
 _atom_site_type_symbol
 _atom_site_label
 _atom_site_symmetry_multiplicity
 _atom_site_fract_x
 _atom_site_fract_y
 _atom_site_fract_z
 _atom_site_occupancy
  Tb  Tb0  1  0.331705  0.003519  0.749214  1
  Y  Y1  1  0.996471  0.668309  0.250794  1
  Y  Y2  1  0.003511  0.331685  0.749213  1
  Y  Y3  1  0.668297  0.996461  0.250794  1
  Ga  Ga4  1  0.127247  0.127253  0.252243  1
  Ga  Ga5  1  0.872765  0.872719  0.747766  1
  Ga  Ga6  1  0.000040  0.336993  0.079797  1
  Ga  Ga7  1  0.999940  0.662980  0.920156  1
  Ga  Ga8  1  0.000146  0.665773  0.578206  1
  Ga  Ga9  1  0.334185  0.999845  0.421819  1
  Ga  Ga10  1  0.999826  0.334179  0.421828  1
  Ga  Ga11  1  0.665837  0.000180  0.578217  1
  Ga  Ga12  1  0.663033  0.999969  0.920156  1
  Ga  Ga13  1  0.336997  0.000060  0.079805  1
  Ga  Ga14  1  0.333136  0.333155  0.563227  1
  Ga  Ga15  1  0.666859  0.666861  0.436795  1
  Ga  Ga16  1  0.663172  0.663172  0.064800  1
  Ga  Ga17  1  0.336807  0.336824  0.935169  1
  Ga  Ga18  1  0.337737  0.546608  0.250388  1
  Ga  Ga19  1  0.662211  0.453379  0.749611  1
  Ga  Ga20  1  0.546617  0.337721  0.250387  1
  Ga  Ga21  1  0.453429  0.662322  0.749613  1
  Pd  Pd22  1  0.999991  0.999998  0.000026  1
  Rh  Rh23  1  0.671475  0.328535  0.000042  1
  Rh  Rh24  1  0.328543  0.671485  0.000024  1
  Rh  Rh25  1  0.328503  0.671530  0.499974  1
  Rh  Rh26  1  0.671498  0.328489  0.499962  1
  Rh  Rh27  1  0.000022  0.999996  0.499974  1
