# generated using pymatgen
data_TbErGa2IrPt
_symmetry_space_group_name_H-M   'P 1'
_cell_length_a   4.41938100
_cell_length_b   6.81925100
_cell_length_c   7.72034500
_cell_angle_alpha   90.00000000
_cell_angle_beta   90.00000000
_cell_angle_gamma   90.00000000
_symmetry_Int_Tables_number   1
_chemical_formula_structural   TbErGa2IrPt
_chemical_formula_sum   'Tb2 Er2 Ga4 Ir2 Pt2'
_cell_volume   232.66702052
_cell_formula_units_Z   2
loop_
 _symmetry_equiv_pos_site_id
 _symmetry_equiv_pos_as_xyz
  1  'x, y, z'
loop_
 _atom_site_type_symbol
 _atom_site_label
 _atom_site_symmetry_multiplicity
 _atom_site_fract_x
 _atom_site_fract_y
 _atom_site_fract_z
 _atom_site_occupancy
  Tb  Tb0  1  0.750000  0.021846  0.688550  1
  Tb  Tb1  1  0.750000  0.521846  0.811450  1
  Er  Er2  1  0.250000  0.984371  0.303603  1
  Er  Er3  1  0.250000  0.484371  0.196397  1
  Ga  Ga4  1  0.250000  0.333240  0.567494  1
  Ga  Ga5  1  0.250000  0.833240  0.932506  1
  Ga  Ga6  1  0.750000  0.660408  0.424797  1
  Ga  Ga7  1  0.750000  0.160408  0.075203  1
  Ir  Ir8  1  0.750000  0.772413  0.106281  1
  Ir  Ir9  1  0.750000  0.272413  0.393719  1
  Pt  Pt10  1  0.250000  0.227723  0.897191  1
  Pt  Pt11  1  0.250000  0.727723  0.602809  1
