# generated using pymatgen
data_AcSm(WN3)2
_symmetry_space_group_name_H-M   'P 1'
_cell_length_a   7.58316415
_cell_length_b   7.58316381
_cell_length_c   6.27217300
_cell_angle_alpha   78.94870122
_cell_angle_beta   78.94871712
_cell_angle_gamma   90.03036915
_symmetry_Int_Tables_number   1
_chemical_formula_structural   AcSm(WN3)2
_chemical_formula_sum   'Ac2 Sm2 W4 N12'
_cell_volume   347.16439452
_cell_formula_units_Z   2
loop_
 _symmetry_equiv_pos_site_id
 _symmetry_equiv_pos_as_xyz
  1  'x, y, z'
loop_
 _atom_site_type_symbol
 _atom_site_label
 _atom_site_symmetry_multiplicity
 _atom_site_fract_x
 _atom_site_fract_y
 _atom_site_fract_z
 _atom_site_occupancy
  Ac  Ac0  1  0.307436  0.692564  0.750000  1
  Ac  Ac1  1  0.692564  0.307436  0.250000  1
  Sm  Sm2  1  0.092069  0.907931  0.250000  1
  Sm  Sm3  1  0.907931  0.092069  0.750000  1
  W  W4  1  0.378015  0.202040  0.768966  1
  W  W5  1  0.621985  0.797960  0.231034  1
  W  W6  1  0.797960  0.621985  0.731034  1
  W  W7  1  0.202040  0.378015  0.268966  1
  N  N8  1  0.991563  0.788339  0.643574  1
  N  N9  1  0.871524  0.397446  0.827120  1
  N  N10  1  0.788339  0.991563  0.143574  1
  N  N11  1  0.128476  0.602554  0.172880  1
  N  N12  1  0.008437  0.211661  0.356426  1
  N  N13  1  0.211661  0.008437  0.856426  1
  N  N14  1  0.602554  0.128476  0.672880  1
  N  N15  1  0.633131  0.669717  0.986920  1
  N  N16  1  0.366869  0.330283  0.013080  1
  N  N17  1  0.397446  0.871524  0.327120  1
  N  N18  1  0.669717  0.633131  0.486920  1
  N  N19  1  0.330283  0.366869  0.513080  1
