# generated using pymatgen
data_SmZn2Ga4Cu7
_symmetry_space_group_name_H-M   'P 1'
_cell_length_a   8.38983338
_cell_length_b   8.38983239
_cell_length_c   8.38983238
_cell_angle_alpha   121.83404666
_cell_angle_beta   119.69065203
_cell_angle_gamma   88.69482865
_symmetry_Int_Tables_number   1
_chemical_formula_structural   SmZn2Ga4Cu7
_chemical_formula_sum   'Sm2 Zn4 Ga8 Cu14'
_cell_volume   412.47137545
_cell_formula_units_Z   2
loop_
 _symmetry_equiv_pos_site_id
 _symmetry_equiv_pos_as_xyz
  1  'x, y, z'
loop_
 _atom_site_type_symbol
 _atom_site_label
 _atom_site_symmetry_multiplicity
 _atom_site_fract_x
 _atom_site_fract_y
 _atom_site_fract_z
 _atom_site_occupancy
  Sm  Sm0  1  0.750000  0.750000  0.000000  1
  Sm  Sm1  1  0.250000  0.250000  0.000000  1
  Zn  Zn2  1  0.057690  0.189957  0.247648  1
  Zn  Zn3  1  0.942310  0.810043  0.752352  1
  Zn  Zn4  1  0.557690  0.310043  0.867733  1
  Zn  Zn5  1  0.442310  0.689957  0.132267  1
  Ga  Ga6  1  0.052850  0.546100  0.856799  1
  Ga  Ga7  1  0.689301  0.196051  0.143201  1
  Ga  Ga8  1  0.552850  0.696051  0.506750  1
  Ga  Ga9  1  0.189301  0.046100  0.493250  1
  Ga  Ga10  1  0.947150  0.453900  0.143201  1
  Ga  Ga11  1  0.310699  0.803949  0.856799  1
  Ga  Ga12  1  0.447150  0.303949  0.493250  1
  Ga  Ga13  1  0.810699  0.953900  0.506750  1
  Cu  Cu14  1  0.789235  0.070596  0.859831  1
  Cu  Cu15  1  0.210765  0.929404  0.140169  1
  Cu  Cu16  1  0.710765  0.570596  0.281363  1
  Cu  Cu17  1  0.289235  0.429404  0.718637  1
  Cu  Cu18  1  0.437453  0.944309  0.734075  1
  Cu  Cu19  1  0.210234  0.703378  0.265925  1
  Cu  Cu20  1  0.937453  0.203378  0.493144  1
  Cu  Cu21  1  0.710234  0.444309  0.506856  1
  Cu  Cu22  1  0.562547  0.055691  0.265925  1
  Cu  Cu23  1  0.789766  0.296622  0.734075  1
  Cu  Cu24  1  0.062547  0.796622  0.506856  1
  Cu  Cu25  1  0.289766  0.555691  0.493144  1
  Cu  Cu26  1  0.000000  0.500000  0.500000  1
  Cu  Cu27  1  0.500000  0.000000  0.500000  1
