# generated using pymatgen
data_Er5Al2InC4
_symmetry_space_group_name_H-M   'P 1'
_cell_length_a   10.89862700
_cell_length_b   10.89862700
_cell_length_c   3.50860500
_cell_angle_alpha   90.00000000
_cell_angle_beta   90.00000000
_cell_angle_gamma   90.00000000
_symmetry_Int_Tables_number   1
_chemical_formula_structural   Er5Al2InC4
_chemical_formula_sum   'Er10 Al4 In2 C8'
_cell_volume   416.75234920
_cell_formula_units_Z   2
loop_
 _symmetry_equiv_pos_site_id
 _symmetry_equiv_pos_as_xyz
  1  'x, y, z'
loop_
 _atom_site_type_symbol
 _atom_site_label
 _atom_site_symmetry_multiplicity
 _atom_site_fract_x
 _atom_site_fract_y
 _atom_site_fract_z
 _atom_site_occupancy
  Er  Er0  1  0.550232  0.734157  0.500000  1
  Er  Er1  1  0.449768  0.265843  0.500000  1
  Er  Er2  1  0.050232  0.765843  0.500000  1
  Er  Er3  1  0.949768  0.234157  0.500000  1
  Er  Er4  1  0.265843  0.550232  0.500000  1
  Er  Er5  1  0.734157  0.449768  0.500000  1
  Er  Er6  1  0.234157  0.050232  0.500000  1
  Er  Er7  1  0.765843  0.949768  0.500000  1
  Er  Er8  1  0.500000  0.000000  0.000000  1
  Er  Er9  1  0.000000  0.500000  0.000000  1
  Al  Al10  1  0.703596  0.203596  0.000000  1
  Al  Al11  1  0.296404  0.796404  0.000000  1
  Al  Al12  1  0.203596  0.296404  0.000000  1
  Al  Al13  1  0.796404  0.703596  0.000000  1
  In  In14  1  0.500000  0.500000  0.000000  1
  In  In15  1  0.000000  0.000000  0.000000  1
  C  C16  1  0.630951  0.130951  0.500000  1
  C  C17  1  0.369049  0.869049  0.500000  1
  C  C18  1  0.130951  0.369049  0.500000  1
  C  C19  1  0.869049  0.630951  0.500000  1
  C  C20  1  0.161450  0.661450  0.000000  1
  C  C21  1  0.838550  0.338550  0.000000  1
  C  C22  1  0.661450  0.838550  0.000000  1
  C  C23  1  0.338550  0.161450  0.000000  1
