# generated using pymatgen
data_Y3Ho2Ta3(Co4P3)4
_symmetry_space_group_name_H-M   'P 1'
_cell_length_a   12.15665444
_cell_length_b   12.15665319
_cell_length_c   3.68735100
_cell_angle_alpha   90.00000000
_cell_angle_beta   90.00000000
_cell_angle_gamma   120.03078240
_symmetry_Int_Tables_number   1
_chemical_formula_structural   Y3Ho2Ta3(Co4P3)4
_chemical_formula_sum   'Y3 Ho2 Ta3 Co16 P12'
_cell_volume   471.77879415
_cell_formula_units_Z   1
loop_
 _symmetry_equiv_pos_site_id
 _symmetry_equiv_pos_as_xyz
  1  'x, y, z'
loop_
 _atom_site_type_symbol
 _atom_site_label
 _atom_site_symmetry_multiplicity
 _atom_site_fract_x
 _atom_site_fract_y
 _atom_site_fract_z
 _atom_site_occupancy
  Y  Y0  1  0.666625  0.333295  0.000000  1
  Y  Y1  1  0.333295  0.666625  0.000000  1
  Y  Y2  1  0.816463  0.816463  0.500000  1
  Ho  Ho3  1  0.183704  0.000123  0.500000  1
  Ho  Ho4  1  0.000123  0.183704  0.500000  1
  Ta  Ta5  1  0.443470  0.443470  0.000000  1
  Ta  Ta6  1  0.556192  0.000005  0.000000  1
  Ta  Ta7  1  0.000005  0.556192  0.000000  1
  Co  Co8  1  0.873915  0.354753  0.500000  1
  Co  Co9  1  0.645173  0.518825  0.500000  1
  Co  Co10  1  0.480802  0.126135  0.500000  1
  Co  Co11  1  0.354753  0.873915  0.500000  1
  Co  Co12  1  0.518825  0.645173  0.500000  1
  Co  Co13  1  0.126135  0.480802  0.500000  1
  Co  Co14  1  0.802794  0.176759  0.000000  1
  Co  Co15  1  0.823515  0.625847  0.000000  1
  Co  Co16  1  0.373730  0.197093  0.000000  1
  Co  Co17  1  0.176759  0.802794  0.000000  1
  Co  Co18  1  0.625847  0.823515  0.000000  1
  Co  Co19  1  0.197093  0.373730  0.000000  1
  Co  Co20  1  0.279816  0.279816  0.500000  1
  Co  Co21  1  0.720041  0.000365  0.500000  1
  Co  Co22  1  0.000365  0.720041  0.500000  1
  Co  Co23  1  0.000375  0.000375  0.000000  1
  P  P24  1  0.688478  0.168051  0.500000  1
  P  P25  1  0.832095  0.520543  0.500000  1
  P  P26  1  0.479382  0.311413  0.500000  1
  P  P27  1  0.168051  0.688478  0.500000  1
  P  P28  1  0.520543  0.832095  0.500000  1
  P  P29  1  0.311413  0.479382  0.500000  1
  P  P30  1  0.177443  0.177443  0.000000  1
  P  P31  1  0.822828  0.000629  0.000000  1
  P  P32  1  0.000629  0.822828  0.000000  1
  P  P33  1  0.643927  0.643927  0.000000  1
  P  P34  1  0.355394  0.000003  0.000000  1
  P  P35  1  0.000003  0.355394  0.000000  1
