# generated using pymatgen
data_Nd8ZnCu3Si11Rh
_symmetry_space_group_name_H-M   'P 1'
_cell_length_a   8.19853287
_cell_length_b   8.19853377
_cell_length_c   8.49943601
_cell_angle_alpha   90.00446543
_cell_angle_beta   89.99553470
_cell_angle_gamma   119.94751992
_symmetry_Int_Tables_number   1
_chemical_formula_structural   Nd8ZnCu3Si11Rh
_chemical_formula_sum   'Nd8 Zn1 Cu3 Si11 Rh1'
_cell_volume   495.01971192
_cell_formula_units_Z   1
loop_
 _symmetry_equiv_pos_site_id
 _symmetry_equiv_pos_as_xyz
  1  'x, y, z'
loop_
 _atom_site_type_symbol
 _atom_site_label
 _atom_site_symmetry_multiplicity
 _atom_site_fract_x
 _atom_site_fract_y
 _atom_site_fract_z
 _atom_site_occupancy
  Nd  Nd0  1  0.002310  0.997690  0.751112  1
  Nd  Nd1  1  0.002327  0.997673  0.248786  1
  Nd  Nd2  1  0.498860  0.501140  0.750331  1
  Nd  Nd3  1  0.496628  0.996842  0.751195  1
  Nd  Nd4  1  0.003158  0.503372  0.751195  1
  Nd  Nd5  1  0.498852  0.501148  0.249666  1
  Nd  Nd6  1  0.003237  0.503420  0.248799  1
  Nd  Nd7  1  0.496580  0.996763  0.248799  1
  Zn  Zn8  1  0.833579  0.166421  0.499984  1
  Cu  Cu9  1  0.667023  0.332977  0.000184  1
  Cu  Cu10  1  0.664013  0.335987  0.500106  1
  Cu  Cu11  1  0.334082  0.665918  0.500287  1
  Si  Si12  1  0.832605  0.167395  0.999973  1
  Si  Si13  1  0.831201  0.664563  0.999956  1
  Si  Si14  1  0.335437  0.168799  0.999956  1
  Si  Si15  1  0.829814  0.662143  0.499946  1
  Si  Si16  1  0.337857  0.170186  0.499946  1
  Si  Si17  1  0.168917  0.831083  0.499979  1
  Si  Si18  1  0.663309  0.830826  0.499945  1
  Si  Si19  1  0.169174  0.336691  0.499945  1
  Si  Si20  1  0.166935  0.833065  0.999990  1
  Si  Si21  1  0.663711  0.832014  0.999985  1
  Si  Si22  1  0.167986  0.336289  0.999985  1
  Rh  Rh23  1  0.332406  0.667594  0.999949  1
