# generated using pymatgen
data_Tb4Pr15HoPb16
_symmetry_space_group_name_H-M   'P 1'
_cell_length_a   8.42328253
_cell_length_b   8.54706983
_cell_length_c   16.26984595
_cell_angle_alpha   90.02191473
_cell_angle_beta   89.68483017
_cell_angle_gamma   90.05945163
_symmetry_Int_Tables_number   1
_chemical_formula_structural   Tb4Pr15HoPb16
_chemical_formula_sum   'Tb4 Pr15 Ho1 Pb16'
_cell_volume   1171.31910061
_cell_formula_units_Z   1
loop_
 _symmetry_equiv_pos_site_id
 _symmetry_equiv_pos_as_xyz
  1  'x, y, z'
loop_
 _atom_site_type_symbol
 _atom_site_label
 _atom_site_symmetry_multiplicity
 _atom_site_fract_x
 _atom_site_fract_y
 _atom_site_fract_z
 _atom_site_occupancy
  Tb  Tb0  1  0.630012  0.156012  0.622774  1
  Tb  Tb1  1  0.793479  0.495613  0.749142  1
  Tb  Tb2  1  0.295677  0.003701  0.748976  1
  Tb  Tb3  1  0.204755  0.503644  0.249813  1
  Pr  Pr4  1  0.125816  0.342507  0.879581  1
  Pr  Pr5  1  0.374731  0.843608  0.119172  1
  Pr  Pr6  1  0.869570  0.658309  0.382804  1
  Pr  Pr7  1  0.373572  0.840822  0.380105  1
  Pr  Pr8  1  0.874227  0.657710  0.118888  1
  Pr  Pr9  1  0.624964  0.156926  0.880138  1
  Pr  Pr10  1  0.125964  0.342819  0.618605  1
  Pr  Pr11  1  0.470449  0.678802  0.599211  1
  Pr  Pr12  1  0.967228  0.822570  0.898808  1
  Pr  Pr13  1  0.531135  0.322139  0.099979  1
  Pr  Pr14  1  0.030338  0.178852  0.400849  1
  Pr  Pr15  1  0.527643  0.319971  0.403056  1
  Pr  Pr16  1  0.031903  0.178235  0.100601  1
  Pr  Pr17  1  0.468284  0.677872  0.898152  1
  Pr  Pr18  1  0.972718  0.823148  0.599435  1
  Ho  Ho19  1  0.706032  0.996596  0.251133  1
  Pb  Pb20  1  0.714474  0.970854  0.458338  1
  Pb  Pb21  1  0.217385  0.531782  0.045392  1
  Pb  Pb22  1  0.281339  0.030898  0.953164  1
  Pb  Pb23  1  0.779590  0.460652  0.546873  1
  Pb  Pb24  1  0.294528  0.036567  0.546283  1
  Pb  Pb25  1  0.781637  0.468619  0.953042  1
  Pb  Pb26  1  0.718408  0.969714  0.046344  1
  Pb  Pb27  1  0.213980  0.533403  0.453829  1
  Pb  Pb28  1  0.432825  0.371866  0.747744  1
  Pb  Pb29  1  0.930949  0.124802  0.748202  1
  Pb  Pb30  1  0.568775  0.624156  0.249787  1
  Pb  Pb31  1  0.067156  0.874134  0.250607  1
  Pb  Pb32  1  0.659919  0.848342  0.748040  1
  Pb  Pb33  1  0.160141  0.653516  0.749221  1
  Pb  Pb34  1  0.340085  0.153902  0.250984  1
  Pb  Pb35  1  0.840312  0.346939  0.250931  1
