# generated using pymatgen
data_Nd4CdCo
_symmetry_space_group_name_H-M   'P 1'
_cell_length_a   9.83855289
_cell_length_b   9.83855296
_cell_length_c   9.83855300
_cell_angle_alpha   60.00000321
_cell_angle_beta   60.00000300
_cell_angle_gamma   60.00000027
_symmetry_Int_Tables_number   1
_chemical_formula_structural   Nd4CdCo
_chemical_formula_sum   'Nd16 Cd4 Co4'
_cell_volume   673.40867268
_cell_formula_units_Z   4
loop_
 _symmetry_equiv_pos_site_id
 _symmetry_equiv_pos_as_xyz
  1  'x, y, z'
loop_
 _atom_site_type_symbol
 _atom_site_label
 _atom_site_symmetry_multiplicity
 _atom_site_fract_x
 _atom_site_fract_y
 _atom_site_fract_z
 _atom_site_occupancy
  Nd  Nd0  1  0.561061  0.938939  0.561061  1
  Nd  Nd1  1  0.189809  0.189809  0.810191  1
  Nd  Nd2  1  0.561061  0.561061  0.938939  1
  Nd  Nd3  1  0.960176  0.346608  0.346608  1
  Nd  Nd4  1  0.810191  0.189809  0.810191  1
  Nd  Nd5  1  0.189809  0.810191  0.189809  1
  Nd  Nd6  1  0.346608  0.346608  0.960176  1
  Nd  Nd7  1  0.346608  0.960176  0.346608  1
  Nd  Nd8  1  0.938939  0.938939  0.561061  1
  Nd  Nd9  1  0.938939  0.561061  0.561061  1
  Nd  Nd10  1  0.346608  0.346608  0.346608  1
  Nd  Nd11  1  0.810191  0.810191  0.189809  1
  Nd  Nd12  1  0.810191  0.189809  0.189809  1
  Nd  Nd13  1  0.561061  0.938939  0.938939  1
  Nd  Nd14  1  0.938939  0.561061  0.938939  1
  Nd  Nd15  1  0.189809  0.810191  0.810191  1
  Cd  Cd16  1  0.579622  0.579622  0.579622  1
  Cd  Cd17  1  0.579622  0.261136  0.579622  1
  Cd  Cd18  1  0.579622  0.579622  0.261136  1
  Cd  Cd19  1  0.261136  0.579622  0.579622  1
  Co  Co20  1  0.140696  0.577914  0.140696  1
  Co  Co21  1  0.577914  0.140696  0.140696  1
  Co  Co22  1  0.140696  0.140696  0.577914  1
  Co  Co23  1  0.140696  0.140696  0.140696  1
