# generated using pymatgen
data_PrU(GeRu)2
_symmetry_space_group_name_H-M   'P 1'
_cell_length_a   4.53540100
_cell_length_b   7.49420648
_cell_length_c   7.20896968
_cell_angle_alpha   94.91854385
_cell_angle_beta   90.00000000
_cell_angle_gamma   90.00000000
_symmetry_Int_Tables_number   1
_chemical_formula_structural   PrU(GeRu)2
_chemical_formula_sum   'Pr2 U2 Ge4 Ru4'
_cell_volume   244.12505079
_cell_formula_units_Z   2
loop_
 _symmetry_equiv_pos_site_id
 _symmetry_equiv_pos_as_xyz
  1  'x, y, z'
loop_
 _atom_site_type_symbol
 _atom_site_label
 _atom_site_symmetry_multiplicity
 _atom_site_fract_x
 _atom_site_fract_y
 _atom_site_fract_z
 _atom_site_occupancy
  Pr  Pr0  1  0.250000  0.983305  0.768994  1
  Pr  Pr1  1  0.750000  0.016695  0.231006  1
  U  U2  1  0.250000  0.493928  0.700714  1
  U  U3  1  0.750000  0.506072  0.299286  1
  Ge  Ge4  1  0.250000  0.289256  0.092722  1
  Ge  Ge5  1  0.750000  0.710744  0.907278  1
  Ge  Ge6  1  0.250000  0.787040  0.385408  1
  Ge  Ge7  1  0.750000  0.212960  0.614592  1
  Ru  Ru8  1  0.750000  0.725839  0.547603  1
  Ru  Ru9  1  0.250000  0.274161  0.452397  1
  Ru  Ru10  1  0.750000  0.367594  0.963091  1
  Ru  Ru11  1  0.250000  0.632406  0.036909  1
