# generated using pymatgen
data_Nb2CuF12
_symmetry_space_group_name_H-M   'P 1'
_cell_length_a   5.30829613
_cell_length_b   5.49930301
_cell_length_c   9.16524194
_cell_angle_alpha   104.02738108
_cell_angle_beta   87.19497320
_cell_angle_gamma   117.37226541
_symmetry_Int_Tables_number   1
_chemical_formula_structural   Nb2CuF12
_chemical_formula_sum   'Nb2 Cu1 F12'
_cell_volume   229.90303653
_cell_formula_units_Z   1
loop_
 _symmetry_equiv_pos_site_id
 _symmetry_equiv_pos_as_xyz
  1  'x, y, z'
loop_
 _atom_site_type_symbol
 _atom_site_label
 _atom_site_symmetry_multiplicity
 _atom_site_fract_x
 _atom_site_fract_y
 _atom_site_fract_z
 _atom_site_occupancy
  Nb  Nb0  1  0.777267  0.507725  0.265222  1
  Nb  Nb1  1  0.222733  0.492275  0.734778  1
  Cu  Cu2  1  0.000000  0.000000  0.000000  1
  F  F3  1  0.824422  0.266612  0.726690  1
  F  F4  1  0.175578  0.733388  0.273310  1
  F  F5  1  0.173706  0.758147  0.923559  1
  F  F6  1  0.712494  0.734952  0.435200  1
  F  F7  1  0.287506  0.265048  0.564800  1
  F  F8  1  0.795857  0.266820  0.373592  1
  F  F9  1  0.204143  0.733180  0.626408  1
  F  F10  1  0.378275  0.287175  0.195333  1
  F  F11  1  0.621725  0.712825  0.804667  1
  F  F12  1  0.774866  0.747388  0.124543  1
  F  F13  1  0.225134  0.252612  0.875457  1
  F  F14  1  0.826294  0.241853  0.076441  1
