# generated using pymatgen
data_Dy3HoAl18(PtRh)3
_symmetry_space_group_name_H-M   'P 1'
_cell_length_a   7.59129380
_cell_length_b   7.59029433
_cell_length_c   9.44808427
_cell_angle_alpha   89.98427617
_cell_angle_beta   89.98821708
_cell_angle_gamma   119.68614061
_symmetry_Int_Tables_number   1
_chemical_formula_structural   Dy3HoAl18(PtRh)3
_chemical_formula_sum   'Dy3 Ho1 Al18 Pt3 Rh3'
_cell_volume   472.94823702
_cell_formula_units_Z   1
loop_
 _symmetry_equiv_pos_site_id
 _symmetry_equiv_pos_as_xyz
  1  'x, y, z'
loop_
 _atom_site_type_symbol
 _atom_site_label
 _atom_site_symmetry_multiplicity
 _atom_site_fract_x
 _atom_site_fract_y
 _atom_site_fract_z
 _atom_site_occupancy
  Dy  Dy0  1  0.006816  0.332689  0.249932  1
  Dy  Dy1  1  0.667459  0.993419  0.750112  1
  Dy  Dy2  1  0.330722  0.004284  0.249687  1
  Ho  Ho3  1  0.995606  0.669527  0.750430  1
  Al  Al4  1  0.123789  0.124482  0.750696  1
  Al  Al5  1  0.875310  0.875910  0.249324  1
  Al  Al6  1  0.999921  0.330951  0.576368  1
  Al  Al7  1  0.998685  0.669588  0.423993  1
  Al  Al8  1  0.996759  0.665521  0.074338  1
  Al  Al9  1  0.334233  0.003055  0.925117  1
  Al  Al10  1  0.995579  0.330604  0.925009  1
  Al  Al11  1  0.669700  0.004398  0.074712  1
  Al  Al12  1  0.669242  0.999979  0.423945  1
  Al  Al13  1  0.330162  0.000963  0.576611  1
  Al  Al14  1  0.332513  0.329200  0.053016  1
  Al  Al15  1  0.670877  0.667498  0.946424  1
  Al  Al16  1  0.669805  0.669822  0.557249  1
  Al  Al17  1  0.330151  0.330287  0.443430  1
  Al  Al18  1  0.339667  0.543582  0.750530  1
  Al  Al19  1  0.659741  0.451990  0.246440  1
  Al  Al20  1  0.548212  0.340628  0.753592  1
  Al  Al21  1  0.456553  0.660056  0.249328  1
  Pt  Pt22  1  0.671988  0.328053  0.500199  1
  Pt  Pt23  1  0.327258  0.672644  0.500016  1
  Pt  Pt24  1  0.327816  0.672485  0.999711  1
  Rh  Rh25  1  0.671801  0.328431  0.999842  1
  Rh  Rh26  1  0.999640  0.000291  0.500258  1
  Rh  Rh27  1  0.999995  0.999657  0.999691  1
