# generated using pymatgen
data_CeCo4Si3Mo
_symmetry_space_group_name_H-M   'P 1'
_cell_length_a   3.75560400
_cell_length_b   10.75611800
_cell_length_c   12.19175900
_cell_angle_alpha   90.00000000
_cell_angle_beta   90.00000000
_cell_angle_gamma   90.00000000
_symmetry_Int_Tables_number   1
_chemical_formula_structural   CeCo4Si3Mo
_chemical_formula_sum   'Ce4 Co16 Si12 Mo4'
_cell_volume   492.49488025
_cell_formula_units_Z   4
loop_
 _symmetry_equiv_pos_site_id
 _symmetry_equiv_pos_as_xyz
  1  'x, y, z'
loop_
 _atom_site_type_symbol
 _atom_site_label
 _atom_site_symmetry_multiplicity
 _atom_site_fract_x
 _atom_site_fract_y
 _atom_site_fract_z
 _atom_site_occupancy
  Ce  Ce0  1  0.250000  0.576912  0.701565  1
  Ce  Ce1  1  0.250000  0.923088  0.201565  1
  Ce  Ce2  1  0.750000  0.423088  0.298435  1
  Ce  Ce3  1  0.750000  0.076912  0.798435  1
  Co  Co4  1  0.250000  0.404913  0.484874  1
  Co  Co5  1  0.250000  0.095087  0.984874  1
  Co  Co6  1  0.750000  0.595087  0.515126  1
  Co  Co7  1  0.750000  0.904913  0.015126  1
  Co  Co8  1  0.250000  0.216736  0.171025  1
  Co  Co9  1  0.250000  0.283264  0.671025  1
  Co  Co10  1  0.750000  0.783264  0.828975  1
  Co  Co11  1  0.750000  0.716736  0.328975  1
  Co  Co12  1  0.250000  0.886080  0.700742  1
  Co  Co13  1  0.250000  0.613920  0.200742  1
  Co  Co14  1  0.750000  0.113920  0.299258  1
  Co  Co15  1  0.750000  0.386080  0.799258  1
  Co  Co16  1  0.250000  0.466850  0.932975  1
  Co  Co17  1  0.250000  0.033150  0.432975  1
  Co  Co18  1  0.750000  0.533150  0.067025  1
  Co  Co19  1  0.750000  0.966850  0.567025  1
  Si  Si20  1  0.250000  0.419579  0.114365  1
  Si  Si21  1  0.250000  0.080421  0.614365  1
  Si  Si22  1  0.750000  0.580421  0.885635  1
  Si  Si23  1  0.750000  0.919579  0.385635  1
  Si  Si24  1  0.250000  0.273182  0.858699  1
  Si  Si25  1  0.250000  0.226818  0.358699  1
  Si  Si26  1  0.750000  0.726818  0.141301  1
  Si  Si27  1  0.750000  0.773182  0.641301  1
  Si  Si28  1  0.250000  0.602024  0.395279  1
  Si  Si29  1  0.250000  0.897976  0.895279  1
  Si  Si30  1  0.750000  0.397976  0.604721  1
  Si  Si31  1  0.750000  0.102024  0.104721  1
  Mo  Mo32  1  0.250000  0.695987  0.995236  1
  Mo  Mo33  1  0.250000  0.804013  0.495236  1
  Mo  Mo34  1  0.750000  0.304013  0.004764  1
  Mo  Mo35  1  0.750000  0.195987  0.504764  1
