# generated using pymatgen
data_Tb4ErLu3Au4
_symmetry_space_group_name_H-M   'P 1'
_cell_length_a   4.89889900
_cell_length_b   7.12991106
_cell_length_c   8.88187653
_cell_angle_alpha   90.12935174
_cell_angle_beta   90.00000000
_cell_angle_gamma   90.00000000
_symmetry_Int_Tables_number   1
_chemical_formula_structural   Tb4ErLu3Au4
_chemical_formula_sum   'Tb4 Er1 Lu3 Au4'
_cell_volume   310.23173617
_cell_formula_units_Z   1
loop_
 _symmetry_equiv_pos_site_id
 _symmetry_equiv_pos_as_xyz
  1  'x, y, z'
loop_
 _atom_site_type_symbol
 _atom_site_label
 _atom_site_symmetry_multiplicity
 _atom_site_fract_x
 _atom_site_fract_y
 _atom_site_fract_z
 _atom_site_occupancy
  Tb  Tb0  1  0.250000  0.484223  0.176721  1
  Tb  Tb1  1  0.250000  0.987149  0.323375  1
  Tb  Tb2  1  0.750000  0.514970  0.822901  1
  Tb  Tb3  1  0.750000  0.015651  0.678041  1
  Er  Er4  1  0.750000  0.647702  0.419466  1
  Lu  Lu5  1  0.250000  0.852616  0.921611  1
  Lu  Lu6  1  0.250000  0.352946  0.580497  1
  Lu  Lu7  1  0.750000  0.147728  0.078149  1
  Au  Au8  1  0.250000  0.251305  0.899525  1
  Au  Au9  1  0.250000  0.752655  0.603377  1
  Au  Au10  1  0.750000  0.748809  0.096768  1
  Au  Au11  1  0.750000  0.244246  0.399567  1
