# generated using pymatgen
data_Tb2YbThB16
_symmetry_space_group_name_H-M   'P 1'
_cell_length_a   7.15294476
_cell_length_b   7.15026094
_cell_length_c   4.05819700
_cell_angle_alpha   90.00000000
_cell_angle_beta   90.00000000
_cell_angle_gamma   90.63198556
_symmetry_Int_Tables_number   1
_chemical_formula_structural   Tb2YbThB16
_chemical_formula_sum   'Tb2 Yb1 Th1 B16'
_cell_volume   207.54556980
_cell_formula_units_Z   1
loop_
 _symmetry_equiv_pos_site_id
 _symmetry_equiv_pos_as_xyz
  1  'x, y, z'
loop_
 _atom_site_type_symbol
 _atom_site_label
 _atom_site_symmetry_multiplicity
 _atom_site_fract_x
 _atom_site_fract_y
 _atom_site_fract_z
 _atom_site_occupancy
  Tb  Tb0  1  0.183300  0.682949  0.000000  1
  Tb  Tb1  1  0.317633  0.182934  0.000000  1
  Yb  Yb2  1  0.682431  0.818143  0.000000  1
  Th  Th3  1  0.815015  0.314895  0.000000  1
  B  B4  1  0.498465  0.504803  0.796615  1
  B  B5  1  0.000919  0.996264  0.796549  1
  B  B6  1  0.498465  0.504803  0.203385  1
  B  B7  1  0.000919  0.996264  0.203451  1
  B  B8  1  0.914044  0.586465  0.500000  1
  B  B9  1  0.087486  0.412974  0.500000  1
  B  B10  1  0.413014  0.913812  0.500000  1
  B  B11  1  0.587937  0.089065  0.500000  1
  B  B12  1  0.674201  0.540545  0.500000  1
  B  B13  1  0.323471  0.461443  0.500000  1
  B  B14  1  0.177702  0.960402  0.500000  1
  B  B15  1  0.825854  0.035413  0.500000  1
  B  B16  1  0.460423  0.677850  0.500000  1
  B  B17  1  0.535347  0.325798  0.500000  1
  B  B18  1  0.041434  0.173019  0.500000  1
  B  B19  1  0.961940  0.822160  0.500000  1
