# generated using pymatgen
data_Ho3ErMo2(SeO4)6
_symmetry_space_group_name_H-M   'P 1'
_cell_length_a   6.56760146
_cell_length_b   7.13486301
_cell_length_c   10.83285119
_cell_angle_alpha   84.85832871
_cell_angle_beta   73.26094610
_cell_angle_gamma   86.59479966
_symmetry_Int_Tables_number   1
_chemical_formula_structural   Ho3ErMo2(SeO4)6
_chemical_formula_sum   'Ho3 Er1 Mo2 Se6 O24'
_cell_volume   483.85009432
_cell_formula_units_Z   1
loop_
 _symmetry_equiv_pos_site_id
 _symmetry_equiv_pos_as_xyz
  1  'x, y, z'
loop_
 _atom_site_type_symbol
 _atom_site_label
 _atom_site_symmetry_multiplicity
 _atom_site_fract_x
 _atom_site_fract_y
 _atom_site_fract_z
 _atom_site_occupancy
  Ho  Ho0  1  0.732689  0.637985  0.508583  1
  Ho  Ho1  1  0.267245  0.362041  0.491525  1
  Ho  Ho2  1  0.205038  0.182321  0.168657  1
  Er  Er3  1  0.794775  0.817541  0.831252  1
  Mo  Mo4  1  0.723129  0.892826  0.205147  1
  Mo  Mo5  1  0.277300  0.106646  0.794323  1
  Se  Se6  1  0.203483  0.659566  0.215733  1
  Se  Se7  1  0.796587  0.340496  0.784420  1
  Se  Se8  1  0.658222  0.364987  0.142096  1
  Se  Se9  1  0.342041  0.635274  0.857878  1
  Se  Se10  1  0.788741  0.140042  0.494246  1
  Se  Se11  1  0.210655  0.859839  0.506141  1
  O  O12  1  0.694094  0.671309  0.298866  1
  O  O13  1  0.306049  0.328536  0.700985  1
  O  O14  1  0.718227  0.958560  0.417316  1
  O  O15  1  0.281923  0.041374  0.582712  1
  O  O16  1  0.450319  0.974573  0.232460  1
  O  O17  1  0.550072  0.024751  0.767831  1
  O  O18  1  0.825339  0.171931  0.178638  1
  O  O19  1  0.174115  0.827921  0.821371  1
  O  O20  1  0.784448  0.832713  0.042731  1
  O  O21  1  0.215435  0.167288  0.956520  1
  O  O22  1  0.060030  0.874196  0.193693  1
  O  O23  1  0.939687  0.125469  0.806318  1
  O  O24  1  0.100026  0.496772  0.147638  1
  O  O25  1  0.899670  0.504176  0.852205  1
  O  O26  1  0.081076  0.601181  0.383288  1
  O  O27  1  0.918861  0.398800  0.616817  1
  O  O28  1  0.548626  0.272724  0.037668  1
  O  O29  1  0.452222  0.727674  0.962031  1
  O  O30  1  0.423845  0.347349  0.271099  1
  O  O31  1  0.576506  0.653052  0.728979  1
  O  O32  1  0.043572  0.191385  0.392069  1
  O  O33  1  0.956009  0.808642  0.608710  1
  O  O34  1  0.639827  0.339434  0.460581  1
  O  O35  1  0.360117  0.660626  0.539469  1
