# generated using pymatgen
data_CeEr3Al4IrRh3
_symmetry_space_group_name_H-M   'P 1'
_cell_length_a   6.87189962
_cell_length_b   4.21369100
_cell_length_c   7.94548634
_cell_angle_alpha   90.00000000
_cell_angle_beta   89.81588245
_cell_angle_gamma   90.00000000
_symmetry_Int_Tables_number   1
_chemical_formula_structural   CeEr3Al4IrRh3
_chemical_formula_sum   'Ce1 Er3 Al4 Ir1 Rh3'
_cell_volume   230.06880387
_cell_formula_units_Z   1
loop_
 _symmetry_equiv_pos_site_id
 _symmetry_equiv_pos_as_xyz
  1  'x, y, z'
loop_
 _atom_site_type_symbol
 _atom_site_label
 _atom_site_symmetry_multiplicity
 _atom_site_fract_x
 _atom_site_fract_y
 _atom_site_fract_z
 _atom_site_occupancy
  Ce  Ce0  1  0.532966  0.750000  0.676710  1
  Er  Er1  1  0.964300  0.250000  0.181024  1
  Er  Er2  1  0.462353  0.250000  0.315751  1
  Er  Er3  1  0.037414  0.750000  0.821016  1
  Al  Al4  1  0.869465  0.250000  0.558556  1
  Al  Al5  1  0.359430  0.250000  0.941340  1
  Al  Al6  1  0.135587  0.750000  0.437652  1
  Al  Al7  1  0.637670  0.750000  0.063071  1
  Ir  Ir8  1  0.239107  0.250000  0.623606  1
  Rh  Rh9  1  0.736055  0.250000  0.878552  1
  Rh  Rh10  1  0.263860  0.750000  0.120250  1
  Rh  Rh11  1  0.761792  0.750000  0.382470  1
