# generated using pymatgen
data_Ho7Er8Th(CdNi)4
_symmetry_space_group_name_H-M   'P 1'
_cell_length_a   9.48700709
_cell_length_b   9.48700633
_cell_length_c   9.48792136
_cell_angle_alpha   60.16798060
_cell_angle_beta   60.16798007
_cell_angle_gamma   60.16101596
_symmetry_Int_Tables_number   1
_chemical_formula_structural   Ho7Er8Th(CdNi)4
_chemical_formula_sum   'Ho7 Er8 Th1 Cd4 Ni4'
_cell_volume   606.09527103
_cell_formula_units_Z   1
loop_
 _symmetry_equiv_pos_site_id
 _symmetry_equiv_pos_as_xyz
  1  'x, y, z'
loop_
 _atom_site_type_symbol
 _atom_site_label
 _atom_site_symmetry_multiplicity
 _atom_site_fract_x
 _atom_site_fract_y
 _atom_site_fract_z
 _atom_site_occupancy
  Ho  Ho0  1  0.349979  0.349979  0.947485  1
  Ho  Ho1  1  0.350196  0.947462  0.349979  1
  Ho  Ho2  1  0.947462  0.350196  0.349979  1
  Ho  Ho3  1  0.813189  0.188680  0.188710  1
  Ho  Ho4  1  0.189963  0.812956  0.813045  1
  Ho  Ho5  1  0.188680  0.813189  0.188710  1
  Ho  Ho6  1  0.812956  0.189963  0.813045  1
  Er  Er7  1  0.188835  0.188835  0.813090  1
  Er  Er8  1  0.812938  0.812938  0.190046  1
  Er  Er9  1  0.936541  0.566054  0.566035  1
  Er  Er10  1  0.564301  0.937129  0.937286  1
  Er  Er11  1  0.566054  0.936541  0.566035  1
  Er  Er12  1  0.937129  0.564301  0.937286  1
  Er  Er13  1  0.566128  0.566128  0.936442  1
  Er  Er14  1  0.937233  0.937233  0.564239  1
  Th  Th15  1  0.343358  0.343358  0.343619  1
  Cd  Cd16  1  0.581471  0.581471  0.581357  1
  Cd  Cd17  1  0.581668  0.581668  0.254557  1
  Cd  Cd18  1  0.581598  0.254536  0.581681  1
  Cd  Cd19  1  0.254536  0.581598  0.581681  1
  Ni  Ni20  1  0.143489  0.143489  0.143272  1
  Ni  Ni21  1  0.140444  0.140444  0.571662  1
  Ni  Ni22  1  0.140195  0.571657  0.140381  1
  Ni  Ni23  1  0.571657  0.140195  0.140381  1
