# generated using pymatgen
data_Ca7ThBi6
_symmetry_space_group_name_H-M   'P 1'
_cell_length_a   8.33257785
_cell_length_b   8.43647742
_cell_length_c   8.43647652
_cell_angle_alpha   109.71935338
_cell_angle_beta   109.22193266
_cell_angle_gamma   109.22193228
_symmetry_Int_Tables_number   1
_chemical_formula_structural   Ca7ThBi6
_chemical_formula_sum   'Ca7 Th1 Bi6'
_cell_volume   457.93794764
_cell_formula_units_Z   1
loop_
 _symmetry_equiv_pos_site_id
 _symmetry_equiv_pos_as_xyz
  1  'x, y, z'
loop_
 _atom_site_type_symbol
 _atom_site_label
 _atom_site_symmetry_multiplicity
 _atom_site_fract_x
 _atom_site_fract_y
 _atom_site_fract_z
 _atom_site_occupancy
  Ca  Ca0  1  0.645806  0.500000  0.000000  1
  Ca  Ca1  1  0.500244  0.000175  0.648841  1
  Ca  Ca2  1  0.358577  0.354442  0.360287  1
  Ca  Ca3  1  0.504135  0.005844  0.145558  1
  Ca  Ca4  1  0.000070  0.648666  0.499825  1
  Ca  Ca5  1  0.851403  0.851159  0.851334  1
  Ca  Ca6  1  0.998291  0.139713  0.494156  1
  Th  Th7  1  0.145156  0.500000  0.000000  1
  Bi  Bi8  1  0.371092  0.623936  0.754392  1
  Bi  Bi9  1  0.879521  0.251666  0.125526  1
  Bi  Bi10  1  0.616700  0.745608  0.369546  1
  Bi  Bi11  1  0.127855  0.873859  0.248334  1
  Bi  Bi12  1  0.247156  0.130454  0.876064  1
  Bi  Bi13  1  0.753995  0.374474  0.626141  1
