# generated using pymatgen
data_Tb2Cd3Ga5CoNi
_symmetry_space_group_name_H-M   'P 1'
_cell_length_a   4.14408789
_cell_length_b   6.63754600
_cell_length_c   8.33323873
_cell_angle_alpha   90.00000000
_cell_angle_beta   104.39753316
_cell_angle_gamma   90.00000000
_symmetry_Int_Tables_number   1
_chemical_formula_structural   Tb2Cd3Ga5CoNi
_chemical_formula_sum   'Tb2 Cd3 Ga5 Co1 Ni1'
_cell_volume   222.01997038
_cell_formula_units_Z   1
loop_
 _symmetry_equiv_pos_site_id
 _symmetry_equiv_pos_as_xyz
  1  'x, y, z'
loop_
 _atom_site_type_symbol
 _atom_site_label
 _atom_site_symmetry_multiplicity
 _atom_site_fract_x
 _atom_site_fract_y
 _atom_site_fract_z
 _atom_site_occupancy
  Tb  Tb0  1  0.868794  0.750000  0.737588  1
  Tb  Tb1  1  0.127488  0.250000  0.254976  1
  Cd  Cd2  1  0.498064  0.492326  0.996129  1
  Cd  Cd3  1  0.498064  0.007674  0.996129  1
  Cd  Cd4  1  0.071018  0.750000  0.142036  1
  Ga  Ga5  1  0.924537  0.250000  0.849073  1
  Ga  Ga6  1  0.690738  0.548502  0.381476  1
  Ga  Ga7  1  0.311111  0.446003  0.622221  1
  Ga  Ga8  1  0.690738  0.951498  0.381476  1
  Ga  Ga9  1  0.311111  0.053997  0.622221  1
  Co  Co10  1  0.778277  0.250000  0.556554  1
  Ni  Ni11  1  0.230060  0.750000  0.460121  1
