# generated using pymatgen
data_Nd2Co3P7Ru9
_symmetry_space_group_name_H-M   'P 1'
_cell_length_a   9.39156500
_cell_length_b   9.39156523
_cell_length_c   3.86058700
_cell_angle_alpha   90.00000000
_cell_angle_beta   90.00000000
_cell_angle_gamma   119.99999473
_symmetry_Int_Tables_number   1
_chemical_formula_structural   Nd2Co3P7Ru9
_chemical_formula_sum   'Nd2 Co3 P7 Ru9'
_cell_volume   294.88993279
_cell_formula_units_Z   1
loop_
 _symmetry_equiv_pos_site_id
 _symmetry_equiv_pos_as_xyz
  1  'x, y, z'
loop_
 _atom_site_type_symbol
 _atom_site_label
 _atom_site_symmetry_multiplicity
 _atom_site_fract_x
 _atom_site_fract_y
 _atom_site_fract_z
 _atom_site_occupancy
  Nd  Nd0  1  0.000000  0.000000  0.000000  1
  Nd  Nd1  1  0.333333  0.666667  0.500000  1
  Co  Co2  1  0.822731  0.600008  0.000000  1
  Co  Co3  1  0.399992  0.222723  0.000000  1
  Co  Co4  1  0.777277  0.177269  0.000000  1
  P  P5  1  0.778135  0.731665  0.500000  1
  P  P6  1  0.268335  0.046471  0.500000  1
  P  P7  1  0.953529  0.221865  0.500000  1
  P  P8  1  0.666667  0.333333  0.000000  1
  P  P9  1  0.074293  0.634375  0.000000  1
  P  P10  1  0.365625  0.439918  0.000000  1
  P  P11  1  0.560082  0.925707  0.000000  1
  Ru  Ru12  1  0.090244  0.392714  0.000000  1
  Ru  Ru13  1  0.607286  0.697529  0.000000  1
  Ru  Ru14  1  0.302471  0.909756  0.000000  1
  Ru  Ru15  1  0.047193  0.765328  0.500000  1
  Ru  Ru16  1  0.234672  0.281863  0.500000  1
  Ru  Ru17  1  0.718137  0.952807  0.500000  1
  Ru  Ru18  1  0.871975  0.418383  0.500000  1
  Ru  Ru19  1  0.581617  0.453593  0.500000  1
  Ru  Ru20  1  0.546407  0.128025  0.500000  1
