# generated using pymatgen
data_Ho2Lu2SiTc7
_symmetry_space_group_name_H-M   'P 1'
_cell_length_a   5.30180500
_cell_length_b   5.30180441
_cell_length_c   8.81879000
_cell_angle_alpha   90.00000000
_cell_angle_beta   90.00000000
_cell_angle_gamma   119.99998497
_symmetry_Int_Tables_number   1
_chemical_formula_structural   Ho2Lu2SiTc7
_chemical_formula_sum   'Ho2 Lu2 Si1 Tc7'
_cell_volume   214.67780731
_cell_formula_units_Z   1
loop_
 _symmetry_equiv_pos_site_id
 _symmetry_equiv_pos_as_xyz
  1  'x, y, z'
loop_
 _atom_site_type_symbol
 _atom_site_label
 _atom_site_symmetry_multiplicity
 _atom_site_fract_x
 _atom_site_fract_y
 _atom_site_fract_z
 _atom_site_occupancy
  Ho  Ho0  1  0.333333  0.666667  0.435108  1
  Ho  Ho1  1  0.666667  0.333333  0.564892  1
  Lu  Lu2  1  0.666667  0.333333  0.934989  1
  Lu  Lu3  1  0.333333  0.666667  0.065011  1
  Si  Si4  1  0.000000  0.000000  0.500000  1
  Tc  Tc5  1  0.000000  0.000000  0.000000  1
  Tc  Tc6  1  0.829834  0.170166  0.252427  1
  Tc  Tc7  1  0.829834  0.659670  0.252427  1
  Tc  Tc8  1  0.340330  0.170166  0.252427  1
  Tc  Tc9  1  0.170166  0.829834  0.747573  1
  Tc  Tc10  1  0.170166  0.340330  0.747573  1
  Tc  Tc11  1  0.659670  0.829834  0.747573  1
