# generated using pymatgen
data_Er5Lu3(P3Ir4)4
_symmetry_space_group_name_H-M   'P 1'
_cell_length_a   12.92135200
_cell_length_b   12.92135193
_cell_length_c   3.97966900
_cell_angle_alpha   90.00000000
_cell_angle_beta   90.00000000
_cell_angle_gamma   120.00000018
_symmetry_Int_Tables_number   1
_chemical_formula_structural   Er5Lu3(P3Ir4)4
_chemical_formula_sum   'Er5 Lu3 P12 Ir16'
_cell_volume   575.43131925
_cell_formula_units_Z   1
loop_
 _symmetry_equiv_pos_site_id
 _symmetry_equiv_pos_as_xyz
  1  'x, y, z'
loop_
 _atom_site_type_symbol
 _atom_site_label
 _atom_site_symmetry_multiplicity
 _atom_site_fract_x
 _atom_site_fract_y
 _atom_site_fract_z
 _atom_site_occupancy
  Er  Er0  1  0.333333  0.666667  0.500000  1
  Er  Er1  1  0.666667  0.333333  0.500000  1
  Er  Er2  1  0.000000  0.814148  0.000000  1
  Er  Er3  1  0.185852  0.185852  0.000000  1
  Er  Er4  1  0.814148  0.000000  0.000000  1
  Lu  Lu5  1  0.000000  0.446311  0.500000  1
  Lu  Lu6  1  0.553689  0.553689  0.500000  1
  Lu  Lu7  1  0.446311  0.000000  0.500000  1
  P  P8  1  0.000000  0.651829  0.500000  1
  P  P9  1  0.348171  0.348171  0.500000  1
  P  P10  1  0.651829  0.000000  0.500000  1
  P  P11  1  0.516462  0.687937  0.000000  1
  P  P12  1  0.312063  0.828525  0.000000  1
  P  P13  1  0.171475  0.483538  0.000000  1
  P  P14  1  0.483538  0.171475  0.000000  1
  P  P15  1  0.687937  0.516462  0.000000  1
  P  P16  1  0.828525  0.312063  0.000000  1
  P  P17  1  0.000000  0.176081  0.500000  1
  P  P18  1  0.823919  0.823919  0.500000  1
  P  P19  1  0.176081  0.000000  0.500000  1
  Ir  Ir20  1  0.508589  0.865794  0.000000  1
  Ir  Ir21  1  0.134206  0.642796  0.000000  1
  Ir  Ir22  1  0.357204  0.491411  0.000000  1
  Ir  Ir23  1  0.491411  0.357204  0.000000  1
  Ir  Ir24  1  0.865794  0.508589  0.000000  1
  Ir  Ir25  1  0.642796  0.134206  0.000000  1
  Ir  Ir26  1  0.000000  0.275045  0.000000  1
  Ir  Ir27  1  0.724955  0.724955  0.000000  1
  Ir  Ir28  1  0.275045  0.000000  0.000000  1
  Ir  Ir29  1  0.630231  0.809078  0.500000  1
  Ir  Ir30  1  0.190922  0.821153  0.500000  1
  Ir  Ir31  1  0.178847  0.369769  0.500000  1
  Ir  Ir32  1  0.369769  0.178847  0.500000  1
  Ir  Ir33  1  0.809078  0.630231  0.500000  1
  Ir  Ir34  1  0.821153  0.190922  0.500000  1
  Ir  Ir35  1  0.000000  0.000000  0.500000  1
