# generated using pymatgen
data_Zr6Ga6NiRu11
_symmetry_space_group_name_H-M   'P 1'
_cell_length_a   4.46509400
_cell_length_b   6.33010200
_cell_length_c   13.33772800
_cell_angle_alpha   89.99701974
_cell_angle_beta   90.00039774
_cell_angle_gamma   90.00040067
_symmetry_Int_Tables_number   1
_chemical_formula_structural   Zr6Ga6NiRu11
_chemical_formula_sum   'Zr6 Ga6 Ni1 Ru11'
_cell_volume   376.98421893
_cell_formula_units_Z   1
loop_
 _symmetry_equiv_pos_site_id
 _symmetry_equiv_pos_as_xyz
  1  'x, y, z'
loop_
 _atom_site_type_symbol
 _atom_site_label
 _atom_site_symmetry_multiplicity
 _atom_site_fract_x
 _atom_site_fract_y
 _atom_site_fract_z
 _atom_site_occupancy
  Zr  Zr0  1  0.000006  0.000269  0.999991  1
  Zr  Zr1  1  0.500143  0.500734  0.166607  1
  Zr  Zr2  1  0.000123  0.999821  0.333124  1
  Zr  Zr3  1  0.499996  0.497764  0.500001  1
  Zr  Zr4  1  0.999877  0.999762  0.666853  1
  Zr  Zr5  1  0.499856  0.500639  0.833414  1
  Ga  Ga6  1  0.000002  0.501118  0.999998  1
  Ga  Ga7  1  0.500110  0.998462  0.166635  1
  Ga  Ga8  1  0.000107  0.501101  0.332666  1
  Ga  Ga9  1  0.500001  0.999397  0.499982  1
  Ga  Ga10  1  0.999890  0.501118  0.667296  1
  Ga  Ga11  1  0.499894  0.998445  0.833398  1
  Ni  Ni12  1  0.500003  0.247427  0.000110  1
  Ru  Ru13  1  0.500004  0.753660  0.999996  1
  Ru  Ru14  1  0.000206  0.251860  0.164238  1
  Ru  Ru15  1  0.000140  0.749300  0.164154  1
  Ru  Ru16  1  0.500149  0.249618  0.331317  1
  Ru  Ru17  1  0.500133  0.749645  0.332246  1
  Ru  Ru18  1  0.999995  0.250530  0.499993  1
  Ru  Ru19  1  0.999979  0.749111  0.499982  1
  Ru  Ru20  1  0.499861  0.249566  0.668683  1
  Ru  Ru21  1  0.499860  0.749604  0.667760  1
  Ru  Ru22  1  0.999796  0.251816  0.835720  1
  Ru  Ru23  1  0.999865  0.749239  0.835840  1
