# generated using pymatgen
data_LaY(NiIr)5
_symmetry_space_group_name_H-M   'P 1'
_cell_length_a   4.04891800
_cell_length_b   5.24320300
_cell_length_c   8.92162200
_cell_angle_alpha   90.00000000
_cell_angle_beta   90.00000000
_cell_angle_gamma   90.00000000
_symmetry_Int_Tables_number   1
_chemical_formula_structural   LaY(NiIr)5
_chemical_formula_sum   'La1 Y1 Ni5 Ir5'
_cell_volume   189.39978104
_cell_formula_units_Z   1
loop_
 _symmetry_equiv_pos_site_id
 _symmetry_equiv_pos_as_xyz
  1  'x, y, z'
loop_
 _atom_site_type_symbol
 _atom_site_label
 _atom_site_symmetry_multiplicity
 _atom_site_fract_x
 _atom_site_fract_y
 _atom_site_fract_z
 _atom_site_occupancy
  La  La0  1  0.000000  0.500000  0.000000  1
  Y  Y1  1  0.000000  0.000000  0.500000  1
  Ni  Ni2  1  0.000000  0.500000  0.346494  1
  Ni  Ni3  1  0.000000  0.000000  0.827793  1
  Ni  Ni4  1  0.000000  0.000000  0.172207  1
  Ni  Ni5  1  0.000000  0.500000  0.653506  1
  Ni  Ni6  1  0.500000  0.500000  0.500000  1
  Ir  Ir7  1  0.500000  0.000000  0.000000  1
  Ir  Ir8  1  0.500000  0.747812  0.257277  1
  Ir  Ir9  1  0.500000  0.252188  0.742723  1
  Ir  Ir10  1  0.500000  0.252188  0.257277  1
  Ir  Ir11  1  0.500000  0.747812  0.742723  1
