# generated using pymatgen
data_Ho3Lu3Pa2(ReB6)4
_symmetry_space_group_name_H-M   'P 1'
_cell_length_a   3.67891900
_cell_length_b   9.12032898
_cell_length_c   11.49183600
_cell_angle_alpha   90.31744146
_cell_angle_beta   90.00000000
_cell_angle_gamma   90.00000000
_symmetry_Int_Tables_number   1
_chemical_formula_structural   Ho3Lu3Pa2(ReB6)4
_chemical_formula_sum   'Ho3 Lu3 Pa2 Re4 B24'
_cell_volume   385.57909876
_cell_formula_units_Z   1
loop_
 _symmetry_equiv_pos_site_id
 _symmetry_equiv_pos_as_xyz
  1  'x, y, z'
loop_
 _atom_site_type_symbol
 _atom_site_label
 _atom_site_symmetry_multiplicity
 _atom_site_fract_x
 _atom_site_fract_y
 _atom_site_fract_z
 _atom_site_occupancy
  Ho  Ho0  1  0.000000  0.823268  0.085012  1
  Ho  Ho1  1  0.000000  0.176841  0.914455  1
  Ho  Ho2  1  0.000000  0.944682  0.372751  1
  Lu  Lu3  1  0.000000  0.055472  0.628251  1
  Lu  Lu4  1  0.000000  0.443937  0.126300  1
  Lu  Lu5  1  0.000000  0.556160  0.873264  1
  Pa  Pa6  1  0.000000  0.321544  0.413561  1
  Pa  Pa7  1  0.000000  0.678655  0.587108  1
  Re  Re8  1  0.000000  0.635047  0.323603  1
  Re  Re9  1  0.000000  0.363770  0.676681  1
  Re  Re10  1  0.000000  0.142030  0.181477  1
  Re  Re11  1  0.000000  0.858710  0.817900  1
  B  B12  1  0.500000  0.552966  0.432958  1
  B  B13  1  0.500000  0.446115  0.567456  1
  B  B14  1  0.500000  0.054331  0.066664  1
  B  B15  1  0.500000  0.946152  0.932630  1
  B  B16  1  0.500000  0.748615  0.419253  1
  B  B17  1  0.500000  0.250222  0.581350  1
  B  B18  1  0.500000  0.250242  0.080008  1
  B  B19  1  0.500000  0.750174  0.919582  1
  B  B20  1  0.500000  0.791084  0.265076  1
  B  B21  1  0.500000  0.207791  0.734715  1
  B  B22  1  0.500000  0.293668  0.233582  1
  B  B23  1  0.500000  0.706875  0.766256  1
  B  B24  1  0.500000  0.629964  0.184226  1
  B  B25  1  0.500000  0.369519  0.815544  1
  B  B26  1  0.500000  0.132577  0.314298  1
  B  B27  1  0.500000  0.868517  0.685535  1
  B  B28  1  0.500000  0.982677  0.211774  1
  B  B29  1  0.500000  0.017971  0.787346  1
  B  B30  1  0.500000  0.482100  0.285997  1
  B  B31  1  0.500000  0.517492  0.713953  1
  B  B32  1  0.500000  0.601589  0.028133  1
  B  B33  1  0.500000  0.398432  0.971461  1
  B  B34  1  0.500000  0.108526  0.471145  1
  B  B35  1  0.500000  0.892285  0.530694  1
