# generated using pymatgen
data_Nd2HoTm5(CdPt)2
_symmetry_space_group_name_H-M   'P 1'
_cell_length_a   9.66980080
_cell_length_b   9.65176448
_cell_length_c   9.65176432
_cell_angle_alpha   60.12367482
_cell_angle_beta   59.93816497
_cell_angle_gamma   59.93816743
_symmetry_Int_Tables_number   1
_chemical_formula_structural   Nd2HoTm5(CdPt)2
_chemical_formula_sum   'Nd4 Ho2 Tm10 Cd4 Pt4'
_cell_volume   636.96114141
_cell_formula_units_Z   2
loop_
 _symmetry_equiv_pos_site_id
 _symmetry_equiv_pos_as_xyz
  1  'x, y, z'
loop_
 _atom_site_type_symbol
 _atom_site_label
 _atom_site_symmetry_multiplicity
 _atom_site_fract_x
 _atom_site_fract_y
 _atom_site_fract_z
 _atom_site_occupancy
  Nd  Nd0  1  0.564819  0.935181  0.564819  1
  Nd  Nd1  1  0.935181  0.564819  0.935181  1
  Nd  Nd2  1  0.564819  0.564819  0.935181  1
  Nd  Nd3  1  0.935181  0.935181  0.564819  1
  Ho  Ho4  1  0.942613  0.557387  0.557387  1
  Ho  Ho5  1  0.557387  0.942613  0.942613  1
  Tm  Tm6  1  0.351587  0.350388  0.350388  1
  Tm  Tm7  1  0.350388  0.351587  0.947638  1
  Tm  Tm8  1  0.350388  0.947638  0.351587  1
  Tm  Tm9  1  0.947638  0.350388  0.350388  1
  Tm  Tm10  1  0.811814  0.188186  0.188186  1
  Tm  Tm11  1  0.188186  0.811814  0.811814  1
  Tm  Tm12  1  0.188599  0.811401  0.188599  1
  Tm  Tm13  1  0.811401  0.188599  0.811401  1
  Tm  Tm14  1  0.188599  0.188599  0.811401  1
  Tm  Tm15  1  0.811401  0.811401  0.188599  1
  Cd  Cd16  1  0.583096  0.578914  0.578914  1
  Cd  Cd17  1  0.578914  0.583096  0.259075  1
  Cd  Cd18  1  0.578914  0.259075  0.583096  1
  Cd  Cd19  1  0.259075  0.578914  0.578914  1
  Pt  Pt20  1  0.144960  0.141616  0.141616  1
  Pt  Pt21  1  0.141616  0.144960  0.571809  1
  Pt  Pt22  1  0.141616  0.571809  0.144960  1
  Pt  Pt23  1  0.571809  0.141616  0.141616  1
