# generated using pymatgen
data_Y7HoTa2(Ti5Si8)2
_symmetry_space_group_name_H-M   'P 1'
_cell_length_a   7.04766484
_cell_length_b   7.04628208
_cell_length_c   12.99560715
_cell_angle_alpha   90.00923396
_cell_angle_beta   90.11990779
_cell_angle_gamma   89.99979673
_symmetry_Int_Tables_number   1
_chemical_formula_structural   Y7HoTa2(Ti5Si8)2
_chemical_formula_sum   'Y7 Ho1 Ta2 Ti10 Si16'
_cell_volume   645.35827825
_cell_formula_units_Z   1
loop_
 _symmetry_equiv_pos_site_id
 _symmetry_equiv_pos_as_xyz
  1  'x, y, z'
loop_
 _atom_site_type_symbol
 _atom_site_label
 _atom_site_symmetry_multiplicity
 _atom_site_fract_x
 _atom_site_fract_y
 _atom_site_fract_z
 _atom_site_occupancy
  Y  Y0  1  0.341491  0.002711  0.466723  1
  Y  Y1  1  0.497297  0.840692  0.716848  1
  Y  Y2  1  0.502448  0.158214  0.216515  1
  Y  Y3  1  0.841181  0.497458  0.282978  1
  Y  Y4  1  0.158380  0.502728  0.783417  1
  Y  Y5  1  0.659044  0.997291  0.967069  1
  Y  Y6  1  0.002763  0.340708  0.533157  1
  Ho  Ho7  1  0.998252  0.658024  0.033381  1
  Ta  Ta8  1  0.326152  0.326823  0.000036  1
  Ta  Ta9  1  0.173613  0.826364  0.249794  1
  Ti  Ti10  1  0.827039  0.173546  0.750013  1
  Ti  Ti11  1  0.672910  0.673473  0.500072  1
  Ti  Ti12  1  0.152549  0.008648  0.876382  1
  Ti  Ti13  1  0.490956  0.652748  0.125367  1
  Ti  Ti14  1  0.507679  0.348696  0.625859  1
  Ti  Ti15  1  0.651571  0.491997  0.875071  1
  Ti  Ti16  1  0.347200  0.508646  0.373764  1
  Ti  Ti17  1  0.848530  0.991689  0.375048  1
  Ti  Ti18  1  0.009056  0.152574  0.124502  1
  Ti  Ti19  1  0.992244  0.848620  0.624183  1
  Si  Si20  1  0.201817  0.130123  0.684786  1
  Si  Si21  1  0.369041  0.701794  0.934783  1
  Si  Si22  1  0.630623  0.297822  0.434970  1
  Si  Si23  1  0.702408  0.369906  0.065094  1
  Si  Si24  1  0.298229  0.630270  0.565189  1
  Si  Si25  1  0.798235  0.868752  0.184459  1
  Si  Si26  1  0.130411  0.201976  0.315387  1
  Si  Si27  1  0.869547  0.797533  0.815352  1
  Si  Si28  1  0.291648  0.952819  0.063907  1
  Si  Si29  1  0.546955  0.791023  0.314690  1
  Si  Si30  1  0.453363  0.208417  0.813957  1
  Si  Si31  1  0.790818  0.547135  0.685392  1
  Si  Si32  1  0.207695  0.453812  0.185776  1
  Si  Si33  1  0.709106  0.046995  0.564690  1
  Si  Si34  1  0.953146  0.291674  0.935314  1
  Si  Si35  1  0.046607  0.708298  0.436077  1
