# generated using pymatgen
data_Zr10CuBi2SbPb4
_symmetry_space_group_name_H-M   'P 1'
_cell_length_a   8.91987503
_cell_length_b   8.90882382
_cell_length_c   5.98288600
_cell_angle_alpha   90.01988936
_cell_angle_beta   89.99006488
_cell_angle_gamma   119.95903129
_symmetry_Int_Tables_number   1
_chemical_formula_structural   Zr10CuBi2SbPb4
_chemical_formula_sum   'Zr10 Cu1 Bi2 Sb1 Pb4'
_cell_volume   411.90741939
_cell_formula_units_Z   1
loop_
 _symmetry_equiv_pos_site_id
 _symmetry_equiv_pos_as_xyz
  1  'x, y, z'
loop_
 _atom_site_type_symbol
 _atom_site_label
 _atom_site_symmetry_multiplicity
 _atom_site_fract_x
 _atom_site_fract_y
 _atom_site_fract_z
 _atom_site_occupancy
  Zr  Zr0  1  0.333614  0.666808  0.000000  1
  Zr  Zr1  1  0.666448  0.333224  0.500000  1
  Zr  Zr2  1  0.666825  0.333413  0.000000  1
  Zr  Zr3  1  0.332665  0.666333  0.500000  1
  Zr  Zr4  1  0.269907  0.999850  0.236961  1
  Zr  Zr5  1  0.269907  0.270059  0.763039  1
  Zr  Zr6  1  0.001264  0.730394  0.762402  1
  Zr  Zr7  1  0.001264  0.270871  0.237598  1
  Zr  Zr8  1  0.730002  0.728843  0.238668  1
  Zr  Zr9  1  0.730002  0.001160  0.761332  1
  Cu  Cu10  1  0.001079  0.000540  0.000000  1
  Bi  Bi11  1  0.610976  0.000570  0.249167  1
  Bi  Bi12  1  0.610976  0.610407  0.750833  1
  Sb  Sb13  1  0.999892  0.999947  0.500000  1
  Pb  Pb14  1  0.000346  0.388965  0.750728  1
  Pb  Pb15  1  0.000346  0.611381  0.249272  1
  Pb  Pb16  1  0.387241  0.387058  0.249624  1
  Pb  Pb17  1  0.387241  0.000182  0.750376  1
