# generated using pymatgen
data_Y4Al4Ir2RhAu
_symmetry_space_group_name_H-M   'P 1'
_cell_length_a   4.38271800
_cell_length_b   6.88864826
_cell_length_c   7.87206832
_cell_angle_alpha   89.82547606
_cell_angle_beta   90.00000000
_cell_angle_gamma   90.00000000
_symmetry_Int_Tables_number   1
_chemical_formula_structural   Y4Al4Ir2RhAu
_chemical_formula_sum   'Y4 Al4 Ir2 Rh1 Au1'
_cell_volume   237.66453354
_cell_formula_units_Z   1
loop_
 _symmetry_equiv_pos_site_id
 _symmetry_equiv_pos_as_xyz
  1  'x, y, z'
loop_
 _atom_site_type_symbol
 _atom_site_label
 _atom_site_symmetry_multiplicity
 _atom_site_fract_x
 _atom_site_fract_y
 _atom_site_fract_z
 _atom_site_occupancy
  Y  Y0  1  0.250000  0.020265  0.324186  1
  Y  Y1  1  0.250000  0.538295  0.183018  1
  Y  Y2  1  0.750000  0.970452  0.680605  1
  Y  Y3  1  0.750000  0.481910  0.812880  1
  Al  Al4  1  0.250000  0.139041  0.931382  1
  Al  Al5  1  0.250000  0.644677  0.564758  1
  Al  Al6  1  0.750000  0.843526  0.062456  1
  Al  Al7  1  0.750000  0.362501  0.442264  1
  Ir  Ir8  1  0.250000  0.770992  0.882212  1
  Ir  Ir9  1  0.750000  0.730296  0.382148  1
  Rh  Rh10  1  0.250000  0.271504  0.615220  1
  Au  Au11  1  0.750000  0.226541  0.118870  1
