# generated using pymatgen
data_DyZn2HgPd2
_symmetry_space_group_name_H-M   'P 1'
_cell_length_a   5.25280811
_cell_length_b   5.29647022
_cell_length_c   5.29647100
_cell_angle_alpha   63.21895906
_cell_angle_beta   60.27232388
_cell_angle_gamma   60.27232415
_symmetry_Int_Tables_number   1
_chemical_formula_structural   DyZn2HgPd2
_chemical_formula_sum   'Dy1 Zn2 Hg1 Pd2'
_cell_volume   106.94936329
_cell_formula_units_Z   1
loop_
 _symmetry_equiv_pos_site_id
 _symmetry_equiv_pos_as_xyz
  1  'x, y, z'
loop_
 _atom_site_type_symbol
 _atom_site_label
 _atom_site_symmetry_multiplicity
 _atom_site_fract_x
 _atom_site_fract_y
 _atom_site_fract_z
 _atom_site_occupancy
  Dy  Dy0  1  0.742866  0.757134  0.757134  1
  Zn  Zn1  1  0.379740  0.370689  0.370689  1
  Zn  Zn2  1  0.878882  0.370689  0.370689  1
  Hg  Hg3  1  0.995046  0.004954  0.004954  1
  Pd  Pd4  1  0.376733  0.373404  0.873130  1
  Pd  Pd5  1  0.376733  0.873130  0.373404  1
