# generated using pymatgen
data_Er5MoRhO12
_symmetry_space_group_name_H-M   'P 1'
_cell_length_a   6.79046171
_cell_length_b   6.79046133
_cell_length_c   7.40684088
_cell_angle_alpha   73.93227327
_cell_angle_beta   73.93227865
_cell_angle_gamma   49.93252449
_symmetry_Int_Tables_number   1
_chemical_formula_structural   Er5MoRhO12
_chemical_formula_sum   'Er5 Mo1 Rh1 O12'
_cell_volume   248.89114023
_cell_formula_units_Z   1
loop_
 _symmetry_equiv_pos_site_id
 _symmetry_equiv_pos_as_xyz
  1  'x, y, z'
loop_
 _atom_site_type_symbol
 _atom_site_label
 _atom_site_symmetry_multiplicity
 _atom_site_fract_x
 _atom_site_fract_y
 _atom_site_fract_z
 _atom_site_occupancy
  Er  Er0  1  0.316322  0.287423  0.359499  1
  Er  Er1  1  0.712577  0.683678  0.640501  1
  Er  Er2  1  0.318049  0.305748  0.827102  1
  Er  Er3  1  0.694252  0.681951  0.172898  1
  Er  Er4  1  0.006544  0.993456  0.500000  1
  Mo  Mo5  1  0.205010  0.794990  0.000000  1
  Rh  Rh6  1  0.755659  0.244341  0.000000  1
  O  O7  1  0.912189  0.437608  0.912797  1
  O  O8  1  0.416422  0.903477  0.915294  1
  O  O9  1  0.096523  0.583578  0.084706  1
  O  O10  1  0.562392  0.087811  0.087203  1
  O  O11  1  0.107519  0.592853  0.568828  1
  O  O12  1  0.599688  0.088631  0.576780  1
  O  O13  1  0.911369  0.400312  0.423220  1
  O  O14  1  0.407147  0.892481  0.431172  1
  O  O15  1  0.998495  0.998415  0.798900  1
  O  O16  1  0.001585  0.001505  0.201100  1
  O  O17  1  0.489549  0.511292  0.818099  1
  O  O18  1  0.488708  0.510451  0.181901  1
