# generated using pymatgen
data_TbY2In3BiIr2
_symmetry_space_group_name_H-M   'P 1'
_cell_length_a   7.77603910
_cell_length_b   7.77343020
_cell_length_c   4.06473200
_cell_angle_alpha   90.00000000
_cell_angle_beta   90.00000000
_cell_angle_gamma   120.07221167
_symmetry_Int_Tables_number   1
_chemical_formula_structural   TbY2In3BiIr2
_chemical_formula_sum   'Tb1 Y2 In3 Bi1 Ir2'
_cell_volume   212.62641243
_cell_formula_units_Z   1
loop_
 _symmetry_equiv_pos_site_id
 _symmetry_equiv_pos_as_xyz
  1  'x, y, z'
loop_
 _atom_site_type_symbol
 _atom_site_label
 _atom_site_symmetry_multiplicity
 _atom_site_fract_x
 _atom_site_fract_y
 _atom_site_fract_z
 _atom_site_occupancy
  Tb  Tb0  1  0.969272  0.583032  0.000000  1
  Y  Y1  1  0.416796  0.386444  0.000000  1
  Y  Y2  1  0.613689  0.030398  0.000000  1
  In  In3  1  0.979031  0.235214  0.500000  1
  In  In4  1  0.764571  0.743904  0.500000  1
  In  In5  1  0.256049  0.020638  0.500000  1
  Bi  Bi6  1  0.333558  0.666838  0.500000  1
  Ir  Ir7  1  0.000017  0.999893  0.000000  1
  Ir  Ir8  1  0.667015  0.333642  0.500000  1
