# generated using pymatgen
data_SmTh7(Nb3Si4)4
_symmetry_space_group_name_H-M   'P 1'
_cell_length_a   7.03490868
_cell_length_b   7.24596800
_cell_length_c   13.60496843
_cell_angle_alpha   90.03243345
_cell_angle_beta   89.90511252
_cell_angle_gamma   90.01589460
_symmetry_Int_Tables_number   1
_chemical_formula_structural   SmTh7(Nb3Si4)4
_chemical_formula_sum   'Sm1 Th7 Nb12 Si16'
_cell_volume   693.50841129
_cell_formula_units_Z   1
loop_
 _symmetry_equiv_pos_site_id
 _symmetry_equiv_pos_as_xyz
  1  'x, y, z'
loop_
 _atom_site_type_symbol
 _atom_site_label
 _atom_site_symmetry_multiplicity
 _atom_site_fract_x
 _atom_site_fract_y
 _atom_site_fract_z
 _atom_site_occupancy
  Sm  Sm0  1  0.000074  0.829833  0.596114  1
  Th  Th1  1  0.501368  0.669122  0.595376  1
  Th  Th2  1  0.000706  0.830317  0.903845  1
  Th  Th3  1  0.500379  0.330300  0.095846  1
  Th  Th4  1  0.998649  0.170463  0.405359  1
  Th  Th5  1  0.498422  0.330487  0.405927  1
  Th  Th6  1  0.000290  0.169829  0.095803  1
  Th  Th7  1  0.500737  0.670177  0.902793  1
  Nb  Nb8  1  0.661707  0.173284  0.624268  1
  Nb  Nb9  1  0.162663  0.327030  0.874223  1
  Nb  Nb10  1  0.337161  0.827849  0.125028  1
  Nb  Nb11  1  0.834986  0.672672  0.375425  1
  Nb  Nb12  1  0.336509  0.827914  0.375386  1
  Nb  Nb13  1  0.836796  0.672153  0.125157  1
  Nb  Nb14  1  0.665585  0.170924  0.874429  1
  Nb  Nb15  1  0.164395  0.327764  0.624456  1
  Nb  Nb16  1  0.836102  0.490543  0.750517  1
  Nb  Nb17  1  0.337696  0.006634  0.749196  1
  Nb  Nb18  1  0.163127  0.507719  0.250469  1
  Nb  Nb19  1  0.663130  0.993060  0.250769  1
  Si  Si20  1  0.659684  0.957210  0.457313  1
  Si  Si21  1  0.160284  0.543322  0.043407  1
  Si  Si22  1  0.340961  0.043863  0.955415  1
  Si  Si23  1  0.842944  0.460363  0.544949  1
  Si  Si24  1  0.336468  0.040069  0.544657  1
  Si  Si25  1  0.839747  0.456362  0.955919  1
  Si  Si26  1  0.659985  0.956390  0.043603  1
  Si  Si27  1  0.157875  0.545459  0.457591  1
  Si  Si28  1  0.458980  0.367565  0.749587  1
  Si  Si29  1  0.960242  0.129698  0.747871  1
  Si  Si30  1  0.540735  0.631389  0.250750  1
  Si  Si31  1  0.040845  0.868816  0.250699  1
  Si  Si32  1  0.702615  0.884859  0.747739  1
  Si  Si33  1  0.197922  0.615974  0.748291  1
  Si  Si34  1  0.300066  0.115070  0.250775  1
  Si  Si35  1  0.800168  0.385517  0.251047  1
