# generated using pymatgen
data_Tb16ZnIn2Co4Ag
_symmetry_space_group_name_H-M   'P 1'
_cell_length_a   9.50766793
_cell_length_b   9.50766727
_cell_length_c   9.50268797
_cell_angle_alpha   60.06963825
_cell_angle_beta   60.06964343
_cell_angle_gamma   60.26037618
_symmetry_Int_Tables_number   1
_chemical_formula_structural   Tb16ZnIn2Co4Ag
_chemical_formula_sum   'Tb16 Zn1 In2 Co4 Ag1'
_cell_volume   609.23510591
_cell_formula_units_Z   1
loop_
 _symmetry_equiv_pos_site_id
 _symmetry_equiv_pos_as_xyz
  1  'x, y, z'
loop_
 _atom_site_type_symbol
 _atom_site_label
 _atom_site_symmetry_multiplicity
 _atom_site_fract_x
 _atom_site_fract_y
 _atom_site_fract_z
 _atom_site_occupancy
  Tb  Tb0  1  0.809770  0.809770  0.189957  1
  Tb  Tb1  1  0.811629  0.188533  0.811018  1
  Tb  Tb2  1  0.188464  0.188464  0.811244  1
  Tb  Tb3  1  0.651729  0.044159  0.650998  1
  Tb  Tb4  1  0.061583  0.061583  0.438519  1
  Tb  Tb5  1  0.440484  0.440484  0.060154  1
  Tb  Tb6  1  0.653288  0.653288  0.650946  1
  Tb  Tb7  1  0.810188  0.189774  0.189425  1
  Tb  Tb8  1  0.188533  0.811629  0.811018  1
  Tb  Tb9  1  0.044159  0.651729  0.650998  1
  Tb  Tb10  1  0.440187  0.064456  0.056841  1
  Tb  Tb11  1  0.438437  0.067172  0.437452  1
  Tb  Tb12  1  0.064456  0.440187  0.056841  1
  Tb  Tb13  1  0.651516  0.651516  0.045426  1
  Tb  Tb14  1  0.189774  0.810188  0.189425  1
  Tb  Tb15  1  0.067172  0.438437  0.437452  1
  Zn  Zn16  1  0.417025  0.417025  0.420986  1
  In  In17  1  0.417178  0.738623  0.422308  1
  In  In18  1  0.738623  0.417178  0.422308  1
  Co  Co19  1  0.858636  0.423512  0.859660  1
  Co  Co20  1  0.857643  0.857643  0.859115  1
  Co  Co21  1  0.859001  0.859001  0.423999  1
  Co  Co22  1  0.423512  0.858636  0.859660  1
  Ag  Ag23  1  0.417014  0.417014  0.744252  1
