# generated using pymatgen
data_Dy3TiGa2Ir3
_symmetry_space_group_name_H-M   'P 1'
_cell_length_a   7.02936842
_cell_length_b   7.02936636
_cell_length_c   4.15103900
_cell_angle_alpha   90.00000000
_cell_angle_beta   90.00000000
_cell_angle_gamma   121.09138320
_symmetry_Int_Tables_number   1
_chemical_formula_structural   Dy3TiGa2Ir3
_chemical_formula_sum   'Dy3 Ti1 Ga2 Ir3'
_cell_volume   175.64586944
_cell_formula_units_Z   1
loop_
 _symmetry_equiv_pos_site_id
 _symmetry_equiv_pos_as_xyz
  1  'x, y, z'
loop_
 _atom_site_type_symbol
 _atom_site_label
 _atom_site_symmetry_multiplicity
 _atom_site_fract_x
 _atom_site_fract_y
 _atom_site_fract_z
 _atom_site_occupancy
  Dy  Dy0  1  0.399515  0.399515  0.500000  1
  Dy  Dy1  1  0.580886  0.007749  0.500000  1
  Dy  Dy2  1  0.007749  0.580886  0.500000  1
  Ti  Ti3  1  0.770513  0.770513  0.000000  1
  Ga  Ga4  1  0.243317  0.996706  0.000000  1
  Ga  Ga5  1  0.996706  0.243317  0.000000  1
  Ir  Ir6  1  0.667072  0.350855  0.000000  1
  Ir  Ir7  1  0.350855  0.667072  0.000000  1
  Ir  Ir8  1  0.983388  0.983388  0.500000  1
