# generated using pymatgen
data_YHo9(AlBi2)2
_symmetry_space_group_name_H-M   'P 1'
_cell_length_a   8.98918856
_cell_length_b   8.98304392
_cell_length_c   6.45423200
_cell_angle_alpha   89.99958160
_cell_angle_beta   90.00031886
_cell_angle_gamma   119.83650209
_symmetry_Int_Tables_number   1
_chemical_formula_structural   YHo9(AlBi2)2
_chemical_formula_sum   'Y1 Ho9 Al2 Bi4'
_cell_volume   452.09777358
_cell_formula_units_Z   1
loop_
 _symmetry_equiv_pos_site_id
 _symmetry_equiv_pos_as_xyz
  1  'x, y, z'
loop_
 _atom_site_type_symbol
 _atom_site_label
 _atom_site_symmetry_multiplicity
 _atom_site_fract_x
 _atom_site_fract_y
 _atom_site_fract_z
 _atom_site_occupancy
  Y  Y0  1  0.998863  0.237223  0.250002  1
  Ho  Ho1  1  0.668935  0.326120  0.507304  1
  Ho  Ho2  1  0.326130  0.669227  0.507303  1
  Ho  Ho3  1  0.326129  0.669231  0.992697  1
  Ho  Ho4  1  0.668931  0.326123  0.992693  1
  Ho  Ho5  1  0.761464  0.761281  0.249997  1
  Ho  Ho6  1  0.237555  0.998674  0.249999  1
  Ho  Ho7  1  0.233111  0.232778  0.750006  1
  Ho  Ho8  1  0.764859  0.013119  0.750003  1
  Ho  Ho9  1  0.013336  0.765361  0.749998  1
  Al  Al10  1  0.397029  0.001405  0.749998  1
  Al  Al11  1  0.001361  0.397024  0.750001  1
  Bi  Bi12  1  0.395417  0.395047  0.250007  1
  Bi  Bi13  1  0.600881  0.995537  0.249998  1
  Bi  Bi14  1  0.995770  0.601575  0.249994  1
  Bi  Bi15  1  0.610228  0.610276  0.750003  1
