# generated using pymatgen
data_ThCoAsPPd
_symmetry_space_group_name_H-M   'P 1'
_cell_length_a   4.20316500
_cell_length_b   4.20316500
_cell_length_c   9.53424700
_cell_angle_alpha   90.00000000
_cell_angle_beta   90.00000000
_cell_angle_gamma   90.00000000
_symmetry_Int_Tables_number   1
_chemical_formula_structural   ThCoAsPPd
_chemical_formula_sum   'Th2 Co2 As2 P2 Pd2'
_cell_volume   168.43769008
_cell_formula_units_Z   2
loop_
 _symmetry_equiv_pos_site_id
 _symmetry_equiv_pos_as_xyz
  1  'x, y, z'
loop_
 _atom_site_type_symbol
 _atom_site_label
 _atom_site_symmetry_multiplicity
 _atom_site_fract_x
 _atom_site_fract_y
 _atom_site_fract_z
 _atom_site_occupancy
  Th  Th0  1  0.000000  0.500000  0.269044  1
  Th  Th1  1  0.500000  0.000000  0.730956  1
  Co  Co2  1  0.000000  0.500000  0.594282  1
  Co  Co3  1  0.500000  0.000000  0.405718  1
  As  As4  1  0.000000  0.500000  0.842241  1
  As  As5  1  0.500000  0.000000  0.157759  1
  P  P6  1  0.000000  0.000000  0.500000  1
  P  P7  1  0.500000  0.500000  0.500000  1
  Pd  Pd8  1  0.000000  0.000000  0.000000  1
  Pd  Pd9  1  0.500000  0.500000  0.000000  1
