# generated using pymatgen
data_Lu(ThPd4)3
_symmetry_space_group_name_H-M   'P 1'
_cell_length_a   5.90922700
_cell_length_b   5.90922614
_cell_length_c   9.72633300
_cell_angle_alpha   90.00000000
_cell_angle_beta   90.00000000
_cell_angle_gamma   119.99999919
_symmetry_Int_Tables_number   1
_chemical_formula_structural   Lu(ThPd4)3
_chemical_formula_sum   'Lu1 Th3 Pd12'
_cell_volume   294.13117225
_cell_formula_units_Z   1
loop_
 _symmetry_equiv_pos_site_id
 _symmetry_equiv_pos_as_xyz
  1  'x, y, z'
loop_
 _atom_site_type_symbol
 _atom_site_label
 _atom_site_symmetry_multiplicity
 _atom_site_fract_x
 _atom_site_fract_y
 _atom_site_fract_z
 _atom_site_occupancy
  Lu  Lu0  1  0.333333  0.666667  0.250000  1
  Th  Th1  1  0.000000  0.000000  0.495117  1
  Th  Th2  1  0.000000  0.000000  0.004883  1
  Th  Th3  1  0.666667  0.333333  0.750000  1
  Pd  Pd4  1  0.499202  0.500798  0.498123  1
  Pd  Pd5  1  0.499202  0.998404  0.498123  1
  Pd  Pd6  1  0.001596  0.500798  0.498123  1
  Pd  Pd7  1  0.499202  0.500798  0.001877  1
  Pd  Pd8  1  0.499202  0.998404  0.001877  1
  Pd  Pd9  1  0.001596  0.500798  0.001877  1
  Pd  Pd10  1  0.825560  0.651120  0.250000  1
  Pd  Pd11  1  0.348880  0.174440  0.250000  1
  Pd  Pd12  1  0.825560  0.174440  0.250000  1
  Pd  Pd13  1  0.173934  0.347869  0.750000  1
  Pd  Pd14  1  0.652131  0.826066  0.750000  1
  Pd  Pd15  1  0.173934  0.826066  0.750000  1
