# generated using pymatgen
data_Ce5Ta3Fe12(P3Ru)4
_symmetry_space_group_name_H-M   'P 1'
_cell_length_a   12.43552600
_cell_length_b   12.43552377
_cell_length_c   3.77971300
_cell_angle_alpha   90.00000000
_cell_angle_beta   90.00000000
_cell_angle_gamma   119.99999991
_symmetry_Int_Tables_number   1
_chemical_formula_structural   Ce5Ta3Fe12(P3Ru)4
_chemical_formula_sum   'Ce5 Ta3 Fe12 P12 Ru4'
_cell_volume   506.19482177
_cell_formula_units_Z   1
loop_
 _symmetry_equiv_pos_site_id
 _symmetry_equiv_pos_as_xyz
  1  'x, y, z'
loop_
 _atom_site_type_symbol
 _atom_site_label
 _atom_site_symmetry_multiplicity
 _atom_site_fract_x
 _atom_site_fract_y
 _atom_site_fract_z
 _atom_site_occupancy
  Ce  Ce0  1  0.182051  0.178951  0.500000  1
  Ce  Ce1  1  0.821049  0.003100  0.500000  1
  Ce  Ce2  1  0.996900  0.817949  0.500000  1
  Ce  Ce3  1  0.333333  0.666667  0.000000  1
  Ce  Ce4  1  0.666667  0.333333  0.000000  1
  Ta  Ta5  1  0.561615  0.567180  0.000000  1
  Ta  Ta6  1  0.432820  0.994435  0.000000  1
  Ta  Ta7  1  0.005565  0.438385  0.000000  1
  Fe  Fe8  1  0.714051  0.719265  0.500000  1
  Fe  Fe9  1  0.280735  0.994786  0.500000  1
  Fe  Fe10  1  0.005214  0.285949  0.500000  1
  Fe  Fe11  1  0.185484  0.381455  0.000000  1
  Fe  Fe12  1  0.618545  0.804030  0.000000  1
  Fe  Fe13  1  0.195970  0.814516  0.000000  1
  Fe  Fe14  1  0.799684  0.625290  0.000000  1
  Fe  Fe15  1  0.825606  0.200316  0.000000  1
  Fe  Fe16  1  0.374710  0.174394  0.000000  1
  Fe  Fe17  1  0.357450  0.483451  0.500000  1
  Fe  Fe18  1  0.516549  0.873999  0.500000  1
  Fe  Fe19  1  0.126001  0.642550  0.500000  1
  P  P20  1  0.805965  0.809690  0.000000  1
  P  P21  1  0.190310  0.996275  0.000000  1
  P  P22  1  0.003725  0.194035  0.000000  1
  P  P23  1  0.169755  0.476667  0.500000  1
  P  P24  1  0.523333  0.693088  0.500000  1
  P  P25  1  0.306912  0.830245  0.500000  1
  P  P26  1  0.690744  0.528528  0.500000  1
  P  P27  1  0.837784  0.309256  0.500000  1
  P  P28  1  0.471472  0.162216  0.500000  1
  P  P29  1  0.356863  0.357265  0.000000  1
  P  P30  1  0.642735  0.999598  0.000000  1
  P  P31  1  0.000402  0.643137  0.000000  1
  Ru  Ru32  1  0.878148  0.520686  0.500000  1
  Ru  Ru33  1  0.642538  0.121852  0.500000  1
  Ru  Ru34  1  0.479314  0.357462  0.500000  1
  Ru  Ru35  1  0.000000  0.000000  0.000000  1
