# generated using pymatgen
data_Sm(S8I)3
_symmetry_space_group_name_H-M   'P 1'
_cell_length_a   15.59029855
_cell_length_b   15.59029863
_cell_length_c   15.59029921
_cell_angle_alpha   119.18157563
_cell_angle_beta   119.18157844
_cell_angle_gamma   119.18158088
_symmetry_Int_Tables_number   1
_chemical_formula_structural   Sm(S8I)3
_chemical_formula_sum   'Sm1 S24 I3'
_cell_volume   888.45840475
_cell_formula_units_Z   1
loop_
 _symmetry_equiv_pos_site_id
 _symmetry_equiv_pos_as_xyz
  1  'x, y, z'
loop_
 _atom_site_type_symbol
 _atom_site_label
 _atom_site_symmetry_multiplicity
 _atom_site_fract_x
 _atom_site_fract_y
 _atom_site_fract_z
 _atom_site_occupancy
  Sm  Sm0  1  0.456088  0.456088  0.456088  1
  S  S1  1  0.997865  0.586642  0.586642  1
  S  S2  1  0.586642  0.586642  0.997865  1
  S  S3  1  0.586642  0.997865  0.586642  1
  S  S4  1  0.250640  0.854886  0.729792  1
  S  S5  1  0.854886  0.729792  0.250640  1
  S  S6  1  0.729792  0.250640  0.854886  1
  S  S7  1  0.854886  0.250640  0.729792  1
  S  S8  1  0.250640  0.729792  0.854886  1
  S  S9  1  0.729792  0.854886  0.250640  1
  S  S10  1  0.084609  0.607960  0.430879  1
  S  S11  1  0.607960  0.430879  0.084609  1
  S  S12  1  0.430879  0.084609  0.607960  1
  S  S13  1  0.607960  0.084609  0.430879  1
  S  S14  1  0.084609  0.430879  0.607960  1
  S  S15  1  0.430879  0.607960  0.084609  1
  S  S16  1  0.375135  0.762684  0.636659  1
  S  S17  1  0.762684  0.636659  0.375135  1
  S  S18  1  0.636659  0.375135  0.762684  1
  S  S19  1  0.762684  0.375135  0.636659  1
  S  S20  1  0.375135  0.636659  0.762684  1
  S  S21  1  0.636659  0.762684  0.375135  1
  S  S22  1  0.175036  0.456104  0.456104  1
  S  S23  1  0.456104  0.456104  0.175036  1
  S  S24  1  0.456104  0.175036  0.456104  1
  I  I25  1  0.055629  0.905253  0.905253  1
  I  I26  1  0.905253  0.905253  0.055629  1
  I  I27  1  0.905253  0.055629  0.905253  1
