# generated using pymatgen
data_YTm7(AlPd)2
_symmetry_space_group_name_H-M   'P 1'
_cell_length_a   9.49165585
_cell_length_b   9.49165590
_cell_length_c   9.48996300
_cell_angle_alpha   60.00590329
_cell_angle_beta   60.00590311
_cell_angle_gamma   59.98819069
_symmetry_Int_Tables_number   1
_chemical_formula_structural   YTm7(AlPd)2
_chemical_formula_sum   'Y2 Tm14 Al4 Pd4'
_cell_volume   604.55170787
_cell_formula_units_Z   2
loop_
 _symmetry_equiv_pos_site_id
 _symmetry_equiv_pos_as_xyz
  1  'x, y, z'
loop_
 _atom_site_type_symbol
 _atom_site_label
 _atom_site_symmetry_multiplicity
 _atom_site_fract_x
 _atom_site_fract_y
 _atom_site_fract_z
 _atom_site_occupancy
  Y  Y0  1  0.567852  0.567852  0.932148  1
  Y  Y1  1  0.932148  0.932148  0.567852  1
  Tm  Tm2  1  0.356081  0.356081  0.355632  1
  Tm  Tm3  1  0.356081  0.356081  0.932206  1
  Tm  Tm4  1  0.355632  0.932206  0.356081  1
  Tm  Tm5  1  0.932206  0.355632  0.356081  1
  Tm  Tm6  1  0.807041  0.192959  0.192959  1
  Tm  Tm7  1  0.192959  0.807041  0.807041  1
  Tm  Tm8  1  0.192959  0.807041  0.192959  1
  Tm  Tm9  1  0.807041  0.192959  0.807041  1
  Tm  Tm10  1  0.192642  0.192642  0.807358  1
  Tm  Tm11  1  0.807358  0.807358  0.192642  1
  Tm  Tm12  1  0.935495  0.564505  0.564505  1
  Tm  Tm13  1  0.564505  0.935495  0.935495  1
  Tm  Tm14  1  0.564505  0.935495  0.564505  1
  Tm  Tm15  1  0.935495  0.564505  0.935495  1
  Al  Al16  1  0.578182  0.578182  0.578102  1
  Al  Al17  1  0.578182  0.578182  0.265534  1
  Al  Al18  1  0.578102  0.265534  0.578182  1
  Al  Al19  1  0.265534  0.578102  0.578182  1
  Pd  Pd20  1  0.145268  0.145268  0.143387  1
  Pd  Pd21  1  0.145268  0.145268  0.566077  1
  Pd  Pd22  1  0.143387  0.566077  0.145268  1
  Pd  Pd23  1  0.566077  0.143387  0.145268  1
