# generated using pymatgen
data_Dy6MnAl24RuRh6
_symmetry_space_group_name_H-M   'P 1'
_cell_length_a   8.82844200
_cell_length_b   8.82844059
_cell_length_c   9.47696500
_cell_angle_alpha   90.00000000
_cell_angle_beta   90.00000000
_cell_angle_gamma   119.99999778
_symmetry_Int_Tables_number   1
_chemical_formula_structural   Dy6MnAl24RuRh6
_chemical_formula_sum   'Dy6 Mn1 Al24 Ru1 Rh6'
_cell_volume   639.68767810
_cell_formula_units_Z   1
loop_
 _symmetry_equiv_pos_site_id
 _symmetry_equiv_pos_as_xyz
  1  'x, y, z'
loop_
 _atom_site_type_symbol
 _atom_site_label
 _atom_site_symmetry_multiplicity
 _atom_site_fract_x
 _atom_site_fract_y
 _atom_site_fract_z
 _atom_site_occupancy
  Dy  Dy0  1  0.192084  0.807916  0.249577  1
  Dy  Dy1  1  0.192084  0.384169  0.249577  1
  Dy  Dy2  1  0.615831  0.807916  0.249577  1
  Dy  Dy3  1  0.807916  0.192084  0.750423  1
  Dy  Dy4  1  0.807916  0.615831  0.750423  1
  Dy  Dy5  1  0.384169  0.192084  0.750423  1
  Mn  Mn6  1  0.000000  0.000000  0.500000  1
  Al  Al7  1  0.562461  0.437539  0.249762  1
  Al  Al8  1  0.562461  0.124920  0.249762  1
  Al  Al9  1  0.875080  0.437539  0.249762  1
  Al  Al10  1  0.437539  0.562461  0.750238  1
  Al  Al11  1  0.437539  0.875080  0.750238  1
  Al  Al12  1  0.124920  0.562461  0.750238  1
  Al  Al13  1  0.321167  0.160584  0.424579  1
  Al  Al14  1  0.839416  0.160584  0.424579  1
  Al  Al15  1  0.839416  0.678833  0.424579  1
  Al  Al16  1  0.678833  0.839416  0.575421  1
  Al  Al17  1  0.160584  0.839416  0.575421  1
  Al  Al18  1  0.160584  0.321167  0.575421  1
  Al  Al19  1  0.674221  0.837110  0.924804  1
  Al  Al20  1  0.162890  0.837110  0.924804  1
  Al  Al21  1  0.162890  0.325779  0.924804  1
  Al  Al22  1  0.325779  0.162890  0.075196  1
  Al  Al23  1  0.837110  0.162890  0.075196  1
  Al  Al24  1  0.837110  0.674221  0.075196  1
  Al  Al25  1  0.666667  0.333333  0.525973  1
  Al  Al26  1  0.333333  0.666667  0.474027  1
  Al  Al27  1  0.333333  0.666667  0.027359  1
  Al  Al28  1  0.666667  0.333333  0.972641  1
  Al  Al29  1  0.000000  0.000000  0.254201  1
  Al  Al30  1  0.000000  0.000000  0.745799  1
  Ru  Ru31  1  0.000000  0.000000  0.000000  1
  Rh  Rh32  1  0.500000  0.500000  0.500000  1
  Rh  Rh33  1  0.500000  0.000000  0.500000  1
  Rh  Rh34  1  0.000000  0.500000  0.500000  1
  Rh  Rh35  1  0.500000  0.500000  0.000000  1
  Rh  Rh36  1  0.500000  0.000000  0.000000  1
  Rh  Rh37  1  0.000000  0.500000  0.000000  1
