# generated using pymatgen
data_Ho8Zr2(IrRh)3
_symmetry_space_group_name_H-M   'P 1'
_cell_length_a   10.81000431
_cell_length_b   10.81135900
_cell_length_c   6.24508092
_cell_angle_alpha   89.99955717
_cell_angle_beta   90.08973794
_cell_angle_gamma   90.00015917
_symmetry_Int_Tables_number   1
_chemical_formula_structural   Ho8Zr2(IrRh)3
_chemical_formula_sum   'Ho16 Zr4 Ir6 Rh6'
_cell_volume   729.86694118
_cell_formula_units_Z   2
loop_
 _symmetry_equiv_pos_site_id
 _symmetry_equiv_pos_as_xyz
  1  'x, y, z'
loop_
 _atom_site_type_symbol
 _atom_site_label
 _atom_site_symmetry_multiplicity
 _atom_site_fract_x
 _atom_site_fract_y
 _atom_site_fract_z
 _atom_site_occupancy
  Ho  Ho0  1  0.289039  0.087566  0.374350  1
  Ho  Ho1  1  0.289041  0.912436  0.874347  1
  Ho  Ho2  1  0.710120  0.088533  0.874022  1
  Ho  Ho3  1  0.710121  0.911471  0.374021  1
  Ho  Ho4  1  0.586230  0.788834  0.874946  1
  Ho  Ho5  1  0.586232  0.211167  0.374947  1
  Ho  Ho6  1  0.412303  0.789133  0.374695  1
  Ho  Ho7  1  0.412303  0.210870  0.874695  1
  Ho  Ho8  1  0.210866  0.412458  0.625315  1
  Ho  Ho9  1  0.210866  0.587542  0.125315  1
  Ho  Ho10  1  0.788811  0.413675  0.125019  1
  Ho  Ho11  1  0.788811  0.586323  0.625019  1
  Ho  Ho12  1  0.912684  0.710496  0.126126  1
  Ho  Ho13  1  0.912683  0.289501  0.626122  1
  Ho  Ho14  1  0.088765  0.710590  0.625510  1
  Ho  Ho15  1  0.088763  0.289412  0.125512  1
  Zr  Zr16  1  0.000713  0.000096  0.500023  1
  Zr  Zr17  1  0.000716  0.999897  0.000024  1
  Zr  Zr18  1  0.499965  0.500029  0.000006  1
  Zr  Zr19  1  0.499965  0.499975  0.500001  1
  Ir  Ir20  1  0.145783  0.146347  0.750206  1
  Ir  Ir21  1  0.145785  0.853653  0.250199  1
  Ir  Ir22  1  0.646987  0.353180  0.749971  1
  Ir  Ir23  1  0.646986  0.646820  0.249969  1
  Ir  Ir24  1  0.353625  0.353464  0.250059  1
  Ir  Ir25  1  0.353626  0.646536  0.750058  1
  Rh  Rh26  1  0.853534  0.145857  0.249751  1
  Rh  Rh27  1  0.853537  0.854146  0.749772  1
  Rh  Rh28  1  0.500949  0.999955  0.120633  1
  Rh  Rh29  1  0.500948  0.000042  0.620644  1
  Rh  Rh30  1  0.999621  0.500267  0.879369  1
  Rh  Rh31  1  0.999621  0.499728  0.379357  1
