# generated using pymatgen
data_Ce2ThTiSn5
_symmetry_space_group_name_H-M   'P 1'
_cell_length_a   9.33979700
_cell_length_b   9.38574438
_cell_length_c   6.20659800
_cell_angle_alpha   90.00000000
_cell_angle_beta   90.00000000
_cell_angle_gamma   119.83818822
_symmetry_Int_Tables_number   1
_chemical_formula_structural   Ce2ThTiSn5
_chemical_formula_sum   'Ce4 Th2 Ti2 Sn10'
_cell_volume   471.95025830
_cell_formula_units_Z   2
loop_
 _symmetry_equiv_pos_site_id
 _symmetry_equiv_pos_as_xyz
  1  'x, y, z'
loop_
 _atom_site_type_symbol
 _atom_site_label
 _atom_site_symmetry_multiplicity
 _atom_site_fract_x
 _atom_site_fract_y
 _atom_site_fract_z
 _atom_site_occupancy
  Ce  Ce0  1  0.999135  0.614012  0.250000  1
  Ce  Ce1  1  0.000865  0.385988  0.750000  1
  Ce  Ce2  1  0.385123  0.385988  0.250000  1
  Ce  Ce3  1  0.614877  0.614012  0.750000  1
  Th  Th4  1  0.615755  0.000000  0.250000  1
  Th  Th5  1  0.384245  0.000000  0.750000  1
  Ti  Ti6  1  0.000000  0.000000  0.000000  1
  Ti  Ti7  1  0.000000  0.000000  0.500000  1
  Sn  Sn8  1  0.256496  0.000000  0.250000  1
  Sn  Sn9  1  0.743504  0.000000  0.750000  1
  Sn  Sn10  1  0.002566  0.260710  0.250000  1
  Sn  Sn11  1  0.997434  0.739290  0.750000  1
  Sn  Sn12  1  0.741856  0.739290  0.250000  1
  Sn  Sn13  1  0.258144  0.260710  0.750000  1
  Sn  Sn14  1  0.332204  0.664409  0.000000  1
  Sn  Sn15  1  0.667796  0.335591  0.000000  1
  Sn  Sn16  1  0.667796  0.335591  0.500000  1
  Sn  Sn17  1  0.332204  0.664409  0.500000  1
