# generated using pymatgen
data_Sr5Si2Sn
_symmetry_space_group_name_H-M   'P 1'
_cell_length_a   9.98861319
_cell_length_b   9.98861266
_cell_length_c   9.98861308
_cell_angle_alpha   131.27907628
_cell_angle_beta   131.27907537
_cell_angle_gamma   71.37005982
_symmetry_Int_Tables_number   1
_chemical_formula_structural   Sr5Si2Sn
_chemical_formula_sum   'Sr10 Si4 Sn2'
_cell_volume   550.87735579
_cell_formula_units_Z   2
loop_
 _symmetry_equiv_pos_site_id
 _symmetry_equiv_pos_as_xyz
  1  'x, y, z'
loop_
 _atom_site_type_symbol
 _atom_site_label
 _atom_site_symmetry_multiplicity
 _atom_site_fract_x
 _atom_site_fract_y
 _atom_site_fract_z
 _atom_site_occupancy
  Sr  Sr0  1  0.042452  0.185744  0.500000  1
  Sr  Sr1  1  0.542452  0.042452  0.856708  1
  Sr  Sr2  1  0.185744  0.685744  0.143292  1
  Sr  Sr3  1  0.457548  0.957548  0.143292  1
  Sr  Sr4  1  0.685744  0.542452  0.500000  1
  Sr  Sr5  1  0.957548  0.814256  0.500000  1
  Sr  Sr6  1  0.314256  0.457548  0.500000  1
  Sr  Sr7  1  0.814256  0.314256  0.856708  1
  Sr  Sr8  1  0.500000  0.500000  0.000000  1
  Sr  Sr9  1  0.000000  0.000000  0.000000  1
  Si  Si10  1  0.107108  0.607108  0.714216  1
  Si  Si11  1  0.607108  0.892892  0.500000  1
  Si  Si12  1  0.392892  0.107108  0.500000  1
  Si  Si13  1  0.892892  0.392892  0.285784  1
  Sn  Sn14  1  0.750000  0.750000  0.000000  1
  Sn  Sn15  1  0.250000  0.250000  0.000000  1
