# generated using pymatgen
data_Zr3Pa2FeBi3
_symmetry_space_group_name_H-M   'P 1'
_cell_length_a   9.12738403
_cell_length_b   9.12738271
_cell_length_c   6.08008100
_cell_angle_alpha   90.00000000
_cell_angle_beta   90.00000000
_cell_angle_gamma   121.61506873
_symmetry_Int_Tables_number   1
_chemical_formula_structural   Zr3Pa2FeBi3
_chemical_formula_sum   'Zr6 Pa4 Fe2 Bi6'
_cell_volume   431.35222445
_cell_formula_units_Z   2
loop_
 _symmetry_equiv_pos_site_id
 _symmetry_equiv_pos_as_xyz
  1  'x, y, z'
loop_
 _atom_site_type_symbol
 _atom_site_label
 _atom_site_symmetry_multiplicity
 _atom_site_fract_x
 _atom_site_fract_y
 _atom_site_fract_z
 _atom_site_occupancy
  Zr  Zr0  1  0.745050  0.010395  0.250000  1
  Zr  Zr1  1  0.010395  0.745050  0.250000  1
  Zr  Zr2  1  0.665277  0.336628  0.000654  1
  Zr  Zr3  1  0.336628  0.665277  0.000654  1
  Zr  Zr4  1  0.336628  0.665277  0.499346  1
  Zr  Zr5  1  0.665277  0.336628  0.499346  1
  Pa  Pa6  1  0.782644  0.782644  0.750000  1
  Pa  Pa7  1  0.234247  0.003681  0.750000  1
  Pa  Pa8  1  0.003681  0.234247  0.750000  1
  Pa  Pa9  1  0.218284  0.218284  0.250000  1
  Fe  Fe10  1  0.993387  0.993387  0.026574  1
  Fe  Fe11  1  0.993387  0.993387  0.473426  1
  Bi  Bi12  1  0.407941  0.407941  0.750000  1
  Bi  Bi13  1  0.598411  0.001764  0.750000  1
  Bi  Bi14  1  0.001764  0.598411  0.750000  1
  Bi  Bi15  1  0.614969  0.614969  0.250000  1
  Bi  Bi16  1  0.396572  0.995457  0.250000  1
  Bi  Bi17  1  0.995457  0.396572  0.250000  1
