# generated using pymatgen
data_BaCr2SnO6
_symmetry_space_group_name_H-M   'P 1'
_cell_length_a   7.08962264
_cell_length_b   7.08961700
_cell_length_c   7.08960454
_cell_angle_alpha   44.16792582
_cell_angle_beta   44.16803204
_cell_angle_gamma   44.16757424
_symmetry_Int_Tables_number   1
_chemical_formula_structural   BaCr2SnO6
_chemical_formula_sum   'Ba1 Cr2 Sn1 O6'
_cell_volume   157.18283869
_cell_formula_units_Z   1
loop_
 _symmetry_equiv_pos_site_id
 _symmetry_equiv_pos_as_xyz
  1  'x, y, z'
loop_
 _atom_site_type_symbol
 _atom_site_label
 _atom_site_symmetry_multiplicity
 _atom_site_fract_x
 _atom_site_fract_y
 _atom_site_fract_z
 _atom_site_occupancy
  Ba  Ba0  1  0.000000  0.000000  0.000000  1
  Cr  Cr1  1  0.171299  0.171304  0.171278  1
  Cr  Cr2  1  0.828701  0.828696  0.828722  1
  Sn  Sn3  1  0.500000  0.500000  0.500000  1
  O  O4  1  0.791507  0.436097  0.107273  1
  O  O5  1  0.563906  0.892727  0.208491  1
  O  O6  1  0.107271  0.791507  0.436096  1
  O  O7  1  0.892729  0.208493  0.563904  1
  O  O8  1  0.436094  0.107273  0.791509  1
  O  O9  1  0.208493  0.563903  0.892726  1
