# generated using pymatgen
data_DyY7Re(B8Ru)3
_symmetry_space_group_name_H-M   'P 1'
_cell_length_a   3.67385400
_cell_length_b   9.16099315
_cell_length_c   11.54826201
_cell_angle_alpha   90.13510986
_cell_angle_beta   90.00000000
_cell_angle_gamma   90.00000000
_symmetry_Int_Tables_number   1
_chemical_formula_structural   DyY7Re(B8Ru)3
_chemical_formula_sum   'Dy1 Y7 Re1 B24 Ru3'
_cell_volume   388.66897302
_cell_formula_units_Z   1
loop_
 _symmetry_equiv_pos_site_id
 _symmetry_equiv_pos_as_xyz
  1  'x, y, z'
loop_
 _atom_site_type_symbol
 _atom_site_label
 _atom_site_symmetry_multiplicity
 _atom_site_fract_x
 _atom_site_fract_y
 _atom_site_fract_z
 _atom_site_occupancy
  Dy  Dy0  1  0.000000  0.555885  0.872251  1
  Y  Y1  1  0.000000  0.323136  0.415069  1
  Y  Y2  1  0.000000  0.679586  0.588144  1
  Y  Y3  1  0.000000  0.823104  0.083571  1
  Y  Y4  1  0.000000  0.175796  0.913446  1
  Y  Y5  1  0.000000  0.943302  0.371118  1
  Y  Y6  1  0.000000  0.056157  0.627587  1
  Y  Y7  1  0.000000  0.442843  0.128568  1
  Re  Re8  1  0.000000  0.862120  0.821251  1
  B  B9  1  0.500000  0.554224  0.433036  1
  B  B10  1  0.500000  0.446086  0.567314  1
  B  B11  1  0.500000  0.053959  0.067607  1
  B  B12  1  0.500000  0.946904  0.933036  1
  B  B13  1  0.500000  0.748122  0.419320  1
  B  B14  1  0.500000  0.252294  0.580453  1
  B  B15  1  0.500000  0.247778  0.080856  1
  B  B16  1  0.500000  0.751610  0.919130  1
  B  B17  1  0.500000  0.790133  0.265923  1
  B  B18  1  0.500000  0.209339  0.733127  1
  B  B19  1  0.500000  0.290577  0.234110  1
  B  B20  1  0.500000  0.708489  0.766180  1
  B  B21  1  0.500000  0.631286  0.185520  1
  B  B22  1  0.500000  0.368167  0.814048  1
  B  B23  1  0.500000  0.132041  0.314566  1
  B  B24  1  0.500000  0.868494  0.685778  1
  B  B25  1  0.500000  0.984029  0.212337  1
  B  B26  1  0.500000  0.017268  0.787447  1
  B  B27  1  0.500000  0.483800  0.288084  1
  B  B28  1  0.500000  0.516203  0.712605  1
  B  B29  1  0.500000  0.606221  0.030165  1
  B  B30  1  0.500000  0.391886  0.970636  1
  B  B31  1  0.500000  0.108196  0.469564  1
  B  B32  1  0.500000  0.892649  0.528997  1
  Ru  Ru33  1  0.000000  0.637858  0.321303  1
  Ru  Ru34  1  0.000000  0.362307  0.678528  1
  Ru  Ru35  1  0.000000  0.138150  0.179326  1
