# generated using pymatgen
data_CaLa4Ga2Ge
_symmetry_space_group_name_H-M   'P 1'
_cell_length_a   7.99481000
_cell_length_b   9.06794365
_cell_length_c   7.99481000
_cell_angle_alpha   116.15674058
_cell_angle_beta   90.00000000
_cell_angle_gamma   116.15674058
_symmetry_Int_Tables_number   1
_chemical_formula_structural   CaLa4Ga2Ge
_chemical_formula_sum   'Ca2 La8 Ga4 Ge2'
_cell_volume   453.17591157
_cell_formula_units_Z   2
loop_
 _symmetry_equiv_pos_site_id
 _symmetry_equiv_pos_as_xyz
  1  'x, y, z'
loop_
 _atom_site_type_symbol
 _atom_site_label
 _atom_site_symmetry_multiplicity
 _atom_site_fract_x
 _atom_site_fract_y
 _atom_site_fract_z
 _atom_site_occupancy
  Ca  Ca0  1  0.000000  0.000000  0.000000  1
  Ca  Ca1  1  0.500000  0.000000  0.500000  1
  La  La2  1  0.523803  0.699952  0.676149  1
  La  La3  1  0.176149  0.699952  0.023803  1
  La  La4  1  0.676149  0.699952  0.176149  1
  La  La5  1  0.023803  0.699952  0.523803  1
  La  La6  1  0.476197  0.300048  0.323851  1
  La  La7  1  0.823851  0.300048  0.976197  1
  La  La8  1  0.323851  0.300048  0.823851  1
  La  La9  1  0.976197  0.300048  0.476197  1
  Ga  Ga10  1  0.882251  0.000000  0.617749  1
  Ga  Ga11  1  0.117749  0.000000  0.382251  1
  Ga  Ga12  1  0.617749  0.000000  0.117749  1
  Ga  Ga13  1  0.382251  0.000000  0.882251  1
  Ge  Ge14  1  0.750000  0.500000  0.750000  1
  Ge  Ge15  1  0.250000  0.500000  0.250000  1
