# generated using pymatgen
data_CaZr3(TlS4)2
_symmetry_space_group_name_H-M   'P 1'
_cell_length_a   6.50816800
_cell_length_b   7.56136300
_cell_length_c   16.05750400
_cell_angle_alpha   90.00000000
_cell_angle_beta   90.00000000
_cell_angle_gamma   90.00000000
_symmetry_Int_Tables_number   1
_chemical_formula_structural   CaZr3(TlS4)2
_chemical_formula_sum   'Ca2 Zr6 Tl4 S16'
_cell_volume   790.19973894
_cell_formula_units_Z   2
loop_
 _symmetry_equiv_pos_site_id
 _symmetry_equiv_pos_as_xyz
  1  'x, y, z'
loop_
 _atom_site_type_symbol
 _atom_site_label
 _atom_site_symmetry_multiplicity
 _atom_site_fract_x
 _atom_site_fract_y
 _atom_site_fract_z
 _atom_site_occupancy
  Ca  Ca0  1  0.002121  0.000000  0.247004  1
  Ca  Ca1  1  0.002121  0.000000  0.752996  1
  Zr  Zr2  1  0.997934  0.500000  0.253557  1
  Zr  Zr3  1  0.997934  0.500000  0.746443  1
  Zr  Zr4  1  0.498182  0.246214  0.250178  1
  Zr  Zr5  1  0.498182  0.753786  0.749822  1
  Zr  Zr6  1  0.498182  0.753786  0.250178  1
  Zr  Zr7  1  0.498182  0.246214  0.749822  1
  Tl  Tl8  1  0.332104  0.000000  0.000000  1
  Tl  Tl9  1  0.645006  0.500000  0.500000  1
  Tl  Tl10  1  0.022351  0.000000  0.500000  1
  Tl  Tl11  1  0.978102  0.500000  0.000000  1
  S  S12  1  0.825593  0.264034  0.343726  1
  S  S13  1  0.825593  0.735966  0.656274  1
  S  S14  1  0.179824  0.730449  0.156850  1
  S  S15  1  0.179824  0.269551  0.843150  1
  S  S16  1  0.179824  0.269551  0.156850  1
  S  S17  1  0.179824  0.730449  0.843150  1
  S  S18  1  0.825593  0.735966  0.343726  1
  S  S19  1  0.825593  0.264034  0.656274  1
  S  S20  1  0.638690  0.000000  0.156293  1
  S  S21  1  0.638690  0.000000  0.843707  1
  S  S22  1  0.331604  0.500000  0.341146  1
  S  S23  1  0.331604  0.500000  0.658854  1
  S  S24  1  0.361791  0.000000  0.344339  1
  S  S25  1  0.361791  0.000000  0.655661  1
  S  S26  1  0.671879  0.500000  0.161863  1
  S  S27  1  0.671879  0.500000  0.838137  1
