# generated using pymatgen
data_Ho12InNi4Ag
_symmetry_space_group_name_H-M   'P 1'
_cell_length_a   8.34607112
_cell_length_b   8.34607027
_cell_length_c   8.34607056
_cell_angle_alpha   112.57276374
_cell_angle_beta   109.44828239
_cell_angle_gamma   106.45056319
_symmetry_Int_Tables_number   1
_chemical_formula_structural   Ho12InNi4Ag
_chemical_formula_sum   'Ho12 In1 Ni4 Ag1'
_cell_volume   446.25394973
_cell_formula_units_Z   1
loop_
 _symmetry_equiv_pos_site_id
 _symmetry_equiv_pos_as_xyz
  1  'x, y, z'
loop_
 _atom_site_type_symbol
 _atom_site_label
 _atom_site_symmetry_multiplicity
 _atom_site_fract_x
 _atom_site_fract_y
 _atom_site_fract_z
 _atom_site_occupancy
  Ho  Ho0  1  0.422282  0.224008  0.198273  1
  Ho  Ho1  1  0.577718  0.775992  0.801727  1
  Ho  Ho2  1  0.025736  0.224008  0.801727  1
  Ho  Ho3  1  0.974264  0.775992  0.198273  1
  Ho  Ho4  1  0.182194  0.295135  0.477328  1
  Ho  Ho5  1  0.817806  0.704865  0.522672  1
  Ho  Ho6  1  0.182194  0.704865  0.887059  1
  Ho  Ho7  1  0.817806  0.295135  0.112941  1
  Ho  Ho8  1  0.323135  0.629725  0.306591  1
  Ho  Ho9  1  0.676865  0.370275  0.693409  1
  Ho  Ho10  1  0.323135  0.016545  0.693409  1
  Ho  Ho11  1  0.676865  0.983455  0.306591  1
  In  In12  1  0.500000  0.500000  0.000000  1
  Ni  Ni13  1  0.359713  0.000000  0.359713  1
  Ni  Ni14  1  0.640287  0.000000  0.640287  1
  Ni  Ni15  1  0.125111  0.625111  0.500000  1
  Ni  Ni16  1  0.874889  0.374889  0.500000  1
  Ag  Ag17  1  0.000000  0.000000  0.000000  1
