# generated using pymatgen
data_Tm5LuCo2(P3Rh4)4
_symmetry_space_group_name_H-M   'P 1'
_cell_length_a   3.84115400
_cell_length_b   11.10712400
_cell_length_c   12.73294100
_cell_angle_alpha   89.99951456
_cell_angle_beta   90.00000000
_cell_angle_gamma   90.00000000
_symmetry_Int_Tables_number   1
_chemical_formula_structural   Tm5LuCo2(P3Rh4)4
_chemical_formula_sum   'Tm5 Lu1 Co2 P12 Rh16'
_cell_volume   543.24040756
_cell_formula_units_Z   1
loop_
 _symmetry_equiv_pos_site_id
 _symmetry_equiv_pos_as_xyz
  1  'x, y, z'
loop_
 _atom_site_type_symbol
 _atom_site_label
 _atom_site_symmetry_multiplicity
 _atom_site_fract_x
 _atom_site_fract_y
 _atom_site_fract_z
 _atom_site_occupancy
  Tm  Tm0  1  0.000000  0.499990  0.522084  1
  Tm  Tm1  1  0.500000  0.000015  0.477915  1
  Tm  Tm2  1  0.500000  0.185002  0.202012  1
  Tm  Tm3  1  0.000000  0.684999  0.797992  1
  Tm  Tm4  1  0.000000  0.314999  0.798014  1
  Lu  Lu5  1  0.500000  0.814967  0.202020  1
  Co  Co6  1  0.000000  0.500026  0.978489  1
  Co  Co7  1  0.500000  0.999906  0.021604  1
  P  P8  1  0.500000  0.500006  0.880296  1
  P  P9  1  0.000000  0.999881  0.119801  1
  P  P10  1  0.500000  0.499971  0.352642  1
  P  P11  1  0.000000  0.000006  0.647355  1
  P  P12  1  0.500000  0.316328  0.619791  1
  P  P13  1  0.500000  0.683684  0.619785  1
  P  P14  1  0.000000  0.183645  0.380197  1
  P  P15  1  0.000000  0.816327  0.380037  1
  P  P16  1  0.500000  0.852888  0.895326  1
  P  P17  1  0.500000  0.147122  0.895357  1
  P  P18  1  0.000000  0.647278  0.104754  1
  P  P19  1  0.000000  0.352881  0.104637  1
  Rh  Rh20  1  0.500000  0.499987  0.167852  1
  Rh  Rh21  1  0.000000  0.999988  0.832116  1
  Rh  Rh22  1  0.500000  0.500016  0.702336  1
  Rh  Rh23  1  0.000000  0.999739  0.297498  1
  Rh  Rh24  1  0.500000  0.336628  0.992983  1
  Rh  Rh25  1  0.500000  0.663435  0.993071  1
  Rh  Rh26  1  0.000000  0.163380  0.007033  1
  Rh  Rh27  1  0.000000  0.836566  0.007220  1
  Rh  Rh28  1  0.500000  0.295079  0.430981  1
  Rh  Rh29  1  0.500000  0.704957  0.430890  1
  Rh  Rh30  1  0.000000  0.204908  0.569051  1
  Rh  Rh31  1  0.000000  0.795067  0.569039  1
  Rh  Rh32  1  0.500000  0.872216  0.712201  1
  Rh  Rh33  1  0.500000  0.127782  0.712196  1
  Rh  Rh34  1  0.000000  0.628101  0.287631  1
  Rh  Rh35  1  0.000000  0.372230  0.287792  1
