# generated using pymatgen
data_VSb4
_symmetry_space_group_name_H-M   'P 1'
_cell_length_a   6.56869718
_cell_length_b   6.56869665
_cell_length_c   6.58661900
_cell_angle_alpha   90.00000000
_cell_angle_beta   90.00000000
_cell_angle_gamma   120.74853236
_symmetry_Int_Tables_number   1
_chemical_formula_structural   VSb4
_chemical_formula_sum   'V2 Sb8'
_cell_volume   244.24529007
_cell_formula_units_Z   2
loop_
 _symmetry_equiv_pos_site_id
 _symmetry_equiv_pos_as_xyz
  1  'x, y, z'
loop_
 _atom_site_type_symbol
 _atom_site_label
 _atom_site_symmetry_multiplicity
 _atom_site_fract_x
 _atom_site_fract_y
 _atom_site_fract_z
 _atom_site_occupancy
  V  V0  1  0.500000  0.500000  0.000000  1
  V  V1  1  0.000000  0.000000  0.500000  1
  Sb  Sb2  1  0.208795  0.457553  0.344048  1
  Sb  Sb3  1  0.542447  0.791205  0.655952  1
  Sb  Sb4  1  0.457553  0.208795  0.655952  1
  Sb  Sb5  1  0.791205  0.542447  0.344048  1
  Sb  Sb6  1  0.957553  0.708795  0.844048  1
  Sb  Sb7  1  0.291205  0.042447  0.155952  1
  Sb  Sb8  1  0.708795  0.957553  0.155952  1
  Sb  Sb9  1  0.042447  0.291205  0.844048  1
