# generated using pymatgen
data_K2Pb4O7
_symmetry_space_group_name_H-M   'P 1'
_cell_length_a   10.51065730
_cell_length_b   7.26626899
_cell_length_c   6.75301919
_cell_angle_alpha   90.00586064
_cell_angle_beta   99.21271585
_cell_angle_gamma   102.00480951
_symmetry_Int_Tables_number   1
_chemical_formula_structural   K2Pb4O7
_chemical_formula_sum   'K4 Pb8 O14'
_cell_volume   497.66536375
_cell_formula_units_Z   2
loop_
 _symmetry_equiv_pos_site_id
 _symmetry_equiv_pos_as_xyz
  1  'x, y, z'
loop_
 _atom_site_type_symbol
 _atom_site_label
 _atom_site_symmetry_multiplicity
 _atom_site_fract_x
 _atom_site_fract_y
 _atom_site_fract_z
 _atom_site_occupancy
  K  K0  1  0.316947  0.828018  0.087644  1
  K  K1  1  0.682271  0.172783  0.429236  1
  K  K2  1  0.317729  0.827217  0.570763  1
  K  K3  1  0.683053  0.171982  0.912357  1
  Pb  Pb4  1  0.374875  0.345559  0.094908  1
  Pb  Pb5  1  0.940560  0.850133  0.234670  1
  Pb  Pb6  1  0.030815  0.395072  0.257091  1
  Pb  Pb7  1  0.626374  0.653781  0.408042  1
  Pb  Pb8  1  0.373626  0.346220  0.591958  1
  Pb  Pb9  1  0.969186  0.604929  0.742907  1
  Pb  Pb10  1  0.059440  0.149867  0.765329  1
  Pb  Pb11  1  0.625125  0.654441  0.905093  1
  O  O12  1  0.164271  0.339880  0.037015  1
  O  O13  1  0.596893  0.431691  0.147661  1
  O  O14  1  0.638653  0.853225  0.160365  1
  O  O15  1  0.103364  0.700835  0.272769  1
  O  O16  1  0.378434  0.151463  0.345173  1
  O  O17  1  0.403732  0.567593  0.349564  1
  O  O18  1  0.836252  0.657716  0.454304  1
  O  O19  1  0.163749  0.342284  0.545696  1
  O  O20  1  0.596268  0.432407  0.650436  1
  O  O21  1  0.621565  0.848536  0.654828  1
  O  O22  1  0.896636  0.299166  0.727231  1
  O  O23  1  0.361347  0.146774  0.839635  1
  O  O24  1  0.403107  0.568309  0.852339  1
  O  O25  1  0.835729  0.660118  0.962985  1
