# generated using pymatgen
data_Yb2Mn14(SiC)3
_symmetry_space_group_name_H-M   'P 1'
_cell_length_a   6.46645315
_cell_length_b   6.46645248
_cell_length_c   6.46645240
_cell_angle_alpha   82.92283756
_cell_angle_beta   82.92283609
_cell_angle_gamma   82.92281990
_symmetry_Int_Tables_number   1
_chemical_formula_structural   Yb2Mn14(SiC)3
_chemical_formula_sum   'Yb2 Mn14 Si3 C3'
_cell_volume   264.68338756
_cell_formula_units_Z   1
loop_
 _symmetry_equiv_pos_site_id
 _symmetry_equiv_pos_as_xyz
  1  'x, y, z'
loop_
 _atom_site_type_symbol
 _atom_site_label
 _atom_site_symmetry_multiplicity
 _atom_site_fract_x
 _atom_site_fract_y
 _atom_site_fract_z
 _atom_site_occupancy
  Yb  Yb0  1  0.650566  0.650566  0.650566  1
  Yb  Yb1  1  0.349434  0.349434  0.349434  1
  Mn  Mn2  1  0.719217  0.280783  0.000000  1
  Mn  Mn3  1  0.000000  0.719217  0.280783  1
  Mn  Mn4  1  0.280783  0.000000  0.719217  1
  Mn  Mn5  1  0.000000  0.280783  0.719217  1
  Mn  Mn6  1  0.719217  0.000000  0.280783  1
  Mn  Mn7  1  0.280783  0.719217  0.000000  1
  Mn  Mn8  1  0.340338  0.340338  0.866589  1
  Mn  Mn9  1  0.866589  0.340338  0.340338  1
  Mn  Mn10  1  0.340338  0.866589  0.340338  1
  Mn  Mn11  1  0.659662  0.659662  0.133411  1
  Mn  Mn12  1  0.133411  0.659662  0.659662  1
  Mn  Mn13  1  0.659662  0.133411  0.659662  1
  Mn  Mn14  1  0.906436  0.906436  0.906436  1
  Mn  Mn15  1  0.093564  0.093564  0.093564  1
  Si  Si16  1  0.000000  0.000000  0.500000  1
  Si  Si17  1  0.500000  0.000000  0.000000  1
  Si  Si18  1  0.000000  0.500000  0.000000  1
  C  C19  1  0.500000  0.500000  0.000000  1
  C  C20  1  0.000000  0.500000  0.500000  1
  C  C21  1  0.500000  0.000000  0.500000  1
