# generated using pymatgen
data_Y5MgNi16(MoAs6)2
_symmetry_space_group_name_H-M   'P 1'
_cell_length_a   12.67367524
_cell_length_b   12.67367541
_cell_length_c   3.89067400
_cell_angle_alpha   90.00000000
_cell_angle_beta   90.00000000
_cell_angle_gamma   120.02239318
_symmetry_Int_Tables_number   1
_chemical_formula_structural   Y5MgNi16(MoAs6)2
_chemical_formula_sum   'Y5 Mg1 Ni16 Mo2 As12'
_cell_volume   541.08137715
_cell_formula_units_Z   1
loop_
 _symmetry_equiv_pos_site_id
 _symmetry_equiv_pos_as_xyz
  1  'x, y, z'
loop_
 _atom_site_type_symbol
 _atom_site_label
 _atom_site_symmetry_multiplicity
 _atom_site_fract_x
 _atom_site_fract_y
 _atom_site_fract_z
 _atom_site_occupancy
  Y  Y0  1  0.184670  0.184670  0.500000  1
  Y  Y1  1  0.812728  0.997920  0.500000  1
  Y  Y2  1  0.997920  0.812728  0.500000  1
  Y  Y3  1  0.331821  0.666525  0.000000  1
  Y  Y4  1  0.666525  0.331821  0.000000  1
  Mg  Mg5  1  0.565768  0.565768  0.000000  1
  Ni  Ni6  1  0.716759  0.716759  0.500000  1
  Ni  Ni7  1  0.281102  0.000014  0.500000  1
  Ni  Ni8  1  0.000014  0.281102  0.500000  1
  Ni  Ni9  1  0.180029  0.375343  0.000000  1
  Ni  Ni10  1  0.620021  0.807913  0.000000  1
  Ni  Ni11  1  0.196497  0.818339  0.000000  1
  Ni  Ni12  1  0.807913  0.620021  0.000000  1
  Ni  Ni13  1  0.818339  0.196497  0.000000  1
  Ni  Ni14  1  0.375343  0.180029  0.000000  1
  Ni  Ni15  1  0.358468  0.480914  0.500000  1
  Ni  Ni16  1  0.517655  0.880428  0.500000  1
  Ni  Ni17  1  0.123813  0.640340  0.500000  1
  Ni  Ni18  1  0.880428  0.517655  0.500000  1
  Ni  Ni19  1  0.640340  0.123813  0.500000  1
  Ni  Ni20  1  0.480914  0.358468  0.500000  1
  Ni  Ni21  1  0.999504  0.999504  0.000000  1
  Mo  Mo22  1  0.439672  0.001156  0.000000  1
  Mo  Mo23  1  0.001156  0.439672  0.000000  1
  As  As24  1  0.821274  0.821274  0.000000  1
  As  As25  1  0.177455  0.998566  0.000000  1
  As  As26  1  0.998566  0.177455  0.000000  1
  As  As27  1  0.166361  0.479674  0.500000  1
  As  As28  1  0.518686  0.691941  0.500000  1
  As  As29  1  0.313870  0.833423  0.500000  1
  As  As30  1  0.691941  0.518686  0.500000  1
  As  As31  1  0.833423  0.313870  0.500000  1
  As  As32  1  0.479674  0.166361  0.500000  1
  As  As33  1  0.359812  0.359812  0.000000  1
  As  As34  1  0.637902  0.003638  0.000000  1
  As  As35  1  0.003638  0.637902  0.000000  1
