# generated using pymatgen
data_Sc4FeB4Ru10W
_symmetry_space_group_name_H-M   'P 1'
_cell_length_a   9.39358200
_cell_length_b   9.39358200
_cell_length_c   3.04388900
_cell_angle_alpha   90.00000000
_cell_angle_beta   90.00000000
_cell_angle_gamma   90.00000000
_symmetry_Int_Tables_number   1
_chemical_formula_structural   Sc4FeB4Ru10W
_chemical_formula_sum   'Sc4 Fe1 B4 Ru10 W1'
_cell_volume   268.59088664
_cell_formula_units_Z   1
loop_
 _symmetry_equiv_pos_site_id
 _symmetry_equiv_pos_as_xyz
  1  'x, y, z'
loop_
 _atom_site_type_symbol
 _atom_site_label
 _atom_site_symmetry_multiplicity
 _atom_site_fract_x
 _atom_site_fract_y
 _atom_site_fract_z
 _atom_site_occupancy
  Sc  Sc0  1  0.673869  0.175007  0.000000  1
  Sc  Sc1  1  0.326131  0.824993  0.000000  1
  Sc  Sc2  1  0.175007  0.326131  0.000000  1
  Sc  Sc3  1  0.824993  0.673869  0.000000  1
  Fe  Fe4  1  0.500000  0.500000  0.000000  1
  B  B5  1  0.127696  0.617470  0.000000  1
  B  B6  1  0.872304  0.382530  0.000000  1
  B  B7  1  0.617470  0.872304  0.000000  1
  B  B8  1  0.382530  0.127696  0.000000  1
  Ru  Ru9  1  0.216629  0.073148  0.500000  1
  Ru  Ru10  1  0.783371  0.926852  0.500000  1
  Ru  Ru11  1  0.073148  0.783371  0.500000  1
  Ru  Ru12  1  0.711475  0.431659  0.500000  1
  Ru  Ru13  1  0.926852  0.216629  0.500000  1
  Ru  Ru14  1  0.288525  0.568341  0.500000  1
  Ru  Ru15  1  0.568341  0.711475  0.500000  1
  Ru  Ru16  1  0.431659  0.288525  0.500000  1
  Ru  Ru17  1  0.500000  0.000000  0.500000  1
  Ru  Ru18  1  0.000000  0.500000  0.500000  1
  W  W19  1  0.000000  0.000000  0.000000  1
