# generated using pymatgen
data_Dy8SnPd24
_symmetry_space_group_name_H-M   'P 1'
_cell_length_a   8.40024300
_cell_length_b   8.40024300
_cell_length_c   8.40024300
_cell_angle_alpha   90.00000000
_cell_angle_beta   90.00000000
_cell_angle_gamma   90.00000000
_symmetry_Int_Tables_number   1
_chemical_formula_structural   Dy8SnPd24
_chemical_formula_sum   'Dy8 Sn1 Pd24'
_cell_volume   592.75543973
_cell_formula_units_Z   1
loop_
 _symmetry_equiv_pos_site_id
 _symmetry_equiv_pos_as_xyz
  1  'x, y, z'
loop_
 _atom_site_type_symbol
 _atom_site_label
 _atom_site_symmetry_multiplicity
 _atom_site_fract_x
 _atom_site_fract_y
 _atom_site_fract_z
 _atom_site_occupancy
  Dy  Dy0  1  0.252795  0.252795  0.252795  1
  Dy  Dy1  1  0.747205  0.747205  0.747205  1
  Dy  Dy2  1  0.747205  0.747205  0.252795  1
  Dy  Dy3  1  0.747205  0.252795  0.747205  1
  Dy  Dy4  1  0.252795  0.252795  0.747205  1
  Dy  Dy5  1  0.252795  0.747205  0.252795  1
  Dy  Dy6  1  0.252795  0.747205  0.747205  1
  Dy  Dy7  1  0.747205  0.252795  0.252795  1
  Sn  Sn8  1  0.000000  0.000000  0.000000  1
  Pd  Pd9  1  0.265037  0.500000  0.000000  1
  Pd  Pd10  1  0.734963  0.500000  0.000000  1
  Pd  Pd11  1  0.000000  0.265037  0.500000  1
  Pd  Pd12  1  0.500000  0.265037  0.000000  1
  Pd  Pd13  1  0.000000  0.734963  0.500000  1
  Pd  Pd14  1  0.500000  0.734963  0.000000  1
  Pd  Pd15  1  0.500000  0.000000  0.265037  1
  Pd  Pd16  1  0.265037  0.000000  0.500000  1
  Pd  Pd17  1  0.500000  0.000000  0.734963  1
  Pd  Pd18  1  0.734963  0.000000  0.500000  1
  Pd  Pd19  1  0.000000  0.500000  0.265037  1
  Pd  Pd20  1  0.000000  0.500000  0.734963  1
  Pd  Pd21  1  0.255000  0.500000  0.500000  1
  Pd  Pd22  1  0.745000  0.500000  0.500000  1
  Pd  Pd23  1  0.500000  0.255000  0.500000  1
  Pd  Pd24  1  0.500000  0.745000  0.500000  1
  Pd  Pd25  1  0.500000  0.500000  0.255000  1
  Pd  Pd26  1  0.500000  0.500000  0.745000  1
  Pd  Pd27  1  0.308278  0.000000  0.000000  1
  Pd  Pd28  1  0.691722  0.000000  0.000000  1
  Pd  Pd29  1  0.000000  0.308278  0.000000  1
  Pd  Pd30  1  0.000000  0.691722  0.000000  1
  Pd  Pd31  1  0.000000  0.000000  0.308278  1
  Pd  Pd32  1  0.000000  0.000000  0.691722  1
