# generated using pymatgen
data_TbDy3(Si5Pt3)2
_symmetry_space_group_name_H-M   'P 1'
_cell_length_a   8.15443234
_cell_length_b   8.14373507
_cell_length_c   8.14373500
_cell_angle_alpha   136.30714008
_cell_angle_beta   104.45310114
_cell_angle_gamma   91.54693715
_symmetry_Int_Tables_number   1
_chemical_formula_structural   TbDy3(Si5Pt3)2
_chemical_formula_sum   'Tb1 Dy3 Si10 Pt6'
_cell_volume   343.92319241
_cell_formula_units_Z   1
loop_
 _symmetry_equiv_pos_site_id
 _symmetry_equiv_pos_as_xyz
  1  'x, y, z'
loop_
 _atom_site_type_symbol
 _atom_site_label
 _atom_site_symmetry_multiplicity
 _atom_site_fract_x
 _atom_site_fract_y
 _atom_site_fract_z
 _atom_site_occupancy
  Tb  Tb0  1  0.900843  0.129663  0.771179  1
  Dy  Dy1  1  0.641431  0.370397  0.271034  1
  Dy  Dy2  1  0.358532  0.629559  0.728973  1
  Dy  Dy3  1  0.099361  0.870428  0.228934  1
  Si  Si4  1  0.271786  0.522078  0.250005  1
  Si  Si5  1  0.728001  0.478313  0.750209  1
  Si  Si6  1  0.728001  0.977794  0.249690  1
  Si  Si7  1  0.271786  0.021782  0.749708  1
  Si  Si8  1  0.460594  0.112111  0.348482  1
  Si  Si9  1  0.539579  0.888191  0.651389  1
  Si  Si10  1  0.763360  0.612041  0.151320  1
  Si  Si11  1  0.236541  0.387792  0.848749  1
  Si  Si12  1  0.000087  0.250254  0.250447  1
  Si  Si13  1  0.000087  0.749641  0.749832  1
  Pt  Pt14  1  0.250176  0.137424  0.112750  1
  Pt  Pt15  1  0.749941  0.862625  0.887316  1
  Pt  Pt16  1  0.024686  0.637506  0.387180  1
  Pt  Pt17  1  0.975151  0.362403  0.612747  1
  Pt  Pt18  1  0.500028  0.250073  0.750102  1
  Pt  Pt19  1  0.500028  0.749928  0.249956  1
