# generated using pymatgen
data_CeSm3YTh3(Si3Rh)4
_symmetry_space_group_name_H-M   'P 1'
_cell_length_a   8.22201605
_cell_length_b   8.17531013
_cell_length_c   8.25814100
_cell_angle_alpha   90.00000000
_cell_angle_beta   90.00000000
_cell_angle_gamma   119.38579312
_symmetry_Int_Tables_number   1
_chemical_formula_structural   CeSm3YTh3(Si3Rh)4
_chemical_formula_sum   'Ce1 Sm3 Y1 Th3 Si12 Rh4'
_cell_volume   483.67123805
_cell_formula_units_Z   1
loop_
 _symmetry_equiv_pos_site_id
 _symmetry_equiv_pos_as_xyz
  1  'x, y, z'
loop_
 _atom_site_type_symbol
 _atom_site_label
 _atom_site_symmetry_multiplicity
 _atom_site_fract_x
 _atom_site_fract_y
 _atom_site_fract_z
 _atom_site_occupancy
  Ce  Ce0  1  0.000368  0.000065  0.750000  1
  Sm  Sm1  1  0.000010  0.000046  0.250000  1
  Sm  Sm2  1  0.000171  0.500143  0.250000  1
  Sm  Sm3  1  0.499848  0.999821  0.250000  1
  Y  Y4  1  0.999815  0.499926  0.750000  1
  Th  Th5  1  0.500470  0.500095  0.250000  1
  Th  Th6  1  0.499652  0.999555  0.750000  1
  Th  Th7  1  0.499790  0.500146  0.750000  1
  Si  Si8  1  0.162275  0.331916  0.997337  1
  Si  Si9  1  0.673645  0.838424  0.000043  1
  Si  Si10  1  0.162275  0.331916  0.502663  1
  Si  Si11  1  0.326332  0.161619  0.000218  1
  Si  Si12  1  0.166509  0.829597  0.998506  1
  Si  Si13  1  0.673645  0.838424  0.499957  1
  Si  Si14  1  0.837693  0.668084  0.997411  1
  Si  Si15  1  0.326332  0.161619  0.499782  1
  Si  Si16  1  0.166509  0.829597  0.501494  1
  Si  Si17  1  0.837693  0.668084  0.502589  1
  Si  Si18  1  0.833480  0.170439  0.998628  1
  Si  Si19  1  0.833480  0.170439  0.501372  1
  Rh  Rh20  1  0.340016  0.665779  0.000000  1
  Rh  Rh21  1  0.340016  0.665779  0.500000  1
  Rh  Rh22  1  0.659988  0.334247  0.000517  1
  Rh  Rh23  1  0.659988  0.334247  0.499483  1
