# generated using pymatgen
data_Tb3DySb2(RhO7)2
_symmetry_space_group_name_H-M   'P 1'
_cell_length_a   7.32413241
_cell_length_b   7.28927042
_cell_length_c   7.32413232
_cell_angle_alpha   60.11930582
_cell_angle_beta   60.71379079
_cell_angle_gamma   60.11930429
_symmetry_Int_Tables_number   1
_chemical_formula_structural   Tb3DySb2(RhO7)2
_chemical_formula_sum   'Tb3 Dy1 Sb2 Rh2 O14'
_cell_volume   278.45749923
_cell_formula_units_Z   1
loop_
 _symmetry_equiv_pos_site_id
 _symmetry_equiv_pos_as_xyz
  1  'x, y, z'
loop_
 _atom_site_type_symbol
 _atom_site_label
 _atom_site_symmetry_multiplicity
 _atom_site_fract_x
 _atom_site_fract_y
 _atom_site_fract_z
 _atom_site_occupancy
  Tb  Tb0  1  0.125000  0.125000  0.625000  1
  Tb  Tb1  1  0.625000  0.125000  0.125000  1
  Tb  Tb2  1  0.125000  0.125000  0.125000  1
  Dy  Dy3  1  0.125000  0.625000  0.125000  1
  Sb  Sb4  1  0.125000  0.625000  0.625000  1
  Sb  Sb5  1  0.625000  0.625000  0.125000  1
  Rh  Rh6  1  0.625000  0.625000  0.625000  1
  Rh  Rh7  1  0.625000  0.125000  0.625000  1
  O  O8  1  0.283866  0.706096  0.718237  1
  O  O9  1  0.532452  0.957983  0.965915  1
  O  O10  1  0.723758  0.276231  0.723758  1
  O  O11  1  0.284085  0.292017  0.717548  1
  O  O12  1  0.718237  0.706096  0.283866  1
  O  O13  1  0.003828  0.994803  0.003828  1
  O  O14  1  0.295538  0.704154  0.295538  1
  O  O15  1  0.954462  0.545846  0.954462  1
  O  O16  1  0.965915  0.957983  0.532452  1
  O  O17  1  0.531763  0.543904  0.966134  1
  O  O18  1  0.246172  0.255197  0.246172  1
  O  O19  1  0.526242  0.973769  0.526242  1
  O  O20  1  0.717548  0.292017  0.284085  1
  O  O21  1  0.966134  0.543904  0.531763  1
