# generated using pymatgen
data_Hf5Sc3Ti11Si16Mo
_symmetry_space_group_name_H-M   'P 1'
_cell_length_a   6.62779158
_cell_length_b   6.77372838
_cell_length_c   12.94312334
_cell_angle_alpha   90.04337218
_cell_angle_beta   89.79640694
_cell_angle_gamma   89.94696098
_symmetry_Int_Tables_number   1
_chemical_formula_structural   Hf5Sc3Ti11Si16Mo
_chemical_formula_sum   'Hf5 Sc3 Ti11 Si16 Mo1'
_cell_volume   581.07562373
_cell_formula_units_Z   1
loop_
 _symmetry_equiv_pos_site_id
 _symmetry_equiv_pos_as_xyz
  1  'x, y, z'
loop_
 _atom_site_type_symbol
 _atom_site_label
 _atom_site_symmetry_multiplicity
 _atom_site_fract_x
 _atom_site_fract_y
 _atom_site_fract_z
 _atom_site_occupancy
  Hf  Hf0  1  0.001727  0.827333  0.595636  1
  Hf  Hf1  1  0.502320  0.325134  0.096799  1
  Hf  Hf2  1  0.999123  0.173914  0.405067  1
  Hf  Hf3  1  0.499451  0.325546  0.405038  1
  Hf  Hf4  1  0.501898  0.675042  0.595641  1
  Sc  Sc5  1  0.000185  0.173822  0.095324  1
  Sc  Sc6  1  0.999239  0.827019  0.903463  1
  Sc  Sc7  1  0.500087  0.674237  0.903963  1
  Ti  Ti8  1  0.164175  0.493013  0.748084  1
  Ti  Ti9  1  0.835094  0.505369  0.251151  1
  Ti  Ti10  1  0.336569  0.995359  0.251512  1
  Ti  Ti11  1  0.338215  0.171913  0.625182  1
  Ti  Ti12  1  0.660897  0.826324  0.374331  1
  Ti  Ti13  1  0.161380  0.673691  0.374324  1
  Ti  Ti14  1  0.662181  0.826818  0.126928  1
  Ti  Ti15  1  0.837064  0.325663  0.625011  1
  Ti  Ti16  1  0.337395  0.174106  0.873371  1
  Ti  Ti17  1  0.834553  0.326122  0.873185  1
  Ti  Ti18  1  0.163104  0.673569  0.127103  1
  Si  Si19  1  0.038612  0.117537  0.749690  1
  Si  Si20  1  0.960773  0.881912  0.250023  1
  Si  Si21  1  0.460392  0.618069  0.250473  1
  Si  Si22  1  0.537961  0.383364  0.749287  1
  Si  Si23  1  0.296630  0.862914  0.750145  1
  Si  Si24  1  0.703541  0.135535  0.250403  1
  Si  Si25  1  0.203271  0.364126  0.250305  1
  Si  Si26  1  0.797933  0.635595  0.749960  1
  Si  Si27  1  0.169742  0.464324  0.539062  1
  Si  Si28  1  0.830870  0.537075  0.460757  1
  Si  Si29  1  0.329949  0.963235  0.460960  1
  Si  Si30  1  0.833673  0.535819  0.040560  1
  Si  Si31  1  0.670015  0.036559  0.538648  1
  Si  Si32  1  0.169131  0.463606  0.960765  1
  Si  Si33  1  0.666274  0.035740  0.959365  1
  Si  Si34  1  0.332932  0.964252  0.040627  1
  Mo  Mo35  1  0.663640  0.006345  0.747856  1
