# generated using pymatgen
data_TbDy2Y(FeC4)2
_symmetry_space_group_name_H-M   'P 1'
_cell_length_a   5.04161892
_cell_length_b   6.60441936
_cell_length_c   6.61282056
_cell_angle_alpha   68.88099744
_cell_angle_beta   67.59193592
_cell_angle_gamma   67.56188847
_symmetry_Int_Tables_number   1
_chemical_formula_structural   TbDy2Y(FeC4)2
_chemical_formula_sum   'Tb1 Dy2 Y1 Fe2 C8'
_cell_volume   182.10798754
_cell_formula_units_Z   1
loop_
 _symmetry_equiv_pos_site_id
 _symmetry_equiv_pos_as_xyz
  1  'x, y, z'
loop_
 _atom_site_type_symbol
 _atom_site_label
 _atom_site_symmetry_multiplicity
 _atom_site_fract_x
 _atom_site_fract_y
 _atom_site_fract_z
 _atom_site_occupancy
  Tb  Tb0  1  0.855168  0.487163  0.802500  1
  Dy  Dy1  1  0.643920  0.198693  0.513469  1
  Dy  Dy2  1  0.355964  0.801760  0.486310  1
  Y  Y3  1  0.144049  0.512813  0.199090  1
  Fe  Fe4  1  0.250298  0.999742  0.999733  1
  Fe  Fe5  1  0.750228  0.999742  0.999733  1
  C  C6  1  0.871098  0.793145  0.464660  1
  C  C7  1  0.129226  0.206753  0.534793  1
  C  C8  1  0.371933  0.465313  0.790822  1
  C  C9  1  0.627986  0.534755  0.209272  1
  C  C10  1  0.921800  0.914144  0.242257  1
  C  C11  1  0.078547  0.085796  0.757111  1
  C  C12  1  0.422212  0.242828  0.912750  1
  C  C13  1  0.577571  0.757354  0.087501  1
