# generated using pymatgen
data_Ba6Sr2CaAu6
_symmetry_space_group_name_H-M   'P 1'
_cell_length_a   8.66361849
_cell_length_b   8.66361922
_cell_length_c   8.66361900
_cell_angle_alpha   70.26795768
_cell_angle_beta   70.26795594
_cell_angle_gamma   70.26796569
_symmetry_Int_Tables_number   1
_chemical_formula_structural   Ba6Sr2CaAu6
_chemical_formula_sum   'Ba6 Sr2 Ca1 Au6'
_cell_volume   557.49770146
_cell_formula_units_Z   1
loop_
 _symmetry_equiv_pos_site_id
 _symmetry_equiv_pos_as_xyz
  1  'x, y, z'
loop_
 _atom_site_type_symbol
 _atom_site_label
 _atom_site_symmetry_multiplicity
 _atom_site_fract_x
 _atom_site_fract_y
 _atom_site_fract_z
 _atom_site_occupancy
  Ba  Ba0  1  0.894501  0.173104  0.652068  1
  Ba  Ba1  1  0.652068  0.894501  0.173104  1
  Ba  Ba2  1  0.173104  0.652068  0.894501  1
  Ba  Ba3  1  0.105499  0.826896  0.347932  1
  Ba  Ba4  1  0.347932  0.105499  0.826896  1
  Ba  Ba5  1  0.826896  0.347932  0.105499  1
  Sr  Sr6  1  0.304987  0.304987  0.304987  1
  Sr  Sr7  1  0.695013  0.695013  0.695013  1
  Ca  Ca8  1  0.500000  0.500000  0.500000  1
  Au  Au9  1  0.898278  0.537868  0.352575  1
  Au  Au10  1  0.352575  0.898278  0.537868  1
  Au  Au11  1  0.537868  0.352575  0.898278  1
  Au  Au12  1  0.101722  0.462132  0.647425  1
  Au  Au13  1  0.647425  0.101722  0.462132  1
  Au  Au14  1  0.462132  0.647425  0.101722  1
