# generated using pymatgen
data_Ba8Fe(IrO4)5
_symmetry_space_group_name_H-M   'P 1'
_cell_length_a   7.33456709
_cell_length_b   7.33456637
_cell_length_c   13.43036063
_cell_angle_alpha   90.13539563
_cell_angle_beta   89.86460404
_cell_angle_gamma   132.96230864
_symmetry_Int_Tables_number   1
_chemical_formula_structural   Ba8Fe(IrO4)5
_chemical_formula_sum   'Ba8 Fe1 Ir5 O20'
_cell_volume   528.72380488
_cell_formula_units_Z   1
loop_
 _symmetry_equiv_pos_site_id
 _symmetry_equiv_pos_as_xyz
  1  'x, y, z'
loop_
 _atom_site_type_symbol
 _atom_site_label
 _atom_site_symmetry_multiplicity
 _atom_site_fract_x
 _atom_site_fract_y
 _atom_site_fract_z
 _atom_site_occupancy
  Ba  Ba0  1  0.244103  0.755897  0.881107  1
  Ba  Ba1  1  0.761766  0.238234  0.114934  1
  Ba  Ba2  1  0.257314  0.742686  0.381603  1
  Ba  Ba3  1  0.743244  0.256756  0.622942  1
  Ba  Ba4  1  0.534111  0.465889  0.861221  1
  Ba  Ba5  1  0.460380  0.539620  0.135638  1
  Ba  Ba6  1  0.037911  0.962089  0.647675  1
  Ba  Ba7  1  0.959415  0.040585  0.362267  1
  Fe  Fe8  1  0.864524  0.135476  0.846437  1
  Ir  Ir9  1  0.003527  0.996473  0.000415  1
  Ir  Ir10  1  0.500517  0.499483  0.499458  1
  Ir  Ir11  1  0.120421  0.879579  0.148758  1
  Ir  Ir12  1  0.620369  0.379631  0.348417  1
  Ir  Ir13  1  0.381550  0.618450  0.649543  1
  O  O14  1  0.143324  0.364671  0.750710  1
  O  O15  1  0.349540  0.142638  0.250567  1
  O  O16  1  0.857362  0.650460  0.250567  1
  O  O17  1  0.635329  0.856676  0.750710  1
  O  O18  1  0.234674  0.765326  0.659106  1
  O  O19  1  0.767961  0.232039  0.335258  1
  O  O20  1  0.266278  0.733722  0.164465  1
  O  O21  1  0.725293  0.274707  0.834423  1
  O  O22  1  0.385204  0.160259  0.464482  1
  O  O23  1  0.158377  0.378154  0.533486  1
  O  O24  1  0.118621  0.329897  0.966677  1
  O  O25  1  0.346101  0.111677  0.034954  1
  O  O26  1  0.621846  0.841623  0.533486  1
  O  O27  1  0.839741  0.614796  0.464482  1
  O  O28  1  0.041460  0.958540  0.855924  1
  O  O29  1  0.961587  0.038413  0.149353  1
  O  O30  1  0.459986  0.540014  0.351740  1
  O  O31  1  0.539741  0.460259  0.647563  1
  O  O32  1  0.670103  0.881379  0.966677  1
  O  O33  1  0.888323  0.653899  0.034954  1
