# generated using pymatgen
data_YbDy3(Sc3Sn4)2
_symmetry_space_group_name_H-M   'P 1'
_cell_length_a   7.68463770
_cell_length_b   7.98487007
_cell_length_c   14.90996380
_cell_angle_alpha   90.05262143
_cell_angle_beta   89.63263435
_cell_angle_gamma   90.14346702
_symmetry_Int_Tables_number   1
_chemical_formula_structural   YbDy3(Sc3Sn4)2
_chemical_formula_sum   'Yb2 Dy6 Sc12 Sn16'
_cell_volume   914.86576123
_cell_formula_units_Z   2
loop_
 _symmetry_equiv_pos_site_id
 _symmetry_equiv_pos_as_xyz
  1  'x, y, z'
loop_
 _atom_site_type_symbol
 _atom_site_label
 _atom_site_symmetry_multiplicity
 _atom_site_fract_x
 _atom_site_fract_y
 _atom_site_fract_z
 _atom_site_occupancy
  Yb  Yb0  1  0.994821  0.176877  0.093350  1
  Yb  Yb1  1  0.005179  0.823123  0.906650  1
  Dy  Dy2  1  0.503911  0.677643  0.904721  1
  Dy  Dy3  1  0.003188  0.822483  0.593852  1
  Dy  Dy4  1  0.496089  0.322357  0.095279  1
  Dy  Dy5  1  0.996812  0.177517  0.406148  1
  Dy  Dy6  1  0.496192  0.322796  0.406128  1
  Dy  Dy7  1  0.503808  0.677204  0.593872  1
  Sc  Sc8  1  0.164938  0.497169  0.749474  1
  Sc  Sc9  1  0.835062  0.502831  0.250526  1
  Sc  Sc10  1  0.335254  0.996838  0.250403  1
  Sc  Sc11  1  0.664746  0.003162  0.749597  1
  Sc  Sc12  1  0.335433  0.161366  0.627445  1
  Sc  Sc13  1  0.664567  0.838634  0.372555  1
  Sc  Sc14  1  0.164180  0.661682  0.373309  1
  Sc  Sc15  1  0.666284  0.839111  0.127692  1
  Sc  Sc16  1  0.835820  0.338318  0.626691  1
  Sc  Sc17  1  0.333716  0.160889  0.872308  1
  Sc  Sc18  1  0.833230  0.338912  0.872636  1
  Sc  Sc19  1  0.166770  0.661088  0.127364  1
  Sn  Sn20  1  0.026556  0.125159  0.749784  1
  Sn  Sn21  1  0.973444  0.874841  0.250216  1
  Sn  Sn22  1  0.472588  0.624443  0.249865  1
  Sn  Sn23  1  0.527412  0.375557  0.750135  1
  Sn  Sn24  1  0.306633  0.850528  0.748554  1
  Sn  Sn25  1  0.693367  0.149472  0.251446  1
  Sn  Sn26  1  0.194179  0.350412  0.250776  1
  Sn  Sn27  1  0.805821  0.649588  0.749224  1
  Sn  Sn28  1  0.180158  0.456386  0.542041  1
  Sn  Sn29  1  0.819842  0.543614  0.457959  1
  Sn  Sn30  1  0.320651  0.957304  0.457985  1
  Sn  Sn31  1  0.821315  0.542552  0.042940  1
  Sn  Sn32  1  0.679349  0.042696  0.542015  1
  Sn  Sn33  1  0.178685  0.457448  0.957060  1
  Sn  Sn34  1  0.672363  0.040524  0.957369  1
  Sn  Sn35  1  0.327637  0.959476  0.042631  1
