# generated using pymatgen
data_La8DyPt6
_symmetry_space_group_name_H-M   'P 1'
_cell_length_a   7.80630528
_cell_length_b   7.80630563
_cell_length_c   7.80630500
_cell_angle_alpha   71.72429933
_cell_angle_beta   71.72429411
_cell_angle_gamma   71.72430139
_symmetry_Int_Tables_number   1
_chemical_formula_structural   La8DyPt6
_chemical_formula_sum   'La8 Dy1 Pt6'
_cell_volume   416.52212452
_cell_formula_units_Z   1
loop_
 _symmetry_equiv_pos_site_id
 _symmetry_equiv_pos_as_xyz
  1  'x, y, z'
loop_
 _atom_site_type_symbol
 _atom_site_label
 _atom_site_symmetry_multiplicity
 _atom_site_fract_x
 _atom_site_fract_y
 _atom_site_fract_z
 _atom_site_occupancy
  La  La0  1  0.800675  0.800675  0.800675  1
  La  La1  1  0.199325  0.199325  0.199325  1
  La  La2  1  0.327744  0.610813  0.836560  1
  La  La3  1  0.836560  0.327744  0.610813  1
  La  La4  1  0.610813  0.836560  0.327744  1
  La  La5  1  0.672256  0.389187  0.163440  1
  La  La6  1  0.163440  0.672256  0.389187  1
  La  La7  1  0.389187  0.163440  0.672256  1
  Dy  Dy8  1  0.000000  0.000000  0.000000  1
  Pt  Pt9  1  0.161958  0.960202  0.596226  1
  Pt  Pt10  1  0.596226  0.161958  0.960202  1
  Pt  Pt11  1  0.960202  0.596226  0.161958  1
  Pt  Pt12  1  0.838042  0.039798  0.403774  1
  Pt  Pt13  1  0.403774  0.838042  0.039798  1
  Pt  Pt14  1  0.039798  0.403774  0.838042  1
