# generated using pymatgen
data_Ho17Lu3(Cd3Ni)2
_symmetry_space_group_name_H-M   'P 1'
_cell_length_a   9.51885800
_cell_length_b   9.51885783
_cell_length_c   9.70429300
_cell_angle_alpha   90.00000000
_cell_angle_beta   90.00000000
_cell_angle_gamma   119.99985190
_symmetry_Int_Tables_number   1
_chemical_formula_structural   Ho17Lu3(Cd3Ni)2
_chemical_formula_sum   'Ho17 Lu3 Cd6 Ni2'
_cell_volume   761.49116538
_cell_formula_units_Z   1
loop_
 _symmetry_equiv_pos_site_id
 _symmetry_equiv_pos_as_xyz
  1  'x, y, z'
loop_
 _atom_site_type_symbol
 _atom_site_label
 _atom_site_symmetry_multiplicity
 _atom_site_fract_x
 _atom_site_fract_y
 _atom_site_fract_z
 _atom_site_occupancy
  Ho  Ho0  1  0.543341  0.087710  0.250000  1
  Ho  Ho1  1  0.912290  0.456659  0.250000  1
  Ho  Ho2  1  0.456435  0.543565  0.750000  1
  Ho  Ho3  1  0.456466  0.912984  0.750000  1
  Ho  Ho4  1  0.087016  0.543534  0.750000  1
  Ho  Ho5  1  0.210017  0.789983  0.437536  1
  Ho  Ho6  1  0.210746  0.419899  0.437153  1
  Ho  Ho7  1  0.580101  0.789254  0.437153  1
  Ho  Ho8  1  0.789832  0.210168  0.562150  1
  Ho  Ho9  1  0.789433  0.579584  0.561564  1
  Ho  Ho10  1  0.420416  0.210567  0.561564  1
  Ho  Ho11  1  0.789832  0.210168  0.937850  1
  Ho  Ho12  1  0.789433  0.579584  0.938436  1
  Ho  Ho13  1  0.420416  0.210567  0.938436  1
  Ho  Ho14  1  0.210017  0.789983  0.062464  1
  Ho  Ho15  1  0.210746  0.419899  0.062847  1
  Ho  Ho16  1  0.580101  0.789254  0.062847  1
  Lu  Lu17  1  0.999959  0.000041  0.500039  1
  Lu  Lu18  1  0.999959  0.000041  0.999961  1
  Lu  Lu19  1  0.543393  0.456607  0.250000  1
  Cd  Cd20  1  0.885685  0.114315  0.250000  1
  Cd  Cd21  1  0.884752  0.770714  0.250000  1
  Cd  Cd22  1  0.229286  0.115248  0.250000  1
  Cd  Cd23  1  0.113932  0.886068  0.750000  1
  Cd  Cd24  1  0.114268  0.228218  0.750000  1
  Cd  Cd25  1  0.771782  0.885732  0.750000  1
  Ni  Ni26  1  0.333588  0.666412  0.250000  1
  Ni  Ni27  1  0.666758  0.333242  0.750000  1
