# generated using pymatgen
data_Dy10BeCo3Te4
_symmetry_space_group_name_H-M   'P 1'
_cell_length_a   7.77807223
_cell_length_b   7.77807328
_cell_length_c   14.91481200
_cell_angle_alpha   90.00000000
_cell_angle_beta   90.00000000
_cell_angle_gamma   150.55043235
_symmetry_Int_Tables_number   1
_chemical_formula_structural   Dy10BeCo3Te4
_chemical_formula_sum   'Dy10 Be1 Co3 Te4'
_cell_volume   443.63341882
_cell_formula_units_Z   1
loop_
 _symmetry_equiv_pos_site_id
 _symmetry_equiv_pos_as_xyz
  1  'x, y, z'
loop_
 _atom_site_type_symbol
 _atom_site_label
 _atom_site_symmetry_multiplicity
 _atom_site_fract_x
 _atom_site_fract_y
 _atom_site_fract_z
 _atom_site_occupancy
  Dy  Dy0  1  0.959757  0.040243  0.121629  1
  Dy  Dy1  1  0.039245  0.960755  0.874584  1
  Dy  Dy2  1  0.039245  0.960755  0.625416  1
  Dy  Dy3  1  0.959757  0.040243  0.378371  1
  Dy  Dy4  1  0.741201  0.258799  0.629358  1
  Dy  Dy5  1  0.258371  0.741629  0.369683  1
  Dy  Dy6  1  0.258371  0.741629  0.130317  1
  Dy  Dy7  1  0.741201  0.258799  0.870642  1
  Dy  Dy8  1  0.602778  0.397222  0.250000  1
  Dy  Dy9  1  0.393805  0.606195  0.750000  1
  Be  Be10  1  0.404554  0.595446  0.250000  1
  Co  Co11  1  0.590574  0.409426  0.750000  1
  Co  Co12  1  0.829119  0.170881  0.250000  1
  Co  Co13  1  0.181592  0.818408  0.750000  1
  Te  Te14  1  0.615994  0.384006  0.040165  1
  Te  Te15  1  0.384221  0.615779  0.962169  1
  Te  Te16  1  0.384221  0.615779  0.537831  1
  Te  Te17  1  0.615994  0.384006  0.459835  1
