# generated using pymatgen
data_Sc12CoSi16Ni4Ir3
_symmetry_space_group_name_H-M   'P 1'
_cell_length_a   4.02062500
_cell_length_b   11.61235845
_cell_length_c   12.24562411
_cell_angle_alpha   89.92228917
_cell_angle_beta   90.00000000
_cell_angle_gamma   90.00000000
_symmetry_Int_Tables_number   1
_chemical_formula_structural   Sc12CoSi16Ni4Ir3
_chemical_formula_sum   'Sc12 Co1 Si16 Ni4 Ir3'
_cell_volume   571.73466756
_cell_formula_units_Z   1
loop_
 _symmetry_equiv_pos_site_id
 _symmetry_equiv_pos_as_xyz
  1  'x, y, z'
loop_
 _atom_site_type_symbol
 _atom_site_label
 _atom_site_symmetry_multiplicity
 _atom_site_fract_x
 _atom_site_fract_y
 _atom_site_fract_z
 _atom_site_occupancy
  Sc  Sc0  1  0.750000  0.979391  0.813719  1
  Sc  Sc1  1  0.250000  0.020312  0.178485  1
  Sc  Sc2  1  0.750000  0.479018  0.679251  1
  Sc  Sc3  1  0.250000  0.520382  0.320708  1
  Sc  Sc4  1  0.750000  0.752882  0.650646  1
  Sc  Sc5  1  0.250000  0.242619  0.351197  1
  Sc  Sc6  1  0.750000  0.252917  0.846967  1
  Sc  Sc7  1  0.250000  0.746238  0.151100  1
  Sc  Sc8  1  0.750000  0.694344  0.913360  1
  Sc  Sc9  1  0.250000  0.305425  0.085939  1
  Sc  Sc10  1  0.750000  0.195141  0.585224  1
  Sc  Sc11  1  0.250000  0.812811  0.417304  1
  Co  Co12  1  0.250000  0.950246  0.635815  1
  Si  Si13  1  0.750000  0.943179  0.542615  1
  Si  Si14  1  0.250000  0.059026  0.478690  1
  Si  Si15  1  0.750000  0.435811  0.970998  1
  Si  Si16  1  0.250000  0.563004  0.028830  1
  Si  Si17  1  0.750000  0.896875  0.058146  1
  Si  Si18  1  0.250000  0.101856  0.937549  1
  Si  Si19  1  0.750000  0.395958  0.439970  1
  Si  Si20  1  0.250000  0.605805  0.559689  1
  Si  Si21  1  0.750000  0.879365  0.259314  1
  Si  Si22  1  0.250000  0.117870  0.735133  1
  Si  Si23  1  0.750000  0.377289  0.241715  1
  Si  Si24  1  0.250000  0.622234  0.758431  1
  Si  Si25  1  0.750000  0.677339  0.300834  1
  Si  Si26  1  0.250000  0.322981  0.699431  1
  Si  Si27  1  0.750000  0.174571  0.201545  1
  Si  Si28  1  0.250000  0.826705  0.793568  1
  Ni  Ni29  1  0.750000  0.599714  0.472325  1
  Ni  Ni30  1  0.250000  0.401631  0.527441  1
  Ni  Ni31  1  0.750000  0.099896  0.026740  1
  Ni  Ni32  1  0.250000  0.898227  0.969281  1
  Ir  Ir33  1  0.750000  0.550786  0.136042  1
  Ir  Ir34  1  0.250000  0.448667  0.863969  1
  Ir  Ir35  1  0.750000  0.049485  0.368026  1
