# generated using pymatgen
data_Sr4Nb(MoO4)3
_symmetry_space_group_name_H-M   'P 1'
_cell_length_a   5.74571149
_cell_length_b   5.78681198
_cell_length_c   8.17027249
_cell_angle_alpha   90.10787690
_cell_angle_beta   89.92746076
_cell_angle_gamma   90.53256628
_symmetry_Int_Tables_number   1
_chemical_formula_structural   Sr4Nb(MoO4)3
_chemical_formula_sum   'Sr4 Nb1 Mo3 O12'
_cell_volume   271.64383847
_cell_formula_units_Z   1
loop_
 _symmetry_equiv_pos_site_id
 _symmetry_equiv_pos_as_xyz
  1  'x, y, z'
loop_
 _atom_site_type_symbol
 _atom_site_label
 _atom_site_symmetry_multiplicity
 _atom_site_fract_x
 _atom_site_fract_y
 _atom_site_fract_z
 _atom_site_occupancy
  Sr  Sr0  1  0.004939  0.969206  0.250677  1
  Sr  Sr1  1  0.493571  0.471236  0.249856  1
  Sr  Sr2  1  0.506430  0.528764  0.750144  1
  Sr  Sr3  1  0.995062  0.030796  0.749323  1
  Nb  Nb4  1  0.500000  0.000000  0.500000  1
  Mo  Mo5  1  0.499999  0.000000  0.000000  1
  Mo  Mo6  1  0.000000  0.500000  0.000000  1
  Mo  Mo7  1  0.000000  0.500000  0.500000  1
  O  O8  1  0.282814  0.719189  0.033205  1
  O  O9  1  0.225256  0.213510  0.041304  1
  O  O10  1  0.929592  0.522484  0.242674  1
  O  O11  1  0.567580  0.014687  0.256358  1
  O  O12  1  0.224728  0.208020  0.466702  1
  O  O13  1  0.292928  0.723884  0.464324  1
  O  O14  1  0.707073  0.276116  0.535676  1
  O  O15  1  0.775273  0.791980  0.533298  1
  O  O16  1  0.432419  0.985312  0.743642  1
  O  O17  1  0.070409  0.477516  0.757326  1
  O  O18  1  0.774744  0.786490  0.958697  1
  O  O19  1  0.717186  0.280810  0.966795  1
