# generated using pymatgen
data_TbY3Ga12Rh
_symmetry_space_group_name_H-M   'P 1'
_cell_length_a   7.48465726
_cell_length_b   7.47100372
_cell_length_c   7.48465732
_cell_angle_alpha   109.43427966
_cell_angle_beta   109.50814656
_cell_angle_gamma   109.43427040
_symmetry_Int_Tables_number   1
_chemical_formula_structural   TbY3Ga12Rh
_chemical_formula_sum   'Tb1 Y3 Ga12 Rh1'
_cell_volume   322.32848586
_cell_formula_units_Z   1
loop_
 _symmetry_equiv_pos_site_id
 _symmetry_equiv_pos_as_xyz
  1  'x, y, z'
loop_
 _atom_site_type_symbol
 _atom_site_label
 _atom_site_symmetry_multiplicity
 _atom_site_fract_x
 _atom_site_fract_y
 _atom_site_fract_z
 _atom_site_occupancy
  Tb  Tb0  1  0.000000  0.500000  0.000000  1
  Y  Y1  1  0.500000  0.500000  0.500000  1
  Y  Y2  1  0.000000  0.000000  0.500000  1
  Y  Y3  1  0.500000  0.000000  0.000000  1
  Ga  Ga4  1  0.500012  0.750006  0.250006  1
  Ga  Ga5  1  0.499988  0.249994  0.749994  1
  Ga  Ga6  1  0.250006  0.500000  0.749994  1
  Ga  Ga7  1  0.749994  0.500000  0.250006  1
  Ga  Ga8  1  0.749994  0.249994  0.499988  1
  Ga  Ga9  1  0.250006  0.750006  0.500012  1
  Ga  Ga10  1  0.000000  0.291609  0.291411  1
  Ga  Ga11  1  0.000000  0.708391  0.708589  1
  Ga  Ga12  1  0.291411  0.999801  0.291411  1
  Ga  Ga13  1  0.708589  0.000199  0.708589  1
  Ga  Ga14  1  0.291411  0.291609  0.000000  1
  Ga  Ga15  1  0.708589  0.708391  0.000000  1
  Rh  Rh16  1  0.000000  0.000000  0.000000  1
