# generated using pymatgen
data_ZrSc(ZnNi)2
_symmetry_space_group_name_H-M   'P 1'
_cell_length_a   4.91060812
_cell_length_b   4.91060785
_cell_length_c   5.10462000
_cell_angle_alpha   90.00000000
_cell_angle_beta   90.00000000
_cell_angle_gamma   130.21552568
_symmetry_Int_Tables_number   1
_chemical_formula_structural   ZrSc(ZnNi)2
_chemical_formula_sum   'Zr1 Sc1 Zn2 Ni2'
_cell_volume   93.99653999
_cell_formula_units_Z   1
loop_
 _symmetry_equiv_pos_site_id
 _symmetry_equiv_pos_as_xyz
  1  'x, y, z'
loop_
 _atom_site_type_symbol
 _atom_site_label
 _atom_site_symmetry_multiplicity
 _atom_site_fract_x
 _atom_site_fract_y
 _atom_site_fract_z
 _atom_site_occupancy
  Zr  Zr0  1  0.701519  0.298481  0.250000  1
  Sc  Sc1  1  0.299183  0.700817  0.750000  1
  Zn  Zn2  1  0.002205  0.997795  0.500350  1
  Zn  Zn3  1  0.002205  0.997795  0.999650  1
  Ni  Ni4  1  0.398468  0.601532  0.250000  1
  Ni  Ni5  1  0.596419  0.403581  0.750000  1
