# generated using pymatgen
data_DySc19Bi11Sb
_symmetry_space_group_name_H-M   'P 1'
_cell_length_a   7.78671236
_cell_length_b   8.99083900
_cell_length_c   11.39264030
_cell_angle_alpha   90.00000000
_cell_angle_beta   90.08798530
_cell_angle_gamma   90.00000000
_symmetry_Int_Tables_number   1
_chemical_formula_structural   DySc19Bi11Sb
_chemical_formula_sum   'Dy1 Sc19 Bi11 Sb1'
_cell_volume   797.58729324
_cell_formula_units_Z   1
loop_
 _symmetry_equiv_pos_site_id
 _symmetry_equiv_pos_as_xyz
  1  'x, y, z'
loop_
 _atom_site_type_symbol
 _atom_site_label
 _atom_site_symmetry_multiplicity
 _atom_site_fract_x
 _atom_site_fract_y
 _atom_site_fract_z
 _atom_site_occupancy
  Dy  Dy0  1  0.186966  0.750000  0.721464  1
  Sc  Sc1  1  0.352722  0.750000  0.215658  1
  Sc  Sc2  1  0.850683  0.750000  0.278829  1
  Sc  Sc3  1  0.651270  0.250000  0.782707  1
  Sc  Sc4  1  0.148717  0.250000  0.719386  1
  Sc  Sc5  1  0.692153  0.569260  0.059128  1
  Sc  Sc6  1  0.194540  0.932302  0.438148  1
  Sc  Sc7  1  0.306183  0.063293  0.940947  1
  Sc  Sc8  1  0.806911  0.432155  0.560134  1
  Sc  Sc9  1  0.306183  0.436707  0.940947  1
  Sc  Sc10  1  0.806911  0.067845  0.560134  1
  Sc  Sc11  1  0.692153  0.930740  0.059128  1
  Sc  Sc12  1  0.194540  0.567698  0.438148  1
  Sc  Sc13  1  0.479303  0.250000  0.486350  1
  Sc  Sc14  1  0.978913  0.250000  0.012372  1
  Sc  Sc15  1  0.520913  0.750000  0.511034  1
  Sc  Sc16  1  0.024585  0.750000  0.989820  1
  Sc  Sc17  1  0.313067  0.250000  0.218634  1
  Sc  Sc18  1  0.812878  0.250000  0.281664  1
  Sc  Sc19  1  0.681469  0.750000  0.785677  1
  Bi  Bi20  1  0.901840  0.750000  0.536159  1
  Bi  Bi21  1  0.592781  0.250000  0.040637  1
  Bi  Bi22  1  0.093877  0.250000  0.459955  1
  Bi  Bi23  1  0.565569  0.995529  0.324684  1
  Bi  Bi24  1  0.065659  0.504090  0.174222  1
  Bi  Bi25  1  0.439596  0.491359  0.673361  1
  Bi  Bi26  1  0.930363  0.006435  0.827683  1
  Bi  Bi27  1  0.439596  0.008641  0.673361  1
  Bi  Bi28  1  0.930363  0.493565  0.827683  1
  Bi  Bi29  1  0.565569  0.504471  0.324684  1
  Bi  Bi30  1  0.065659  0.995910  0.174222  1
  Sb  Sb31  1  0.408067  0.750000  0.963039  1
