# generated using pymatgen
data_Ho3Er9Ga2(NiOs)2
_symmetry_space_group_name_H-M   'P 1'
_cell_length_a   8.28593080
_cell_length_b   8.28592531
_cell_length_c   8.28592467
_cell_angle_alpha   113.10775850
_cell_angle_beta   110.26674307
_cell_angle_gamma   105.13810750
_symmetry_Int_Tables_number   1
_chemical_formula_structural   Ho3Er9Ga2(NiOs)2
_chemical_formula_sum   'Ho3 Er9 Ga2 Ni2 Os2'
_cell_volume   435.77591551
_cell_formula_units_Z   1
loop_
 _symmetry_equiv_pos_site_id
 _symmetry_equiv_pos_as_xyz
  1  'x, y, z'
loop_
 _atom_site_type_symbol
 _atom_site_label
 _atom_site_symmetry_multiplicity
 _atom_site_fract_x
 _atom_site_fract_y
 _atom_site_fract_z
 _atom_site_occupancy
  Ho  Ho0  1  0.050104  0.742626  0.307478  1
  Ho  Ho1  1  0.949999  0.257413  0.692586  1
  Ho  Ho2  1  0.564798  0.257368  0.307430  1
  Er  Er3  1  0.435046  0.742422  0.692624  1
  Er  Er4  1  0.669344  0.857308  0.187783  1
  Er  Er5  1  0.330560  0.518492  0.188010  1
  Er  Er6  1  0.330560  0.142549  0.812068  1
  Er  Er7  1  0.669344  0.481561  0.812037  1
  Er  Er8  1  0.179975  0.221804  0.401625  1
  Er  Er9  1  0.820042  0.221560  0.041667  1
  Er  Er10  1  0.179975  0.778351  0.958171  1
  Er  Er11  1  0.820042  0.778375  0.598481  1
  Ga  Ga12  1  0.000201  0.500115  0.500085  1
  Ga  Ga13  1  0.499997  0.999932  0.500065  1
  Ni  Ni14  1  0.882688  0.882762  0.999926  1
  Ni  Ni15  1  0.117226  0.117218  0.000008  1
  Os  Os16  1  0.670361  0.500005  0.170356  1
  Os  Os17  1  0.329737  0.500138  0.829600  1
