# generated using pymatgen
data_CeY15BeCd3Ir4
_symmetry_space_group_name_H-M   'P 1'
_cell_length_a   9.64833403
_cell_length_b   9.64833398
_cell_length_c   9.64833400
_cell_angle_alpha   59.74147240
_cell_angle_beta   59.74147258
_cell_angle_gamma   59.74147376
_symmetry_Int_Tables_number   1
_chemical_formula_structural   CeY15BeCd3Ir4
_chemical_formula_sum   'Ce1 Y15 Be1 Cd3 Ir4'
_cell_volume   631.37120445
_cell_formula_units_Z   1
loop_
 _symmetry_equiv_pos_site_id
 _symmetry_equiv_pos_as_xyz
  1  'x, y, z'
loop_
 _atom_site_type_symbol
 _atom_site_label
 _atom_site_symmetry_multiplicity
 _atom_site_fract_x
 _atom_site_fract_y
 _atom_site_fract_z
 _atom_site_occupancy
  Ce  Ce0  1  0.344506  0.344506  0.344506  1
  Y  Y1  1  0.353880  0.353880  0.942984  1
  Y  Y2  1  0.353880  0.942984  0.353880  1
  Y  Y3  1  0.942984  0.353880  0.353880  1
  Y  Y4  1  0.811381  0.189583  0.189583  1
  Y  Y5  1  0.192188  0.808527  0.808527  1
  Y  Y6  1  0.189583  0.811381  0.189583  1
  Y  Y7  1  0.808527  0.192188  0.808527  1
  Y  Y8  1  0.189583  0.189583  0.811381  1
  Y  Y9  1  0.808527  0.808527  0.192188  1
  Y  Y10  1  0.932974  0.563420  0.563420  1
  Y  Y11  1  0.561502  0.938175  0.938175  1
  Y  Y12  1  0.563420  0.932974  0.563420  1
  Y  Y13  1  0.938175  0.561502  0.938175  1
  Y  Y14  1  0.563420  0.563420  0.932974  1
  Y  Y15  1  0.938175  0.938175  0.561502  1
  Be  Be16  1  0.580021  0.580021  0.580021  1
  Cd  Cd17  1  0.580315  0.580315  0.262339  1
  Cd  Cd18  1  0.580315  0.262339  0.580315  1
  Cd  Cd19  1  0.262339  0.580315  0.580315  1
  Ir  Ir20  1  0.143156  0.143156  0.143156  1
  Ir  Ir21  1  0.144063  0.144063  0.573019  1
  Ir  Ir22  1  0.144063  0.573019  0.144063  1
  Ir  Ir23  1  0.573019  0.144063  0.144063  1
