# generated using pymatgen
data_La6Pr2Y11Si16Hg
_symmetry_space_group_name_H-M   'P 1'
_cell_length_a   7.50048767
_cell_length_b   7.84896033
_cell_length_c   15.01388813
_cell_angle_alpha   90.01721705
_cell_angle_beta   89.98574427
_cell_angle_gamma   90.16292723
_symmetry_Int_Tables_number   1
_chemical_formula_structural   La6Pr2Y11Si16Hg
_chemical_formula_sum   'La6 Pr2 Y11 Si16 Hg1'
_cell_volume   883.87941993
_cell_formula_units_Z   1
loop_
 _symmetry_equiv_pos_site_id
 _symmetry_equiv_pos_as_xyz
  1  'x, y, z'
loop_
 _atom_site_type_symbol
 _atom_site_label
 _atom_site_symmetry_multiplicity
 _atom_site_fract_x
 _atom_site_fract_y
 _atom_site_fract_z
 _atom_site_occupancy
  La  La0  1  0.015121  0.176668  0.400519  1
  La  La1  1  0.512983  0.327452  0.400692  1
  La  La2  1  0.489716  0.685840  0.898911  1
  La  La3  1  0.490277  0.686015  0.602051  1
  La  La4  1  0.974446  0.825127  0.602760  1
  La  La5  1  0.974189  0.825653  0.898207  1
  Pr  Pr6  1  0.514115  0.325437  0.099529  1
  Pr  Pr7  1  0.015764  0.177969  0.099456  1
  Y  Y8  1  0.338074  0.173829  0.624331  1
  Y  Y9  1  0.674233  0.818513  0.374121  1
  Y  Y10  1  0.173604  0.677422  0.377421  1
  Y  Y11  1  0.824927  0.309216  0.876482  1
  Y  Y12  1  0.824652  0.309352  0.623938  1
  Y  Y13  1  0.838642  0.491201  0.249209  1
  Y  Y14  1  0.337900  0.008833  0.249402  1
  Y  Y15  1  0.338086  0.174409  0.876271  1
  Y  Y16  1  0.173859  0.677974  0.121496  1
  Y  Y17  1  0.674083  0.818085  0.124760  1
  Y  Y18  1  0.158840  0.504067  0.750087  1
  Si  Si19  1  0.263177  0.877394  0.750487  1
  Si  Si20  1  0.464761  0.613680  0.249225  1
  Si  Si21  1  0.049116  0.115841  0.750348  1
  Si  Si22  1  0.531887  0.404963  0.750474  1
  Si  Si23  1  0.150263  0.470469  0.541242  1
  Si  Si24  1  0.967432  0.882772  0.249184  1
  Si  Si25  1  0.718600  0.122819  0.248908  1
  Si  Si26  1  0.850545  0.529462  0.036581  1
  Si  Si27  1  0.351408  0.970064  0.040210  1
  Si  Si28  1  0.149848  0.469005  0.959319  1
  Si  Si29  1  0.650060  0.038545  0.526295  1
  Si  Si30  1  0.352183  0.968375  0.460438  1
  Si  Si31  1  0.851174  0.531102  0.464287  1
  Si  Si32  1  0.784602  0.598233  0.750391  1
  Si  Si33  1  0.218973  0.379293  0.248713  1
  Si  Si34  1  0.650513  0.040020  0.974079  1
  Hg  Hg35  1  0.651943  0.994902  0.750176  1
