# generated using pymatgen
data_Rb2Co(GeO3)2
_symmetry_space_group_name_H-M   'P 1'
_cell_length_a   6.04573769
_cell_length_b   6.04495413
_cell_length_c   11.09857700
_cell_angle_alpha   90.00000000
_cell_angle_beta   90.00000000
_cell_angle_gamma   67.75505716
_symmetry_Int_Tables_number   1
_chemical_formula_structural   Rb2Co(GeO3)2
_chemical_formula_sum   'Rb4 Co2 Ge4 O12'
_cell_volume   375.42286403
_cell_formula_units_Z   2
loop_
 _symmetry_equiv_pos_site_id
 _symmetry_equiv_pos_as_xyz
  1  'x, y, z'
loop_
 _atom_site_type_symbol
 _atom_site_label
 _atom_site_symmetry_multiplicity
 _atom_site_fract_x
 _atom_site_fract_y
 _atom_site_fract_z
 _atom_site_occupancy
  Rb  Rb0  1  0.564811  0.783374  0.175122  1
  Rb  Rb1  1  0.216573  0.435224  0.324866  1
  Rb  Rb2  1  0.435188  0.216626  0.675122  1
  Rb  Rb3  1  0.783427  0.564775  0.824866  1
  Co  Co4  1  0.308721  0.308569  0.999991  1
  Co  Co5  1  0.691280  0.691432  0.499991  1
  Ge  Ge6  1  0.861856  0.172083  0.109918  1
  Ge  Ge7  1  0.827846  0.138224  0.390092  1
  Ge  Ge8  1  0.138143  0.827916  0.609916  1
  Ge  Ge9  1  0.172153  0.861775  0.890093  1
  O  O10  1  0.936138  0.935912  0.000031  1
  O  O11  1  0.990342  0.381070  0.078157  1
  O  O12  1  0.548778  0.290815  0.124017  1
  O  O13  1  0.986234  0.013758  0.250015  1
  O  O14  1  0.709096  0.451295  0.375973  1
  O  O15  1  0.618821  0.009833  0.421818  1
  O  O16  1  0.063864  0.064090  0.500031  1
  O  O17  1  0.009659  0.618930  0.578156  1
  O  O18  1  0.451222  0.709185  0.624016  1
  O  O19  1  0.013766  0.986242  0.750016  1
  O  O20  1  0.290904  0.548705  0.875973  1
  O  O21  1  0.381179  0.990168  0.921818  1
