# generated using pymatgen
data_Zr10Zn2CdBi5
_symmetry_space_group_name_H-M   'P 1'
_cell_length_a   8.80458900
_cell_length_b   8.83703589
_cell_length_c   5.96293000
_cell_angle_alpha   90.00000000
_cell_angle_beta   90.00000000
_cell_angle_gamma   119.87861922
_symmetry_Int_Tables_number   1
_chemical_formula_structural   Zr10Zn2CdBi5
_chemical_formula_sum   'Zr10 Zn2 Cd1 Bi5'
_cell_volume   402.28694811
_cell_formula_units_Z   1
loop_
 _symmetry_equiv_pos_site_id
 _symmetry_equiv_pos_as_xyz
  1  'x, y, z'
loop_
 _atom_site_type_symbol
 _atom_site_label
 _atom_site_symmetry_multiplicity
 _atom_site_fract_x
 _atom_site_fract_y
 _atom_site_fract_z
 _atom_site_occupancy
  Zr  Zr0  1  0.730388  0.000000  0.250000  1
  Zr  Zr1  1  0.005152  0.737171  0.250000  1
  Zr  Zr2  1  0.267981  0.262829  0.250000  1
  Zr  Zr3  1  0.263540  0.000000  0.750000  1
  Zr  Zr4  1  0.999301  0.264747  0.750000  1
  Zr  Zr5  1  0.734554  0.735253  0.750000  1
  Zr  Zr6  1  0.333241  0.666911  0.497633  1
  Zr  Zr7  1  0.666332  0.333089  0.497633  1
  Zr  Zr8  1  0.666332  0.333089  0.002367  1
  Zr  Zr9  1  0.333241  0.666911  0.002367  1
  Zn  Zn10  1  0.000910  0.000000  0.496523  1
  Zn  Zn11  1  0.000910  0.000000  0.003477  1
  Cd  Cd12  1  0.385610  0.000000  0.250000  1
  Bi  Bi13  1  0.000913  0.384317  0.250000  1
  Bi  Bi14  1  0.616597  0.615683  0.250000  1
  Bi  Bi15  1  0.609331  0.000000  0.750000  1
  Bi  Bi16  1  0.000534  0.615403  0.750000  1
  Bi  Bi17  1  0.385131  0.384597  0.750000  1
