# generated using pymatgen
data_Pa2MnSiI2
_symmetry_space_group_name_H-M   'P 1'
_cell_length_a   3.98683500
_cell_length_b   3.98683478
_cell_length_c   11.43795300
_cell_angle_alpha   90.00000000
_cell_angle_beta   90.00000000
_cell_angle_gamma   119.99997695
_symmetry_Int_Tables_number   1
_chemical_formula_structural   Pa2MnSiI2
_chemical_formula_sum   'Pa2 Mn1 Si1 I2'
_cell_volume   157.44741708
_cell_formula_units_Z   1
loop_
 _symmetry_equiv_pos_site_id
 _symmetry_equiv_pos_as_xyz
  1  'x, y, z'
loop_
 _atom_site_type_symbol
 _atom_site_label
 _atom_site_symmetry_multiplicity
 _atom_site_fract_x
 _atom_site_fract_y
 _atom_site_fract_z
 _atom_site_occupancy
  Pa  Pa0  1  0.000000  0.000000  0.147387  1
  Pa  Pa1  1  0.000000  0.000000  0.846194  1
  Mn  Mn2  1  0.333333  0.666667  0.016277  1
  Si  Si3  1  0.666667  0.333333  0.989128  1
  I  I4  1  0.333333  0.666667  0.652588  1
  I  I5  1  0.666667  0.333333  0.348425  1
