# generated using pymatgen
data_HoEr2In3Ir2Pd
_symmetry_space_group_name_H-M   'P 1'
_cell_length_a   7.62110761
_cell_length_b   7.61582345
_cell_length_c   3.82969400
_cell_angle_alpha   90.00000000
_cell_angle_beta   90.00000000
_cell_angle_gamma   119.97705615
_symmetry_Int_Tables_number   1
_chemical_formula_structural   HoEr2In3Ir2Pd
_chemical_formula_sum   'Ho1 Er2 In3 Ir2 Pd1'
_cell_volume   192.54401746
_cell_formula_units_Z   1
loop_
 _symmetry_equiv_pos_site_id
 _symmetry_equiv_pos_as_xyz
  1  'x, y, z'
loop_
 _atom_site_type_symbol
 _atom_site_label
 _atom_site_symmetry_multiplicity
 _atom_site_fract_x
 _atom_site_fract_y
 _atom_site_fract_z
 _atom_site_occupancy
  Ho  Ho0  1  0.000000  0.412204  0.000000  1
  Er  Er1  1  0.587856  0.587830  0.000000  1
  Er  Er2  1  0.412144  0.999974  0.000000  1
  In  In3  1  0.000000  0.739426  0.500000  1
  In  In4  1  0.260925  0.260729  0.500000  1
  In  In5  1  0.739075  0.999804  0.500000  1
  Ir  Ir6  1  0.666263  0.333224  0.500000  1
  Ir  Ir7  1  0.333737  0.666962  0.500000  1
  Pd  Pd8  1  0.000000  0.999847  0.000000  1
