# generated using pymatgen
data_Y13Lu7Bi11Pb
_symmetry_space_group_name_H-M   'P 1'
_cell_length_a   8.21146545
_cell_length_b   9.49398361
_cell_length_c   12.04424344
_cell_angle_alpha   90.02409108
_cell_angle_beta   90.03987453
_cell_angle_gamma   89.98344521
_symmetry_Int_Tables_number   1
_chemical_formula_structural   Y13Lu7Bi11Pb
_chemical_formula_sum   'Y13 Lu7 Bi11 Pb1'
_cell_volume   938.96306820
_cell_formula_units_Z   1
loop_
 _symmetry_equiv_pos_site_id
 _symmetry_equiv_pos_as_xyz
  1  'x, y, z'
loop_
 _atom_site_type_symbol
 _atom_site_label
 _atom_site_symmetry_multiplicity
 _atom_site_fract_x
 _atom_site_fract_y
 _atom_site_fract_z
 _atom_site_occupancy
  Y  Y0  1  0.188417  0.753354  0.719026  1
  Y  Y1  1  0.686235  0.751097  0.780639  1
  Y  Y2  1  0.813630  0.250044  0.280880  1
  Y  Y3  1  0.313250  0.250449  0.218994  1
  Y  Y4  1  0.191241  0.564339  0.440491  1
  Y  Y5  1  0.692961  0.559997  0.059555  1
  Y  Y6  1  0.194009  0.939321  0.439535  1
  Y  Y7  1  0.307133  0.059671  0.939901  1
  Y  Y8  1  0.806368  0.440372  0.559564  1
  Y  Y9  1  0.355091  0.751733  0.214817  1
  Y  Y10  1  0.851057  0.750983  0.283503  1
  Y  Y11  1  0.644230  0.250326  0.783456  1
  Y  Y12  1  0.151357  0.248819  0.716082  1
  Lu  Lu13  1  0.023170  0.749300  0.989585  1
  Lu  Lu14  1  0.523006  0.753804  0.511739  1
  Lu  Lu15  1  0.976767  0.250328  0.009792  1
  Lu  Lu16  1  0.476035  0.249678  0.491380  1
  Lu  Lu17  1  0.308761  0.430299  0.941569  1
  Lu  Lu18  1  0.803462  0.067690  0.560726  1
  Lu  Lu19  1  0.692002  0.929617  0.058063  1
  Bi  Bi20  1  0.935901  0.496336  0.827755  1
  Bi  Bi21  1  0.565224  0.504605  0.329046  1
  Bi  Bi22  1  0.064212  0.996262  0.171340  1
  Bi  Bi23  1  0.566100  0.997414  0.327854  1
  Bi  Bi24  1  0.066192  0.504206  0.171356  1
  Bi  Bi25  1  0.433530  0.498325  0.671320  1
  Bi  Bi26  1  0.934620  0.004171  0.828927  1
  Bi  Bi27  1  0.404779  0.743234  0.956922  1
  Bi  Bi28  1  0.906311  0.756424  0.542430  1
  Bi  Bi29  1  0.595564  0.243385  0.042765  1
  Bi  Bi30  1  0.091499  0.250575  0.458844  1
  Pb  Pb31  1  0.437889  0.003842  0.672143  1
