# generated using pymatgen
data_Y2Er6Sc12Si11Ge5
_symmetry_space_group_name_H-M   'P 1'
_cell_length_a   7.12028999
_cell_length_b   7.37857726
_cell_length_c   14.01457849
_cell_angle_alpha   90.01058172
_cell_angle_beta   89.18250769
_cell_angle_gamma   90.06898357
_symmetry_Int_Tables_number   1
_chemical_formula_structural   Y2Er6Sc12Si11Ge5
_chemical_formula_sum   'Y2 Er6 Sc12 Si11 Ge5'
_cell_volume   736.21696807
_cell_formula_units_Z   1
loop_
 _symmetry_equiv_pos_site_id
 _symmetry_equiv_pos_as_xyz
  1  'x, y, z'
loop_
 _atom_site_type_symbol
 _atom_site_label
 _atom_site_symmetry_multiplicity
 _atom_site_fract_x
 _atom_site_fract_y
 _atom_site_fract_z
 _atom_site_occupancy
  Y  Y0  1  0.009581  0.175045  0.096574  1
  Y  Y1  1  0.992051  0.824729  0.903133  1
  Er  Er2  1  0.490609  0.676329  0.902804  1
  Er  Er3  1  0.996804  0.821540  0.598789  1
  Er  Er4  1  0.506246  0.323174  0.096975  1
  Er  Er5  1  0.002959  0.178347  0.401015  1
  Er  Er6  1  0.502459  0.321851  0.401185  1
  Er  Er7  1  0.497021  0.678043  0.598818  1
  Sc  Sc8  1  0.169733  0.501301  0.750632  1
  Sc  Sc9  1  0.830482  0.498917  0.250723  1
  Sc  Sc10  1  0.330983  0.001582  0.249488  1
  Sc  Sc11  1  0.669098  0.998375  0.750650  1
  Sc  Sc12  1  0.342248  0.171626  0.626521  1
  Sc  Sc13  1  0.657809  0.828907  0.373326  1
  Sc  Sc14  1  0.157735  0.671187  0.373488  1
  Sc  Sc15  1  0.662778  0.825611  0.125846  1
  Sc  Sc16  1  0.842199  0.328524  0.626458  1
  Sc  Sc17  1  0.336024  0.176485  0.874763  1
  Sc  Sc18  1  0.836519  0.322473  0.874980  1
  Sc  Sc19  1  0.166050  0.676347  0.124581  1
  Si  Si20  1  0.040960  0.115715  0.750804  1
  Si  Si21  1  0.959333  0.883566  0.248797  1
  Si  Si22  1  0.459027  0.615719  0.248937  1
  Si  Si23  1  0.541721  0.384002  0.751184  1
  Si  Si24  1  0.292474  0.871125  0.750802  1
  Si  Si25  1  0.707530  0.129614  0.249016  1
  Si  Si26  1  0.207590  0.371549  0.248904  1
  Si  Si27  1  0.792204  0.628214  0.751154  1
  Si  Si28  1  0.165632  0.463683  0.959861  1
  Si  Si29  1  0.659006  0.035145  0.960783  1
  Si  Si30  1  0.341177  0.964580  0.039082  1
  Ge  Ge31  1  0.179384  0.459972  0.540833  1
  Ge  Ge32  1  0.820543  0.540045  0.459302  1
  Ge  Ge33  1  0.321028  0.959904  0.459219  1
  Ge  Ge34  1  0.833929  0.536838  0.039908  1
  Ge  Ge35  1  0.679073  0.039936  0.540662  1
