# generated using pymatgen
data_RbHo10(C2I9)2
_symmetry_space_group_name_H-M   'P 1'
_cell_length_a   11.32132375
_cell_length_b   11.36177073
_cell_length_c   11.44454286
_cell_angle_alpha   113.35432795
_cell_angle_beta   87.11359115
_cell_angle_gamma   119.51669102
_symmetry_Int_Tables_number   1
_chemical_formula_structural   RbHo10(C2I9)2
_chemical_formula_sum   'Rb1 Ho10 C4 I18'
_cell_volume   1156.57770092
_cell_formula_units_Z   1
loop_
 _symmetry_equiv_pos_site_id
 _symmetry_equiv_pos_as_xyz
  1  'x, y, z'
loop_
 _atom_site_type_symbol
 _atom_site_label
 _atom_site_symmetry_multiplicity
 _atom_site_fract_x
 _atom_site_fract_y
 _atom_site_fract_z
 _atom_site_occupancy
  Rb  Rb0  1  0.500000  0.000000  0.500000  1
  Ho  Ho1  1  0.678070  0.724889  0.711925  1
  Ho  Ho2  1  0.276260  0.352026  0.015691  1
  Ho  Ho3  1  0.092849  0.390348  0.290704  1
  Ho  Ho4  1  0.965346  0.037926  0.322855  1
  Ho  Ho5  1  0.907151  0.609652  0.709296  1
  Ho  Ho6  1  0.104878  0.944521  0.000771  1
  Ho  Ho7  1  0.034654  0.962074  0.677145  1
  Ho  Ho8  1  0.321930  0.275111  0.288075  1
  Ho  Ho9  1  0.723740  0.647974  0.984309  1
  Ho  Ho10  1  0.895122  0.055479  0.999229  1
  C  C11  1  0.151799  0.220016  0.120193  1
  C  C12  1  0.848201  0.779984  0.879807  1
  C  C13  1  0.924292  0.856686  0.803387  1
  C  C14  1  0.075708  0.143314  0.196613  1
  I  I15  1  0.448577  0.530184  0.831558  1
  I  I16  1  0.385962  0.040172  0.158552  1
  I  I17  1  0.775912  0.855924  0.500765  1
  I  I18  1  0.836233  0.311166  0.153413  1
  I  I19  1  0.551423  0.469816  0.168442  1
  I  I20  1  0.224088  0.144076  0.499235  1
  I  I21  1  0.318302  0.095515  0.829644  1
  I  I22  1  0.681698  0.904485  0.170356  1
  I  I23  1  0.976086  0.755485  0.169485  1
  I  I24  1  0.933686  0.298937  0.501263  1
  I  I25  1  0.023914  0.244515  0.830515  1
  I  I26  1  0.066314  0.701063  0.498737  1
  I  I27  1  0.261702  0.623945  0.184034  1
  I  I28  1  0.738298  0.376055  0.815966  1
  I  I29  1  0.642269  0.433828  0.499838  1
  I  I30  1  0.163767  0.688834  0.846587  1
  I  I31  1  0.614038  0.959828  0.841448  1
  I  I32  1  0.357731  0.566172  0.500162  1
