# generated using pymatgen
data_CaTm3B16
_symmetry_space_group_name_H-M   'P 1'
_cell_length_a   7.07934601
_cell_length_b   7.07934601
_cell_length_c   4.00511400
_cell_angle_alpha   90.00000000
_cell_angle_beta   90.00000000
_cell_angle_gamma   89.74154604
_symmetry_Int_Tables_number   1
_chemical_formula_structural   CaTm3B16
_chemical_formula_sum   'Ca1 Tm3 B16'
_cell_volume   200.72281639
_cell_formula_units_Z   1
loop_
 _symmetry_equiv_pos_site_id
 _symmetry_equiv_pos_as_xyz
  1  'x, y, z'
loop_
 _atom_site_type_symbol
 _atom_site_label
 _atom_site_symmetry_multiplicity
 _atom_site_fract_x
 _atom_site_fract_y
 _atom_site_fract_z
 _atom_site_occupancy
  Ca  Ca0  1  0.180886  0.319116  0.000000  1
  Tm  Tm1  1  0.819197  0.680803  0.000000  1
  Tm  Tm2  1  0.681520  0.181408  0.000000  1
  Tm  Tm3  1  0.318594  0.818480  0.000000  1
  B  B4  1  0.960192  0.176010  0.499999  1
  B  B5  1  0.037557  0.822634  0.499999  1
  B  B6  1  0.538857  0.676353  0.499999  1
  B  B7  1  0.463754  0.323968  0.499999  1
  B  B8  1  0.323989  0.539808  0.499999  1
  B  B9  1  0.677366  0.462445  0.499999  1
  B  B10  1  0.823647  0.961143  0.499999  1
  B  B11  1  0.176031  0.036248  0.499999  1
  B  B12  1  0.413765  0.086235  0.499999  1
  B  B13  1  0.587174  0.912826  0.499999  1
  B  B14  1  0.912709  0.414241  0.499999  1
  B  B15  1  0.085759  0.587291  0.499999  1
  B  B16  1  0.499824  0.500321  0.202690  1
  B  B17  1  0.999678  0.000175  0.797309  1
  B  B18  1  0.499824  0.500321  0.797309  1
  B  B19  1  0.999678  0.000175  0.202690  1
