# generated using pymatgen
data_Hf8MnIn4Au7
_symmetry_space_group_name_H-M   'P 1'
_cell_length_a   7.56059875
_cell_length_b   7.56059910
_cell_length_c   7.03211982
_cell_angle_alpha   90.37414321
_cell_angle_beta   90.37414576
_cell_angle_gamma   90.25590949
_symmetry_Int_Tables_number   1
_chemical_formula_structural   Hf8MnIn4Au7
_chemical_formula_sum   'Hf8 Mn1 In4 Au7'
_cell_volume   401.95341992
_cell_formula_units_Z   1
loop_
 _symmetry_equiv_pos_site_id
 _symmetry_equiv_pos_as_xyz
  1  'x, y, z'
loop_
 _atom_site_type_symbol
 _atom_site_label
 _atom_site_symmetry_multiplicity
 _atom_site_fract_x
 _atom_site_fract_y
 _atom_site_fract_z
 _atom_site_occupancy
  Hf  Hf0  1  0.159351  0.159351  0.016806  1
  Hf  Hf1  1  0.860258  0.860258  0.996495  1
  Hf  Hf2  1  0.625014  0.342874  0.480711  1
  Hf  Hf3  1  0.342874  0.625014  0.480711  1
  Hf  Hf4  1  0.674148  0.309382  0.010784  1
  Hf  Hf5  1  0.309382  0.674148  0.010784  1
  Hf  Hf6  1  0.809777  0.809777  0.499190  1
  Hf  Hf7  1  0.203033  0.203033  0.486094  1
  Mn  Mn8  1  0.373428  0.373428  0.227146  1
  In  In9  1  0.496335  0.007621  0.243693  1
  In  In10  1  0.499218  0.996438  0.749632  1
  In  In11  1  0.007621  0.496335  0.243693  1
  In  In12  1  0.996438  0.499218  0.749632  1
  Au  Au13  1  0.631859  0.631859  0.784227  1
  Au  Au14  1  0.634795  0.634795  0.204708  1
  Au  Au15  1  0.870797  0.135664  0.713113  1
  Au  Au16  1  0.870348  0.130640  0.294622  1
  Au  Au17  1  0.369023  0.369023  0.800226  1
  Au  Au18  1  0.130640  0.870348  0.294622  1
  Au  Au19  1  0.135664  0.870797  0.713113  1
