# generated using pymatgen
data_YbDy9Ru4
_symmetry_space_group_name_H-M   'P 1'
_cell_length_a   8.51793771
_cell_length_b   8.50119948
_cell_length_c   7.24905502
_cell_angle_alpha   83.30446890
_cell_angle_beta   83.53046493
_cell_angle_gamma   43.92707252
_symmetry_Int_Tables_number   1
_chemical_formula_structural   YbDy9Ru4
_chemical_formula_sum   'Yb1 Dy9 Ru4'
_cell_volume   361.36401782
_cell_formula_units_Z   1
loop_
 _symmetry_equiv_pos_site_id
 _symmetry_equiv_pos_as_xyz
  1  'x, y, z'
loop_
 _atom_site_type_symbol
 _atom_site_label
 _atom_site_symmetry_multiplicity
 _atom_site_fract_x
 _atom_site_fract_y
 _atom_site_fract_z
 _atom_site_occupancy
  Yb  Yb0  1  0.017978  0.795200  0.916614  1
  Dy  Dy1  1  0.204617  0.980036  0.584116  1
  Dy  Dy2  1  0.980816  0.204824  0.085305  1
  Dy  Dy3  1  0.792743  0.020015  0.415549  1
  Dy  Dy4  1  0.360479  0.205014  0.814158  1
  Dy  Dy5  1  0.796130  0.637916  0.686150  1
  Dy  Dy6  1  0.639236  0.794549  0.187598  1
  Dy  Dy7  1  0.207857  0.358153  0.314598  1
  Dy  Dy8  1  0.573432  0.426038  0.750665  1
  Dy  Dy9  1  0.422246  0.576407  0.249451  1
  Ru  Ru10  1  0.178562  0.599910  0.569152  1
  Ru  Ru11  1  0.402399  0.827649  0.923879  1
  Ru  Ru12  1  0.823596  0.395171  0.425635  1
  Ru  Ru13  1  0.599912  0.179117  0.077131  1
