# generated using pymatgen
data_TbAl8SiAu4
_symmetry_space_group_name_H-M   'P 1'
_cell_length_a   6.03110182
_cell_length_b   6.03110284
_cell_length_c   15.01850922
_cell_angle_alpha   101.58309957
_cell_angle_beta   101.58310348
_cell_angle_gamma   89.99999387
_symmetry_Int_Tables_number   1
_chemical_formula_structural   TbAl8SiAu4
_chemical_formula_sum   'Tb2 Al16 Si2 Au8'
_cell_volume   523.79917258
_cell_formula_units_Z   2
loop_
 _symmetry_equiv_pos_site_id
 _symmetry_equiv_pos_as_xyz
  1  'x, y, z'
loop_
 _atom_site_type_symbol
 _atom_site_label
 _atom_site_symmetry_multiplicity
 _atom_site_fract_x
 _atom_site_fract_y
 _atom_site_fract_z
 _atom_site_occupancy
  Tb  Tb0  1  0.750000  0.250000  0.500000  1
  Tb  Tb1  1  0.250000  0.750000  0.500000  1
  Al  Al2  1  0.302454  0.302454  0.105731  1
  Al  Al3  1  0.803276  0.302454  0.105731  1
  Al  Al4  1  0.302454  0.803276  0.105731  1
  Al  Al5  1  0.803276  0.803276  0.105731  1
  Al  Al6  1  0.405539  0.405539  0.315155  1
  Al  Al7  1  0.909617  0.405539  0.315155  1
  Al  Al8  1  0.405539  0.909617  0.315155  1
  Al  Al9  1  0.909617  0.909617  0.315155  1
  Al  Al10  1  0.090384  0.090384  0.684844  1
  Al  Al11  1  0.594460  0.090384  0.684844  1
  Al  Al12  1  0.090384  0.594460  0.684844  1
  Al  Al13  1  0.594460  0.594460  0.684844  1
  Al  Al14  1  0.196724  0.196724  0.894269  1
  Al  Al15  1  0.697545  0.196724  0.894269  1
  Al  Al16  1  0.196724  0.697545  0.894269  1
  Al  Al17  1  0.697545  0.697545  0.894269  1
  Si  Si18  1  0.208149  0.208149  0.416299  1
  Si  Si19  1  0.791850  0.791850  0.583701  1
  Au  Au20  1  0.000000  0.000000  0.000000  1
  Au  Au21  1  0.499999  0.499999  0.000000  1
  Au  Au22  1  0.605409  0.105410  0.210820  1
  Au  Au23  1  0.105410  0.605409  0.210820  1
  Au  Au24  1  0.707464  0.707464  0.414930  1
  Au  Au25  1  0.292535  0.292535  0.585070  1
  Au  Au26  1  0.894590  0.394590  0.789180  1
  Au  Au27  1  0.394590  0.894590  0.789180  1
