# generated using pymatgen
data_CeEr15(CdNi)4
_symmetry_space_group_name_H-M   'P 1'
_cell_length_a   9.43798272
_cell_length_b   9.49358336
_cell_length_c   9.43798300
_cell_angle_alpha   60.19355071
_cell_angle_beta   60.00000251
_cell_angle_gamma   60.19354988
_symmetry_Int_Tables_number   1
_chemical_formula_structural   CeEr15(CdNi)4
_chemical_formula_sum   'Ce1 Er15 Cd4 Ni4'
_cell_volume   599.70532468
_cell_formula_units_Z   1
loop_
 _symmetry_equiv_pos_site_id
 _symmetry_equiv_pos_as_xyz
  1  'x, y, z'
loop_
 _atom_site_type_symbol
 _atom_site_label
 _atom_site_symmetry_multiplicity
 _atom_site_fract_x
 _atom_site_fract_y
 _atom_site_fract_z
 _atom_site_occupancy
  Ce  Ce0  1  0.154569  0.536294  0.154569  1
  Er  Er1  1  0.687236  0.313961  0.687236  1
  Er  Er2  1  0.687236  0.313961  0.311568  1
  Er  Er3  1  0.935853  0.564908  0.563386  1
  Er  Er4  1  0.548973  0.148328  0.151349  1
  Er  Er5  1  0.151349  0.148328  0.548973  1
  Er  Er6  1  0.934716  0.934610  0.565337  1
  Er  Er7  1  0.312373  0.688902  0.312373  1
  Er  Er8  1  0.565337  0.934610  0.934716  1
  Er  Er9  1  0.565337  0.934610  0.565337  1
  Er  Er10  1  0.686352  0.688902  0.312373  1
  Er  Er11  1  0.563386  0.564908  0.935853  1
  Er  Er12  1  0.935853  0.564908  0.935853  1
  Er  Er13  1  0.312373  0.688902  0.686352  1
  Er  Er14  1  0.151349  0.148328  0.151349  1
  Er  Er15  1  0.311568  0.313961  0.687236  1
  Cd  Cd16  1  0.918545  0.244366  0.918545  1
  Cd  Cd17  1  0.918716  0.917365  0.918716  1
  Cd  Cd18  1  0.918716  0.917365  0.245204  1
  Cd  Cd19  1  0.245204  0.917365  0.918716  1
  Ni  Ni20  1  0.355277  0.361933  0.927514  1
  Ni  Ni21  1  0.356896  0.929313  0.356896  1
  Ni  Ni22  1  0.927514  0.361933  0.355277  1
  Ni  Ni23  1  0.355277  0.361933  0.355277  1
