# generated using pymatgen
data_Yb6B(AsO4)5
_symmetry_space_group_name_H-M   'P 1'
_cell_length_a   6.94536200
_cell_length_b   6.94536200
_cell_length_c   9.22940400
_cell_angle_alpha   90.00000000
_cell_angle_beta   90.00000000
_cell_angle_gamma   90.00000000
_symmetry_Int_Tables_number   1
_chemical_formula_structural   Yb6B(AsO4)5
_chemical_formula_sum   'Yb6 B1 As5 O20'
_cell_volume   445.20848218
_cell_formula_units_Z   1
loop_
 _symmetry_equiv_pos_site_id
 _symmetry_equiv_pos_as_xyz
  1  'x, y, z'
loop_
 _atom_site_type_symbol
 _atom_site_label
 _atom_site_symmetry_multiplicity
 _atom_site_fract_x
 _atom_site_fract_y
 _atom_site_fract_z
 _atom_site_occupancy
  Yb  Yb0  1  0.000000  0.500000  0.455925  1
  Yb  Yb1  1  0.241585  0.127201  0.849033  1
  Yb  Yb2  1  0.758415  0.872799  0.849033  1
  Yb  Yb3  1  0.500000  0.000000  0.544075  1
  Yb  Yb4  1  0.127201  0.758415  0.150967  1
  Yb  Yb5  1  0.872799  0.241585  0.150967  1
  B  B6  1  0.500000  0.500000  0.000000  1
  As  As7  1  0.666861  0.742224  0.208517  1
  As  As8  1  0.333139  0.257776  0.208517  1
  As  As9  1  0.257776  0.666861  0.791483  1
  As  As10  1  0.000000  0.000000  0.500000  1
  As  As11  1  0.742224  0.333139  0.791483  1
  O  O12  1  0.828952  0.558215  0.225836  1
  O  O13  1  0.677101  0.525260  0.912212  1
  O  O14  1  0.071609  0.814692  0.389459  1
  O  O15  1  0.558215  0.171048  0.774164  1
  O  O16  1  0.553357  0.799800  0.360847  1
  O  O17  1  0.206313  0.085771  0.110843  1
  O  O18  1  0.928391  0.185308  0.389459  1
  O  O19  1  0.185308  0.071609  0.610541  1
  O  O20  1  0.799800  0.446643  0.639153  1
  O  O21  1  0.171048  0.441785  0.225836  1
  O  O22  1  0.525260  0.322899  0.087788  1
  O  O23  1  0.474740  0.677101  0.087788  1
  O  O24  1  0.914229  0.206313  0.889157  1
  O  O25  1  0.446643  0.200200  0.360847  1
  O  O26  1  0.200200  0.553357  0.639153  1
  O  O27  1  0.793687  0.914229  0.110843  1
  O  O28  1  0.085771  0.793687  0.889157  1
  O  O29  1  0.322899  0.474740  0.912212  1
  O  O30  1  0.441785  0.828952  0.774164  1
  O  O31  1  0.814692  0.928391  0.610541  1
