# generated using pymatgen
data_Pr6LuScO12
_symmetry_space_group_name_H-M   'P 1'
_cell_length_a   6.92854513
_cell_length_b   6.92854433
_cell_length_c   6.92854411
_cell_angle_alpha   92.68441479
_cell_angle_beta   92.68441020
_cell_angle_gamma   92.68439557
_symmetry_Int_Tables_number   1
_chemical_formula_structural   Pr6LuScO12
_chemical_formula_sum   'Pr6 Lu1 Sc1 O12'
_cell_volume   331.47247815
_cell_formula_units_Z   1
loop_
 _symmetry_equiv_pos_site_id
 _symmetry_equiv_pos_as_xyz
  1  'x, y, z'
loop_
 _atom_site_type_symbol
 _atom_site_label
 _atom_site_symmetry_multiplicity
 _atom_site_fract_x
 _atom_site_fract_y
 _atom_site_fract_z
 _atom_site_occupancy
  Pr  Pr0  1  0.561440  0.069696  0.256519  1
  Pr  Pr1  1  0.069696  0.256519  0.561440  1
  Pr  Pr2  1  0.743481  0.438560  0.930304  1
  Pr  Pr3  1  0.256519  0.561440  0.069696  1
  Pr  Pr4  1  0.930304  0.743481  0.438560  1
  Pr  Pr5  1  0.438560  0.930304  0.743481  1
  Lu  Lu6  1  0.000000  0.000000  0.000000  1
  Sc  Sc7  1  0.500000  0.500000  0.500000  1
  O  O8  1  0.694770  0.085241  0.934917  1
  O  O9  1  0.914759  0.065083  0.305230  1
  O  O10  1  0.411838  0.202648  0.538873  1
  O  O11  1  0.065083  0.305230  0.914759  1
  O  O12  1  0.538873  0.411838  0.202648  1
  O  O13  1  0.797352  0.461127  0.588162  1
  O  O14  1  0.202648  0.538873  0.411838  1
  O  O15  1  0.461127  0.588162  0.797352  1
  O  O16  1  0.934917  0.694770  0.085241  1
  O  O17  1  0.588162  0.797352  0.461127  1
  O  O18  1  0.085241  0.934917  0.694770  1
  O  O19  1  0.305230  0.914759  0.065083  1
