# generated using pymatgen
data_Sb4Ir3RhS4
_symmetry_space_group_name_H-M   'P 1'
_cell_length_a   6.10592738
_cell_length_b   6.10592738
_cell_length_c   6.10592738
_cell_angle_alpha   89.94557848
_cell_angle_beta   90.05442152
_cell_angle_gamma   89.94557848
_symmetry_Int_Tables_number   1
_chemical_formula_structural   Sb4Ir3RhS4
_chemical_formula_sum   'Sb4 Ir3 Rh1 S4'
_cell_volume   227.64300808
_cell_formula_units_Z   1
loop_
 _symmetry_equiv_pos_site_id
 _symmetry_equiv_pos_as_xyz
  1  'x, y, z'
loop_
 _atom_site_type_symbol
 _atom_site_label
 _atom_site_symmetry_multiplicity
 _atom_site_fract_x
 _atom_site_fract_y
 _atom_site_fract_z
 _atom_site_occupancy
  Sb  Sb0  1  0.375889  0.377128  0.377640  1
  Sb  Sb1  1  0.122872  0.622360  0.875889  1
  Sb  Sb2  1  0.877640  0.124111  0.622872  1
  Sb  Sb3  1  0.623720  0.876280  0.123720  1
  Ir  Ir4  1  0.512895  0.485857  0.986764  1
  Ir  Ir5  1  0.486764  0.987105  0.514143  1
  Ir  Ir6  1  0.014143  0.013236  0.012895  1
  Rh  Rh7  1  0.985615  0.514385  0.485615  1
  S  S8  1  0.383763  0.116237  0.883763  1
  S  S9  1  0.118651  0.885488  0.383536  1
  S  S10  1  0.883536  0.381349  0.114512  1
  S  S11  1  0.614512  0.616464  0.618651  1
