# generated using pymatgen
data_CeThPaCo2
_symmetry_space_group_name_H-M   'P 1'
_cell_length_a   5.96649579
_cell_length_b   5.96649493
_cell_length_c   5.96648900
_cell_angle_alpha   145.02042193
_cell_angle_beta   118.09129793
_cell_angle_gamma   73.12810509
_symmetry_Int_Tables_number   1
_chemical_formula_structural   CeThPaCo2
_chemical_formula_sum   'Ce1 Th1 Pa1 Co2'
_cell_volume   105.48621301
_cell_formula_units_Z   1
loop_
 _symmetry_equiv_pos_site_id
 _symmetry_equiv_pos_as_xyz
  1  'x, y, z'
loop_
 _atom_site_type_symbol
 _atom_site_label
 _atom_site_symmetry_multiplicity
 _atom_site_fract_x
 _atom_site_fract_y
 _atom_site_fract_z
 _atom_site_occupancy
  Ce  Ce0  1  0.304801  0.804801  0.500000  1
  Th  Th1  1  0.698044  0.198044  0.500000  1
  Pa  Pa2  1  0.005390  0.005390  0.000000  1
  Co  Co3  1  0.280041  0.495881  0.784158  1
  Co  Co4  1  0.711724  0.495882  0.215842  1
