# generated using pymatgen
data_Ho3PaAl14(Ga2Ir3)2
_symmetry_space_group_name_H-M   'P 1'
_cell_length_a   7.55229896
_cell_length_b   7.54570823
_cell_length_c   9.47799000
_cell_angle_alpha   90.00000000
_cell_angle_beta   90.00000000
_cell_angle_gamma   119.57411582
_symmetry_Int_Tables_number   1
_chemical_formula_structural   Ho3PaAl14(Ga2Ir3)2
_chemical_formula_sum   'Ho3 Pa1 Al14 Ga4 Ir6'
_cell_volume   469.75766899
_cell_formula_units_Z   1
loop_
 _symmetry_equiv_pos_site_id
 _symmetry_equiv_pos_as_xyz
  1  'x, y, z'
loop_
 _atom_site_type_symbol
 _atom_site_label
 _atom_site_symmetry_multiplicity
 _atom_site_fract_x
 _atom_site_fract_y
 _atom_site_fract_z
 _atom_site_occupancy
  Ho  Ho0  1  0.001994  0.326257  0.750000  1
  Ho  Ho1  1  0.671711  0.993722  0.250000  1
  Ho  Ho2  1  0.329805  0.005302  0.750000  1
  Pa  Pa3  1  0.998009  0.674833  0.250000  1
  Al  Al4  1  0.000887  0.332544  0.073958  1
  Al  Al5  1  0.999067  0.664499  0.921813  1
  Al  Al6  1  0.999067  0.664499  0.578187  1
  Al  Al7  1  0.339520  0.004866  0.426219  1
  Al  Al8  1  0.000887  0.332544  0.426042  1
  Al  Al9  1  0.664771  0.998818  0.574736  1
  Al  Al10  1  0.664771  0.998818  0.925264  1
  Al  Al11  1  0.339520  0.004866  0.073781  1
  Al  Al12  1  0.332473  0.332976  0.559287  1
  Al  Al13  1  0.662570  0.664770  0.445833  1
  Al  Al14  1  0.662570  0.664770  0.054167  1
  Al  Al15  1  0.332473  0.332976  0.940713  1
  Al  Al16  1  0.548693  0.341334  0.250000  1
  Al  Al17  1  0.448541  0.661432  0.750000  1
  Ga  Ga18  1  0.134485  0.135331  0.250000  1
  Ga  Ga19  1  0.870834  0.871865  0.750000  1
  Ga  Ga20  1  0.339317  0.545910  0.250000  1
  Ga  Ga21  1  0.659680  0.451297  0.750000  1
  Ir  Ir22  1  0.673028  0.329622  0.004019  1
  Ir  Ir23  1  0.326656  0.671801  0.999742  1
  Ir  Ir24  1  0.326656  0.671801  0.500258  1
  Ir  Ir25  1  0.673028  0.329622  0.495981  1
  Ir  Ir26  1  0.999495  0.996463  0.003416  1
  Ir  Ir27  1  0.999495  0.996463  0.496584  1
