# generated using pymatgen
data_PIrCl9
_symmetry_space_group_name_H-M   'P 1'
_cell_length_a   7.23542860
_cell_length_b   9.21295158
_cell_length_c   9.75130732
_cell_angle_alpha   101.73025241
_cell_angle_beta   96.70378665
_cell_angle_gamma   95.30594927
_symmetry_Int_Tables_number   1
_chemical_formula_structural   PIrCl9
_chemical_formula_sum   'P2 Ir2 Cl18'
_cell_volume   627.56245872
_cell_formula_units_Z   2
loop_
 _symmetry_equiv_pos_site_id
 _symmetry_equiv_pos_as_xyz
  1  'x, y, z'
loop_
 _atom_site_type_symbol
 _atom_site_label
 _atom_site_symmetry_multiplicity
 _atom_site_fract_x
 _atom_site_fract_y
 _atom_site_fract_z
 _atom_site_occupancy
  P  P0  1  0.548925  0.189170  0.779510  1
  P  P1  1  0.451075  0.810830  0.220490  1
  Ir  Ir2  1  0.894161  0.375188  0.339492  1
  Ir  Ir3  1  0.105839  0.624812  0.660509  1
  Cl  Cl4  1  0.653201  0.891152  0.129620  1
  Cl  Cl5  1  0.346799  0.108848  0.870380  1
  Cl  Cl6  1  0.204164  0.481284  0.453069  1
  Cl  Cl7  1  0.795836  0.518716  0.546931  1
  Cl  Cl8  1  0.079376  0.821811  0.548376  1
  Cl  Cl9  1  0.920624  0.178189  0.451624  1
  Cl  Cl10  1  0.996917  0.761936  0.857564  1
  Cl  Cl11  1  0.003083  0.238064  0.142436  1
  Cl  Cl12  1  0.121105  0.422670  0.767696  1
  Cl  Cl13  1  0.878895  0.577330  0.232304  1
  Cl  Cl14  1  0.414225  0.715134  0.756263  1
  Cl  Cl15  1  0.585775  0.284866  0.243737  1
  Cl  Cl16  1  0.448087  0.201145  0.587436  1
  Cl  Cl17  1  0.551913  0.798855  0.412564  1
  Cl  Cl18  1  0.744348  0.054118  0.770670  1
  Cl  Cl19  1  0.255652  0.945882  0.229330  1
  Cl  Cl20  1  0.656649  0.386531  0.888479  1
  Cl  Cl21  1  0.343351  0.613469  0.111521  1
