# generated using pymatgen
data_Y20In5HgRu2
_symmetry_space_group_name_H-M   'P 1'
_cell_length_a   9.78018087
_cell_length_b   9.87908446
_cell_length_c   9.69561300
_cell_angle_alpha   90.00000000
_cell_angle_beta   90.00000000
_cell_angle_gamma   120.33810403
_symmetry_Int_Tables_number   1
_chemical_formula_structural   Y20In5HgRu2
_chemical_formula_sum   'Y20 In5 Hg1 Ru2'
_cell_volume   808.49950808
_cell_formula_units_Z   1
loop_
 _symmetry_equiv_pos_site_id
 _symmetry_equiv_pos_as_xyz
  1  'x, y, z'
loop_
 _atom_site_type_symbol
 _atom_site_label
 _atom_site_symmetry_multiplicity
 _atom_site_fract_x
 _atom_site_fract_y
 _atom_site_fract_z
 _atom_site_occupancy
  Y  Y0  1  0.992673  0.996346  0.505915  1
  Y  Y1  1  0.992673  0.996346  0.994085  1
  Y  Y2  1  0.210873  0.790351  0.440593  1
  Y  Y3  1  0.210867  0.420522  0.440591  1
  Y  Y4  1  0.578215  0.789113  0.436792  1
  Y  Y5  1  0.790381  0.212214  0.559585  1
  Y  Y6  1  0.790377  0.578185  0.559584  1
  Y  Y7  1  0.419937  0.209979  0.562145  1
  Y  Y8  1  0.790381  0.212214  0.940415  1
  Y  Y9  1  0.790377  0.578185  0.940416  1
  Y  Y10  1  0.419937  0.209979  0.937855  1
  Y  Y11  1  0.210873  0.790351  0.059407  1
  Y  Y12  1  0.210867  0.420522  0.059409  1
  Y  Y13  1  0.578215  0.789113  0.063208  1
  Y  Y14  1  0.541786  0.459279  0.250000  1
  Y  Y15  1  0.541802  0.082525  0.250000  1
  Y  Y16  1  0.922517  0.461260  0.250000  1
  Y  Y17  1  0.464892  0.545064  0.750000  1
  Y  Y18  1  0.464896  0.919847  0.750000  1
  Y  Y19  1  0.082553  0.541289  0.750000  1
  In  In20  1  0.885028  0.120543  0.250000  1
  In  In21  1  0.885052  0.764503  0.250000  1
  In  In22  1  0.229930  0.114780  0.250000  1
  In  In23  1  0.119694  0.880300  0.750000  1
  In  In24  1  0.119686  0.239363  0.750000  1
  Hg  Hg25  1  0.758244  0.879148  0.750000  1
  Ru  Ru26  1  0.327957  0.663982  0.250000  1
  Ru  Ru27  1  0.669316  0.334694  0.750000  1
