# generated using pymatgen
data_Tb7Sn23Ru6
_symmetry_space_group_name_H-M   'P 1'
_cell_length_a   9.87474100
_cell_length_b   9.87473990
_cell_length_c   10.10317800
_cell_angle_alpha   90.00000000
_cell_angle_beta   90.00000000
_cell_angle_gamma   120.00000704
_symmetry_Int_Tables_number   1
_chemical_formula_structural   Tb7Sn23Ru6
_chemical_formula_sum   'Tb7 Sn23 Ru6'
_cell_volume   853.17865965
_cell_formula_units_Z   1
loop_
 _symmetry_equiv_pos_site_id
 _symmetry_equiv_pos_as_xyz
  1  'x, y, z'
loop_
 _atom_site_type_symbol
 _atom_site_label
 _atom_site_symmetry_multiplicity
 _atom_site_fract_x
 _atom_site_fract_y
 _atom_site_fract_z
 _atom_site_occupancy
  Tb  Tb0  1  0.000000  0.000000  0.000000  1
  Tb  Tb1  1  0.483954  0.516046  0.302768  1
  Tb  Tb2  1  0.516046  0.483954  0.697232  1
  Tb  Tb3  1  0.483954  0.967908  0.302768  1
  Tb  Tb4  1  0.516046  0.032092  0.697232  1
  Tb  Tb5  1  0.032092  0.516046  0.302768  1
  Tb  Tb6  1  0.967908  0.483954  0.697232  1
  Sn  Sn7  1  0.348796  0.000000  0.000000  1
  Sn  Sn8  1  0.651204  0.000000  0.000000  1
  Sn  Sn9  1  0.000000  0.348796  0.000000  1
  Sn  Sn10  1  0.000000  0.651204  0.000000  1
  Sn  Sn11  1  0.651204  0.651204  0.000000  1
  Sn  Sn12  1  0.348796  0.348796  0.000000  1
  Sn  Sn13  1  0.333333  0.666667  0.821100  1
  Sn  Sn14  1  0.666667  0.333333  0.178900  1
  Sn  Sn15  1  0.000000  0.000000  0.500000  1
  Sn  Sn16  1  0.780530  0.219470  0.461703  1
  Sn  Sn17  1  0.219470  0.780530  0.538297  1
  Sn  Sn18  1  0.780530  0.561060  0.461703  1
  Sn  Sn19  1  0.219470  0.438940  0.538297  1
  Sn  Sn20  1  0.438940  0.219470  0.461703  1
  Sn  Sn21  1  0.561060  0.780530  0.538297  1
  Sn  Sn22  1  0.333333  0.666667  0.125337  1
  Sn  Sn23  1  0.666667  0.333333  0.874663  1
  Sn  Sn24  1  0.117975  0.882025  0.273507  1
  Sn  Sn25  1  0.882025  0.117975  0.726493  1
  Sn  Sn26  1  0.117975  0.235951  0.273507  1
  Sn  Sn27  1  0.882025  0.764049  0.726493  1
  Sn  Sn28  1  0.764049  0.882025  0.273507  1
  Sn  Sn29  1  0.235951  0.117975  0.726493  1
  Ru  Ru30  1  0.830257  0.169743  0.202119  1
  Ru  Ru31  1  0.169743  0.830257  0.797881  1
  Ru  Ru32  1  0.830257  0.660513  0.202119  1
  Ru  Ru33  1  0.169743  0.339487  0.797881  1
  Ru  Ru34  1  0.339487  0.169743  0.202119  1
  Ru  Ru35  1  0.660513  0.830257  0.797881  1
