# generated using pymatgen
data_Ho2Cr(Fe3P2)3
_symmetry_space_group_name_H-M   'P 1'
_cell_length_a   3.65595400
_cell_length_b   10.29518900
_cell_length_c   11.84280300
_cell_angle_alpha   90.00000000
_cell_angle_beta   90.00000000
_cell_angle_gamma   90.00000000
_symmetry_Int_Tables_number   1
_chemical_formula_structural   Ho2Cr(Fe3P2)3
_chemical_formula_sum   'Ho4 Cr2 Fe18 P12'
_cell_volume   445.74815226
_cell_formula_units_Z   2
loop_
 _symmetry_equiv_pos_site_id
 _symmetry_equiv_pos_as_xyz
  1  'x, y, z'
loop_
 _atom_site_type_symbol
 _atom_site_label
 _atom_site_symmetry_multiplicity
 _atom_site_fract_x
 _atom_site_fract_y
 _atom_site_fract_z
 _atom_site_occupancy
  Ho  Ho0  1  0.250000  0.580892  0.704339  1
  Ho  Ho1  1  0.250000  0.919108  0.204339  1
  Ho  Ho2  1  0.750000  0.418994  0.295495  1
  Ho  Ho3  1  0.750000  0.081006  0.795495  1
  Cr  Cr4  1  0.250000  0.703331  0.989488  1
  Cr  Cr5  1  0.250000  0.796669  0.489488  1
  Fe  Fe6  1  0.750000  0.292826  0.011871  1
  Fe  Fe7  1  0.750000  0.207174  0.511871  1
  Fe  Fe8  1  0.250000  0.404026  0.490139  1
  Fe  Fe9  1  0.250000  0.095974  0.990139  1
  Fe  Fe10  1  0.750000  0.594497  0.509405  1
  Fe  Fe11  1  0.750000  0.905503  0.009405  1
  Fe  Fe12  1  0.250000  0.219503  0.176325  1
  Fe  Fe13  1  0.250000  0.280497  0.676325  1
  Fe  Fe14  1  0.750000  0.782087  0.824142  1
  Fe  Fe15  1  0.750000  0.717913  0.324142  1
  Fe  Fe16  1  0.250000  0.875483  0.701391  1
  Fe  Fe17  1  0.250000  0.624517  0.201391  1
  Fe  Fe18  1  0.750000  0.124436  0.299505  1
  Fe  Fe19  1  0.750000  0.375564  0.799505  1
  Fe  Fe20  1  0.250000  0.461948  0.932687  1
  Fe  Fe21  1  0.250000  0.038052  0.432687  1
  Fe  Fe22  1  0.750000  0.534136  0.066258  1
  Fe  Fe23  1  0.750000  0.965864  0.566258  1
  P  P24  1  0.250000  0.422768  0.113438  1
  P  P25  1  0.250000  0.077232  0.613438  1
  P  P26  1  0.750000  0.577865  0.886364  1
  P  P27  1  0.750000  0.922135  0.386364  1
  P  P28  1  0.250000  0.264920  0.870944  1
  P  P29  1  0.250000  0.235080  0.370944  1
  P  P30  1  0.750000  0.733247  0.130497  1
  P  P31  1  0.750000  0.766753  0.630497  1
  P  P32  1  0.250000  0.596954  0.393747  1
  P  P33  1  0.250000  0.903046  0.893747  1
  P  P34  1  0.750000  0.398442  0.603967  1
  P  P35  1  0.750000  0.101558  0.103967  1
