# generated using pymatgen
data_Hg2Pt3O8
_symmetry_space_group_name_H-M   'P 1'
_cell_length_a   6.43738926
_cell_length_b   6.43738934
_cell_length_c   6.43738882
_cell_angle_alpha   58.65905710
_cell_angle_beta   58.65906018
_cell_angle_gamma   58.65905514
_symmetry_Int_Tables_number   1
_chemical_formula_structural   Hg2Pt3O8
_chemical_formula_sum   'Hg2 Pt3 O8'
_cell_volume   182.85041538
_cell_formula_units_Z   1
loop_
 _symmetry_equiv_pos_site_id
 _symmetry_equiv_pos_as_xyz
  1  'x, y, z'
loop_
 _atom_site_type_symbol
 _atom_site_label
 _atom_site_symmetry_multiplicity
 _atom_site_fract_x
 _atom_site_fract_y
 _atom_site_fract_z
 _atom_site_occupancy
  Hg  Hg0  1  0.856721  0.856721  0.856721  1
  Hg  Hg1  1  0.143279  0.143279  0.143279  1
  Pt  Pt2  1  0.000000  0.500000  0.500000  1
  Pt  Pt3  1  0.500000  0.000000  0.500000  1
  Pt  Pt4  1  0.500000  0.500000  0.000000  1
  O  O5  1  0.605921  0.605921  0.605921  1
  O  O6  1  0.394079  0.394079  0.394079  1
  O  O7  1  0.117432  0.117432  0.556613  1
  O  O8  1  0.556613  0.117432  0.117432  1
  O  O9  1  0.117432  0.556613  0.117432  1
  O  O10  1  0.443387  0.882568  0.882568  1
  O  O11  1  0.882568  0.882568  0.443387  1
  O  O12  1  0.882568  0.443387  0.882568  1
