# generated using pymatgen
data_ErLuTcB8Rh
_symmetry_space_group_name_H-M   'P 1'
_cell_length_a   3.55509800
_cell_length_b   5.92552041
_cell_length_c   11.48518009
_cell_angle_alpha   90.19431373
_cell_angle_beta   90.00000000
_cell_angle_gamma   90.00000000
_symmetry_Int_Tables_number   1
_chemical_formula_structural   ErLuTcB8Rh
_chemical_formula_sum   'Er2 Lu2 Tc2 B16 Rh2'
_cell_volume   241.94318149
_cell_formula_units_Z   2
loop_
 _symmetry_equiv_pos_site_id
 _symmetry_equiv_pos_as_xyz
  1  'x, y, z'
loop_
 _atom_site_type_symbol
 _atom_site_label
 _atom_site_symmetry_multiplicity
 _atom_site_fract_x
 _atom_site_fract_y
 _atom_site_fract_z
 _atom_site_occupancy
  Er  Er0  1  0.500000  0.370774  0.149244  1
  Er  Er1  1  0.500000  0.629226  0.850756  1
  Lu  Lu2  1  0.500000  0.129913  0.648188  1
  Lu  Lu3  1  0.500000  0.870087  0.351812  1
  Tc  Tc4  1  0.500000  0.364243  0.411219  1
  Tc  Tc5  1  0.500000  0.635757  0.588781  1
  B  B6  1  0.000000  0.112583  0.048314  1
  B  B7  1  0.000000  0.887417  0.951686  1
  B  B8  1  0.000000  0.386426  0.547100  1
  B  B9  1  0.000000  0.613574  0.452900  1
  B  B10  1  0.000000  0.134194  0.469706  1
  B  B11  1  0.000000  0.865806  0.530294  1
  B  B12  1  0.000000  0.363973  0.969758  1
  B  B13  1  0.000000  0.636027  0.030242  1
  B  B14  1  0.000000  0.021208  0.194484  1
  B  B15  1  0.000000  0.978792  0.805516  1
  B  B16  1  0.000000  0.476272  0.692496  1
  B  B17  1  0.000000  0.523728  0.307504  1
  B  B18  1  0.000000  0.208601  0.314685  1
  B  B19  1  0.000000  0.791399  0.685315  1
  B  B20  1  0.000000  0.290385  0.812906  1
  B  B21  1  0.000000  0.709615  0.187094  1
  Rh  Rh22  1  0.500000  0.140634  0.904788  1
  Rh  Rh23  1  0.500000  0.859366  0.095212  1
