# generated using pymatgen
data_PrLu12Cr7(ReN4)12
_symmetry_space_group_name_H-M   'P 1'
_cell_length_a   10.82544718
_cell_length_b   10.85690510
_cell_length_c   10.85690600
_cell_angle_alpha   109.52984604
_cell_angle_beta   109.41253728
_cell_angle_gamma   109.41253386
_symmetry_Int_Tables_number   1
_chemical_formula_structural   PrLu12Cr7(ReN4)12
_chemical_formula_sum   'Pr1 Lu12 Cr7 Re12 N48'
_cell_volume   982.99221505
_cell_formula_units_Z   1
loop_
 _symmetry_equiv_pos_site_id
 _symmetry_equiv_pos_as_xyz
  1  'x, y, z'
loop_
 _atom_site_type_symbol
 _atom_site_label
 _atom_site_symmetry_multiplicity
 _atom_site_fract_x
 _atom_site_fract_y
 _atom_site_fract_z
 _atom_site_occupancy
  Pr  Pr0  1  0.500000  0.500000  0.000000  1
  Lu  Lu1  1  0.240240  0.367227  0.126075  1
  Lu  Lu2  1  0.373012  0.758848  0.132773  1
  Lu  Lu3  1  0.373206  0.125045  0.249165  1
  Lu  Lu4  1  0.885835  0.626075  0.258848  1
  Lu  Lu5  1  0.748161  0.124121  0.374955  1
  Lu  Lu6  1  0.124042  0.250835  0.375879  1
  Lu  Lu7  1  0.875957  0.749165  0.624121  1
  Lu  Lu8  1  0.251839  0.875879  0.625045  1
  Lu  Lu9  1  0.114165  0.373925  0.741152  1
  Lu  Lu10  1  0.626794  0.874954  0.750835  1
  Lu  Lu11  1  0.626988  0.241152  0.867227  1
  Lu  Lu12  1  0.759760  0.632773  0.873924  1
  Cr  Cr13  1  0.000000  0.000000  0.000000  1
  Cr  Cr14  1  0.500001  0.000000  0.000000  1
  Cr  Cr15  1  0.000000  0.500001  0.000000  1
  Cr  Cr16  1  0.000000  0.000000  0.500001  1
  Cr  Cr17  1  0.500000  0.000000  0.500000  1
  Cr  Cr18  1  0.000000  0.500000  0.500000  1
  Cr  Cr19  1  0.500001  0.500001  0.500001  1
  Re  Re20  1  0.875715  0.250657  0.124868  1
  Re  Re21  1  0.759186  0.884978  0.127318  1
  Re  Re22  1  0.631870  0.372682  0.257661  1
  Re  Re23  1  0.125058  0.874211  0.249343  1
  Re  Re24  1  0.249153  0.624869  0.374212  1
  Re  Re25  1  0.625791  0.757661  0.384978  1
  Re  Re26  1  0.374209  0.242339  0.615022  1
  Re  Re27  1  0.750847  0.375131  0.625788  1
  Re  Re28  1  0.874941  0.125788  0.750657  1
  Re  Re29  1  0.368130  0.627318  0.742339  1
  Re  Re30  1  0.240814  0.115021  0.872681  1
  Re  Re31  1  0.124284  0.749343  0.875131  1
  N  N32  1  0.205854  0.113627  0.026056  1
  N  N33  1  0.316952  0.902681  0.021439  1
  N  N34  1  0.884270  0.402445  0.084710  1
  N  N35  1  0.741193  0.704621  0.100244  1
  N  N36  1  0.640950  0.399756  0.104378  1
  N  N37  1  0.981825  0.682265  0.097555  1
  N  N38  1  0.024234  0.205239  0.120911  1
  N  N39  1  0.596654  0.910095  0.120718  1
  N  N40  1  0.200439  0.584710  0.182265  1
  N  N41  1  0.463430  0.604378  0.204621  1
  N  N42  1  0.115706  0.018799  0.202890  1
  N  N43  1  0.586486  0.178605  0.211127  1
  N  N44  1  0.475936  0.379282  0.289378  1
  N  N45  1  0.318995  0.915672  0.294761  1
  N  N46  1  0.907881  0.032522  0.321395  1
  N  N47  1  0.912817  0.297110  0.315909  1
  N  N48  1  0.295512  0.478561  0.381242  1
  N  N49  1  0.592227  0.912430  0.386374  1
  N  N50  1  0.820202  0.526056  0.412430  1
  N  N51  1  0.085729  0.881241  0.402681  1
  N  N52  1  0.096676  0.620911  0.415672  1
  N  N53  1  0.813442  0.789378  0.410096  1
  N  N54  1  0.596908  0.184091  0.481202  1
  N  N55  1  0.375359  0.288872  0.467478  1
  N  N56  1  0.624641  0.711127  0.532522  1
  N  N57  1  0.403093  0.815909  0.518799  1
  N  N58  1  0.186557  0.210621  0.589904  1
  N  N59  1  0.903325  0.379090  0.584328  1
  N  N60  1  0.914270  0.118758  0.597319  1
  N  N61  1  0.179798  0.473945  0.587571  1
  N  N62  1  0.407773  0.087571  0.613627  1
  N  N63  1  0.704487  0.521439  0.618758  1
  N  N64  1  0.087183  0.702890  0.684091  1
  N  N65  1  0.092119  0.967477  0.678605  1
  N  N66  1  0.681005  0.084328  0.705239  1
  N  N67  1  0.524064  0.620718  0.710621  1
  N  N68  1  0.413514  0.821394  0.788872  1
  N  N69  1  0.884295  0.981202  0.797111  1
  N  N70  1  0.536571  0.395623  0.795379  1
  N  N71  1  0.799560  0.415290  0.817734  1
  N  N72  1  0.403346  0.089904  0.879281  1
  N  N73  1  0.975767  0.794762  0.879090  1
  N  N74  1  0.018174  0.317735  0.902445  1
  N  N75  1  0.359051  0.600244  0.895623  1
  N  N76  1  0.258807  0.295379  0.899756  1
  N  N77  1  0.115729  0.597555  0.915289  1
  N  N78  1  0.683048  0.097319  0.978560  1
  N  N79  1  0.794147  0.886374  0.973945  1
