# generated using pymatgen
data_Dy4Si10Os5Ru
_symmetry_space_group_name_H-M   'P 1'
_cell_length_a   8.26262905
_cell_length_b   8.26262955
_cell_length_c   8.26263032
_cell_angle_alpha   140.00081436
_cell_angle_beta   108.37075705
_cell_angle_gamma   85.34140350
_symmetry_Int_Tables_number   1
_chemical_formula_structural   Dy4Si10Os5Ru
_chemical_formula_sum   'Dy4 Si10 Os5 Ru1'
_cell_volume   332.03037855
_cell_formula_units_Z   1
loop_
 _symmetry_equiv_pos_site_id
 _symmetry_equiv_pos_as_xyz
  1  'x, y, z'
loop_
 _atom_site_type_symbol
 _atom_site_label
 _atom_site_symmetry_multiplicity
 _atom_site_fract_x
 _atom_site_fract_y
 _atom_site_fract_z
 _atom_site_occupancy
  Dy  Dy0  1  0.904418  0.137090  0.768795  1
  Dy  Dy1  1  0.095582  0.864377  0.232672  1
  Dy  Dy2  1  0.631705  0.362910  0.267328  1
  Dy  Dy3  1  0.368295  0.635623  0.731205  1
  Si  Si4  1  0.000000  0.750000  0.750000  1
  Si  Si5  1  0.000000  0.250000  0.250000  1
  Si  Si6  1  0.707987  0.457987  0.750000  1
  Si  Si7  1  0.292013  0.042013  0.750000  1
  Si  Si8  1  0.292514  0.542514  0.250000  1
  Si  Si9  1  0.707486  0.957486  0.250000  1
  Si  Si10  1  0.236834  0.405646  0.833013  1
  Si  Si11  1  0.572632  0.903822  0.666987  1
  Si  Si12  1  0.427368  0.094354  0.331189  1
  Si  Si13  1  0.763166  0.596178  0.168811  1
  Os  Os14  1  0.757109  0.853207  0.904054  1
  Os  Os15  1  0.500000  0.250000  0.750000  1
  Os  Os16  1  0.949154  0.353055  0.595946  1
  Os  Os17  1  0.050846  0.646793  0.403902  1
  Os  Os18  1  0.242891  0.146945  0.096098  1
  Ru  Ru19  1  0.500000  0.750000  0.250000  1
