# generated using pymatgen
data_Ho3Er5CdInNi2
_symmetry_space_group_name_H-M   'P 1'
_cell_length_a   9.47006812
_cell_length_b   9.47070505
_cell_length_c   9.46888405
_cell_angle_alpha   59.99937268
_cell_angle_beta   60.00836220
_cell_angle_gamma   60.11230517
_symmetry_Int_Tables_number   1
_chemical_formula_structural   Ho3Er5CdInNi2
_chemical_formula_sum   'Ho6 Er10 Cd2 In2 Ni4'
_cell_volume   601.05178074
_cell_formula_units_Z   2
loop_
 _symmetry_equiv_pos_site_id
 _symmetry_equiv_pos_as_xyz
  1  'x, y, z'
loop_
 _atom_site_type_symbol
 _atom_site_label
 _atom_site_symmetry_multiplicity
 _atom_site_fract_x
 _atom_site_fract_y
 _atom_site_fract_z
 _atom_site_occupancy
  Ho  Ho0  1  0.347797  0.347744  0.347893  1
  Ho  Ho1  1  0.347885  0.347647  0.956577  1
  Ho  Ho2  1  0.350108  0.953099  0.348345  1
  Ho  Ho3  1  0.953028  0.350056  0.348507  1
  Ho  Ho4  1  0.811641  0.188789  0.188102  1
  Ho  Ho5  1  0.188809  0.811718  0.811362  1
  Er  Er6  1  0.188929  0.811545  0.188243  1
  Er  Er7  1  0.811473  0.188916  0.811380  1
  Er  Er8  1  0.187759  0.187757  0.812243  1
  Er  Er9  1  0.810731  0.810909  0.189181  1
  Er  Er10  1  0.937692  0.564133  0.563839  1
  Er  Er11  1  0.564151  0.937713  0.934337  1
  Er  Er12  1  0.564170  0.937727  0.563776  1
  Er  Er13  1  0.937687  0.564096  0.934389  1
  Er  Er14  1  0.564535  0.564446  0.935522  1
  Er  Er15  1  0.937389  0.937435  0.562576  1
  Cd  Cd16  1  0.580590  0.253659  0.582917  1
  Cd  Cd17  1  0.253660  0.580608  0.582834  1
  In  In18  1  0.581696  0.581615  0.583256  1
  In  In19  1  0.581642  0.581709  0.253426  1
  Ni  Ni20  1  0.142051  0.141909  0.143276  1
  Ni  Ni21  1  0.141909  0.142055  0.572721  1
  Ni  Ni22  1  0.141327  0.573370  0.142724  1
  Ni  Ni23  1  0.573340  0.141347  0.142576  1
