# generated using pymatgen
data_AcLu(TcO4)6
_symmetry_space_group_name_H-M   'P 1'
_cell_length_a   10.02069100
_cell_length_b   10.02069128
_cell_length_c   6.01604700
_cell_angle_alpha   90.00000000
_cell_angle_beta   90.00000000
_cell_angle_gamma   120.00000239
_symmetry_Int_Tables_number   1
_chemical_formula_structural   AcLu(TcO4)6
_chemical_formula_sum   'Ac1 Lu1 Tc6 O24'
_cell_volume   523.16320829
_cell_formula_units_Z   1
loop_
 _symmetry_equiv_pos_site_id
 _symmetry_equiv_pos_as_xyz
  1  'x, y, z'
loop_
 _atom_site_type_symbol
 _atom_site_label
 _atom_site_symmetry_multiplicity
 _atom_site_fract_x
 _atom_site_fract_y
 _atom_site_fract_z
 _atom_site_occupancy
  Ac  Ac0  1  0.333333  0.666667  0.250000  1
  Lu  Lu1  1  0.666667  0.333333  0.750000  1
  Tc  Tc2  1  0.068498  0.365974  0.750000  1
  Tc  Tc3  1  0.399459  0.297019  0.250000  1
  Tc  Tc4  1  0.634026  0.702520  0.750000  1
  Tc  Tc5  1  0.897558  0.600541  0.250000  1
  Tc  Tc6  1  0.297480  0.931502  0.750000  1
  Tc  Tc7  1  0.702981  0.102442  0.250000  1
  O  O8  1  0.512642  0.647482  0.519076  1
  O  O9  1  0.352518  0.865158  0.519076  1
  O  O10  1  0.812936  0.712571  0.250000  1
  O  O11  1  0.102939  0.862536  0.750000  1
  O  O12  1  0.287429  0.100365  0.250000  1
  O  O13  1  0.137464  0.240402  0.750000  1
  O  O14  1  0.519497  0.361021  0.016017  1
  O  O15  1  0.899635  0.187064  0.250000  1
  O  O16  1  0.095958  0.717781  0.250000  1
  O  O17  1  0.134842  0.487358  0.980924  1
  O  O18  1  0.134842  0.487358  0.519076  1
  O  O19  1  0.868554  0.269234  0.750000  1
  O  O20  1  0.282219  0.378176  0.250000  1
  O  O21  1  0.730766  0.599319  0.750000  1
  O  O22  1  0.841523  0.480503  0.483983  1
  O  O23  1  0.400681  0.131446  0.750000  1
  O  O24  1  0.638979  0.158477  0.016017  1
  O  O25  1  0.512642  0.647482  0.980924  1
  O  O26  1  0.352518  0.865158  0.980924  1
  O  O27  1  0.638979  0.158477  0.483983  1
  O  O28  1  0.519497  0.361021  0.483983  1
  O  O29  1  0.841523  0.480503  0.016017  1
  O  O30  1  0.759598  0.897061  0.750000  1
  O  O31  1  0.621824  0.904042  0.250000  1
