# generated using pymatgen
data_GdTm4(RhO6)2
_symmetry_space_group_name_H-M   'P 1'
_cell_length_a   6.78983519
_cell_length_b   6.78983403
_cell_length_c   7.21363400
_cell_angle_alpha   74.52094749
_cell_angle_beta   74.52095021
_cell_angle_gamma   51.22062146
_symmetry_Int_Tables_number   1
_chemical_formula_structural   GdTm4(RhO6)2
_chemical_formula_sum   'Gd1 Tm4 Rh2 O12'
_cell_volume   247.63840715
_cell_formula_units_Z   1
loop_
 _symmetry_equiv_pos_site_id
 _symmetry_equiv_pos_as_xyz
  1  'x, y, z'
loop_
 _atom_site_type_symbol
 _atom_site_label
 _atom_site_symmetry_multiplicity
 _atom_site_fract_x
 _atom_site_fract_y
 _atom_site_fract_z
 _atom_site_occupancy
  Gd  Gd0  1  0.500000  0.500000  0.500000  1
  Tm  Tm1  1  0.191852  0.191852  0.169977  1
  Tm  Tm2  1  0.808148  0.808148  0.830023  1
  Tm  Tm3  1  0.802032  0.802032  0.360371  1
  Tm  Tm4  1  0.197968  0.197968  0.639629  1
  Rh  Rh5  1  0.748746  0.251254  0.000000  1
  Rh  Rh6  1  0.251254  0.748746  0.000000  1
  O  O7  1  0.999927  0.999927  0.195732  1
  O  O8  1  0.000073  0.000073  0.804268  1
  O  O9  1  0.499752  0.499752  0.818398  1
  O  O10  1  0.500248  0.500248  0.181602  1
  O  O11  1  0.597122  0.091372  0.575705  1
  O  O12  1  0.908628  0.402878  0.424295  1
  O  O13  1  0.402878  0.908628  0.424295  1
  O  O14  1  0.401442  0.934330  0.914551  1
  O  O15  1  0.065670  0.598558  0.085449  1
  O  O16  1  0.598558  0.065670  0.085449  1
  O  O17  1  0.934330  0.401442  0.914551  1
  O  O18  1  0.091372  0.597122  0.575705  1
