# generated using pymatgen
data_YPa3(GeIr)4
_symmetry_space_group_name_H-M   'P 1'
_cell_length_a   4.33764700
_cell_length_b   6.96754722
_cell_length_c   7.66826157
_cell_angle_alpha   90.40849795
_cell_angle_beta   90.00000000
_cell_angle_gamma   90.00000000
_symmetry_Int_Tables_number   1
_chemical_formula_structural   YPa3(GeIr)4
_chemical_formula_sum   'Y1 Pa3 Ge4 Ir4'
_cell_volume   231.75014095
_cell_formula_units_Z   1
loop_
 _symmetry_equiv_pos_site_id
 _symmetry_equiv_pos_as_xyz
  1  'x, y, z'
loop_
 _atom_site_type_symbol
 _atom_site_label
 _atom_site_symmetry_multiplicity
 _atom_site_fract_x
 _atom_site_fract_y
 _atom_site_fract_z
 _atom_site_occupancy
  Y  Y0  1  0.750000  0.508091  0.798075  1
  Pa  Pa1  1  0.250000  0.993628  0.297273  1
  Pa  Pa2  1  0.250000  0.494964  0.203700  1
  Pa  Pa3  1  0.750000  0.007928  0.698940  1
  Ge  Ge4  1  0.250000  0.320160  0.591013  1
  Ge  Ge5  1  0.250000  0.816119  0.913832  1
  Ge  Ge6  1  0.750000  0.677840  0.418639  1
  Ge  Ge7  1  0.750000  0.187037  0.080140  1
  Ir  Ir8  1  0.250000  0.210148  0.913493  1
  Ir  Ir9  1  0.250000  0.733828  0.580641  1
  Ir  Ir10  1  0.750000  0.778482  0.094271  1
  Ir  Ir11  1  0.750000  0.271775  0.409984  1
