# generated using pymatgen
data_Hf5NbRe5Si6W
_symmetry_space_group_name_H-M   'P 1'
_cell_length_a   7.74444618
_cell_length_b   7.74035891
_cell_length_c   7.74119269
_cell_angle_alpha   126.41874548
_cell_angle_beta   127.88900514
_cell_angle_gamma   78.01094118
_symmetry_Int_Tables_number   1
_chemical_formula_structural   Hf5NbRe5Si6W
_chemical_formula_sum   'Hf5 Nb1 Re5 Si6 W1'
_cell_volume   285.56808038
_cell_formula_units_Z   1
loop_
 _symmetry_equiv_pos_site_id
 _symmetry_equiv_pos_as_xyz
  1  'x, y, z'
loop_
 _atom_site_type_symbol
 _atom_site_label
 _atom_site_symmetry_multiplicity
 _atom_site_fract_x
 _atom_site_fract_y
 _atom_site_fract_z
 _atom_site_occupancy
  Hf  Hf0  1  0.550195  0.090385  0.040818  1
  Hf  Hf1  1  0.451747  0.497514  0.545346  1
  Hf  Hf2  1  0.950401  0.490866  0.041123  1
  Hf  Hf3  1  0.047740  0.093280  0.544988  1
  Hf  Hf4  1  0.750145  0.900561  0.650566  1
  Nb  Nb5  1  0.251681  0.906361  0.158021  1
  Re  Re6  1  0.002265  0.240676  0.242991  1
  Re  Re7  1  0.127573  0.753035  0.625167  1
  Re  Re8  1  0.872180  0.497482  0.625180  1
  Re  Re9  1  0.627917  0.754690  0.126476  1
  Re  Re10  1  0.371725  0.498512  0.126446  1
  Si  Si11  1  0.750098  0.497782  0.248013  1
  Si  Si12  1  0.249034  0.502360  0.751470  1
  Si  Si13  1  0.330194  0.828318  0.491499  1
  Si  Si14  1  0.663319  0.161486  0.491585  1
  Si  Si15  1  0.838343  0.829272  0.998825  1
  Si  Si16  1  0.169682  0.160629  0.998861  1
  W  W17  1  0.495760  0.238988  0.734824  1
