# generated using pymatgen
data_CaLaZn21Pd
_symmetry_space_group_name_H-M   'P 1'
_cell_length_a   8.30233187
_cell_length_b   8.33815665
_cell_length_c   8.33815535
_cell_angle_alpha   99.77057920
_cell_angle_beta   100.23756559
_cell_angle_gamma   131.00685802
_symmetry_Int_Tables_number   1
_chemical_formula_structural   CaLaZn21Pd
_chemical_formula_sum   'Ca1 La1 Zn21 Pd1'
_cell_volume   395.51042684
_cell_formula_units_Z   1
loop_
 _symmetry_equiv_pos_site_id
 _symmetry_equiv_pos_as_xyz
  1  'x, y, z'
loop_
 _atom_site_type_symbol
 _atom_site_label
 _atom_site_symmetry_multiplicity
 _atom_site_fract_x
 _atom_site_fract_y
 _atom_site_fract_z
 _atom_site_occupancy
  Ca  Ca0  1  0.748505  0.247196  0.501308  1
  La  La1  1  0.495690  0.500130  0.995561  1
  Zn  Zn2  1  0.926014  0.599404  0.916863  1
  Zn  Zn3  1  0.844220  0.430801  0.170357  1
  Zn  Zn4  1  0.257352  0.673554  0.826708  1
  Zn  Zn5  1  0.684157  0.011883  0.084844  1
  Zn  Zn6  1  0.403914  0.075123  0.087391  1
  Zn  Zn7  1  0.989444  0.316041  0.915481  1
  Zn  Zn8  1  0.568995  0.153676  0.829619  1
  Zn  Zn9  1  0.326630  0.742592  0.172300  1
  Zn  Zn10  1  0.326630  0.154330  0.584039  1
  Zn  Zn11  1  0.403914  0.316523  0.328791  1
  Zn  Zn12  1  0.989444  0.073962  0.673401  1
  Zn  Zn13  1  0.568995  0.739374  0.415318  1
  Zn  Zn14  1  0.844220  0.673863  0.413419  1
  Zn  Zn15  1  0.257352  0.430644  0.583798  1
  Zn  Zn16  1  0.684157  0.599314  0.672276  1
  Zn  Zn17  1  0.926014  0.009150  0.326610  1
  Zn  Zn18  1  0.127997  0.378548  0.250910  1
  Zn  Zn19  1  0.127997  0.877087  0.749448  1
  Zn  Zn20  1  0.620784  0.872084  0.748700  1
  Zn  Zn21  1  0.248874  0.754862  0.494012  1
  Zn  Zn22  1  0.002210  0.996164  0.006047  1
  Pd  Pd23  1  0.126495  0.873695  0.252800  1
