# generated using pymatgen
data_La2DyY(NiAs)4
_symmetry_space_group_name_H-M   'P 1'
_cell_length_a   4.10983100
_cell_length_b   4.10983121
_cell_length_c   16.08235700
_cell_angle_alpha   90.00000000
_cell_angle_beta   90.00000000
_cell_angle_gamma   120.00000639
_symmetry_Int_Tables_number   1
_chemical_formula_structural   La2DyY(NiAs)4
_chemical_formula_sum   'La2 Dy1 Y1 Ni4 As4'
_cell_volume   235.24925200
_cell_formula_units_Z   1
loop_
 _symmetry_equiv_pos_site_id
 _symmetry_equiv_pos_as_xyz
  1  'x, y, z'
loop_
 _atom_site_type_symbol
 _atom_site_label
 _atom_site_symmetry_multiplicity
 _atom_site_fract_x
 _atom_site_fract_y
 _atom_site_fract_z
 _atom_site_occupancy
  La  La0  1  0.000000  0.000000  0.999928  1
  La  La1  1  0.000000  0.000000  0.500139  1
  Dy  Dy2  1  0.000000  0.000000  0.749971  1
  Y  Y3  1  0.000000  0.000000  0.249916  1
  Ni  Ni4  1  0.333333  0.666667  0.138730  1
  Ni  Ni5  1  0.666667  0.333333  0.860834  1
  Ni  Ni6  1  0.666667  0.333333  0.639178  1
  Ni  Ni7  1  0.333333  0.666667  0.361294  1
  As  As8  1  0.333333  0.666667  0.627628  1
  As  As9  1  0.666667  0.333333  0.372720  1
  As  As10  1  0.666667  0.333333  0.127276  1
  As  As11  1  0.333333  0.666667  0.872386  1
