# generated using pymatgen
data_La2TbDy(Zn5Ge)2
_symmetry_space_group_name_H-M   'P 1'
_cell_length_a   8.36422005
_cell_length_b   8.36421959
_cell_length_c   8.89480200
_cell_angle_alpha   90.00000000
_cell_angle_beta   90.00000000
_cell_angle_gamma   149.49830141
_symmetry_Int_Tables_number   1
_chemical_formula_structural   La2TbDy(Zn5Ge)2
_chemical_formula_sum   'La2 Tb1 Dy1 Zn10 Ge2'
_cell_volume   315.84782645
_cell_formula_units_Z   1
loop_
 _symmetry_equiv_pos_site_id
 _symmetry_equiv_pos_as_xyz
  1  'x, y, z'
loop_
 _atom_site_type_symbol
 _atom_site_label
 _atom_site_symmetry_multiplicity
 _atom_site_fract_x
 _atom_site_fract_y
 _atom_site_fract_z
 _atom_site_occupancy
  La  La0  1  0.000021  0.999979  0.499967  1
  La  La1  1  0.000021  0.999979  0.000033  1
  Tb  Tb2  1  0.798179  0.201821  0.750000  1
  Dy  Dy3  1  0.201805  0.798195  0.250000  1
  Zn  Zn4  1  0.812426  0.187574  0.390861  1
  Zn  Zn5  1  0.187548  0.812452  0.609032  1
  Zn  Zn6  1  0.812426  0.187574  0.109139  1
  Zn  Zn7  1  0.187548  0.812452  0.890968  1
  Zn  Zn8  1  0.655218  0.344782  0.476891  1
  Zn  Zn9  1  0.344781  0.655219  0.523013  1
  Zn  Zn10  1  0.655218  0.344782  0.023109  1
  Zn  Zn11  1  0.344781  0.655219  0.976987  1
  Zn  Zn12  1  0.399711  0.600289  0.250000  1
  Zn  Zn13  1  0.600261  0.399739  0.750000  1
  Ge  Ge14  1  0.559011  0.440989  0.250000  1
  Ge  Ge15  1  0.441044  0.558956  0.750000  1
