# generated using pymatgen
data_Cs12GaMo3S16
_symmetry_space_group_name_H-M   'P 1'
_cell_length_a   9.97780827
_cell_length_b   10.11982209
_cell_length_c   11.79433200
_cell_angle_alpha   90.00000000
_cell_angle_beta   90.00000000
_cell_angle_gamma   89.44471639
_symmetry_Int_Tables_number   1
_chemical_formula_structural   Cs12GaMo3S16
_chemical_formula_sum   'Cs12 Ga1 Mo3 S16'
_cell_volume   1190.86075810
_cell_formula_units_Z   1
loop_
 _symmetry_equiv_pos_site_id
 _symmetry_equiv_pos_as_xyz
  1  'x, y, z'
loop_
 _atom_site_type_symbol
 _atom_site_label
 _atom_site_symmetry_multiplicity
 _atom_site_fract_x
 _atom_site_fract_y
 _atom_site_fract_z
 _atom_site_occupancy
  Cs  Cs0  1  0.539623  0.715020  0.034090  1
  Cs  Cs1  1  0.055476  0.803234  0.472968  1
  Cs  Cs2  1  0.438318  0.279047  0.548793  1
  Cs  Cs3  1  0.971640  0.193223  0.943306  1
  Cs  Cs4  1  0.438318  0.279047  0.951207  1
  Cs  Cs5  1  0.971640  0.193223  0.556694  1
  Cs  Cs6  1  0.539623  0.715020  0.465910  1
  Cs  Cs7  1  0.055476  0.803234  0.027032  1
  Cs  Cs8  1  0.347407  0.079250  0.250000  1
  Cs  Cs9  1  0.851619  0.412083  0.250000  1
  Cs  Cs10  1  0.636438  0.922430  0.750000  1
  Cs  Cs11  1  0.155887  0.594264  0.750000  1
  Ga  Ga12  1  0.226156  0.019238  0.750000  1
  Mo  Mo13  1  0.274546  0.517999  0.250000  1
  Mo  Mo14  1  0.776113  0.980975  0.250000  1
  Mo  Mo15  1  0.726422  0.480996  0.750000  1
  S  S16  1  0.290418  0.736719  0.250000  1
  S  S17  1  0.790249  0.761265  0.250000  1
  S  S18  1  0.709068  0.263210  0.750000  1
  S  S19  1  0.206973  0.252796  0.750000  1
  S  S20  1  0.479827  0.428641  0.250000  1
  S  S21  1  0.980826  0.067531  0.250000  1
  S  S22  1  0.521790  0.568342  0.750000  1
  S  S23  1  0.009833  0.930384  0.750000  1
  S  S24  1  0.165791  0.457031  0.094506  1
  S  S25  1  0.668880  0.046752  0.404278  1
  S  S26  1  0.832493  0.542226  0.593880  1
  S  S27  1  0.335991  0.955403  0.916519  1
  S  S28  1  0.832493  0.542226  0.906120  1
  S  S29  1  0.335991  0.955403  0.583481  1
  S  S30  1  0.165791  0.457031  0.405494  1
  S  S31  1  0.668880  0.046752  0.095722  1
