# generated using pymatgen
data_Yb4CrB16Ru3
_symmetry_space_group_name_H-M   'P 1'
_cell_length_a   3.50386900
_cell_length_b   5.94039860
_cell_length_c   11.49645725
_cell_angle_alpha   89.88505479
_cell_angle_beta   90.00000000
_cell_angle_gamma   90.00000000
_symmetry_Int_Tables_number   1
_chemical_formula_structural   Yb4CrB16Ru3
_chemical_formula_sum   'Yb4 Cr1 B16 Ru3'
_cell_volume   239.29113113
_cell_formula_units_Z   1
loop_
 _symmetry_equiv_pos_site_id
 _symmetry_equiv_pos_as_xyz
  1  'x, y, z'
loop_
 _atom_site_type_symbol
 _atom_site_label
 _atom_site_symmetry_multiplicity
 _atom_site_fract_x
 _atom_site_fract_y
 _atom_site_fract_z
 _atom_site_occupancy
  Yb  Yb0  1  0.000000  0.626793  0.349297  1
  Yb  Yb1  1  0.000000  0.373832  0.650600  1
  Yb  Yb2  1  0.000000  0.129267  0.150776  1
  Yb  Yb3  1  0.000000  0.871098  0.848659  1
  Cr  Cr4  1  0.000000  0.872314  0.581818  1
  B  B5  1  0.500000  0.785303  0.185609  1
  B  B6  1  0.500000  0.214136  0.814502  1
  B  B7  1  0.500000  0.284850  0.316212  1
  B  B8  1  0.500000  0.716148  0.683662  1
  B  B9  1  0.500000  0.864726  0.031118  1
  B  B10  1  0.500000  0.135218  0.968761  1
  B  B11  1  0.500000  0.364068  0.468552  1
  B  B12  1  0.500000  0.637198  0.532716  1
  B  B13  1  0.500000  0.885848  0.453122  1
  B  B14  1  0.500000  0.113554  0.547656  1
  B  B15  1  0.500000  0.387173  0.047388  1
  B  B16  1  0.500000  0.612871  0.952604  1
  B  B17  1  0.500000  0.977015  0.308435  1
  B  B18  1  0.500000  0.021004  0.691357  1
  B  B19  1  0.500000  0.474893  0.192339  1
  B  B20  1  0.500000  0.524936  0.807274  1
  Ru  Ru21  1  0.000000  0.635256  0.087483  1
  Ru  Ru22  1  0.000000  0.364828  0.913240  1
  Ru  Ru23  1  0.000000  0.127670  0.416819  1
