# generated using pymatgen
data_Er5Al3Co3Si4
_symmetry_space_group_name_H-M   'P 1'
_cell_length_a   4.13927000
_cell_length_b   18.99081500
_cell_length_c   6.80301700
_cell_angle_alpha   90.00000000
_cell_angle_beta   90.00000000
_cell_angle_gamma   90.00000000
_symmetry_Int_Tables_number   1
_chemical_formula_structural   Er5Al3Co3Si4
_chemical_formula_sum   'Er10 Al6 Co6 Si8'
_cell_volume   534.77231414
_cell_formula_units_Z   2
loop_
 _symmetry_equiv_pos_site_id
 _symmetry_equiv_pos_as_xyz
  1  'x, y, z'
loop_
 _atom_site_type_symbol
 _atom_site_label
 _atom_site_symmetry_multiplicity
 _atom_site_fract_x
 _atom_site_fract_y
 _atom_site_fract_z
 _atom_site_occupancy
  Er  Er0  1  0.750000  0.120832  0.001200  1
  Er  Er1  1  0.750000  0.379168  0.001200  1
  Er  Er2  1  0.750000  0.250000  0.380678  1
  Er  Er3  1  0.750000  0.071893  0.504127  1
  Er  Er4  1  0.750000  0.428106  0.504127  1
  Er  Er5  1  0.250001  0.571893  0.495873  1
  Er  Er6  1  0.250001  0.928107  0.495873  1
  Er  Er7  1  0.250001  0.750000  0.619322  1
  Er  Er8  1  0.250001  0.620832  0.998800  1
  Er  Er9  1  0.250001  0.879168  0.998800  1
  Al  Al10  1  0.250001  0.250000  0.028563  1
  Al  Al11  1  0.750000  0.678914  0.320535  1
  Al  Al12  1  0.750000  0.821086  0.320535  1
  Al  Al13  1  0.250001  0.178914  0.679465  1
  Al  Al14  1  0.250001  0.321086  0.679465  1
  Al  Al15  1  0.750000  0.750000  0.971437  1
  Co  Co16  1  0.250001  0.023133  0.155507  1
  Co  Co17  1  0.250001  0.476867  0.155507  1
  Co  Co18  1  0.250001  0.750000  0.211971  1
  Co  Co19  1  0.750000  0.250000  0.788029  1
  Co  Co20  1  0.750000  0.523133  0.844493  1
  Co  Co21  1  0.750000  0.976867  0.844493  1
  Si  Si22  1  0.750000  0.533742  0.192449  1
  Si  Si23  1  0.750000  0.966258  0.192449  1
  Si  Si24  1  0.250001  0.142640  0.286930  1
  Si  Si25  1  0.250001  0.357360  0.286930  1
  Si  Si26  1  0.750000  0.642640  0.713070  1
  Si  Si27  1  0.750000  0.857360  0.713070  1
  Si  Si28  1  0.250001  0.033743  0.807551  1
  Si  Si29  1  0.250001  0.466257  0.807551  1
