# generated using pymatgen
data_Pr3Nd9Rh4
_symmetry_space_group_name_H-M   'P 1'
_cell_length_a   7.37670431
_cell_length_b   9.97838600
_cell_length_c   6.49821527
_cell_angle_alpha   90.00000000
_cell_angle_beta   89.96681868
_cell_angle_gamma   90.00000000
_symmetry_Int_Tables_number   1
_chemical_formula_structural   Pr3Nd9Rh4
_chemical_formula_sum   'Pr3 Nd9 Rh4'
_cell_volume   478.31796981
_cell_formula_units_Z   1
loop_
 _symmetry_equiv_pos_site_id
 _symmetry_equiv_pos_as_xyz
  1  'x, y, z'
loop_
 _atom_site_type_symbol
 _atom_site_label
 _atom_site_symmetry_multiplicity
 _atom_site_fract_x
 _atom_site_fract_y
 _atom_site_fract_z
 _atom_site_occupancy
  Pr  Pr0  1  0.034046  0.250000  0.143693  1
  Pr  Pr1  1  0.534066  0.250000  0.356258  1
  Pr  Pr2  1  0.465960  0.750000  0.643966  1
  Nd  Nd3  1  0.324021  0.566358  0.167283  1
  Nd  Nd4  1  0.324021  0.933643  0.167283  1
  Nd  Nd5  1  0.824195  0.566496  0.332537  1
  Nd  Nd6  1  0.824195  0.933505  0.332537  1
  Nd  Nd7  1  0.175828  0.066216  0.667407  1
  Nd  Nd8  1  0.175828  0.433784  0.667407  1
  Nd  Nd9  1  0.676035  0.066293  0.832697  1
  Nd  Nd10  1  0.676035  0.433707  0.832697  1
  Nd  Nd11  1  0.965534  0.750000  0.856030  1
  Rh  Rh12  1  0.620674  0.750000  0.070049  1
  Rh  Rh13  1  0.119879  0.750000  0.430128  1
  Rh  Rh14  1  0.879842  0.250000  0.570443  1
  Rh  Rh15  1  0.379846  0.250000  0.929579  1
