# generated using pymatgen
data_Zr3TiVSn3N
_symmetry_space_group_name_H-M   'P 1'
_cell_length_a   8.27308500
_cell_length_b   8.27308408
_cell_length_c   5.54516000
_cell_angle_alpha   90.00000000
_cell_angle_beta   90.00000000
_cell_angle_gamma   119.99999969
_symmetry_Int_Tables_number   1
_chemical_formula_structural   Zr3TiVSn3N
_chemical_formula_sum   'Zr6 Ti2 V2 Sn6 N2'
_cell_volume   328.68481403
_cell_formula_units_Z   2
loop_
 _symmetry_equiv_pos_site_id
 _symmetry_equiv_pos_as_xyz
  1  'x, y, z'
loop_
 _atom_site_type_symbol
 _atom_site_label
 _atom_site_symmetry_multiplicity
 _atom_site_fract_x
 _atom_site_fract_y
 _atom_site_fract_z
 _atom_site_occupancy
  Zr  Zr0  1  0.776065  0.776065  0.748973  1
  Zr  Zr1  1  0.223935  0.000000  0.748973  1
  Zr  Zr2  1  0.000000  0.223935  0.748973  1
  Zr  Zr3  1  0.223935  0.223935  0.251027  1
  Zr  Zr4  1  0.776065  0.000000  0.251027  1
  Zr  Zr5  1  0.000000  0.776065  0.251027  1
  Ti  Ti6  1  0.333333  0.666667  0.500000  1
  Ti  Ti7  1  0.666667  0.333333  0.500000  1
  V  V8  1  0.666667  0.333333  0.000000  1
  V  V9  1  0.333333  0.666667  0.000000  1
  Sn  Sn10  1  0.412300  0.412300  0.754929  1
  Sn  Sn11  1  0.587700  0.000000  0.754929  1
  Sn  Sn12  1  0.000000  0.587700  0.754929  1
  Sn  Sn13  1  0.587700  0.587700  0.245071  1
  Sn  Sn14  1  0.412300  0.000000  0.245071  1
  Sn  Sn15  1  0.000000  0.412300  0.245071  1
  N  N16  1  0.000000  0.000000  0.000000  1
  N  N17  1  0.000000  0.000000  0.500000  1
