# generated using pymatgen
data_Er3Tm7(Ga2Sb)2
_symmetry_space_group_name_H-M   'P 1'
_cell_length_a   8.57705207
_cell_length_b   8.59988657
_cell_length_c   6.44934700
_cell_angle_alpha   90.00000000
_cell_angle_beta   90.00000000
_cell_angle_gamma   120.07046410
_symmetry_Int_Tables_number   1
_chemical_formula_structural   Er3Tm7(Ga2Sb)2
_chemical_formula_sum   'Er3 Tm7 Ga4 Sb2'
_cell_volume   411.68812467
_cell_formula_units_Z   1
loop_
 _symmetry_equiv_pos_site_id
 _symmetry_equiv_pos_as_xyz
  1  'x, y, z'
loop_
 _atom_site_type_symbol
 _atom_site_label
 _atom_site_symmetry_multiplicity
 _atom_site_fract_x
 _atom_site_fract_y
 _atom_site_fract_z
 _atom_site_occupancy
  Er  Er0  1  0.766015  0.999687  0.750000  1
  Er  Er1  1  0.236185  0.249138  0.750000  1
  Er  Er2  1  0.235999  0.987012  0.250000  1
  Tm  Tm3  1  0.986666  0.750395  0.750000  1
  Tm  Tm4  1  0.986628  0.236218  0.250000  1
  Tm  Tm5  1  0.765958  0.766192  0.250000  1
  Tm  Tm6  1  0.331820  0.665903  0.499960  1
  Tm  Tm7  1  0.684938  0.342540  0.000024  1
  Tm  Tm8  1  0.684938  0.342540  0.499976  1
  Tm  Tm9  1  0.331820  0.665903  0.000040  1
  Ga  Ga10  1  0.001330  0.601278  0.250000  1
  Ga  Ga11  1  0.001437  0.400282  0.750000  1
  Ga  Ga12  1  0.598100  0.601391  0.750000  1
  Ga  Ga13  1  0.598238  0.996536  0.250000  1
  Sb  Sb14  1  0.394909  0.004090  0.750000  1
  Sb  Sb15  1  0.395019  0.390894  0.250000  1
