# generated using pymatgen
data_ErCdCuNi2Pt
_symmetry_space_group_name_H-M   'P 1'
_cell_length_a   5.05050917
_cell_length_b   5.20362508
_cell_length_c   5.00161525
_cell_angle_alpha   60.44917555
_cell_angle_beta   59.67608797
_cell_angle_gamma   60.96868839
_symmetry_Int_Tables_number   1
_chemical_formula_structural   ErCdCuNi2Pt
_chemical_formula_sum   'Er1 Cd1 Cu1 Ni2 Pt1'
_cell_volume   93.69005390
_cell_formula_units_Z   1
loop_
 _symmetry_equiv_pos_site_id
 _symmetry_equiv_pos_as_xyz
  1  'x, y, z'
loop_
 _atom_site_type_symbol
 _atom_site_label
 _atom_site_symmetry_multiplicity
 _atom_site_fract_x
 _atom_site_fract_y
 _atom_site_fract_z
 _atom_site_occupancy
  Er  Er0  1  0.751791  0.749152  0.747264  1
  Cd  Cd1  1  0.994565  0.015447  0.995423  1
  Cu  Cu2  1  0.375627  0.371377  0.877369  1
  Ni  Ni3  1  0.374571  0.370497  0.376902  1
  Ni  Ni4  1  0.878030  0.370497  0.376902  1
  Pt  Pt5  1  0.375415  0.873029  0.376140  1
