# generated using pymatgen
data_Er4Tm(GeB4)2
_symmetry_space_group_name_H-M   'P 1'
_cell_length_a   7.19538700
_cell_length_b   7.19538700
_cell_length_c   8.04162200
_cell_angle_alpha   90.00000000
_cell_angle_beta   90.00000000
_cell_angle_gamma   90.00000000
_symmetry_Int_Tables_number   1
_chemical_formula_structural   Er4Tm(GeB4)2
_chemical_formula_sum   'Er8 Tm2 Ge4 B16'
_cell_volume   416.34367317
_cell_formula_units_Z   2
loop_
 _symmetry_equiv_pos_site_id
 _symmetry_equiv_pos_as_xyz
  1  'x, y, z'
loop_
 _atom_site_type_symbol
 _atom_site_label
 _atom_site_symmetry_multiplicity
 _atom_site_fract_x
 _atom_site_fract_y
 _atom_site_fract_z
 _atom_site_occupancy
  Er  Er0  1  0.680114  0.180114  0.220645  1
  Er  Er1  1  0.319886  0.819886  0.779355  1
  Er  Er2  1  0.319886  0.819886  0.220645  1
  Er  Er3  1  0.819886  0.680114  0.220645  1
  Er  Er4  1  0.819886  0.680114  0.779355  1
  Er  Er5  1  0.680114  0.180114  0.779355  1
  Er  Er6  1  0.180114  0.319886  0.779355  1
  Er  Er7  1  0.180114  0.319886  0.220645  1
  Tm  Tm8  1  0.000000  0.000000  0.500000  1
  Tm  Tm9  1  0.500000  0.500000  0.500000  1
  Ge  Ge10  1  0.121033  0.621033  0.500000  1
  Ge  Ge11  1  0.878967  0.378967  0.500000  1
  Ge  Ge12  1  0.378967  0.121033  0.500000  1
  Ge  Ge13  1  0.621033  0.878967  0.500000  1
  B  B14  1  0.172398  0.039345  0.000000  1
  B  B15  1  0.827602  0.960655  0.000000  1
  B  B16  1  0.960655  0.172398  0.000000  1
  B  B17  1  0.327602  0.539345  0.000000  1
  B  B18  1  0.039345  0.827602  0.000000  1
  B  B19  1  0.672398  0.460655  0.000000  1
  B  B20  1  0.539345  0.672398  0.000000  1
  B  B21  1  0.460655  0.327602  0.000000  1
  B  B22  1  0.089811  0.589811  0.000000  1
  B  B23  1  0.910189  0.410189  0.000000  1
  B  B24  1  0.410189  0.089811  0.000000  1
  B  B25  1  0.589811  0.910189  0.000000  1
  B  B26  1  0.000000  0.000000  0.164534  1
  B  B27  1  0.000000  0.000000  0.835466  1
  B  B28  1  0.500000  0.500000  0.835466  1
  B  B29  1  0.500000  0.500000  0.164534  1
