# generated using pymatgen
data_TmCrCo2P3Ir2
_symmetry_space_group_name_H-M   'P 1'
_cell_length_a   3.73613600
_cell_length_b   10.63761600
_cell_length_c   12.23514300
_cell_angle_alpha   90.00000000
_cell_angle_beta   90.00000000
_cell_angle_gamma   90.00000000
_symmetry_Int_Tables_number   1
_chemical_formula_structural   TmCrCo2P3Ir2
_chemical_formula_sum   'Tm4 Cr4 Co8 P12 Ir8'
_cell_volume   486.26838575
_cell_formula_units_Z   4
loop_
 _symmetry_equiv_pos_site_id
 _symmetry_equiv_pos_as_xyz
  1  'x, y, z'
loop_
 _atom_site_type_symbol
 _atom_site_label
 _atom_site_symmetry_multiplicity
 _atom_site_fract_x
 _atom_site_fract_y
 _atom_site_fract_z
 _atom_site_occupancy
  Tm  Tm0  1  0.250000  0.583614  0.711893  1
  Tm  Tm1  1  0.250000  0.916386  0.211893  1
  Tm  Tm2  1  0.750000  0.416386  0.288107  1
  Tm  Tm3  1  0.750000  0.083614  0.788107  1
  Cr  Cr4  1  0.250000  0.707938  0.989895  1
  Cr  Cr5  1  0.250000  0.792062  0.489895  1
  Cr  Cr6  1  0.750000  0.292062  0.010105  1
  Cr  Cr7  1  0.750000  0.207938  0.510105  1
  Co  Co8  1  0.250000  0.887424  0.695572  1
  Co  Co9  1  0.250000  0.612576  0.195572  1
  Co  Co10  1  0.750000  0.112576  0.304428  1
  Co  Co11  1  0.750000  0.387424  0.804428  1
  Co  Co12  1  0.250000  0.463451  0.933596  1
  Co  Co13  1  0.250000  0.036549  0.433596  1
  Co  Co14  1  0.750000  0.536549  0.066404  1
  Co  Co15  1  0.750000  0.963451  0.566404  1
  P  P16  1  0.250000  0.427866  0.109664  1
  P  P17  1  0.250000  0.072134  0.609664  1
  P  P18  1  0.750000  0.572134  0.890336  1
  P  P19  1  0.750000  0.927866  0.390336  1
  P  P20  1  0.250000  0.274299  0.869832  1
  P  P21  1  0.250000  0.225701  0.369832  1
  P  P22  1  0.750000  0.725701  0.130168  1
  P  P23  1  0.750000  0.774299  0.630168  1
  P  P24  1  0.250000  0.595813  0.380961  1
  P  P25  1  0.250000  0.904187  0.880961  1
  P  P26  1  0.750000  0.404187  0.619039  1
  P  P27  1  0.750000  0.095813  0.119039  1
  Ir  Ir28  1  0.250000  0.403203  0.479669  1
  Ir  Ir29  1  0.250000  0.096797  0.979669  1
  Ir  Ir30  1  0.750000  0.596797  0.520331  1
  Ir  Ir31  1  0.750000  0.903203  0.020331  1
  Ir  Ir32  1  0.250000  0.225999  0.179522  1
  Ir  Ir33  1  0.250000  0.274001  0.679522  1
  Ir  Ir34  1  0.750000  0.774001  0.820478  1
  Ir  Ir35  1  0.750000  0.725999  0.320478  1
