# generated using pymatgen
data_NaIrCl4O
_symmetry_space_group_name_H-M   'P 1'
_cell_length_a   6.60312890
_cell_length_b   6.60312911
_cell_length_c   6.77093700
_cell_angle_alpha   106.29267272
_cell_angle_beta   106.29267325
_cell_angle_gamma   32.67578606
_symmetry_Int_Tables_number   1
_chemical_formula_structural   NaIrCl4O
_chemical_formula_sum   'Na1 Ir1 Cl4 O1'
_cell_volume   152.42238412
_cell_formula_units_Z   1
loop_
 _symmetry_equiv_pos_site_id
 _symmetry_equiv_pos_as_xyz
  1  'x, y, z'
loop_
 _atom_site_type_symbol
 _atom_site_label
 _atom_site_symmetry_multiplicity
 _atom_site_fract_x
 _atom_site_fract_y
 _atom_site_fract_z
 _atom_site_occupancy
  Na  Na0  1  0.996901  0.003099  0.000000  1
  Ir  Ir1  1  0.498908  0.501092  0.500000  1
  Cl  Cl2  1  0.360476  0.359739  0.181608  1
  Cl  Cl3  1  0.632074  0.628323  0.313032  1
  Cl  Cl4  1  0.371677  0.367925  0.686968  1
  Cl  Cl5  1  0.640262  0.639525  0.818391  1
  O  O6  1  0.999003  0.000997  0.500000  1
