# generated using pymatgen
data_Rb2SrAs2O7
_symmetry_space_group_name_H-M   'P 1'
_cell_length_a   6.22524147
_cell_length_b   6.22524270
_cell_length_c   14.11239603
_cell_angle_alpha   75.43472357
_cell_angle_beta   75.43471830
_cell_angle_gamma   59.06103995
_symmetry_Int_Tables_number   1
_chemical_formula_structural   Rb2SrAs2O7
_chemical_formula_sum   'Rb4 Sr2 As4 O14'
_cell_volume   449.06962992
_cell_formula_units_Z   2
loop_
 _symmetry_equiv_pos_site_id
 _symmetry_equiv_pos_as_xyz
  1  'x, y, z'
loop_
 _atom_site_type_symbol
 _atom_site_label
 _atom_site_symmetry_multiplicity
 _atom_site_fract_x
 _atom_site_fract_y
 _atom_site_fract_z
 _atom_site_occupancy
  Rb  Rb0  1  0.864854  0.430716  0.334357  1
  Rb  Rb1  1  0.569284  0.135146  0.165643  1
  Rb  Rb2  1  0.135146  0.569284  0.665643  1
  Rb  Rb3  1  0.430716  0.864854  0.834357  1
  Sr  Sr4  1  0.500000  0.000000  0.500000  1
  Sr  Sr5  1  0.000000  0.500000  0.000000  1
  As  As6  1  0.803631  0.251925  0.631253  1
  As  As7  1  0.748075  0.196369  0.868747  1
  As  As8  1  0.196369  0.748075  0.368747  1
  As  As9  1  0.251925  0.803631  0.131253  1
  O  O10  1  0.635922  0.364078  0.750000  1
  O  O11  1  0.364078  0.635922  0.250000  1
  O  O12  1  0.698852  0.530254  0.553506  1
  O  O13  1  0.469746  0.301148  0.946494  1
  O  O14  1  0.301148  0.469746  0.446494  1
  O  O15  1  0.530254  0.698852  0.053506  1
  O  O16  1  0.120596  0.093342  0.636228  1
  O  O17  1  0.906658  0.879404  0.863772  1
  O  O18  1  0.879404  0.906658  0.363772  1
  O  O19  1  0.093342  0.120596  0.136228  1
  O  O20  1  0.059816  0.691422  0.122046  1
  O  O21  1  0.308578  0.940184  0.377954  1
  O  O22  1  0.940184  0.308578  0.877954  1
  O  O23  1  0.691422  0.059816  0.622046  1
