# generated using pymatgen
data_Zr6Al16Cu4IrRh2
_symmetry_space_group_name_H-M   'P 1'
_cell_length_a   8.70493010
_cell_length_b   8.67171953
_cell_length_c   8.70493213
_cell_angle_alpha   60.12612647
_cell_angle_beta   59.79000855
_cell_angle_gamma   60.12612346
_symmetry_Int_Tables_number   1
_chemical_formula_structural   Zr6Al16Cu4IrRh2
_chemical_formula_sum   'Zr6 Al16 Cu4 Ir1 Rh2'
_cell_volume   464.78235331
_cell_formula_units_Z   1
loop_
 _symmetry_equiv_pos_site_id
 _symmetry_equiv_pos_as_xyz
  1  'x, y, z'
loop_
 _atom_site_type_symbol
 _atom_site_label
 _atom_site_symmetry_multiplicity
 _atom_site_fract_x
 _atom_site_fract_y
 _atom_site_fract_z
 _atom_site_occupancy
  Zr  Zr0  1  0.187651  0.810721  0.812349  1
  Zr  Zr1  1  0.812349  0.189279  0.187651  1
  Zr  Zr2  1  0.801922  0.198078  0.801922  1
  Zr  Zr3  1  0.812349  0.810721  0.187651  1
  Zr  Zr4  1  0.198078  0.801922  0.198078  1
  Zr  Zr5  1  0.187651  0.189279  0.812349  1
  Al  Al6  1  0.831923  0.836692  0.831923  1
  Al  Al7  1  0.835221  0.833156  0.498465  1
  Al  Al8  1  0.498465  0.833156  0.835221  1
  Al  Al9  1  0.831923  0.499462  0.831923  1
  Al  Al10  1  0.168077  0.163308  0.168077  1
  Al  Al11  1  0.164779  0.166844  0.501535  1
  Al  Al12  1  0.168077  0.500538  0.168077  1
  Al  Al13  1  0.501535  0.166844  0.164779  1
  Al  Al14  1  0.615904  0.625244  0.615904  1
  Al  Al15  1  0.624575  0.616503  0.142419  1
  Al  Al16  1  0.142419  0.616503  0.624575  1
  Al  Al17  1  0.615904  0.142948  0.615904  1
  Al  Al18  1  0.384096  0.374756  0.384096  1
  Al  Al19  1  0.375425  0.383497  0.857581  1
  Al  Al20  1  0.384096  0.857052  0.384096  1
  Al  Al21  1  0.857581  0.383497  0.375425  1
  Cu  Cu22  1  0.000000  0.500000  0.500000  1
  Cu  Cu23  1  0.500000  0.000000  0.000000  1
  Cu  Cu24  1  0.500000  0.500000  0.000000  1
  Cu  Cu25  1  0.000000  0.000000  0.500000  1
  Ir  Ir26  1  0.000000  0.500000  0.000000  1
  Rh  Rh27  1  0.500000  0.000000  0.500000  1
  Rh  Rh28  1  0.500000  0.500000  0.500000  1
