# generated using pymatgen
data_RbUSnSe4
_symmetry_space_group_name_H-M   'P 1'
_cell_length_a   4.26607600
_cell_length_b   8.70831647
_cell_length_c   7.35852925
_cell_angle_alpha   71.52295348
_cell_angle_beta   90.00000000
_cell_angle_gamma   90.00000658
_symmetry_Int_Tables_number   1
_chemical_formula_structural   RbUSnSe4
_chemical_formula_sum   'Rb1 U1 Sn1 Se4'
_cell_volume   259.27973321
_cell_formula_units_Z   1
loop_
 _symmetry_equiv_pos_site_id
 _symmetry_equiv_pos_as_xyz
  1  'x, y, z'
loop_
 _atom_site_type_symbol
 _atom_site_label
 _atom_site_symmetry_multiplicity
 _atom_site_fract_x
 _atom_site_fract_y
 _atom_site_fract_z
 _atom_site_occupancy
  Rb  Rb0  1  0.500000  0.486917  0.667181  1
  U  U1  1  0.500000  0.007798  0.498287  1
  Sn  Sn2  1  0.000000  0.993262  0.003992  1
  Se  Se3  1  0.000000  0.820662  0.423681  1
  Se  Se4  1  0.500000  0.818021  0.865862  1
  Se  Se5  1  0.000000  0.189025  0.582965  1
  Se  Se6  1  0.500000  0.183436  0.124991  1
