# generated using pymatgen
data_NaZr6In3CBr18
_symmetry_space_group_name_H-M   'P 1'
_cell_length_a   10.32732253
_cell_length_b   10.46804187
_cell_length_c   10.53451312
_cell_angle_alpha   118.48267905
_cell_angle_beta   99.99730018
_cell_angle_gamma   103.66877746
_symmetry_Int_Tables_number   1
_chemical_formula_structural   NaZr6In3CBr18
_chemical_formula_sum   'Na1 Zr6 In3 C1 Br18'
_cell_volume   916.38106545
_cell_formula_units_Z   1
loop_
 _symmetry_equiv_pos_site_id
 _symmetry_equiv_pos_as_xyz
  1  'x, y, z'
loop_
 _atom_site_type_symbol
 _atom_site_label
 _atom_site_symmetry_multiplicity
 _atom_site_fract_x
 _atom_site_fract_y
 _atom_site_fract_z
 _atom_site_occupancy
  Na  Na0  1  0.157528  0.715201  0.549184  1
  Zr  Zr1  1  0.351508  0.450308  0.776398  1
  Zr  Zr2  1  0.365591  0.625259  0.137151  1
  Zr  Zr3  1  0.642836  0.734446  0.044403  1
  Zr  Zr4  1  0.649090  0.552575  0.225013  1
  Zr  Zr5  1  0.356547  0.264126  0.953497  1
  Zr  Zr6  1  0.633713  0.372994  0.865183  1
  In  In7  1  0.857668  0.961062  0.773544  1
  In  In8  1  0.144960  0.035098  0.223799  1
  In  In9  1  0.827291  0.282335  0.445144  1
  C  C10  1  0.499444  0.499978  0.000340  1
  Br  Br11  1  0.823252  0.416203  0.105345  1
  Br  Br12  1  0.520120  0.704846  0.416567  1
  Br  Br13  1  0.173989  0.966322  0.885349  1
  Br  Br14  1  0.176122  0.584481  0.898306  1
  Br  Br15  1  0.833297  0.834319  0.313135  1
  Br  Br16  1  0.504188  0.291094  0.209538  1
  Br  Br17  1  0.798475  0.218669  0.704646  1
  Br  Br18  1  0.166202  0.168474  0.684717  1
  Br  Br19  1  0.507754  0.913691  0.202307  1
  Br  Br20  1  0.818537  0.625725  0.897596  1
  Br  Br21  1  0.204744  0.777765  0.310396  1
  Br  Br22  1  0.162546  0.398130  0.500333  1
  Br  Br23  1  0.496124  0.710399  0.791150  1
  Br  Br24  1  0.830244  0.023983  0.101682  1
  Br  Br25  1  0.481068  0.295404  0.585151  1
  Br  Br26  1  0.179996  0.369515  0.099934  1
  Br  Br27  1  0.847063  0.623304  0.503935  1
  Br  Br28  1  0.490103  0.084294  0.796258  1
