# generated using pymatgen
data_Ti12Mo5Ir6Rh
_symmetry_space_group_name_H-M   'P 1'
_cell_length_a   4.41211900
_cell_length_b   6.25008800
_cell_length_c   13.26089000
_cell_angle_alpha   90.00000000
_cell_angle_beta   90.00198071
_cell_angle_gamma   90.00000000
_symmetry_Int_Tables_number   1
_chemical_formula_structural   Ti12Mo5Ir6Rh
_chemical_formula_sum   'Ti12 Mo5 Ir6 Rh1'
_cell_volume   365.68405319
_cell_formula_units_Z   1
loop_
 _symmetry_equiv_pos_site_id
 _symmetry_equiv_pos_as_xyz
  1  'x, y, z'
loop_
 _atom_site_type_symbol
 _atom_site_label
 _atom_site_symmetry_multiplicity
 _atom_site_fract_x
 _atom_site_fract_y
 _atom_site_fract_z
 _atom_site_occupancy
  Ti  Ti0  1  0.500000  0.255161  0.000000  1
  Ti  Ti1  1  0.500000  0.744840  0.000000  1
  Ti  Ti2  1  0.000075  0.251662  0.168872  1
  Ti  Ti3  1  0.000075  0.748338  0.168872  1
  Ti  Ti4  1  0.500097  0.250225  0.333958  1
  Ti  Ti5  1  0.500097  0.749773  0.333958  1
  Ti  Ti6  1  0.000000  0.249456  0.500000  1
  Ti  Ti7  1  0.000000  0.750543  0.500000  1
  Ti  Ti8  1  0.499903  0.250225  0.666041  1
  Ti  Ti9  1  0.499903  0.749773  0.666041  1
  Ti  Ti10  1  0.999925  0.251662  0.831128  1
  Ti  Ti11  1  0.999925  0.748338  0.831128  1
  Mo  Mo12  1  0.500077  0.499999  0.164866  1
  Mo  Mo13  1  0.000083  0.000000  0.331555  1
  Mo  Mo14  1  0.500000  0.499999  0.500000  1
  Mo  Mo15  1  0.999917  0.000000  0.668445  1
  Mo  Mo16  1  0.499923  0.499999  0.835135  1
  Ir  Ir17  1  0.000000  0.499999  0.000000  1
  Ir  Ir18  1  0.500074  0.000000  0.164136  1
  Ir  Ir19  1  0.000104  0.499999  0.332595  1
  Ir  Ir20  1  0.500000  0.000000  0.500000  1
  Ir  Ir21  1  0.999896  0.499999  0.667405  1
  Ir  Ir22  1  0.499926  0.000000  0.835863  1
  Rh  Rh23  1  0.000000  0.000000  0.000000  1
