# generated using pymatgen
data_EuAs3Rh5
_symmetry_space_group_name_H-M   'P 1'
_cell_length_a   4.05413000
_cell_length_b   12.99315600
_cell_length_c   11.44044600
_cell_angle_alpha   90.00000000
_cell_angle_beta   90.00000000
_cell_angle_gamma   90.00000000
_symmetry_Int_Tables_number   1
_chemical_formula_structural   EuAs3Rh5
_chemical_formula_sum   'Eu4 As12 Rh20'
_cell_volume   602.63628750
_cell_formula_units_Z   4
loop_
 _symmetry_equiv_pos_site_id
 _symmetry_equiv_pos_as_xyz
  1  'x, y, z'
loop_
 _atom_site_type_symbol
 _atom_site_label
 _atom_site_symmetry_multiplicity
 _atom_site_fract_x
 _atom_site_fract_y
 _atom_site_fract_z
 _atom_site_occupancy
  Eu  Eu0  1  0.750000  0.703119  0.083340  1
  Eu  Eu1  1  0.250000  0.296881  0.916660  1
  Eu  Eu2  1  0.250000  0.796881  0.583340  1
  Eu  Eu3  1  0.750000  0.203119  0.416660  1
  As  As4  1  0.750000  0.613578  0.581414  1
  As  As5  1  0.250000  0.386422  0.418586  1
  As  As6  1  0.250000  0.886422  0.081414  1
  As  As7  1  0.750000  0.113578  0.918586  1
  As  As8  1  0.750000  0.890142  0.399151  1
  As  As9  1  0.250000  0.109858  0.600849  1
  As  As10  1  0.250000  0.609858  0.899151  1
  As  As11  1  0.750000  0.390142  0.100849  1
  As  As12  1  0.750000  0.870445  0.767690  1
  As  As13  1  0.250000  0.129555  0.232310  1
  As  As14  1  0.250000  0.629555  0.267690  1
  As  As15  1  0.750000  0.370445  0.732310  1
  Rh  Rh16  1  0.750000  0.700775  0.382708  1
  Rh  Rh17  1  0.250000  0.299225  0.617292  1
  Rh  Rh18  1  0.250000  0.799225  0.882708  1
  Rh  Rh19  1  0.750000  0.200775  0.117292  1
  Rh  Rh20  1  0.750000  0.994059  0.222922  1
  Rh  Rh21  1  0.250000  0.005941  0.777078  1
  Rh  Rh22  1  0.250000  0.505941  0.722922  1
  Rh  Rh23  1  0.750000  0.494059  0.277078  1
  Rh  Rh24  1  0.750000  0.675700  0.779994  1
  Rh  Rh25  1  0.250000  0.324300  0.220006  1
  Rh  Rh26  1  0.250000  0.824300  0.279994  1
  Rh  Rh27  1  0.750000  0.175700  0.720006  1
  Rh  Rh28  1  0.750000  0.930770  0.966286  1
  Rh  Rh29  1  0.250000  0.069230  0.033714  1
  Rh  Rh30  1  0.250000  0.569230  0.466286  1
  Rh  Rh31  1  0.750000  0.430770  0.533714  1
  Rh  Rh32  1  0.750000  0.984629  0.589691  1
  Rh  Rh33  1  0.250000  0.015371  0.410309  1
  Rh  Rh34  1  0.250000  0.515371  0.089691  1
  Rh  Rh35  1  0.750000  0.484628  0.910309  1
