# generated using pymatgen
data_BaPuF7
_symmetry_space_group_name_H-M   'P 1'
_cell_length_a   10.10078400
_cell_length_b   5.90545077
_cell_length_c   10.28693775
_cell_angle_alpha   88.88321268
_cell_angle_beta   90.00000000
_cell_angle_gamma   90.00000000
_symmetry_Int_Tables_number   1
_chemical_formula_structural   BaPuF7
_chemical_formula_sum   'Ba4 Pu4 F28'
_cell_volume   613.49601320
_cell_formula_units_Z   4
loop_
 _symmetry_equiv_pos_site_id
 _symmetry_equiv_pos_as_xyz
  1  'x, y, z'
loop_
 _atom_site_type_symbol
 _atom_site_label
 _atom_site_symmetry_multiplicity
 _atom_site_fract_x
 _atom_site_fract_y
 _atom_site_fract_z
 _atom_site_occupancy
  Ba  Ba0  1  0.313664  0.285333  0.509199  1
  Ba  Ba1  1  0.813664  0.714667  0.990801  1
  Ba  Ba2  1  0.686336  0.714667  0.490801  1
  Ba  Ba3  1  0.186336  0.285333  0.009199  1
  Pu  Pu4  1  0.609228  0.214709  0.208434  1
  Pu  Pu5  1  0.390772  0.785291  0.791566  1
  Pu  Pu6  1  0.890772  0.214709  0.708434  1
  Pu  Pu7  1  0.109228  0.785291  0.291566  1
  F  F8  1  0.420146  0.086166  0.888967  1
  F  F9  1  0.056132  0.343870  0.616431  1
  F  F10  1  0.719730  0.527687  0.237856  1
  F  F11  1  0.280270  0.472313  0.762144  1
  F  F12  1  0.480280  0.985022  0.634453  1
  F  F13  1  0.780746  0.279543  0.533616  1
  F  F14  1  0.772454  0.043490  0.283339  1
  F  F15  1  0.980280  0.014978  0.865547  1
  F  F16  1  0.443868  0.343870  0.116431  1
  F  F17  1  0.219730  0.472313  0.262144  1
  F  F18  1  0.079854  0.086166  0.388967  1
  F  F19  1  0.579854  0.913834  0.111033  1
  F  F20  1  0.272454  0.956510  0.216661  1
  F  F21  1  0.018523  0.561534  0.133473  1
  F  F22  1  0.519720  0.014978  0.365547  1
  F  F23  1  0.019720  0.985022  0.134453  1
  F  F24  1  0.227546  0.956510  0.716661  1
  F  F25  1  0.920146  0.913834  0.611033  1
  F  F26  1  0.518523  0.438466  0.366527  1
  F  F27  1  0.943868  0.656130  0.383569  1
  F  F28  1  0.981477  0.438466  0.866527  1
  F  F29  1  0.727546  0.043490  0.783339  1
  F  F30  1  0.481477  0.561534  0.633473  1
  F  F31  1  0.280746  0.720457  0.966384  1
  F  F32  1  0.219254  0.720457  0.466384  1
  F  F33  1  0.719254  0.279543  0.033616  1
  F  F34  1  0.556132  0.656130  0.883569  1
  F  F35  1  0.780270  0.527687  0.737856  1
