# generated using pymatgen
data_Ti10VGeSb4
_symmetry_space_group_name_H-M   'P 1'
_cell_length_a   5.17366349
_cell_length_b   7.86483998
_cell_length_c   7.86483963
_cell_angle_alpha   83.78894308
_cell_angle_beta   70.80549625
_cell_angle_gamma   70.80552602
_symmetry_Int_Tables_number   1
_chemical_formula_structural   Ti10VGeSb4
_chemical_formula_sum   'Ti10 V1 Ge1 Sb4'
_cell_volume   285.42844431
_cell_formula_units_Z   1
loop_
 _symmetry_equiv_pos_site_id
 _symmetry_equiv_pos_as_xyz
  1  'x, y, z'
loop_
 _atom_site_type_symbol
 _atom_site_label
 _atom_site_symmetry_multiplicity
 _atom_site_fract_x
 _atom_site_fract_y
 _atom_site_fract_z
 _atom_site_occupancy
  Ti  Ti0  1  0.250000  0.500158  0.499842  1
  Ti  Ti1  1  0.750000  0.499806  0.500194  1
  Ti  Ti2  1  0.065196  0.137747  0.715132  1
  Ti  Ti3  1  0.917297  0.862289  0.284916  1
  Ti  Ti4  1  0.779956  0.284900  0.137789  1
  Ti  Ti5  1  0.434804  0.284868  0.862253  1
  Ti  Ti6  1  0.202615  0.715264  0.862348  1
  Ti  Ti7  1  0.582703  0.715084  0.137711  1
  Ti  Ti8  1  0.720044  0.862211  0.715100  1
  Ti  Ti9  1  0.297385  0.137652  0.284736  1
  V  V10  1  0.750000  0.999829  0.000171  1
  Ge  Ge11  1  0.250000  0.999935  0.000065  1
  Sb  Sb12  1  0.163989  0.500165  0.171887  1
  Sb  Sb13  1  0.835918  0.500092  0.828114  1
  Sb  Sb14  1  0.336011  0.828113  0.499835  1
  Sb  Sb15  1  0.664082  0.171886  0.499908  1
