# generated using pymatgen
data_Tm2(PdPt)3
_symmetry_space_group_name_H-M   'P 1'
_cell_length_a   4.08530700
_cell_length_b   4.08385800
_cell_length_c   8.22135000
_cell_angle_alpha   90.00000000
_cell_angle_beta   90.00000000
_cell_angle_gamma   90.00000000
_symmetry_Int_Tables_number   1
_chemical_formula_structural   Tm2(PdPt)3
_chemical_formula_sum   'Tm2 Pd3 Pt3'
_cell_volume   137.16347155
_cell_formula_units_Z   1
loop_
 _symmetry_equiv_pos_site_id
 _symmetry_equiv_pos_as_xyz
  1  'x, y, z'
loop_
 _atom_site_type_symbol
 _atom_site_label
 _atom_site_symmetry_multiplicity
 _atom_site_fract_x
 _atom_site_fract_y
 _atom_site_fract_z
 _atom_site_occupancy
  Tm  Tm0  1  0.000000  0.000000  0.249918  1
  Tm  Tm1  1  0.000000  0.000000  0.750082  1
  Pd  Pd2  1  0.500000  0.500000  0.250419  1
  Pd  Pd3  1  0.500000  0.500000  0.749581  1
  Pd  Pd4  1  0.000000  0.500000  0.500000  1
  Pt  Pt5  1  0.000000  0.500000  0.000000  1
  Pt  Pt6  1  0.500000  0.000000  0.500000  1
  Pt  Pt7  1  0.500000  0.000000  0.000000  1
