# generated using pymatgen
data_Tb4Tm4Sc11Si16Hg
_symmetry_space_group_name_H-M   'P 1'
_cell_length_a   7.03251113
_cell_length_b   7.38371446
_cell_length_c   13.99175861
_cell_angle_alpha   90.02771609
_cell_angle_beta   90.10799270
_cell_angle_gamma   89.90256998
_symmetry_Int_Tables_number   1
_chemical_formula_structural   Tb4Tm4Sc11Si16Hg
_chemical_formula_sum   'Tb4 Tm4 Sc11 Si16 Hg1'
_cell_volume   726.53438997
_cell_formula_units_Z   1
loop_
 _symmetry_equiv_pos_site_id
 _symmetry_equiv_pos_as_xyz
  1  'x, y, z'
loop_
 _atom_site_type_symbol
 _atom_site_label
 _atom_site_symmetry_multiplicity
 _atom_site_fract_x
 _atom_site_fract_y
 _atom_site_fract_z
 _atom_site_occupancy
  Tb  Tb0  1  0.009450  0.174412  0.096652  1
  Tb  Tb1  1  0.990721  0.817024  0.902455  1
  Tb  Tb2  1  0.485769  0.672402  0.903019  1
  Tb  Tb3  1  0.990800  0.816628  0.596867  1
  Tm  Tm4  1  0.510260  0.323723  0.097466  1
  Tm  Tm5  1  0.010783  0.175538  0.402845  1
  Tm  Tm6  1  0.510217  0.323259  0.403314  1
  Tm  Tm7  1  0.485716  0.673588  0.597251  1
  Sc  Sc8  1  0.837972  0.497213  0.250310  1
  Sc  Sc9  1  0.340043  0.004502  0.250255  1
  Sc  Sc10  1  0.657101  0.997438  0.749835  1
  Sc  Sc11  1  0.325306  0.183193  0.625885  1
  Sc  Sc12  1  0.671151  0.823931  0.375034  1
  Sc  Sc13  1  0.170029  0.680114  0.373170  1
  Sc  Sc14  1  0.671176  0.823697  0.125598  1
  Sc  Sc15  1  0.838442  0.325378  0.625580  1
  Sc  Sc16  1  0.325187  0.182953  0.873815  1
  Sc  Sc17  1  0.838982  0.325527  0.873741  1
  Sc  Sc18  1  0.169993  0.679830  0.127169  1
  Si  Si19  1  0.026980  0.094435  0.749649  1
  Si  Si20  1  0.968322  0.889498  0.250575  1
  Si  Si21  1  0.467664  0.614974  0.250304  1
  Si  Si22  1  0.543966  0.379404  0.749462  1
  Si  Si23  1  0.291810  0.886439  0.749218  1
  Si  Si24  1  0.712167  0.130507  0.251049  1
  Si  Si25  1  0.214142  0.372136  0.250813  1
  Si  Si26  1  0.768069  0.631079  0.748863  1
  Si  Si27  1  0.164836  0.458082  0.527771  1
  Si  Si28  1  0.840868  0.533531  0.460880  1
  Si  Si29  1  0.343596  0.967146  0.461928  1
  Si  Si30  1  0.839841  0.535037  0.038672  1
  Si  Si31  1  0.655955  0.033927  0.540065  1
  Si  Si32  1  0.163259  0.458556  0.972351  1
  Si  Si33  1  0.656944  0.035683  0.960180  1
  Si  Si34  1  0.345133  0.967524  0.038185  1
  Hg  Hg35  1  0.157354  0.511695  0.749773  1
