# generated using pymatgen
data_Rb2SmHo5F20
_symmetry_space_group_name_H-M   'P 1'
_cell_length_a   8.28459970
_cell_length_b   8.28460003
_cell_length_c   8.26092300
_cell_angle_alpha   60.09449952
_cell_angle_beta   60.09449817
_cell_angle_gamma   59.81100264
_symmetry_Int_Tables_number   1
_chemical_formula_structural   Rb2SmHo5F20
_chemical_formula_sum   'Rb2 Sm1 Ho5 F20'
_cell_volume   400.91248158
_cell_formula_units_Z   1
loop_
 _symmetry_equiv_pos_site_id
 _symmetry_equiv_pos_as_xyz
  1  'x, y, z'
loop_
 _atom_site_type_symbol
 _atom_site_label
 _atom_site_symmetry_multiplicity
 _atom_site_fract_x
 _atom_site_fract_y
 _atom_site_fract_z
 _atom_site_occupancy
  Rb  Rb0  1  0.249750  0.249750  0.250250  1
  Rb  Rb1  1  0.749750  0.749750  0.750250  1
  Sm  Sm2  1  0.759356  0.759356  0.240644  1
  Ho  Ho3  1  0.759154  0.240147  0.240846  1
  Ho  Ho4  1  0.240147  0.759154  0.759853  1
  Ho  Ho5  1  0.240147  0.759154  0.240846  1
  Ho  Ho6  1  0.759154  0.240147  0.759853  1
  Ho  Ho7  1  0.240382  0.240382  0.759618  1
  F  F8  1  0.831304  0.494437  0.505563  1
  F  F9  1  0.171143  0.500051  0.499949  1
  F  F10  1  0.494437  0.831304  0.168696  1
  F  F11  1  0.500051  0.171143  0.828857  1
  F  F12  1  0.494437  0.831304  0.505563  1
  F  F13  1  0.171143  0.500051  0.828857  1
  F  F14  1  0.500051  0.171143  0.499949  1
  F  F15  1  0.831304  0.494437  0.168696  1
  F  F16  1  0.499922  0.499922  0.828673  1
  F  F17  1  0.499922  0.499922  0.171482  1
  F  F18  1  0.171327  0.828518  0.500078  1
  F  F19  1  0.828518  0.171327  0.500078  1
  F  F20  1  0.110433  0.110433  0.109921  1
  F  F21  1  0.891717  0.891717  0.884186  1
  F  F22  1  0.110433  0.110433  0.669214  1
  F  F23  1  0.115814  0.667620  0.108283  1
  F  F24  1  0.891717  0.891717  0.332380  1
  F  F25  1  0.890079  0.330786  0.889567  1
  F  F26  1  0.667620  0.115814  0.108283  1
  F  F27  1  0.330786  0.890079  0.889567  1
