# generated using pymatgen
data_Ho4MoSe5O24
_symmetry_space_group_name_H-M   'P 1'
_cell_length_a   10.05426748
_cell_length_b   9.99353206
_cell_length_c   9.99353216
_cell_angle_alpha   58.24054931
_cell_angle_beta   57.92568630
_cell_angle_gamma   57.92569346
_symmetry_Int_Tables_number   1
_chemical_formula_structural   Ho4MoSe5O24
_chemical_formula_sum   'Ho4 Mo1 Se5 O24'
_cell_volume   677.94025225
_cell_formula_units_Z   1
loop_
 _symmetry_equiv_pos_site_id
 _symmetry_equiv_pos_as_xyz
  1  'x, y, z'
loop_
 _atom_site_type_symbol
 _atom_site_label
 _atom_site_symmetry_multiplicity
 _atom_site_fract_x
 _atom_site_fract_y
 _atom_site_fract_z
 _atom_site_occupancy
  Ho  Ho0  1  0.641152  0.639255  0.646057  1
  Ho  Ho1  1  0.348174  0.362627  0.355081  1
  Ho  Ho2  1  0.151826  0.144919  0.137373  1
  Ho  Ho3  1  0.858848  0.853943  0.860745  1
  Mo  Mo4  1  0.750000  0.039154  0.460846  1
  Se  Se5  1  0.960941  0.535269  0.252170  1
  Se  Se6  1  0.539059  0.247830  0.964732  1
  Se  Se7  1  0.466440  0.749157  0.035417  1
  Se  Se8  1  0.033560  0.464583  0.750843  1
  Se  Se9  1  0.250000  0.963977  0.536023  1
  O  O10  1  0.931235  0.067796  0.279144  1
  O  O11  1  0.777084  0.005232  0.640590  1
  O  O12  1  0.994036  0.368962  0.223603  1
  O  O13  1  0.709183  0.079273  0.940559  1
  O  O14  1  0.568765  0.220856  0.432204  1
  O  O15  1  0.867816  0.493107  0.726502  1
  O  O16  1  0.505964  0.276397  0.131038  1
  O  O17  1  0.790817  0.559441  0.420727  1
  O  O18  1  0.933466  0.706525  0.086394  1
  O  O19  1  0.566534  0.413606  0.793475  1
  O  O20  1  0.374639  0.223275  0.991068  1
  O  O21  1  0.274963  0.130859  0.506475  1
  O  O22  1  0.722916  0.859410  0.494768  1
  O  O23  1  0.632184  0.773498  0.006893  1
  O  O24  1  0.435560  0.582905  0.205477  1
  O  O25  1  0.064440  0.294523  0.917095  1
  O  O26  1  0.203089  0.438320  0.581833  1
  O  O27  1  0.495533  0.724046  0.868614  1
  O  O28  1  0.125361  0.508932  0.276725  1
  O  O29  1  0.417343  0.793332  0.564089  1
  O  O30  1  0.296911  0.918167  0.061680  1
  O  O31  1  0.004467  0.631386  0.775954  1
  O  O32  1  0.225037  0.993525  0.369141  1
  O  O33  1  0.082657  0.935911  0.706668  1
