# generated using pymatgen
data_Tb4DyP12Ru16Pt3
_symmetry_space_group_name_H-M   'P 1'
_cell_length_a   12.63199800
_cell_length_b   12.63199785
_cell_length_c   3.97260800
_cell_angle_alpha   90.00000000
_cell_angle_beta   90.00000000
_cell_angle_gamma   120.00000038
_symmetry_Int_Tables_number   1
_chemical_formula_structural   Tb4DyP12Ru16Pt3
_chemical_formula_sum   'Tb4 Dy1 P12 Ru16 Pt3'
_cell_volume   548.97230369
_cell_formula_units_Z   1
loop_
 _symmetry_equiv_pos_site_id
 _symmetry_equiv_pos_as_xyz
  1  'x, y, z'
loop_
 _atom_site_type_symbol
 _atom_site_label
 _atom_site_symmetry_multiplicity
 _atom_site_fract_x
 _atom_site_fract_y
 _atom_site_fract_z
 _atom_site_occupancy
  Tb  Tb0  1  0.666667  0.333333  0.000000  1
  Tb  Tb1  1  0.816161  0.999288  0.500000  1
  Tb  Tb2  1  0.183127  0.183839  0.500000  1
  Tb  Tb3  1  0.000712  0.816873  0.500000  1
  Dy  Dy4  1  0.333333  0.666667  0.000000  1
  P  P5  1  0.627750  0.987176  0.000000  1
  P  P6  1  0.359426  0.372250  0.000000  1
  P  P7  1  0.012824  0.640574  0.000000  1
  P  P8  1  0.695945  0.528692  0.500000  1
  P  P9  1  0.832748  0.304055  0.500000  1
  P  P10  1  0.308432  0.829452  0.500000  1
  P  P11  1  0.521019  0.691568  0.500000  1
  P  P12  1  0.183388  0.000900  0.000000  1
  P  P13  1  0.817513  0.816612  0.000000  1
  P  P14  1  0.999100  0.182487  0.000000  1
  P  P15  1  0.471308  0.167252  0.500000  1
  P  P16  1  0.170548  0.478981  0.500000  1
  Ru  Ru17  1  0.620921  0.799611  0.000000  1
  Ru  Ru18  1  0.178690  0.379079  0.000000  1
  Ru  Ru19  1  0.378436  0.187935  0.000000  1
  Ru  Ru20  1  0.200389  0.821310  0.000000  1
  Ru  Ru21  1  0.809498  0.621564  0.000000  1
  Ru  Ru22  1  0.126549  0.636138  0.500000  1
  Ru  Ru23  1  0.363862  0.490412  0.500000  1
  Ru  Ru24  1  0.509588  0.873451  0.500000  1
  Ru  Ru25  1  0.000000  0.000000  0.000000  1
  Ru  Ru26  1  0.717132  0.715738  0.500000  1
  Ru  Ru27  1  0.998606  0.282868  0.500000  1
  Ru  Ru28  1  0.453224  0.005608  0.000000  1
  Ru  Ru29  1  0.552384  0.546776  0.000000  1
  Ru  Ru30  1  0.994392  0.447616  0.000000  1
  Ru  Ru31  1  0.812065  0.190502  0.000000  1
  Ru  Ru32  1  0.284262  0.001394  0.500000  1
  Pt  Pt33  1  0.868352  0.502031  0.500000  1
  Pt  Pt34  1  0.497969  0.366321  0.500000  1
  Pt  Pt35  1  0.633679  0.131648  0.500000  1
