# generated using pymatgen
data_DyHo2Ga2Si3
_symmetry_space_group_name_H-M   'P 1'
_cell_length_a   5.91439887
_cell_length_b   5.91439842
_cell_length_c   9.35467212
_cell_angle_alpha   90.01145363
_cell_angle_beta   90.01145330
_cell_angle_gamma   102.89143789
_symmetry_Int_Tables_number   1
_chemical_formula_structural   DyHo2Ga2Si3
_chemical_formula_sum   'Dy2 Ho4 Ga4 Si6'
_cell_volume   318.97953829
_cell_formula_units_Z   2
loop_
 _symmetry_equiv_pos_site_id
 _symmetry_equiv_pos_as_xyz
  1  'x, y, z'
loop_
 _atom_site_type_symbol
 _atom_site_label
 _atom_site_symmetry_multiplicity
 _atom_site_fract_x
 _atom_site_fract_y
 _atom_site_fract_z
 _atom_site_occupancy
  Dy  Dy0  1  0.801518  0.198482  0.000000  1
  Dy  Dy1  1  0.198482  0.801518  0.000000  1
  Ho  Ho2  1  0.659154  0.659154  0.250208  1
  Ho  Ho3  1  0.340846  0.340846  0.749792  1
  Ho  Ho4  1  0.198174  0.801826  0.500000  1
  Ho  Ho5  1  0.801826  0.198174  0.500000  1
  Ga  Ga6  1  0.320808  0.320808  0.054747  1
  Ga  Ga7  1  0.679192  0.679192  0.945253  1
  Ga  Ga8  1  0.679318  0.679318  0.554256  1
  Ga  Ga9  1  0.320682  0.320682  0.445744  1
  Si  Si10  1  0.093642  0.486374  0.250409  1
  Si  Si11  1  0.906358  0.513626  0.749591  1
  Si  Si12  1  0.486374  0.093642  0.250409  1
  Si  Si13  1  0.513626  0.906358  0.749591  1
  Si  Si14  1  0.054477  0.054477  0.250535  1
  Si  Si15  1  0.945523  0.945523  0.749465  1
