# generated using pymatgen
data_Tb3Yb3MnCo17P12
_symmetry_space_group_name_H-M   'P 1'
_cell_length_a   3.69143500
_cell_length_b   10.52541468
_cell_length_c   12.14192714
_cell_angle_alpha   89.94274796
_cell_angle_beta   90.00000000
_cell_angle_gamma   90.00000000
_symmetry_Int_Tables_number   1
_chemical_formula_structural   Tb3Yb3MnCo17P12
_chemical_formula_sum   'Tb3 Yb3 Mn1 Co17 P12'
_cell_volume   471.76079500
_cell_formula_units_Z   1
loop_
 _symmetry_equiv_pos_site_id
 _symmetry_equiv_pos_as_xyz
  1  'x, y, z'
loop_
 _atom_site_type_symbol
 _atom_site_label
 _atom_site_symmetry_multiplicity
 _atom_site_fract_x
 _atom_site_fract_y
 _atom_site_fract_z
 _atom_site_occupancy
  Tb  Tb0  1  0.000000  0.499792  0.524414  1
  Tb  Tb1  1  0.500000  0.000270  0.475511  1
  Tb  Tb2  1  0.000000  0.319261  0.794759  1
  Yb  Yb3  1  0.500000  0.819345  0.205823  1
  Yb  Yb4  1  0.500000  0.180068  0.205032  1
  Yb  Yb5  1  0.000000  0.682266  0.795434  1
  Mn  Mn6  1  0.500000  0.499647  0.156939  1
  Co  Co7  1  0.000000  0.000265  0.842370  1
  Co  Co8  1  0.500000  0.499890  0.701897  1
  Co  Co9  1  0.000000  0.999260  0.297920  1
  Co  Co10  1  0.000000  0.500300  0.987368  1
  Co  Co11  1  0.500000  0.999485  0.012876  1
  Co  Co12  1  0.500000  0.332978  0.994738  1
  Co  Co13  1  0.500000  0.668430  0.995123  1
  Co  Co14  1  0.000000  0.167310  0.006083  1
  Co  Co15  1  0.000000  0.832578  0.005288  1
  Co  Co16  1  0.500000  0.296701  0.429611  1
  Co  Co17  1  0.500000  0.703151  0.430848  1
  Co  Co18  1  0.000000  0.202720  0.568417  1
  Co  Co19  1  0.000000  0.796628  0.569050  1
  Co  Co20  1  0.500000  0.879912  0.708620  1
  Co  Co21  1  0.500000  0.120529  0.709638  1
  Co  Co22  1  0.000000  0.620419  0.291032  1
  Co  Co23  1  0.000000  0.379263  0.290858  1
  P  P24  1  0.500000  0.502035  0.883681  1
  P  P25  1  0.000000  0.999397  0.116754  1
  P  P26  1  0.500000  0.499951  0.343381  1
  P  P27  1  0.000000  0.999511  0.657408  1
  P  P28  1  0.500000  0.308785  0.615604  1
  P  P29  1  0.500000  0.690938  0.617663  1
  P  P30  1  0.000000  0.189842  0.382082  1
  P  P31  1  0.000000  0.809083  0.382590  1
  P  P32  1  0.500000  0.847156  0.892307  1
  P  P33  1  0.500000  0.152315  0.893581  1
  P  P34  1  0.000000  0.653952  0.107445  1
  P  P35  1  0.000000  0.346565  0.107853  1
