# generated using pymatgen
data_Yb8Si6Pd5Pt3
_symmetry_space_group_name_H-M   'P 1'
_cell_length_a   10.70590667
_cell_length_b   10.73221688
_cell_length_c   7.77830106
_cell_angle_alpha   71.01873134
_cell_angle_beta   70.87765077
_cell_angle_gamma   31.07638400
_symmetry_Int_Tables_number   1
_chemical_formula_structural   Yb8Si6Pd5Pt3
_chemical_formula_sum   'Yb8 Si6 Pd5 Pt3'
_cell_volume   434.02811602
_cell_formula_units_Z   1
loop_
 _symmetry_equiv_pos_site_id
 _symmetry_equiv_pos_as_xyz
  1  'x, y, z'
loop_
 _atom_site_type_symbol
 _atom_site_label
 _atom_site_symmetry_multiplicity
 _atom_site_fract_x
 _atom_site_fract_y
 _atom_site_fract_z
 _atom_site_occupancy
  Yb  Yb0  1  0.929644  0.204061  0.327946  1
  Yb  Yb1  1  0.074807  0.791278  0.668164  1
  Yb  Yb2  1  0.796143  0.069589  0.170341  1
  Yb  Yb3  1  0.451226  0.208453  0.907961  1
  Yb  Yb4  1  0.787626  0.552659  0.593158  1
  Yb  Yb5  1  0.210024  0.449535  0.407214  1
  Yb  Yb6  1  0.205443  0.929267  0.829891  1
  Yb  Yb7  1  0.547708  0.792091  0.093427  1
  Si  Si8  1  0.295633  0.048738  0.433040  1
  Si  Si9  1  0.389845  0.607993  0.249471  1
  Si  Si10  1  0.038819  0.302966  0.933213  1
  Si  Si11  1  0.700700  0.957711  0.566273  1
  Si  Si12  1  0.960176  0.698608  0.065901  1
  Si  Si13  1  0.613015  0.385361  0.752787  1
  Pd  Pd14  1  0.421013  0.703903  0.471927  1
  Pd  Pd15  1  0.641838  0.916436  0.320109  1
  Pd  Pd16  1  0.913849  0.643601  0.820385  1
  Pd  Pd17  1  0.359399  0.083496  0.681266  1
  Pd  Pd18  1  0.081190  0.361422  0.178750  1
  Pt  Pt19  1  0.581743  0.293636  0.529201  1
  Pt  Pt20  1  0.704938  0.420872  0.970728  1
  Pt  Pt21  1  0.295221  0.578326  0.028846  1
