# generated using pymatgen
data_Y2Al3Si2Pt3
_symmetry_space_group_name_H-M   'P 1'
_cell_length_a   8.34747607
_cell_length_b   8.34747590
_cell_length_c   8.34747609
_cell_angle_alpha   138.08872835
_cell_angle_beta   101.86906950
_cell_angle_gamma   92.87424637
_symmetry_Int_Tables_number   1
_chemical_formula_structural   Y2Al3Si2Pt3
_chemical_formula_sum   'Y4 Al6 Si4 Pt6'
_cell_volume   361.38939304
_cell_formula_units_Z   2
loop_
 _symmetry_equiv_pos_site_id
 _symmetry_equiv_pos_as_xyz
  1  'x, y, z'
loop_
 _atom_site_type_symbol
 _atom_site_label
 _atom_site_symmetry_multiplicity
 _atom_site_fract_x
 _atom_site_fract_y
 _atom_site_fract_z
 _atom_site_occupancy
  Y  Y0  1  0.871154  0.629024  0.242131  1
  Y  Y1  1  0.128846  0.370976  0.757869  1
  Y  Y2  1  0.386893  0.129024  0.257869  1
  Y  Y3  1  0.613107  0.870976  0.742131  1
  Al  Al4  1  0.500000  0.750000  0.250000  1
  Al  Al5  1  0.500000  0.250000  0.750000  1
  Al  Al6  1  0.238425  0.988425  0.750000  1
  Al  Al7  1  0.761575  0.511575  0.750000  1
  Al  Al8  1  0.761575  0.011575  0.250000  1
  Al  Al9  1  0.238425  0.488425  0.250000  1
  Si  Si10  1  0.035887  0.889453  0.146435  1
  Si  Si11  1  0.964113  0.110547  0.853565  1
  Si  Si12  1  0.743018  0.389453  0.353565  1
  Si  Si13  1  0.256982  0.610547  0.646435  1
  Pt  Pt14  1  0.000000  0.750000  0.750000  1
  Pt  Pt15  1  0.000000  0.250000  0.250000  1
  Pt  Pt16  1  0.237326  0.867770  0.369557  1
  Pt  Pt17  1  0.762674  0.132230  0.630443  1
  Pt  Pt18  1  0.498213  0.367770  0.130443  1
  Pt  Pt19  1  0.501787  0.632230  0.869557  1
