# generated using pymatgen
data_DyHo2Lu9(GaCo2)2
_symmetry_space_group_name_H-M   'P 1'
_cell_length_a   8.12369239
_cell_length_b   8.12369207
_cell_length_c   8.10482800
_cell_angle_alpha   106.63768830
_cell_angle_beta   109.49193742
_cell_angle_gamma   112.42332539
_symmetry_Int_Tables_number   1
_chemical_formula_structural   DyHo2Lu9(GaCo2)2
_chemical_formula_sum   'Dy1 Ho2 Lu9 Ga2 Co4'
_cell_volume   410.25037762
_cell_formula_units_Z   1
loop_
 _symmetry_equiv_pos_site_id
 _symmetry_equiv_pos_as_xyz
  1  'x, y, z'
loop_
 _atom_site_type_symbol
 _atom_site_label
 _atom_site_symmetry_multiplicity
 _atom_site_fract_x
 _atom_site_fract_y
 _atom_site_fract_z
 _atom_site_occupancy
  Dy  Dy0  1  0.696318  0.260456  0.956774  1
  Ho  Ho1  1  0.301525  0.739181  0.040706  1
  Ho  Ho2  1  0.697352  0.740927  0.438281  1
  Lu  Lu3  1  0.300408  0.260334  0.560740  1
  Lu  Lu4  1  0.813150  0.139911  0.328488  1
  Lu  Lu5  1  0.810897  0.483629  0.671871  1
  Lu  Lu6  1  0.188242  0.860974  0.671871  1
  Lu  Lu7  1  0.188576  0.515338  0.328488  1
  Lu  Lu8  1  0.601910  0.779630  0.821462  1
  Lu  Lu9  1  0.962464  0.782099  0.181942  1
  Lu  Lu10  1  0.041833  0.219552  0.821462  1
  Lu  Lu11  1  0.399843  0.219477  0.181942  1
  Ga  Ga12  1  0.497484  0.499224  0.996708  1
  Ga  Ga13  1  0.495682  0.000571  0.496255  1
  Co  Co14  1  0.838197  0.500178  0.338375  1
  Co  Co15  1  0.162837  0.499143  0.661980  1
  Co  Co16  1  0.006482  0.116081  0.122563  1
  Co  Co17  1  0.996798  0.883297  0.880096  1
