# generated using pymatgen
data_Dy2MnZn2Co3
_symmetry_space_group_name_H-M   'P 1'
_cell_length_a   3.97526800
_cell_length_b   4.86367770
_cell_length_c   6.77232530
_cell_angle_alpha   90.34407282
_cell_angle_beta   90.00000000
_cell_angle_gamma   90.00000000
_symmetry_Int_Tables_number   1
_chemical_formula_structural   Dy2MnZn2Co3
_chemical_formula_sum   'Dy2 Mn1 Zn2 Co3'
_cell_volume   130.93663645
_cell_formula_units_Z   1
loop_
 _symmetry_equiv_pos_site_id
 _symmetry_equiv_pos_as_xyz
  1  'x, y, z'
loop_
 _atom_site_type_symbol
 _atom_site_label
 _atom_site_symmetry_multiplicity
 _atom_site_fract_x
 _atom_site_fract_y
 _atom_site_fract_z
 _atom_site_occupancy
  Dy  Dy0  1  0.500000  0.754469  0.693649  1
  Dy  Dy1  1  0.500000  0.245531  0.306351  1
  Mn  Mn2  1  0.000000  0.000000  0.000000  1
  Zn  Zn3  1  0.000000  0.744756  0.340161  1
  Zn  Zn4  1  0.000000  0.255244  0.659839  1
  Co  Co5  1  0.000000  0.500000  0.000000  1
  Co  Co6  1  0.500000  0.740320  0.095600  1
  Co  Co7  1  0.500000  0.259680  0.904400  1
