# generated using pymatgen
data_Dy16Ag3SnRh4
_symmetry_space_group_name_H-M   'P 1'
_cell_length_a   9.57783149
_cell_length_b   9.57783247
_cell_length_c   9.57783369
_cell_angle_alpha   59.88295281
_cell_angle_beta   59.88295127
_cell_angle_gamma   59.88295005
_symmetry_Int_Tables_number   1
_chemical_formula_structural   Dy16Ag3SnRh4
_chemical_formula_sum   'Dy16 Ag3 Sn1 Rh4'
_cell_volume   619.62911754
_cell_formula_units_Z   1
loop_
 _symmetry_equiv_pos_site_id
 _symmetry_equiv_pos_as_xyz
  1  'x, y, z'
loop_
 _atom_site_type_symbol
 _atom_site_label
 _atom_site_symmetry_multiplicity
 _atom_site_fract_x
 _atom_site_fract_y
 _atom_site_fract_z
 _atom_site_occupancy
  Dy  Dy0  1  0.689651  0.312312  0.312312  1
  Dy  Dy1  1  0.690614  0.690614  0.309286  1
  Dy  Dy2  1  0.312312  0.689651  0.312312  1
  Dy  Dy3  1  0.935774  0.935774  0.558055  1
  Dy  Dy4  1  0.147353  0.147353  0.555706  1
  Dy  Dy5  1  0.562163  0.937146  0.562163  1
  Dy  Dy6  1  0.149127  0.149127  0.149127  1
  Dy  Dy7  1  0.312312  0.312312  0.689651  1
  Dy  Dy8  1  0.937146  0.562163  0.562163  1
  Dy  Dy9  1  0.562163  0.562163  0.937146  1
  Dy  Dy10  1  0.558055  0.935774  0.935774  1
  Dy  Dy11  1  0.935774  0.558055  0.935774  1
  Dy  Dy12  1  0.147353  0.555706  0.147353  1
  Dy  Dy13  1  0.309286  0.690614  0.690614  1
  Dy  Dy14  1  0.690614  0.309286  0.690614  1
  Dy  Dy15  1  0.555706  0.147353  0.147353  1
  Ag  Ag16  1  0.917054  0.917054  0.251197  1
  Ag  Ag17  1  0.251197  0.917054  0.917054  1
  Ag  Ag18  1  0.917054  0.251197  0.917054  1
  Sn  Sn19  1  0.919606  0.919606  0.919606  1
  Rh  Rh20  1  0.357253  0.357253  0.357253  1
  Rh  Rh21  1  0.930281  0.356078  0.356078  1
  Rh  Rh22  1  0.356078  0.356078  0.930281  1
  Rh  Rh23  1  0.356078  0.930281  0.356078  1
