# generated using pymatgen
data_Nd6Ho7Er3(CdIr)4
_symmetry_space_group_name_H-M   'P 1'
_cell_length_a   9.71582409
_cell_length_b   9.71617703
_cell_length_c   9.71373232
_cell_angle_alpha   60.00591915
_cell_angle_beta   60.06266921
_cell_angle_gamma   59.98455995
_symmetry_Int_Tables_number   1
_chemical_formula_structural   Nd6Ho7Er3(CdIr)4
_chemical_formula_sum   'Nd6 Ho7 Er3 Cd4 Ir4'
_cell_volume   648.66453273
_cell_formula_units_Z   1
loop_
 _symmetry_equiv_pos_site_id
 _symmetry_equiv_pos_as_xyz
  1  'x, y, z'
loop_
 _atom_site_type_symbol
 _atom_site_label
 _atom_site_symmetry_multiplicity
 _atom_site_fract_x
 _atom_site_fract_y
 _atom_site_fract_z
 _atom_site_occupancy
  Nd  Nd0  1  0.941121  0.558930  0.558403  1
  Nd  Nd1  1  0.558403  0.941546  0.941121  1
  Nd  Nd2  1  0.558979  0.941021  0.558979  1
  Nd  Nd3  1  0.941586  0.558414  0.941586  1
  Nd  Nd4  1  0.558373  0.558909  0.941151  1
  Nd  Nd5  1  0.941151  0.941567  0.558373  1
  Ho  Ho6  1  0.347635  0.346492  0.347881  1
  Ho  Ho7  1  0.348725  0.346866  0.957309  1
  Ho  Ho8  1  0.347881  0.957992  0.347635  1
  Ho  Ho9  1  0.957309  0.347101  0.348725  1
  Ho  Ho10  1  0.812370  0.188221  0.186095  1
  Ho  Ho11  1  0.186095  0.813314  0.812370  1
  Ho  Ho12  1  0.187575  0.812425  0.187575  1
  Er  Er13  1  0.812711  0.187289  0.812711  1
  Er  Er14  1  0.186695  0.188385  0.811953  1
  Er  Er15  1  0.811953  0.812966  0.186695  1
  Cd  Cd16  1  0.579349  0.579621  0.579172  1
  Cd  Cd17  1  0.579699  0.579789  0.260878  1
  Cd  Cd18  1  0.579172  0.261859  0.579349  1
  Cd  Cd19  1  0.260878  0.579635  0.579699  1
  Ir  Ir20  1  0.142051  0.140423  0.141447  1
  Ir  Ir21  1  0.141899  0.140977  0.576941  1
  Ir  Ir22  1  0.141447  0.576078  0.142051  1
  Ir  Ir23  1  0.576941  0.140181  0.141899  1
