# generated using pymatgen
data_Tb2NdFe(Co4P3)2
_symmetry_space_group_name_H-M   'P 1'
_cell_length_a   3.72514600
_cell_length_b   10.58902600
_cell_length_c   12.26172200
_cell_angle_alpha   90.00000000
_cell_angle_beta   90.00000000
_cell_angle_gamma   90.00000000
_symmetry_Int_Tables_number   1
_chemical_formula_structural   Tb2NdFe(Co4P3)2
_chemical_formula_sum   'Tb4 Nd2 Fe2 Co16 P12'
_cell_volume   483.67181325
_cell_formula_units_Z   2
loop_
 _symmetry_equiv_pos_site_id
 _symmetry_equiv_pos_as_xyz
  1  'x, y, z'
loop_
 _atom_site_type_symbol
 _atom_site_label
 _atom_site_symmetry_multiplicity
 _atom_site_fract_x
 _atom_site_fract_y
 _atom_site_fract_z
 _atom_site_occupancy
  Tb  Tb0  1  0.500000  0.817744  0.204097  1
  Tb  Tb1  1  0.500000  0.182256  0.204097  1
  Tb  Tb2  1  0.000000  0.682256  0.795903  1
  Tb  Tb3  1  0.000000  0.317744  0.795903  1
  Nd  Nd4  1  0.000000  0.500000  0.521878  1
  Nd  Nd5  1  0.500000  0.000000  0.478122  1
  Fe  Fe6  1  0.500000  0.500000  0.154967  1
  Fe  Fe7  1  0.000000  0.000000  0.845033  1
  Co  Co8  1  0.500000  0.500000  0.705307  1
  Co  Co9  1  0.000000  0.000000  0.294693  1
  Co  Co10  1  0.000000  0.500000  0.987001  1
  Co  Co11  1  0.500000  0.000000  0.012999  1
  Co  Co12  1  0.500000  0.333085  0.994605  1
  Co  Co13  1  0.500000  0.666915  0.994605  1
  Co  Co14  1  0.000000  0.166915  0.005395  1
  Co  Co15  1  0.000000  0.833085  0.005395  1
  Co  Co16  1  0.500000  0.296235  0.429412  1
  Co  Co17  1  0.500000  0.703765  0.429412  1
  Co  Co18  1  0.000000  0.203765  0.570588  1
  Co  Co19  1  0.000000  0.796235  0.570588  1
  Co  Co20  1  0.500000  0.879562  0.711974  1
  Co  Co21  1  0.500000  0.120438  0.711974  1
  Co  Co22  1  0.000000  0.620438  0.288026  1
  Co  Co23  1  0.000000  0.379562  0.288026  1
  P  P24  1  0.500000  0.500000  0.884087  1
  P  P25  1  0.000000  0.000000  0.115913  1
  P  P26  1  0.500000  0.500000  0.338292  1
  P  P27  1  0.000000  0.000000  0.661708  1
  P  P28  1  0.500000  0.307095  0.617303  1
  P  P29  1  0.500000  0.692905  0.617303  1
  P  P30  1  0.000000  0.192905  0.382697  1
  P  P31  1  0.000000  0.807095  0.382697  1
  P  P32  1  0.500000  0.847153  0.894031  1
  P  P33  1  0.500000  0.152847  0.894031  1
  P  P34  1  0.000000  0.652847  0.105969  1
  P  P35  1  0.000000  0.347153  0.105969  1
