# generated using pymatgen
data_Dy3Th11(TcOs)3
_symmetry_space_group_name_H-M   'P 1'
_cell_length_a   9.86370086
_cell_length_b   9.94754213
_cell_length_c   6.39218816
_cell_angle_alpha   89.94306567
_cell_angle_beta   89.98564068
_cell_angle_gamma   120.20209453
_symmetry_Int_Tables_number   1
_chemical_formula_structural   Dy3Th11(TcOs)3
_chemical_formula_sum   'Dy3 Th11 Tc3 Os3'
_cell_volume   542.06012750
_cell_formula_units_Z   1
loop_
 _symmetry_equiv_pos_site_id
 _symmetry_equiv_pos_as_xyz
  1  'x, y, z'
loop_
 _atom_site_type_symbol
 _atom_site_label
 _atom_site_symmetry_multiplicity
 _atom_site_fract_x
 _atom_site_fract_y
 _atom_site_fract_z
 _atom_site_occupancy
  Dy  Dy0  1  0.459883  0.535384  0.296005  1
  Dy  Dy1  1  0.072679  0.534659  0.300927  1
  Dy  Dy2  1  0.926462  0.462303  0.797643  1
  Th  Th3  1  0.251619  0.127752  0.510073  1
  Th  Th4  1  0.542536  0.079409  0.797131  1
  Th  Th5  1  0.750270  0.874003  0.013012  1
  Th  Th6  1  0.667963  0.335235  0.271004  1
  Th  Th7  1  0.123795  0.868748  0.010801  1
  Th  Th8  1  0.463017  0.921038  0.298824  1
  Th  Th9  1  0.537927  0.466169  0.798791  1
  Th  Th10  1  0.874465  0.127399  0.512347  1
  Th  Th11  1  0.122784  0.252205  0.013611  1
  Th  Th12  1  0.873631  0.749733  0.510905  1
  Th  Th13  1  0.331881  0.664903  0.767657  1
  Tc  Tc14  1  0.812237  0.633696  0.047023  1
  Tc  Tc15  1  0.813474  0.177458  0.047949  1
  Tc  Tc16  1  0.632212  0.816912  0.546793  1
  Os  Os17  1  0.370290  0.186590  0.042860  1
  Os  Os18  1  0.185735  0.368481  0.554866  1
  Os  Os19  1  0.187140  0.817923  0.545777  1
