# generated using pymatgen
data_K4Zr6NiBr18
_symmetry_space_group_name_H-M   'P 1'
_cell_length_a   10.56247940
_cell_length_b   10.76180800
_cell_length_c   10.86023559
_cell_angle_alpha   118.81313640
_cell_angle_beta   100.20764809
_cell_angle_gamma   103.80976348
_symmetry_Int_Tables_number   1
_chemical_formula_structural   K4Zr6NiBr18
_chemical_formula_sum   'K4 Zr6 Ni1 Br18'
_cell_volume   986.48854730
_cell_formula_units_Z   1
loop_
 _symmetry_equiv_pos_site_id
 _symmetry_equiv_pos_as_xyz
  1  'x, y, z'
loop_
 _atom_site_type_symbol
 _atom_site_label
 _atom_site_symmetry_multiplicity
 _atom_site_fract_x
 _atom_site_fract_y
 _atom_site_fract_z
 _atom_site_occupancy
  K  K0  1  0.651686  0.537375  0.226687  1
  K  K1  1  0.348314  0.462625  0.773313  1
  K  K2  1  0.686039  0.225274  0.563382  1
  K  K3  1  0.313961  0.774726  0.436618  1
  Zr  Zr4  1  0.154509  0.055782  0.239659  1
  Zr  Zr5  1  0.845491  0.944218  0.760341  1
  Zr  Zr6  1  0.856880  0.132738  0.139044  1
  Zr  Zr7  1  0.143120  0.867262  0.860956  1
  Zr  Zr8  1  0.148896  0.248169  0.044531  1
  Zr  Zr9  1  0.851104  0.751831  0.955469  1
  Ni  Ni10  1  0.000000  0.000000  0.000000  1
  Br  Br11  1  0.009221  0.414054  0.200437  1
  Br  Br12  1  0.990779  0.585946  0.799563  1
  Br  Br13  1  0.328560  0.332049  0.310434  1
  Br  Br14  1  0.671440  0.667951  0.689566  1
  Br  Br15  1  0.326287  0.524842  0.101299  1
  Br  Br16  1  0.673713  0.475158  0.898701  1
  Br  Br17  1  0.004833  0.792780  0.212932  1
  Br  Br18  1  0.995167  0.207220  0.787068  1
  Br  Br19  1  0.702168  0.280299  0.292680  1
  Br  Br20  1  0.297832  0.719701  0.707320  1
  Br  Br21  1  0.318760  0.127584  0.903926  1
  Br  Br22  1  0.681240  0.872416  0.096074  1
  Br  Br23  1  0.016066  0.207564  0.412108  1
  Br  Br24  1  0.983934  0.792436  0.587892  1
  Br  Br25  1  0.322950  0.923067  0.110522  1
  Br  Br26  1  0.677050  0.076933  0.889478  1
  Br  Br27  1  0.337256  0.121480  0.505706  1
  Br  Br28  1  0.662744  0.878520  0.494294  1
