# generated using pymatgen
data_Nd16In4PdRu3
_symmetry_space_group_name_H-M   'P 1'
_cell_length_a   9.96873812
_cell_length_b   9.99407389
_cell_length_c   9.99407300
_cell_angle_alpha   59.99999965
_cell_angle_beta   59.91589107
_cell_angle_gamma   59.91588827
_symmetry_Int_Tables_number   1
_chemical_formula_structural   Nd16In4PdRu3
_chemical_formula_sum   'Nd16 In4 Pd1 Ru3'
_cell_volume   703.16453710
_cell_formula_units_Z   1
loop_
 _symmetry_equiv_pos_site_id
 _symmetry_equiv_pos_as_xyz
  1  'x, y, z'
loop_
 _atom_site_type_symbol
 _atom_site_label
 _atom_site_symmetry_multiplicity
 _atom_site_fract_x
 _atom_site_fract_y
 _atom_site_fract_z
 _atom_site_occupancy
  Nd  Nd0  1  0.441550  0.434849  0.061800  1
  Nd  Nd1  1  0.656742  0.649087  0.045086  1
  Nd  Nd2  1  0.185372  0.807547  0.199533  1
  Nd  Nd3  1  0.061030  0.439643  0.059684  1
  Nd  Nd4  1  0.185372  0.807547  0.807547  1
  Nd  Nd5  1  0.061030  0.439643  0.439643  1
  Nd  Nd6  1  0.808917  0.191259  0.191259  1
  Nd  Nd7  1  0.656742  0.649087  0.649087  1
  Nd  Nd8  1  0.808917  0.191259  0.808566  1
  Nd  Nd9  1  0.185372  0.199533  0.807547  1
  Nd  Nd10  1  0.040141  0.653287  0.653287  1
  Nd  Nd11  1  0.441550  0.061800  0.061800  1
  Nd  Nd12  1  0.061030  0.059684  0.439643  1
  Nd  Nd13  1  0.656742  0.045086  0.649087  1
  Nd  Nd14  1  0.808917  0.808566  0.191259  1
  Nd  Nd15  1  0.441550  0.061800  0.434849  1
  In  In16  1  0.419288  0.419642  0.419642  1
  In  In17  1  0.419288  0.419642  0.741428  1
  In  In18  1  0.419288  0.741428  0.419642  1
  In  In19  1  0.742055  0.419315  0.419315  1
  Pd  Pd20  1  0.422142  0.859285  0.859285  1
  Ru  Ru21  1  0.858989  0.861122  0.861122  1
  Ru  Ru22  1  0.858989  0.418764  0.861122  1
  Ru  Ru23  1  0.858989  0.861122  0.418764  1
