# generated using pymatgen
data_DyY5Al24CuRu7
_symmetry_space_group_name_H-M   'P 1'
_cell_length_a   8.82173502
_cell_length_b   8.80317026
_cell_length_c   9.55161330
_cell_angle_alpha   89.84909341
_cell_angle_beta   89.99523942
_cell_angle_gamma   119.73858012
_symmetry_Int_Tables_number   1
_chemical_formula_structural   DyY5Al24CuRu7
_chemical_formula_sum   'Dy1 Y5 Al24 Cu1 Ru7'
_cell_volume   644.07498179
_cell_formula_units_Z   1
loop_
 _symmetry_equiv_pos_site_id
 _symmetry_equiv_pos_as_xyz
  1  'x, y, z'
loop_
 _atom_site_type_symbol
 _atom_site_label
 _atom_site_symmetry_multiplicity
 _atom_site_fract_x
 _atom_site_fract_y
 _atom_site_fract_z
 _atom_site_occupancy
  Dy  Dy0  1  0.383170  0.191760  0.750278  1
  Y  Y1  1  0.191417  0.806970  0.251194  1
  Y  Y2  1  0.193732  0.388117  0.248000  1
  Y  Y3  1  0.616969  0.808268  0.250127  1
  Y  Y4  1  0.808739  0.193197  0.748631  1
  Y  Y5  1  0.805857  0.611684  0.751998  1
  Al  Al6  1  0.561749  0.439483  0.250858  1
  Al  Al7  1  0.561530  0.122890  0.249183  1
  Al  Al8  1  0.878093  0.439783  0.250520  1
  Al  Al9  1  0.438115  0.560446  0.749058  1
  Al  Al10  1  0.438419  0.877172  0.750664  1
  Al  Al11  1  0.121889  0.560240  0.749416  1
  Al  Al12  1  0.324314  0.168084  0.421157  1
  Al  Al13  1  0.842777  0.167725  0.421237  1
  Al  Al14  1  0.836153  0.673585  0.422332  1
  Al  Al15  1  0.675610  0.831872  0.579059  1
  Al  Al16  1  0.157291  0.832496  0.578902  1
  Al  Al17  1  0.164116  0.326324  0.577732  1
  Al  Al18  1  0.673803  0.837167  0.924168  1
  Al  Al19  1  0.163646  0.837658  0.923641  1
  Al  Al20  1  0.163642  0.326467  0.922289  1
  Al  Al21  1  0.326114  0.162896  0.075765  1
  Al  Al22  1  0.836354  0.162426  0.076245  1
  Al  Al23  1  0.836346  0.673459  0.077596  1
  Al  Al24  1  0.668419  0.336258  0.518392  1
  Al  Al25  1  0.331315  0.663496  0.481960  1
  Al  Al26  1  0.333100  0.667496  0.017449  1
  Al  Al27  1  0.666891  0.332444  0.982444  1
  Al  Al28  1  0.999195  0.999176  0.249784  1
  Al  Al29  1  0.001467  0.001242  0.750219  1
  Cu  Cu30  1  0.499990  0.999979  0.500031  1
  Ru  Ru31  1  0.999839  0.999914  0.499970  1
  Ru  Ru32  1  0.999952  0.999991  0.000047  1
  Ru  Ru33  1  0.500039  0.499938  0.500045  1
  Ru  Ru34  1  0.999914  0.499964  0.500030  1
  Ru  Ru35  1  0.500053  0.499902  0.999764  1
  Ru  Ru36  1  0.499877  0.000081  0.999838  1
  Ru  Ru37  1  0.000107  0.499949  0.999976  1
