# generated using pymatgen
data_BaSrNi6(P2O7)4
_symmetry_space_group_name_H-M   'P 1'
_cell_length_a   7.83012097
_cell_length_b   7.56946609
_cell_length_c   9.61288019
_cell_angle_alpha   67.40324677
_cell_angle_beta   90.02590422
_cell_angle_gamma   90.18525966
_symmetry_Int_Tables_number   1
_chemical_formula_structural   BaSrNi6(P2O7)4
_chemical_formula_sum   'Ba1 Sr1 Ni6 P8 O28'
_cell_volume   526.01201542
_cell_formula_units_Z   1
loop_
 _symmetry_equiv_pos_site_id
 _symmetry_equiv_pos_as_xyz
  1  'x, y, z'
loop_
 _atom_site_type_symbol
 _atom_site_label
 _atom_site_symmetry_multiplicity
 _atom_site_fract_x
 _atom_site_fract_y
 _atom_site_fract_z
 _atom_site_occupancy
  Ba  Ba0  1  0.500000  0.500000  0.500000  1
  Sr  Sr1  1  0.000000  0.500000  0.000000  1
  Ni  Ni2  1  0.500000  0.000000  0.500000  1
  Ni  Ni3  1  0.000000  0.000000  0.000000  1
  Ni  Ni4  1  0.124492  0.817133  0.524413  1
  Ni  Ni5  1  0.625901  0.183510  0.975850  1
  Ni  Ni6  1  0.875508  0.182867  0.475587  1
  Ni  Ni7  1  0.374099  0.816490  0.024150  1
  P  P8  1  0.950301  0.392496  0.701690  1
  P  P9  1  0.439476  0.606902  0.802982  1
  P  P10  1  0.049699  0.607504  0.298310  1
  P  P11  1  0.560524  0.393098  0.197018  1
  P  P12  1  0.201677  0.104207  0.695371  1
  P  P13  1  0.701820  0.891303  0.807261  1
  P  P14  1  0.798323  0.895793  0.304629  1
  P  P15  1  0.298180  0.108697  0.192739  1
  O  O16  1  0.373325  0.140473  0.615740  1
  O  O17  1  0.872536  0.845183  0.889195  1
  O  O18  1  0.626675  0.859527  0.384260  1
  O  O19  1  0.127464  0.154817  0.110805  1
  O  O20  1  0.380977  0.734959  0.639689  1
  O  O21  1  0.889592  0.267207  0.864937  1
  O  O22  1  0.619023  0.265041  0.360311  1
  O  O23  1  0.110408  0.732793  0.135063  1
  O  O24  1  0.831501  0.370193  0.584258  1
  O  O25  1  0.318080  0.627235  0.919726  1
  O  O26  1  0.168499  0.629807  0.415742  1
  O  O27  1  0.681920  0.372765  0.080274  1
  O  O28  1  0.135787  0.313864  0.678214  1
  O  O29  1  0.625228  0.685907  0.824735  1
  O  O30  1  0.864213  0.686136  0.321786  1
  O  O31  1  0.374772  0.314093  0.175265  1
  O  O32  1  0.522641  0.596372  0.184956  1
  O  O33  1  0.013018  0.404804  0.307172  1
  O  O34  1  0.477359  0.403628  0.815044  1
  O  O35  1  0.986982  0.595196  0.692828  1
  O  O36  1  0.793546  0.003736  0.132901  1
  O  O37  1  0.291482  0.999649  0.364694  1
  O  O38  1  0.206454  0.996264  0.867099  1
  O  O39  1  0.708518  0.000351  0.635306  1
  O  O40  1  0.424003  0.023147  0.112553  1
  O  O41  1  0.927871  0.975396  0.386216  1
  O  O42  1  0.575997  0.976853  0.887447  1
  O  O43  1  0.072129  0.024604  0.613784  1
