# generated using pymatgen
data_Zr16MnNi4Os3
_symmetry_space_group_name_H-M   'P 1'
_cell_length_a   8.70345497
_cell_length_b   8.70345453
_cell_length_c   8.74761300
_cell_angle_alpha   60.16684455
_cell_angle_beta   60.16685379
_cell_angle_gamma   60.00000171
_symmetry_Int_Tables_number   1
_chemical_formula_structural   Zr16MnNi4Os3
_chemical_formula_sum   'Zr16 Mn1 Ni4 Os3'
_cell_volume   469.73031278
_cell_formula_units_Z   1
loop_
 _symmetry_equiv_pos_site_id
 _symmetry_equiv_pos_as_xyz
  1  'x, y, z'
loop_
 _atom_site_type_symbol
 _atom_site_label
 _atom_site_symmetry_multiplicity
 _atom_site_fract_x
 _atom_site_fract_y
 _atom_site_fract_z
 _atom_site_occupancy
  Zr  Zr0  1  0.185659  0.605171  0.604000  1
  Zr  Zr1  1  0.605171  0.185659  0.604000  1
  Zr  Zr2  1  0.605171  0.605171  0.604000  1
  Zr  Zr3  1  0.605106  0.605106  0.184685  1
  Zr  Zr4  1  0.454978  0.454978  0.044859  1
  Zr  Zr5  1  0.044155  0.044155  0.456046  1
  Zr  Zr6  1  0.454978  0.045185  0.044859  1
  Zr  Zr7  1  0.044155  0.455647  0.456046  1
  Zr  Zr8  1  0.045185  0.454978  0.044859  1
  Zr  Zr9  1  0.455647  0.044155  0.456046  1
  Zr  Zr10  1  0.815157  0.815157  0.189365  1
  Zr  Zr11  1  0.184033  0.184033  0.816586  1
  Zr  Zr12  1  0.815157  0.180320  0.189365  1
  Zr  Zr13  1  0.184033  0.815346  0.816586  1
  Zr  Zr14  1  0.180320  0.815157  0.189365  1
  Zr  Zr15  1  0.815346  0.184033  0.816586  1
  Mn  Mn16  1  0.832472  0.832472  0.502584  1
  Ni  Ni17  1  0.825848  0.392182  0.389786  1
  Ni  Ni18  1  0.392182  0.825848  0.389786  1
  Ni  Ni19  1  0.392182  0.392182  0.389786  1
  Ni  Ni20  1  0.391204  0.391204  0.826386  1
  Os  Os21  1  0.505959  0.832950  0.828140  1
  Os  Os22  1  0.832950  0.505959  0.828140  1
  Os  Os23  1  0.832950  0.832950  0.828140  1
