# generated using pymatgen
data_Nd3AlSiRh2
_symmetry_space_group_name_H-M   'P 1'
_cell_length_a   5.78257900
_cell_length_b   8.16450600
_cell_length_c   13.38496000
_cell_angle_alpha   90.00000000
_cell_angle_beta   90.00000000
_cell_angle_gamma   90.00000000
_symmetry_Int_Tables_number   1
_chemical_formula_structural   Nd3AlSiRh2
_chemical_formula_sum   'Nd12 Al4 Si4 Rh8'
_cell_volume   631.92940562
_cell_formula_units_Z   4
loop_
 _symmetry_equiv_pos_site_id
 _symmetry_equiv_pos_as_xyz
  1  'x, y, z'
loop_
 _atom_site_type_symbol
 _atom_site_label
 _atom_site_symmetry_multiplicity
 _atom_site_fract_x
 _atom_site_fract_y
 _atom_site_fract_z
 _atom_site_occupancy
  Nd  Nd0  1  0.639983  0.251026  0.250000  1
  Nd  Nd1  1  0.360017  0.748974  0.750000  1
  Nd  Nd2  1  0.360017  0.751026  0.250000  1
  Nd  Nd3  1  0.639983  0.248974  0.750000  1
  Nd  Nd4  1  0.144181  0.396032  0.102216  1
  Nd  Nd5  1  0.855819  0.603968  0.897784  1
  Nd  Nd6  1  0.855819  0.603968  0.602216  1
  Nd  Nd7  1  0.855819  0.896032  0.397784  1
  Nd  Nd8  1  0.144181  0.396032  0.397784  1
  Nd  Nd9  1  0.144181  0.103968  0.602216  1
  Nd  Nd10  1  0.144181  0.103968  0.897784  1
  Nd  Nd11  1  0.855819  0.896032  0.102216  1
  Al  Al12  1  0.621185  0.250000  0.000000  1
  Al  Al13  1  0.378815  0.750000  0.000000  1
  Al  Al14  1  0.378815  0.750000  0.500000  1
  Al  Al15  1  0.621185  0.250000  0.500000  1
  Si  Si16  1  0.146887  0.106122  0.250000  1
  Si  Si17  1  0.853113  0.893878  0.750000  1
  Si  Si18  1  0.853113  0.606122  0.250000  1
  Si  Si19  1  0.146887  0.393878  0.750000  1
  Rh  Rh20  1  0.365734  0.029908  0.094226  1
  Rh  Rh21  1  0.634266  0.970092  0.905774  1
  Rh  Rh22  1  0.634266  0.970092  0.594226  1
  Rh  Rh23  1  0.634266  0.529908  0.405774  1
  Rh  Rh24  1  0.365734  0.029908  0.405774  1
  Rh  Rh25  1  0.365734  0.470092  0.594226  1
  Rh  Rh26  1  0.365734  0.470092  0.905774  1
  Rh  Rh27  1  0.634266  0.529908  0.094226  1
