# generated using pymatgen
data_Zr11ScMn2(Si6Ru)2
_symmetry_space_group_name_H-M   'P 1'
_cell_length_a   3.85757400
_cell_length_b   10.47926779
_cell_length_c   11.82139807
_cell_angle_alpha   90.02865137
_cell_angle_beta   90.00000000
_cell_angle_gamma   90.00000000
_symmetry_Int_Tables_number   1
_chemical_formula_structural   Zr11ScMn2(Si6Ru)2
_chemical_formula_sum   'Zr11 Sc1 Mn2 Si12 Ru2'
_cell_volume   477.87464930
_cell_formula_units_Z   1
loop_
 _symmetry_equiv_pos_site_id
 _symmetry_equiv_pos_as_xyz
  1  'x, y, z'
loop_
 _atom_site_type_symbol
 _atom_site_label
 _atom_site_symmetry_multiplicity
 _atom_site_fract_x
 _atom_site_fract_y
 _atom_site_fract_z
 _atom_site_occupancy
  Zr  Zr0  1  0.250000  0.875874  0.020298  1
  Zr  Zr1  1  0.250000  0.624463  0.520310  1
  Zr  Zr2  1  0.750000  0.121770  0.978473  1
  Zr  Zr3  1  0.750000  0.378223  0.477773  1
  Zr  Zr4  1  0.250000  0.927807  0.599483  1
  Zr  Zr5  1  0.250000  0.571047  0.100174  1
  Zr  Zr6  1  0.750000  0.073523  0.400250  1
  Zr  Zr7  1  0.750000  0.426063  0.901200  1
  Zr  Zr8  1  0.250000  0.660945  0.800488  1
  Zr  Zr9  1  0.250000  0.838870  0.300381  1
  Zr  Zr10  1  0.750000  0.341931  0.198580  1
  Sc  Sc11  1  0.750000  0.160085  0.698483  1
  Mn  Mn12  1  0.750000  0.617723  0.322209  1
  Mn  Mn13  1  0.750000  0.882355  0.822440  1
  Si  Si14  1  0.250000  0.016407  0.824692  1
  Si  Si15  1  0.250000  0.484485  0.325091  1
  Si  Si16  1  0.750000  0.982529  0.174140  1
  Si  Si17  1  0.750000  0.516138  0.674556  1
  Si  Si18  1  0.250000  0.249857  0.841789  1
  Si  Si19  1  0.250000  0.250183  0.342534  1
  Si  Si20  1  0.750000  0.747589  0.157817  1
  Si  Si21  1  0.750000  0.752344  0.658029  1
  Si  Si22  1  0.250000  0.195624  0.542547  1
  Si  Si23  1  0.250000  0.304549  0.041587  1
  Si  Si24  1  0.750000  0.807502  0.458554  1
  Si  Si25  1  0.750000  0.692878  0.958653  1
  Ru  Ru26  1  0.250000  0.384676  0.679534  1
  Ru  Ru27  1  0.250000  0.114559  0.179939  1
