# generated using pymatgen
data_Tm5LuAl24Ru7Pt
_symmetry_space_group_name_H-M   'P 1'
_cell_length_a   8.76136891
_cell_length_b   8.76136735
_cell_length_c   9.55616800
_cell_angle_alpha   89.87559150
_cell_angle_beta   90.12440861
_cell_angle_gamma   119.90038246
_symmetry_Int_Tables_number   1
_chemical_formula_structural   Tm5LuAl24Ru7Pt
_chemical_formula_sum   'Tm5 Lu1 Al24 Ru7 Pt1'
_cell_volume   635.90461119
_cell_formula_units_Z   1
loop_
 _symmetry_equiv_pos_site_id
 _symmetry_equiv_pos_as_xyz
  1  'x, y, z'
loop_
 _atom_site_type_symbol
 _atom_site_label
 _atom_site_symmetry_multiplicity
 _atom_site_fract_x
 _atom_site_fract_y
 _atom_site_fract_z
 _atom_site_occupancy
  Tm  Tm0  1  0.194497  0.805503  0.251746  1
  Tm  Tm1  1  0.387034  0.191341  0.748930  1
  Tm  Tm2  1  0.613026  0.808640  0.251067  1
  Tm  Tm3  1  0.808659  0.612966  0.748930  1
  Tm  Tm4  1  0.191360  0.386974  0.251067  1
  Lu  Lu5  1  0.805205  0.194795  0.748224  1
  Al  Al6  1  0.669411  0.330589  0.977847  1
  Al  Al7  1  0.330704  0.669296  0.022037  1
  Al  Al8  1  0.333507  0.666493  0.478983  1
  Al  Al9  1  0.666595  0.333405  0.521138  1
  Al  Al10  1  0.836790  0.163210  0.422389  1
  Al  Al11  1  0.163191  0.836809  0.577766  1
  Al  Al12  1  0.325472  0.163431  0.422322  1
  Al  Al13  1  0.162670  0.837330  0.921176  1
  Al  Al14  1  0.674577  0.836703  0.577747  1
  Al  Al15  1  0.837312  0.162688  0.078688  1
  Al  Al16  1  0.836569  0.674528  0.422322  1
  Al  Al17  1  0.675965  0.842299  0.920872  1
  Al  Al18  1  0.163297  0.325423  0.577747  1
  Al  Al19  1  0.324077  0.157836  0.079055  1
  Al  Al20  1  0.157701  0.324035  0.920872  1
  Al  Al21  1  0.842164  0.675923  0.079055  1
  Al  Al22  1  0.437577  0.562423  0.746752  1
  Al  Al23  1  0.562408  0.437592  0.253262  1
  Al  Al24  1  0.122702  0.560720  0.750249  1
  Al  Al25  1  0.877064  0.438997  0.249752  1
  Al  Al26  1  0.439280  0.877298  0.750249  1
  Al  Al27  1  0.561003  0.122936  0.249752  1
  Al  Al28  1  0.000242  0.999758  0.749826  1
  Al  Al29  1  0.999641  0.000359  0.250171  1
  Ru  Ru30  1  0.999876  0.499787  0.999874  1
  Ru  Ru31  1  0.500048  0.499952  0.500018  1
  Ru  Ru32  1  0.500213  0.000124  0.999874  1
  Ru  Ru33  1  0.999873  0.499762  0.500123  1
  Ru  Ru34  1  0.500238  0.000127  0.500123  1
  Ru  Ru35  1  0.000006  0.999994  0.000002  1
  Ru  Ru36  1  0.000003  0.999997  0.500017  1
  Pt  Pt37  1  0.500045  0.499955  0.999973  1
