# generated using pymatgen
data_Pr10InSi4Hg
_symmetry_space_group_name_H-M   'P 1'
_cell_length_a   7.87781800
_cell_length_b   9.34689578
_cell_length_c   7.87781800
_cell_angle_alpha   114.92387295
_cell_angle_beta   90.00000000
_cell_angle_gamma   114.92387295
_symmetry_Int_Tables_number   1
_chemical_formula_structural   Pr10InSi4Hg
_chemical_formula_sum   'Pr10 In1 Si4 Hg1'
_cell_volume   465.79933502
_cell_formula_units_Z   1
loop_
 _symmetry_equiv_pos_site_id
 _symmetry_equiv_pos_as_xyz
  1  'x, y, z'
loop_
 _atom_site_type_symbol
 _atom_site_label
 _atom_site_symmetry_multiplicity
 _atom_site_fract_x
 _atom_site_fract_y
 _atom_site_fract_z
 _atom_site_occupancy
  Pr  Pr0  1  0.976418  0.952835  0.976418  1
  Pr  Pr1  1  0.523582  0.047165  0.523582  1
  Pr  Pr2  1  0.530863  0.725222  0.677871  1
  Pr  Pr3  1  0.194361  0.725222  0.047352  1
  Pr  Pr4  1  0.677871  0.725222  0.194361  1
  Pr  Pr5  1  0.047352  0.725222  0.530863  1
  Pr  Pr6  1  0.452648  0.274778  0.305639  1
  Pr  Pr7  1  0.822129  0.274778  0.969137  1
  Pr  Pr8  1  0.305639  0.274778  0.822129  1
  Pr  Pr9  1  0.969137  0.274778  0.452648  1
  In  In10  1  0.750000  0.500000  0.750000  1
  Si  Si11  1  0.884618  0.000000  0.615382  1
  Si  Si12  1  0.115382  0.000000  0.384618  1
  Si  Si13  1  0.615382  0.000000  0.115382  1
  Si  Si14  1  0.384618  0.000000  0.884618  1
  Hg  Hg15  1  0.250000  0.500000  0.250000  1
