# generated using pymatgen
data_TmLuNp2(NiAs)4
_symmetry_space_group_name_H-M   'P 1'
_cell_length_a   4.03939600
_cell_length_b   4.03939639
_cell_length_c   15.23521800
_cell_angle_alpha   90.00000000
_cell_angle_beta   90.00000000
_cell_angle_gamma   119.99999682
_symmetry_Int_Tables_number   1
_chemical_formula_structural   TmLuNp2(NiAs)4
_chemical_formula_sum   'Tm1 Lu1 Np2 Ni4 As4'
_cell_volume   215.28423215
_cell_formula_units_Z   1
loop_
 _symmetry_equiv_pos_site_id
 _symmetry_equiv_pos_as_xyz
  1  'x, y, z'
loop_
 _atom_site_type_symbol
 _atom_site_label
 _atom_site_symmetry_multiplicity
 _atom_site_fract_x
 _atom_site_fract_y
 _atom_site_fract_z
 _atom_site_occupancy
  Tm  Tm0  1  0.000000  0.000000  0.750000  1
  Lu  Lu1  1  0.000000  0.000000  0.250000  1
  Np  Np2  1  0.000000  0.000000  0.000887  1
  Np  Np3  1  0.000000  0.000000  0.499113  1
  Ni  Ni4  1  0.333333  0.666667  0.143154  1
  Ni  Ni5  1  0.666667  0.333333  0.859615  1
  Ni  Ni6  1  0.666667  0.333333  0.640385  1
  Ni  Ni7  1  0.333333  0.666667  0.356846  1
  As  As8  1  0.333333  0.666667  0.620064  1
  As  As9  1  0.666667  0.333333  0.378960  1
  As  As10  1  0.666667  0.333333  0.121040  1
  As  As11  1  0.333333  0.666667  0.879936  1
