# generated using pymatgen
data_Tb6Pr7Th3(CdIr)4
_symmetry_space_group_name_H-M   'P 1'
_cell_length_a   9.89893406
_cell_length_b   9.91089410
_cell_length_c   9.88116100
_cell_angle_alpha   60.09920108
_cell_angle_beta   60.05938534
_cell_angle_gamma   60.30481020
_symmetry_Int_Tables_number   1
_chemical_formula_structural   Tb6Pr7Th3(CdIr)4
_chemical_formula_sum   'Tb6 Pr7 Th3 Cd4 Ir4'
_cell_volume   687.87017755
_cell_formula_units_Z   1
loop_
 _symmetry_equiv_pos_site_id
 _symmetry_equiv_pos_as_xyz
  1  'x, y, z'
loop_
 _atom_site_type_symbol
 _atom_site_label
 _atom_site_symmetry_multiplicity
 _atom_site_fract_x
 _atom_site_fract_y
 _atom_site_fract_z
 _atom_site_occupancy
  Tb  Tb0  1  0.953228  0.346633  0.350068  1
  Tb  Tb1  1  0.812838  0.189644  0.187193  1
  Tb  Tb2  1  0.189155  0.813588  0.812002  1
  Tb  Tb3  1  0.189155  0.813588  0.185256  1
  Tb  Tb4  1  0.812838  0.189644  0.810324  1
  Tb  Tb5  1  0.186336  0.185621  0.814022  1
  Pr  Pr6  1  0.813321  0.812247  0.187215  1
  Pr  Pr7  1  0.943466  0.558085  0.561718  1
  Pr  Pr8  1  0.558642  0.941321  0.938000  1
  Pr  Pr9  1  0.558642  0.941321  0.562037  1
  Pr  Pr10  1  0.943466  0.558085  0.936730  1
  Pr  Pr11  1  0.560691  0.561371  0.938969  1
  Pr  Pr12  1  0.940812  0.938308  0.560440  1
  Th  Th13  1  0.345243  0.348280  0.348140  1
  Th  Th14  1  0.345243  0.348280  0.958335  1
  Th  Th15  1  0.343381  0.958113  0.349252  1
  Cd  Cd16  1  0.579971  0.578294  0.580083  1
  Cd  Cd17  1  0.579971  0.578294  0.261652  1
  Cd  Cd18  1  0.581233  0.260355  0.579206  1
  Cd  Cd19  1  0.259045  0.580662  0.580146  1
  Ir  Ir20  1  0.144574  0.140781  0.142661  1
  Ir  Ir21  1  0.144574  0.140781  0.571983  1
  Ir  Ir22  1  0.148672  0.568589  0.141369  1
  Ir  Ir23  1  0.565499  0.148111  0.143195  1
