# generated using pymatgen
data_CeY(MoN2)2
_symmetry_space_group_name_H-M   'P 1'
_cell_length_a   3.24785700
_cell_length_b   5.73554700
_cell_length_c   10.73877400
_cell_angle_alpha   90.00000000
_cell_angle_beta   90.00000000
_cell_angle_gamma   90.00000000
_symmetry_Int_Tables_number   1
_chemical_formula_structural   CeY(MoN2)2
_chemical_formula_sum   'Ce2 Y2 Mo4 N8'
_cell_volume   200.04442150
_cell_formula_units_Z   2
loop_
 _symmetry_equiv_pos_site_id
 _symmetry_equiv_pos_as_xyz
  1  'x, y, z'
loop_
 _atom_site_type_symbol
 _atom_site_label
 _atom_site_symmetry_multiplicity
 _atom_site_fract_x
 _atom_site_fract_y
 _atom_site_fract_z
 _atom_site_occupancy
  Ce  Ce0  1  0.250000  0.073445  0.857549  1
  Ce  Ce1  1  0.250000  0.573445  0.642451  1
  Y  Y2  1  0.750000  0.921458  0.150532  1
  Y  Y3  1  0.750000  0.421458  0.349468  1
  Mo  Mo4  1  0.250000  0.434852  0.094600  1
  Mo  Mo5  1  0.250000  0.934852  0.405400  1
  Mo  Mo6  1  0.750000  0.568263  0.905850  1
  Mo  Mo7  1  0.750000  0.068263  0.594150  1
  N  N8  1  0.250000  0.164550  0.247822  1
  N  N9  1  0.250000  0.664550  0.252178  1
  N  N10  1  0.750000  0.834461  0.752270  1
  N  N11  1  0.750000  0.334461  0.747730  1
  N  N12  1  0.250000  0.753490  0.995985  1
  N  N13  1  0.250000  0.253490  0.504015  1
  N  N14  1  0.750000  0.249481  0.009818  1
  N  N15  1  0.750000  0.749481  0.490182  1
