# generated using pymatgen
data_BaU2Tl7S10
_symmetry_space_group_name_H-M   'P 1'
_cell_length_a   7.62956506
_cell_length_b   11.41738449
_cell_length_c   7.38316400
_cell_angle_alpha   102.01473126
_cell_angle_beta   100.47554692
_cell_angle_gamma   109.93379542
_symmetry_Int_Tables_number   1
_chemical_formula_structural   BaU2Tl7S10
_chemical_formula_sum   'Ba1 U2 Tl7 S10'
_cell_volume   568.58098857
_cell_formula_units_Z   1
loop_
 _symmetry_equiv_pos_site_id
 _symmetry_equiv_pos_as_xyz
  1  'x, y, z'
loop_
 _atom_site_type_symbol
 _atom_site_label
 _atom_site_symmetry_multiplicity
 _atom_site_fract_x
 _atom_site_fract_y
 _atom_site_fract_z
 _atom_site_occupancy
  Ba  Ba0  1  0.999819  0.999741  0.499891  1
  U  U1  1  0.191328  0.195448  0.100650  1
  U  U2  1  0.808371  0.804312  0.899244  1
  Tl  Tl3  1  0.000603  0.500919  0.999916  1
  Tl  Tl4  1  0.404437  0.900943  0.206219  1
  Tl  Tl5  1  0.591723  0.591786  0.292385  1
  Tl  Tl6  1  0.785610  0.308338  0.412346  1
  Tl  Tl7  1  0.214174  0.691620  0.587493  1
  Tl  Tl8  1  0.409115  0.409043  0.708047  1
  Tl  Tl9  1  0.595877  0.098649  0.793697  1
  S  S10  1  0.527960  0.312500  0.062172  1
  S  S11  1  0.836309  0.039912  0.110621  1
  S  S12  1  0.975827  0.759369  0.194003  1
  S  S13  1  0.182503  0.399055  0.310082  1
  S  S14  1  0.362851  0.159245  0.399071  1
  S  S15  1  0.636669  0.840830  0.600508  1
  S  S16  1  0.817012  0.599933  0.689928  1
  S  S17  1  0.024683  0.240544  0.806480  1
  S  S18  1  0.164249  0.960736  0.889756  1
  S  S19  1  0.470885  0.687075  0.937491  1
