# generated using pymatgen
data_Pa20Si16N3
_symmetry_space_group_name_H-M   'P 1'
_cell_length_a   10.46125100
_cell_length_b   10.46125014
_cell_length_c   8.22020300
_cell_angle_alpha   90.00000000
_cell_angle_beta   90.00000000
_cell_angle_gamma   119.99999322
_symmetry_Int_Tables_number   1
_chemical_formula_structural   Pa20Si16N3
_chemical_formula_sum   'Pa20 Si16 N3'
_cell_volume   779.07705396
_cell_formula_units_Z   1
loop_
 _symmetry_equiv_pos_site_id
 _symmetry_equiv_pos_as_xyz
  1  'x, y, z'
loop_
 _atom_site_type_symbol
 _atom_site_label
 _atom_site_symmetry_multiplicity
 _atom_site_fract_x
 _atom_site_fract_y
 _atom_site_fract_z
 _atom_site_occupancy
  Pa  Pa0  1  0.000000  0.000000  0.000000  1
  Pa  Pa1  1  0.000000  0.000000  0.500000  1
  Pa  Pa2  1  0.500000  0.000000  0.275114  1
  Pa  Pa3  1  0.500000  0.500000  0.275114  1
  Pa  Pa4  1  0.000000  0.500000  0.275114  1
  Pa  Pa5  1  0.500000  0.000000  0.724886  1
  Pa  Pa6  1  0.500000  0.500000  0.724886  1
  Pa  Pa7  1  0.000000  0.500000  0.724886  1
  Pa  Pa8  1  0.216166  0.432334  0.000000  1
  Pa  Pa9  1  0.783834  0.216166  0.000000  1
  Pa  Pa10  1  0.432334  0.216166  0.000000  1
  Pa  Pa11  1  0.567666  0.783834  0.000000  1
  Pa  Pa12  1  0.216166  0.783834  0.000000  1
  Pa  Pa13  1  0.783834  0.567666  0.000000  1
  Pa  Pa14  1  0.211061  0.422125  0.500000  1
  Pa  Pa15  1  0.788939  0.211061  0.500000  1
  Pa  Pa16  1  0.422125  0.211061  0.500000  1
  Pa  Pa17  1  0.577875  0.788939  0.500000  1
  Pa  Pa18  1  0.211061  0.788939  0.500000  1
  Pa  Pa19  1  0.788939  0.577875  0.500000  1
  Si  Si20  1  0.333333  0.666667  0.253373  1
  Si  Si21  1  0.666667  0.333333  0.253373  1
  Si  Si22  1  0.666667  0.333333  0.746627  1
  Si  Si23  1  0.333333  0.666667  0.746627  1
  Si  Si24  1  0.225396  0.000000  0.247698  1
  Si  Si25  1  0.225396  0.225396  0.247698  1
  Si  Si26  1  0.000000  0.774604  0.247698  1
  Si  Si27  1  0.000000  0.225396  0.247698  1
  Si  Si28  1  0.774604  0.774604  0.247698  1
  Si  Si29  1  0.225396  0.000000  0.752302  1
  Si  Si30  1  0.774604  0.774604  0.752302  1
  Si  Si31  1  0.774604  0.000000  0.247698  1
  Si  Si32  1  0.000000  0.225396  0.752302  1
  Si  Si33  1  0.000000  0.774604  0.752302  1
  Si  Si34  1  0.774604  0.000000  0.752302  1
  Si  Si35  1  0.225396  0.225396  0.752302  1
  N  N36  1  0.500000  0.000000  0.000000  1
  N  N37  1  0.500000  0.500000  0.000000  1
  N  N38  1  0.000000  0.500000  0.000000  1
