# generated using pymatgen
data_Tb8Cu3Si12Ni
_symmetry_space_group_name_H-M   'P 1'
_cell_length_a   7.99924900
_cell_length_b   7.99924852
_cell_length_c   8.17040500
_cell_angle_alpha   90.00000000
_cell_angle_beta   90.00000000
_cell_angle_gamma   120.00000613
_symmetry_Int_Tables_number   1
_chemical_formula_structural   Tb8Cu3Si12Ni
_chemical_formula_sum   'Tb8 Cu3 Si12 Ni1'
_cell_volume   452.76473671
_cell_formula_units_Z   1
loop_
 _symmetry_equiv_pos_site_id
 _symmetry_equiv_pos_as_xyz
  1  'x, y, z'
loop_
 _atom_site_type_symbol
 _atom_site_label
 _atom_site_symmetry_multiplicity
 _atom_site_fract_x
 _atom_site_fract_y
 _atom_site_fract_z
 _atom_site_occupancy
  Tb  Tb0  1  0.499110  0.998218  0.251231  1
  Tb  Tb1  1  0.499277  0.998555  0.748749  1
  Tb  Tb2  1  0.001782  0.500890  0.251231  1
  Tb  Tb3  1  0.001445  0.500723  0.748749  1
  Tb  Tb4  1  0.499110  0.500890  0.251231  1
  Tb  Tb5  1  0.499277  0.500723  0.748749  1
  Tb  Tb6  1  0.000000  0.000000  0.249877  1
  Tb  Tb7  1  0.000000  0.000000  0.750015  1
  Cu  Cu8  1  0.333333  0.666667  0.000401  1
  Cu  Cu9  1  0.666667  0.333333  0.999984  1
  Cu  Cu10  1  0.666667  0.333333  0.499000  1
  Si  Si11  1  0.169278  0.338556  0.999317  1
  Si  Si12  1  0.830889  0.661777  0.000694  1
  Si  Si13  1  0.661444  0.830722  0.999317  1
  Si  Si14  1  0.832040  0.664078  0.500478  1
  Si  Si15  1  0.338223  0.169111  0.000694  1
  Si  Si16  1  0.172197  0.344394  0.499415  1
  Si  Si17  1  0.169278  0.830722  0.999317  1
  Si  Si18  1  0.335922  0.167960  0.500478  1
  Si  Si19  1  0.830889  0.169111  0.000694  1
  Si  Si20  1  0.655606  0.827803  0.499415  1
  Si  Si21  1  0.832040  0.167960  0.500478  1
  Si  Si22  1  0.172197  0.827803  0.499415  1
  Ni  Ni23  1  0.333333  0.666667  0.501069  1
