# generated using pymatgen
data_ScMn2Mo3O8
_symmetry_space_group_name_H-M   'P 1'
_cell_length_a   6.35156586
_cell_length_b   6.35151874
_cell_length_c   6.35161597
_cell_angle_alpha   61.07100434
_cell_angle_beta   61.06904823
_cell_angle_gamma   61.07079808
_symmetry_Int_Tables_number   1
_chemical_formula_structural   ScMn2Mo3O8
_chemical_formula_sum   'Sc1 Mn2 Mo3 O8'
_cell_volume   185.55322594
_cell_formula_units_Z   1
loop_
 _symmetry_equiv_pos_site_id
 _symmetry_equiv_pos_as_xyz
  1  'x, y, z'
loop_
 _atom_site_type_symbol
 _atom_site_label
 _atom_site_symmetry_multiplicity
 _atom_site_fract_x
 _atom_site_fract_y
 _atom_site_fract_z
 _atom_site_occupancy
  Sc  Sc0  1  0.500161  0.500126  0.499758  1
  Mn  Mn1  1  0.877302  0.877317  0.877335  1
  Mn  Mn2  1  0.122675  0.122676  0.122684  1
  Mo  Mo3  1  0.499986  0.499990  0.000001  1
  Mo  Mo4  1  0.000017  0.499959  0.500051  1
  Mo  Mo5  1  0.499958  0.000011  0.500054  1
  O  O6  1  0.739741  0.739741  0.739760  1
  O  O7  1  0.263251  0.263256  0.718446  1
  O  O8  1  0.263246  0.718435  0.263288  1
  O  O9  1  0.718437  0.263250  0.263286  1
  O  O10  1  0.736712  0.281552  0.736751  1
  O  O11  1  0.281545  0.736719  0.736760  1
  O  O12  1  0.260249  0.260238  0.260271  1
  O  O13  1  0.736725  0.736725  0.281556  1
