# generated using pymatgen
data_LaPr3Al18(IrPt)3
_symmetry_space_group_name_H-M   'P 1'
_cell_length_a   7.67907864
_cell_length_b   7.67864669
_cell_length_c   9.61170575
_cell_angle_alpha   89.99668830
_cell_angle_beta   89.98730710
_cell_angle_gamma   119.63474832
_symmetry_Int_Tables_number   1
_chemical_formula_structural   LaPr3Al18(IrPt)3
_chemical_formula_sum   'La1 Pr3 Al18 Ir3 Pt3'
_cell_volume   492.61946892
_cell_formula_units_Z   1
loop_
 _symmetry_equiv_pos_site_id
 _symmetry_equiv_pos_as_xyz
  1  'x, y, z'
loop_
 _atom_site_type_symbol
 _atom_site_label
 _atom_site_symmetry_multiplicity
 _atom_site_fract_x
 _atom_site_fract_y
 _atom_site_fract_z
 _atom_site_occupancy
  La  La0  1  0.995377  0.669383  0.250250  1
  Pr  Pr1  1  0.004857  0.331818  0.750016  1
  Pr  Pr2  1  0.668089  0.994735  0.249978  1
  Pr  Pr3  1  0.330563  0.004022  0.749884  1
  Al  Al4  1  0.128833  0.130346  0.250535  1
  Al  Al5  1  0.871106  0.872100  0.749444  1
  Al  Al6  1  0.002061  0.330139  0.073581  1
  Al  Al7  1  0.997323  0.669371  0.924787  1
  Al  Al8  1  0.994907  0.665475  0.573170  1
  Al  Al9  1  0.335396  0.005805  0.427802  1
  Al  Al10  1  0.997726  0.329642  0.428200  1
  Al  Al11  1  0.669543  0.002272  0.572151  1
  Al  Al12  1  0.669106  0.997961  0.926082  1
  Al  Al13  1  0.331517  0.003383  0.074316  1
  Al  Al14  1  0.333879  0.330600  0.548322  1
  Al  Al15  1  0.668623  0.666125  0.452505  1
  Al  Al16  1  0.667550  0.668241  0.050957  1
  Al  Al17  1  0.331741  0.331692  0.948287  1
  Al  Al18  1  0.341563  0.542661  0.250365  1
  Al  Al19  1  0.659018  0.454166  0.746770  1
  Al  Al20  1  0.544111  0.339848  0.253227  1
  Al  Al21  1  0.457274  0.659520  0.749561  1
  Ir  Ir22  1  0.670643  0.329342  0.499943  1
  Ir  Ir23  1  0.000049  0.000141  0.000014  1
  Ir  Ir24  1  0.000325  0.999900  0.499951  1
  Pt  Pt25  1  0.670988  0.328845  0.999944  1
  Pt  Pt26  1  0.328888  0.671232  0.999932  1
  Pt  Pt27  1  0.328942  0.671234  0.500025  1
