# generated using pymatgen
data_Hf6Ga6Ir2Pd3Pt
_symmetry_space_group_name_H-M   'P 1'
_cell_length_a   7.27613000
_cell_length_b   7.27612914
_cell_length_c   6.81650000
_cell_angle_alpha   90.00000000
_cell_angle_beta   90.00000000
_cell_angle_gamma   119.99999484
_symmetry_Int_Tables_number   1
_chemical_formula_structural   Hf6Ga6Ir2Pd3Pt
_chemical_formula_sum   'Hf6 Ga6 Ir2 Pd3 Pt1'
_cell_volume   312.53088475
_cell_formula_units_Z   1
loop_
 _symmetry_equiv_pos_site_id
 _symmetry_equiv_pos_as_xyz
  1  'x, y, z'
loop_
 _atom_site_type_symbol
 _atom_site_label
 _atom_site_symmetry_multiplicity
 _atom_site_fract_x
 _atom_site_fract_y
 _atom_site_fract_z
 _atom_site_occupancy
  Hf  Hf0  1  0.604344  0.599059  0.250812  1
  Hf  Hf1  1  0.023946  0.408170  0.749412  1
  Hf  Hf2  1  0.400941  0.005286  0.250812  1
  Hf  Hf3  1  0.994714  0.395656  0.250812  1
  Hf  Hf4  1  0.384225  0.976054  0.749412  1
  Hf  Hf5  1  0.591830  0.615775  0.749412  1
  Ga  Ga6  1  0.272955  0.269004  0.499696  1
  Ga  Ga7  1  0.730996  0.003950  0.499696  1
  Ga  Ga8  1  0.996050  0.727045  0.499696  1
  Ga  Ga9  1  0.732507  0.006474  0.001148  1
  Ga  Ga10  1  0.273968  0.267493  0.001148  1
  Ga  Ga11  1  0.993526  0.726032  0.001148  1
  Ir  Ir12  1  0.333333  0.666667  0.483291  1
  Ir  Ir13  1  0.333333  0.666667  0.017456  1
  Pd  Pd14  1  0.000000  0.000000  0.748695  1
  Pd  Pd15  1  0.000000  0.000000  0.252455  1
  Pd  Pd16  1  0.666667  0.333333  0.971842  1
  Pt  Pt17  1  0.666667  0.333333  0.523059  1
