# generated using pymatgen
data_Tb2HoTm2Sb3
_symmetry_space_group_name_H-M   'P 1'
_cell_length_a   8.96043073
_cell_length_b   8.97636824
_cell_length_c   6.26917400
_cell_angle_alpha   90.00000000
_cell_angle_beta   90.00000000
_cell_angle_gamma   120.05885875
_symmetry_Int_Tables_number   1
_chemical_formula_structural   Tb2HoTm2Sb3
_chemical_formula_sum   'Tb4 Ho2 Tm4 Sb6'
_cell_volume   436.42801118
_cell_formula_units_Z   2
loop_
 _symmetry_equiv_pos_site_id
 _symmetry_equiv_pos_as_xyz
  1  'x, y, z'
loop_
 _atom_site_type_symbol
 _atom_site_label
 _atom_site_symmetry_multiplicity
 _atom_site_fract_x
 _atom_site_fract_y
 _atom_site_fract_z
 _atom_site_occupancy
  Tb  Tb0  1  0.752877  0.752672  0.250000  1
  Tb  Tb1  1  0.752877  0.000204  0.750000  1
  Tb  Tb2  1  0.247123  0.247328  0.750000  1
  Tb  Tb3  1  0.247123  0.999796  0.250000  1
  Ho  Ho4  1  0.000000  0.752446  0.750000  1
  Ho  Ho5  1  0.000000  0.247554  0.250000  1
  Tm  Tm6  1  0.333485  0.666743  0.500000  1
  Tm  Tm7  1  0.666515  0.333257  0.000000  1
  Tm  Tm8  1  0.666515  0.333257  0.500000  1
  Tm  Tm9  1  0.333485  0.666743  0.000000  1
  Sb  Sb10  1  0.389562  0.999472  0.750000  1
  Sb  Sb11  1  0.389562  0.390091  0.250000  1
  Sb  Sb12  1  0.000000  0.609521  0.250000  1
  Sb  Sb13  1  0.000000  0.390479  0.750000  1
  Sb  Sb14  1  0.610438  0.609909  0.750000  1
  Sb  Sb15  1  0.610438  0.000528  0.250000  1
