# generated using pymatgen
data_SrFe2(Sb6Os)2
_symmetry_space_group_name_H-M   'P 1'
_cell_length_a   8.07272329
_cell_length_b   8.10388343
_cell_length_c   8.07272391
_cell_angle_alpha   109.46163545
_cell_angle_beta   109.27586258
_cell_angle_gamma   109.51974930
_symmetry_Int_Tables_number   1
_chemical_formula_structural   SrFe2(Sb6Os)2
_chemical_formula_sum   'Sr1 Fe2 Sb12 Os2'
_cell_volume   407.32904002
_cell_formula_units_Z   1
loop_
 _symmetry_equiv_pos_site_id
 _symmetry_equiv_pos_as_xyz
  1  'x, y, z'
loop_
 _atom_site_type_symbol
 _atom_site_label
 _atom_site_symmetry_multiplicity
 _atom_site_fract_x
 _atom_site_fract_y
 _atom_site_fract_z
 _atom_site_occupancy
  Sr  Sr0  1  0.000000  0.000000  0.000000  1
  Fe  Fe1  1  0.000000  0.500000  0.000000  1
  Fe  Fe2  1  0.500000  0.500000  0.500000  1
  Sb  Sb3  1  0.342552  0.185573  0.843020  1
  Sb  Sb4  1  0.657448  0.814427  0.156980  1
  Sb  Sb5  1  0.664601  0.502958  0.838357  1
  Sb  Sb6  1  0.335399  0.497042  0.161643  1
  Sb  Sb7  1  0.178837  0.835424  0.333836  1
  Sb  Sb8  1  0.821163  0.164576  0.666164  1
  Sb  Sb9  1  0.501589  0.835424  0.656587  1
  Sb  Sb10  1  0.498411  0.164576  0.343413  1
  Sb  Sb11  1  0.845036  0.342899  0.178575  1
  Sb  Sb12  1  0.154964  0.657101  0.821425  1
  Sb  Sb13  1  0.835676  0.657101  0.502138  1
  Sb  Sb14  1  0.164324  0.342899  0.497862  1
  Os  Os15  1  0.000000  0.000000  0.500000  1
  Os  Os16  1  0.500000  0.000000  0.000000  1
