# generated using pymatgen
data_YTm3Cu3Sb8
_symmetry_space_group_name_H-M   'P 1'
_cell_length_a   10.53678031
_cell_length_b   10.53678070
_cell_length_c   10.52900051
_cell_angle_alpha   146.34872558
_cell_angle_beta   146.34872251
_cell_angle_gamma   48.32259676
_symmetry_Int_Tables_number   1
_chemical_formula_structural   YTm3Cu3Sb8
_chemical_formula_sum   'Y1 Tm3 Cu3 Sb8'
_cell_volume   357.45737986
_cell_formula_units_Z   1
loop_
 _symmetry_equiv_pos_site_id
 _symmetry_equiv_pos_as_xyz
  1  'x, y, z'
loop_
 _atom_site_type_symbol
 _atom_site_label
 _atom_site_symmetry_multiplicity
 _atom_site_fract_x
 _atom_site_fract_y
 _atom_site_fract_z
 _atom_site_occupancy
  Y  Y0  1  0.632487  0.632487  0.509029  1
  Tm  Tm1  1  0.123174  0.123174  0.489544  1
  Tm  Tm2  1  0.366300  0.876739  0.000191  1
  Tm  Tm3  1  0.876739  0.366300  0.000191  1
  Cu  Cu4  1  0.002010  0.002010  0.002016  1
  Cu  Cu5  1  0.001755  0.498845  0.499724  1
  Cu  Cu6  1  0.498845  0.001755  0.499724  1
  Sb  Sb7  1  0.336346  0.336346  0.517400  1
  Sb  Sb8  1  0.818444  0.818444  0.483496  1
  Sb  Sb9  1  0.665627  0.181125  0.999439  1
  Sb  Sb10  1  0.181125  0.665627  0.999439  1
  Sb  Sb11  1  0.249272  0.249272  0.998807  1
  Sb  Sb12  1  0.749410  0.749410  0.001122  1
  Sb  Sb13  1  0.749872  0.248594  0.499940  1
  Sb  Sb14  1  0.248594  0.749872  0.499940  1
