# generated using pymatgen
data_Nd10Co2Sn3Bi
_symmetry_space_group_name_H-M   'P 1'
_cell_length_a   8.26736186
_cell_length_b   9.11792843
_cell_length_c   12.67008061
_cell_angle_alpha   90.27052328
_cell_angle_beta   90.04416080
_cell_angle_gamma   89.97174697
_symmetry_Int_Tables_number   1
_chemical_formula_structural   Nd10Co2Sn3Bi
_chemical_formula_sum   'Nd20 Co4 Sn6 Bi2'
_cell_volume   955.07501052
_cell_formula_units_Z   2
loop_
 _symmetry_equiv_pos_site_id
 _symmetry_equiv_pos_as_xyz
  1  'x, y, z'
loop_
 _atom_site_type_symbol
 _atom_site_label
 _atom_site_symmetry_multiplicity
 _atom_site_fract_x
 _atom_site_fract_y
 _atom_site_fract_z
 _atom_site_occupancy
  Nd  Nd0  1  0.846725  0.747692  0.796700  1
  Nd  Nd1  1  0.153275  0.252308  0.203300  1
  Nd  Nd2  1  0.351185  0.252774  0.705265  1
  Nd  Nd3  1  0.648815  0.747226  0.294735  1
  Nd  Nd4  1  0.380539  0.747480  0.694708  1
  Nd  Nd5  1  0.619461  0.252520  0.305292  1
  Nd  Nd6  1  0.872840  0.252102  0.806789  1
  Nd  Nd7  1  0.127160  0.747898  0.193211  1
  Nd  Nd8  1  0.947883  0.743681  0.503069  1
  Nd  Nd9  1  0.052117  0.256319  0.496931  1
  Nd  Nd10  1  0.452284  0.249926  0.997251  1
  Nd  Nd11  1  0.547716  0.750074  0.002749  1
  Nd  Nd12  1  0.675624  0.029212  0.569043  1
  Nd  Nd13  1  0.324376  0.970788  0.430957  1
  Nd  Nd14  1  0.180991  0.968662  0.936478  1
  Nd  Nd15  1  0.320698  0.531788  0.431394  1
  Nd  Nd16  1  0.819009  0.031338  0.063522  1
  Nd  Nd17  1  0.679302  0.468212  0.568606  1
  Nd  Nd18  1  0.820447  0.471170  0.068678  1
  Nd  Nd19  1  0.179553  0.528830  0.931322  1
  Co  Co20  1  0.571547  0.751020  0.508212  1
  Co  Co21  1  0.428453  0.248980  0.491788  1
  Co  Co22  1  0.069803  0.249888  0.991435  1
  Co  Co23  1  0.930197  0.750112  0.008565  1
  Sn  Sn24  1  0.571549  0.494903  0.828818  1
  Sn  Sn25  1  0.428451  0.505097  0.171182  1
  Sn  Sn26  1  0.070824  0.505379  0.673302  1
  Sn  Sn27  1  0.428374  0.995099  0.171809  1
  Sn  Sn28  1  0.929176  0.494621  0.326698  1
  Sn  Sn29  1  0.571626  0.004901  0.828191  1
  Bi  Bi30  1  0.926660  0.005782  0.327140  1
  Bi  Bi31  1  0.073340  0.994218  0.672860  1
