# generated using pymatgen
data_SrLa4Hf2ThSb10
_symmetry_space_group_name_H-M   'P 1'
_cell_length_a   9.60948210
_cell_length_b   9.61368400
_cell_length_c   6.44423200
_cell_angle_alpha   90.00000000
_cell_angle_beta   90.00000000
_cell_angle_gamma   120.00202417
_symmetry_Int_Tables_number   1
_chemical_formula_structural   SrLa4Hf2ThSb10
_chemical_formula_sum   'Sr1 La4 Hf2 Th1 Sb10'
_cell_volume   515.56421431
_cell_formula_units_Z   1
loop_
 _symmetry_equiv_pos_site_id
 _symmetry_equiv_pos_as_xyz
  1  'x, y, z'
loop_
 _atom_site_type_symbol
 _atom_site_label
 _atom_site_symmetry_multiplicity
 _atom_site_fract_x
 _atom_site_fract_y
 _atom_site_fract_z
 _atom_site_occupancy
  Sr  Sr0  1  0.615668  0.614075  0.750000  1
  La  La1  1  0.382284  0.000340  0.750000  1
  La  La2  1  0.383360  0.383612  0.250000  1
  La  La3  1  0.998725  0.618889  0.250000  1
  La  La4  1  0.002158  0.386309  0.750000  1
  Hf  Hf5  1  0.999347  0.999199  0.996618  1
  Hf  Hf6  1  0.999347  0.999199  0.503382  1
  Th  Th7  1  0.618038  0.998500  0.250000  1
  Sb  Sb8  1  0.333973  0.671138  0.495096  1
  Sb  Sb9  1  0.666243  0.325203  0.004807  1
  Sb  Sb10  1  0.666243  0.325203  0.495193  1
  Sb  Sb11  1  0.333973  0.671138  0.004904  1
  Sb  Sb12  1  0.742046  0.003994  0.750000  1
  Sb  Sb13  1  0.743403  0.746417  0.250000  1
  Sb  Sb14  1  0.997826  0.256011  0.250000  1
  Sb  Sb15  1  0.002497  0.742708  0.750000  1
  Sb  Sb16  1  0.258842  0.001099  0.250000  1
  Sb  Sb17  1  0.256026  0.256966  0.750000  1
