# generated using pymatgen
data_Ce9Th(RuPb3)2
_symmetry_space_group_name_H-M   'P 1'
_cell_length_a   9.70035103
_cell_length_b   9.70035297
_cell_length_c   6.39219500
_cell_angle_alpha   90.00000000
_cell_angle_beta   90.00000000
_cell_angle_gamma   119.94712686
_symmetry_Int_Tables_number   1
_chemical_formula_structural   Ce9Th(RuPb3)2
_chemical_formula_sum   'Ce9 Th1 Ru2 Pb6'
_cell_volume   521.17883891
_cell_formula_units_Z   1
loop_
 _symmetry_equiv_pos_site_id
 _symmetry_equiv_pos_as_xyz
  1  'x, y, z'
loop_
 _atom_site_type_symbol
 _atom_site_label
 _atom_site_symmetry_multiplicity
 _atom_site_fract_x
 _atom_site_fract_y
 _atom_site_fract_z
 _atom_site_occupancy
  Ce  Ce0  1  0.758954  0.758954  0.250000  1
  Ce  Ce1  1  0.240530  0.999686  0.250000  1
  Ce  Ce2  1  0.759561  0.000093  0.750000  1
  Ce  Ce3  1  0.333240  0.666864  0.499433  1
  Ce  Ce4  1  0.666864  0.333240  0.499433  1
  Ce  Ce5  1  0.999686  0.240530  0.250000  1
  Ce  Ce6  1  0.000093  0.759561  0.750000  1
  Ce  Ce7  1  0.333240  0.666864  0.000567  1
  Ce  Ce8  1  0.666864  0.333240  0.000567  1
  Th  Th9  1  0.241520  0.241520  0.750000  1
  Ru  Ru10  1  0.998974  0.998974  0.001262  1
  Ru  Ru11  1  0.998974  0.998974  0.498738  1
  Pb  Pb12  1  0.396435  0.396435  0.250000  1
  Pb  Pb13  1  0.604923  0.604923  0.750000  1
  Pb  Pb14  1  0.999344  0.396888  0.750000  1
  Pb  Pb15  1  0.603908  0.000002  0.250000  1
  Pb  Pb16  1  0.396888  0.999344  0.750000  1
  Pb  Pb17  1  0.000002  0.603908  0.250000  1
