# generated using pymatgen
data_RbTb2Ag3Se5
_symmetry_space_group_name_H-M   'P 1'
_cell_length_a   4.31234000
_cell_length_b   8.06825794
_cell_length_c   17.53734400
_cell_angle_alpha   90.00000000
_cell_angle_beta   90.00000000
_cell_angle_gamma   74.49983898
_symmetry_Int_Tables_number   1
_chemical_formula_structural   RbTb2Ag3Se5
_chemical_formula_sum   'Rb2 Tb4 Ag6 Se10'
_cell_volume   587.98570520
_cell_formula_units_Z   2
loop_
 _symmetry_equiv_pos_site_id
 _symmetry_equiv_pos_as_xyz
  1  'x, y, z'
loop_
 _atom_site_type_symbol
 _atom_site_label
 _atom_site_symmetry_multiplicity
 _atom_site_fract_x
 _atom_site_fract_y
 _atom_site_fract_z
 _atom_site_occupancy
  Rb  Rb0  1  0.562320  0.875360  0.250000  1
  Rb  Rb1  1  0.437680  0.124639  0.750000  1
  Tb  Tb2  1  0.307602  0.384797  0.095244  1
  Tb  Tb3  1  0.307602  0.384797  0.404756  1
  Tb  Tb4  1  0.692397  0.615204  0.595244  1
  Tb  Tb5  1  0.692397  0.615204  0.904756  1
  Ag  Ag6  1  0.083611  0.832778  0.041568  1
  Ag  Ag7  1  0.843418  0.313166  0.250000  1
  Ag  Ag8  1  0.083611  0.832778  0.458432  1
  Ag  Ag9  1  0.916389  0.167221  0.541568  1
  Ag  Ag10  1  0.156583  0.686834  0.750000  1
  Ag  Ag11  1  0.916389  0.167221  0.958432  1
  Se  Se12  1  0.681371  0.637258  0.070615  1
  Se  Se13  1  0.932244  0.135513  0.116979  1
  Se  Se14  1  0.244634  0.510730  0.250000  1
  Se  Se15  1  0.932244  0.135513  0.383021  1
  Se  Se16  1  0.681371  0.637258  0.429385  1
  Se  Se17  1  0.318629  0.362743  0.570615  1
  Se  Se18  1  0.067755  0.864488  0.616980  1
  Se  Se19  1  0.755366  0.489269  0.750000  1
  Se  Se20  1  0.067755  0.864488  0.883021  1
  Se  Se21  1  0.318629  0.362743  0.929385  1
