# generated using pymatgen
data_Nd15DyCd4Co3Ni
_symmetry_space_group_name_H-M   'P 1'
_cell_length_a   9.84297406
_cell_length_b   9.84297337
_cell_length_c   9.84765759
_cell_angle_alpha   59.95185591
_cell_angle_beta   59.95185441
_cell_angle_gamma   60.14304807
_symmetry_Int_Tables_number   1
_chemical_formula_structural   Nd15DyCd4Co3Ni
_chemical_formula_sum   'Nd15 Dy1 Cd4 Co3 Ni1'
_cell_volume   674.87104175
_cell_formula_units_Z   1
loop_
 _symmetry_equiv_pos_site_id
 _symmetry_equiv_pos_as_xyz
  1  'x, y, z'
loop_
 _atom_site_type_symbol
 _atom_site_label
 _atom_site_symmetry_multiplicity
 _atom_site_fract_x
 _atom_site_fract_y
 _atom_site_fract_z
 _atom_site_occupancy
  Nd  Nd0  1  0.150805  0.540878  0.155036  1
  Nd  Nd1  1  0.691543  0.311670  0.685875  1
  Nd  Nd2  1  0.686439  0.311497  0.313843  1
  Nd  Nd3  1  0.941049  0.560102  0.562368  1
  Nd  Nd4  1  0.540878  0.150805  0.155036  1
  Nd  Nd5  1  0.154520  0.154520  0.540517  1
  Nd  Nd6  1  0.939689  0.939689  0.559499  1
  Nd  Nd7  1  0.311497  0.686439  0.313843  1
  Nd  Nd8  1  0.560718  0.937791  0.937523  1
  Nd  Nd9  1  0.560102  0.941049  0.562368  1
  Nd  Nd10  1  0.689772  0.689772  0.312476  1
  Nd  Nd11  1  0.560749  0.560749  0.940759  1
  Nd  Nd12  1  0.937791  0.560718  0.937523  1
  Nd  Nd13  1  0.311670  0.691543  0.685875  1
  Nd  Nd14  1  0.153110  0.153110  0.153494  1
  Dy  Dy15  1  0.309872  0.309872  0.687277  1
  Cd  Cd16  1  0.922093  0.239704  0.919127  1
  Cd  Cd17  1  0.920473  0.920473  0.920746  1
  Cd  Cd18  1  0.920116  0.920116  0.239803  1
  Cd  Cd19  1  0.239704  0.922093  0.919127  1
  Co  Co20  1  0.357793  0.923537  0.357789  1
  Co  Co21  1  0.923537  0.357793  0.357789  1
  Co  Co22  1  0.358422  0.358422  0.360534  1
  Ni  Ni23  1  0.357661  0.357661  0.921768  1
