# generated using pymatgen
data_Er3Al8(FeSi)4
_symmetry_space_group_name_H-M   'P 1'
_cell_length_a   8.45039826
_cell_length_b   8.45039793
_cell_length_c   9.18834900
_cell_angle_alpha   90.00000000
_cell_angle_beta   90.00000000
_cell_angle_gamma   120.00486581
_symmetry_Int_Tables_number   1
_chemical_formula_structural   Er3Al8(FeSi)4
_chemical_formula_sum   'Er6 Al16 Fe8 Si8'
_cell_volume   568.19990362
_cell_formula_units_Z   2
loop_
 _symmetry_equiv_pos_site_id
 _symmetry_equiv_pos_as_xyz
  1  'x, y, z'
loop_
 _atom_site_type_symbol
 _atom_site_label
 _atom_site_symmetry_multiplicity
 _atom_site_fract_x
 _atom_site_fract_y
 _atom_site_fract_z
 _atom_site_occupancy
  Er  Er0  1  0.192184  0.388218  0.250000  1
  Er  Er1  1  0.807816  0.611782  0.750000  1
  Er  Er2  1  0.611782  0.807816  0.250000  1
  Er  Er3  1  0.388218  0.192184  0.750000  1
  Er  Er4  1  0.195418  0.804582  0.250000  1
  Er  Er5  1  0.804582  0.195418  0.750000  1
  Al  Al6  1  0.164269  0.327529  0.575135  1
  Al  Al7  1  0.835731  0.672471  0.424865  1
  Al  Al8  1  0.672471  0.835731  0.575135  1
  Al  Al9  1  0.835731  0.672471  0.075135  1
  Al  Al10  1  0.327529  0.164269  0.424865  1
  Al  Al11  1  0.164269  0.327529  0.924865  1
  Al  Al12  1  0.164203  0.835797  0.574701  1
  Al  Al13  1  0.327529  0.164269  0.075135  1
  Al  Al14  1  0.835797  0.164203  0.425299  1
  Al  Al15  1  0.672471  0.835731  0.924865  1
  Al  Al16  1  0.835797  0.164203  0.074701  1
  Al  Al17  1  0.164203  0.835797  0.925299  1
  Al  Al18  1  0.562622  0.437378  0.250000  1
  Al  Al19  1  0.437378  0.562622  0.750000  1
  Al  Al20  1  0.000460  0.999540  0.250000  1
  Al  Al21  1  0.999540  0.000460  0.750000  1
  Fe  Fe22  1  0.500000  0.000000  0.000000  1
  Fe  Fe23  1  0.000000  0.500000  0.000000  1
  Fe  Fe24  1  0.500000  0.000000  0.500000  1
  Fe  Fe25  1  0.500000  0.500000  0.000000  1
  Fe  Fe26  1  0.000000  0.500000  0.500000  1
  Fe  Fe27  1  0.500000  0.500000  0.500000  1
  Fe  Fe28  1  0.000000  0.000000  0.000000  1
  Fe  Fe29  1  0.000000  0.000000  0.500000  1
  Si  Si30  1  0.335456  0.664544  0.033917  1
  Si  Si31  1  0.664544  0.335456  0.966083  1
  Si  Si32  1  0.664544  0.335456  0.533917  1
  Si  Si33  1  0.335456  0.664544  0.466083  1
  Si  Si34  1  0.561184  0.118735  0.250000  1
  Si  Si35  1  0.438816  0.881265  0.750000  1
  Si  Si36  1  0.881265  0.438816  0.250000  1
  Si  Si37  1  0.118735  0.561184  0.750000  1
