# generated using pymatgen
data_Nd16Er3TmIr12
_symmetry_space_group_name_H-M   'P 1'
_cell_length_a   11.19012300
_cell_length_b   11.19012300
_cell_length_c   6.52337500
_cell_angle_alpha   90.00000000
_cell_angle_beta   90.00000000
_cell_angle_gamma   90.00000000
_symmetry_Int_Tables_number   1
_chemical_formula_structural   Nd16Er3TmIr12
_chemical_formula_sum   'Nd16 Er3 Tm1 Ir12'
_cell_volume   816.84953359
_cell_formula_units_Z   1
loop_
 _symmetry_equiv_pos_site_id
 _symmetry_equiv_pos_as_xyz
  1  'x, y, z'
loop_
 _atom_site_type_symbol
 _atom_site_label
 _atom_site_symmetry_multiplicity
 _atom_site_fract_x
 _atom_site_fract_y
 _atom_site_fract_z
 _atom_site_occupancy
  Nd  Nd0  1  0.288762  0.087127  0.381132  1
  Nd  Nd1  1  0.288749  0.912905  0.881167  1
  Nd  Nd2  1  0.711251  0.087095  0.881167  1
  Nd  Nd3  1  0.711238  0.912873  0.381132  1
  Nd  Nd4  1  0.587100  0.788733  0.881090  1
  Nd  Nd5  1  0.587088  0.211388  0.381166  1
  Nd  Nd6  1  0.412912  0.788612  0.381166  1
  Nd  Nd7  1  0.412900  0.211267  0.881090  1
  Nd  Nd8  1  0.211388  0.412912  0.618834  1
  Nd  Nd9  1  0.211267  0.587100  0.118910  1
  Nd  Nd10  1  0.788733  0.412900  0.118910  1
  Nd  Nd11  1  0.788612  0.587088  0.618834  1
  Nd  Nd12  1  0.912905  0.711251  0.118833  1
  Nd  Nd13  1  0.912873  0.288762  0.618868  1
  Nd  Nd14  1  0.087127  0.711238  0.618868  1
  Nd  Nd15  1  0.087095  0.288749  0.118833  1
  Er  Er16  1  0.000000  0.000000  0.500000  1
  Er  Er17  1  0.000000  0.000000  0.000000  1
  Er  Er18  1  0.500000  0.500000  0.000000  1
  Tm  Tm19  1  0.500000  0.500000  0.500000  1
  Ir  Ir20  1  0.852018  0.147985  0.249994  1
  Ir  Ir21  1  0.852015  0.852018  0.750006  1
  Ir  Ir22  1  0.147985  0.147982  0.750006  1
  Ir  Ir23  1  0.147982  0.852015  0.249994  1
  Ir  Ir24  1  0.647719  0.352257  0.749664  1
  Ir  Ir25  1  0.647743  0.647719  0.250336  1
  Ir  Ir26  1  0.352257  0.352281  0.250336  1
  Ir  Ir27  1  0.352281  0.647743  0.749664  1
  Ir  Ir28  1  0.500000  0.000000  0.118886  1
  Ir  Ir29  1  0.500000  0.000000  0.618921  1
  Ir  Ir30  1  0.000000  0.500000  0.881114  1
  Ir  Ir31  1  0.000000  0.500000  0.381079  1
