# generated using pymatgen
data_Lu19Mg(Cd3Ru)2
_symmetry_space_group_name_H-M   'P 1'
_cell_length_a   9.41450023
_cell_length_b   9.41922697
_cell_length_c   9.49513188
_cell_angle_alpha   89.92643134
_cell_angle_beta   90.06615300
_cell_angle_gamma   120.70914378
_symmetry_Int_Tables_number   1
_chemical_formula_structural   Lu19Mg(Cd3Ru)2
_chemical_formula_sum   'Lu19 Mg1 Cd6 Ru2'
_cell_volume   723.92868512
_cell_formula_units_Z   1
loop_
 _symmetry_equiv_pos_site_id
 _symmetry_equiv_pos_as_xyz
  1  'x, y, z'
loop_
 _atom_site_type_symbol
 _atom_site_label
 _atom_site_symmetry_multiplicity
 _atom_site_fract_x
 _atom_site_fract_y
 _atom_site_fract_z
 _atom_site_occupancy
  Lu  Lu0  1  0.999729  0.999655  0.000110  1
  Lu  Lu1  1  0.209085  0.790703  0.441001  1
  Lu  Lu2  1  0.208514  0.417231  0.441858  1
  Lu  Lu3  1  0.582981  0.791604  0.441727  1
  Lu  Lu4  1  0.790813  0.209302  0.558899  1
  Lu  Lu5  1  0.791651  0.582890  0.558234  1
  Lu  Lu6  1  0.417157  0.208522  0.558218  1
  Lu  Lu7  1  0.789555  0.210512  0.942007  1
  Lu  Lu8  1  0.789999  0.578977  0.942010  1
  Lu  Lu9  1  0.420821  0.209999  0.941970  1
  Lu  Lu10  1  0.210424  0.789264  0.057930  1
  Lu  Lu11  1  0.210095  0.420813  0.058016  1
  Lu  Lu12  1  0.579081  0.789882  0.058015  1
  Lu  Lu13  1  0.540627  0.459536  0.250390  1
  Lu  Lu14  1  0.540294  0.081785  0.250166  1
  Lu  Lu15  1  0.918220  0.459442  0.250155  1
  Lu  Lu16  1  0.459686  0.540551  0.749549  1
  Lu  Lu17  1  0.459376  0.918056  0.749642  1
  Lu  Lu18  1  0.081895  0.540469  0.749702  1
  Mg  Mg19  1  0.000240  0.000559  0.500054  1
  Cd  Cd20  1  0.886938  0.113906  0.253275  1
  Cd  Cd21  1  0.887346  0.772842  0.253687  1
  Cd  Cd22  1  0.226847  0.113340  0.253252  1
  Cd  Cd23  1  0.112726  0.886093  0.746649  1
  Cd  Cd24  1  0.112832  0.227172  0.746972  1
  Cd  Cd25  1  0.773008  0.886941  0.746498  1
  Ru  Ru26  1  0.332689  0.667165  0.250810  1
  Ru  Ru27  1  0.667369  0.332786  0.749203  1
