# generated using pymatgen
data_LiDy3(Si4Tc3)2
_symmetry_space_group_name_H-M   'P 1'
_cell_length_a   6.75968702
_cell_length_b   6.60814304
_cell_length_c   6.75773478
_cell_angle_alpha   70.62527214
_cell_angle_beta   89.84429150
_cell_angle_gamma   89.86924447
_symmetry_Int_Tables_number   1
_chemical_formula_structural   LiDy3(Si4Tc3)2
_chemical_formula_sum   'Li1 Dy3 Si8 Tc6'
_cell_volume   284.76508137
_cell_formula_units_Z   1
loop_
 _symmetry_equiv_pos_site_id
 _symmetry_equiv_pos_as_xyz
  1  'x, y, z'
loop_
 _atom_site_type_symbol
 _atom_site_label
 _atom_site_symmetry_multiplicity
 _atom_site_fract_x
 _atom_site_fract_y
 _atom_site_fract_z
 _atom_site_occupancy
  Li  Li0  1  0.671193  0.455597  0.181237  1
  Dy  Dy1  1  0.166137  0.061824  0.805715  1
  Dy  Dy2  1  0.336650  0.554398  0.814038  1
  Dy  Dy3  1  0.831454  0.941734  0.194566  1
  Si  Si4  1  0.456954  0.126239  0.108540  1
  Si  Si5  1  0.945363  0.381237  0.904878  1
  Si  Si6  1  0.548824  0.873272  0.906387  1
  Si  Si7  1  0.034514  0.615551  0.106781  1
  Si  Si8  1  0.848840  0.151133  0.495158  1
  Si  Si9  1  0.375134  0.366253  0.478701  1
  Si  Si10  1  0.139332  0.864802  0.491746  1
  Si  Si11  1  0.641996  0.621055  0.502129  1
  Tc  Tc12  1  0.501485  0.997132  0.501776  1
  Tc  Tc13  1  0.001416  0.497834  0.503951  1
  Tc  Tc14  1  0.157655  0.242430  0.239133  1
  Tc  Tc15  1  0.657666  0.249390  0.769155  1
  Tc  Tc16  1  0.842778  0.760088  0.759930  1
  Tc  Tc17  1  0.342609  0.740032  0.236179  1
