# generated using pymatgen
data_Sc22Ru7Pt
_symmetry_space_group_name_H-M   'P 1'
_cell_length_a   9.49574879
_cell_length_b   9.49574815
_cell_length_c   9.40721400
_cell_angle_alpha   60.30793753
_cell_angle_beta   60.30793975
_cell_angle_gamma   59.99991431
_symmetry_Int_Tables_number   1
_chemical_formula_structural   Sc22Ru7Pt
_chemical_formula_sum   'Sc22 Ru7 Pt1'
_cell_volume   602.57340830
_cell_formula_units_Z   1
loop_
 _symmetry_equiv_pos_site_id
 _symmetry_equiv_pos_as_xyz
  1  'x, y, z'
loop_
 _atom_site_type_symbol
 _atom_site_label
 _atom_site_symmetry_multiplicity
 _atom_site_fract_x
 _atom_site_fract_y
 _atom_site_fract_z
 _atom_site_occupancy
  Sc  Sc0  1  0.802824  0.802824  0.197176  1
  Sc  Sc1  1  0.197052  0.802948  0.196545  1
  Sc  Sc2  1  0.802948  0.197052  0.196545  1
  Sc  Sc3  1  0.197176  0.197176  0.802824  1
  Sc  Sc4  1  0.802948  0.197052  0.803455  1
  Sc  Sc5  1  0.197052  0.802948  0.803455  1
  Sc  Sc6  1  0.615160  0.615160  0.149944  1
  Sc  Sc7  1  0.611343  0.151092  0.618783  1
  Sc  Sc8  1  0.151092  0.611343  0.618783  1
  Sc  Sc9  1  0.615160  0.615160  0.619738  1
  Sc  Sc10  1  0.384840  0.384840  0.850056  1
  Sc  Sc11  1  0.388657  0.848908  0.381217  1
  Sc  Sc12  1  0.848908  0.388657  0.381217  1
  Sc  Sc13  1  0.384840  0.384840  0.380262  1
  Sc  Sc14  1  0.840199  0.840199  0.471744  1
  Sc  Sc15  1  0.844418  0.468853  0.843364  1
  Sc  Sc16  1  0.468853  0.844418  0.843364  1
  Sc  Sc17  1  0.840199  0.840199  0.847856  1
  Sc  Sc18  1  0.159801  0.159801  0.528256  1
  Sc  Sc19  1  0.155582  0.531147  0.156636  1
  Sc  Sc20  1  0.531147  0.155582  0.156636  1
  Sc  Sc21  1  0.159801  0.159801  0.152144  1
  Ru  Ru22  1  0.000000  0.000000  0.000000  1
  Ru  Ru23  1  0.500000  0.500000  0.500000  1
  Ru  Ru24  1  0.500000  0.000000  0.500000  1
  Ru  Ru25  1  0.000000  0.500000  0.500000  1
  Ru  Ru26  1  0.500000  0.500000  0.000000  1
  Ru  Ru27  1  0.000000  0.500000  0.000000  1
  Ru  Ru28  1  0.500000  0.000000  0.000000  1
  Pt  Pt29  1  0.000000  0.000000  0.500000  1
