# generated using pymatgen
data_Er2Al20Fe3Rh
_symmetry_space_group_name_H-M   'P 1'
_cell_length_a   6.76268485
_cell_length_b   6.75246389
_cell_length_c   8.97743150
_cell_angle_alpha   90.19997634
_cell_angle_beta   90.04929720
_cell_angle_gamma   97.01726030
_symmetry_Int_Tables_number   1
_chemical_formula_structural   Er2Al20Fe3Rh
_chemical_formula_sum   'Er2 Al20 Fe3 Rh1'
_cell_volume   406.87886846
_cell_formula_units_Z   1
loop_
 _symmetry_equiv_pos_site_id
 _symmetry_equiv_pos_as_xyz
  1  'x, y, z'
loop_
 _atom_site_type_symbol
 _atom_site_label
 _atom_site_symmetry_multiplicity
 _atom_site_fract_x
 _atom_site_fract_y
 _atom_site_fract_z
 _atom_site_occupancy
  Er  Er0  1  0.874560  0.128213  0.748219  1
  Er  Er1  1  0.125440  0.871787  0.251781  1
  Al  Al2  1  0.625694  0.375647  0.548857  1
  Al  Al3  1  0.374306  0.624353  0.451143  1
  Al  Al4  1  0.372281  0.619389  0.051200  1
  Al  Al5  1  0.627719  0.380611  0.948800  1
  Al  Al6  1  0.225818  0.227330  0.499250  1
  Al  Al7  1  0.774182  0.772670  0.500750  1
  Al  Al8  1  0.777530  0.768877  0.002416  1
  Al  Al9  1  0.222470  0.231123  0.997584  1
  Al  Al10  1  0.847883  0.160798  0.099797  1
  Al  Al11  1  0.152117  0.839202  0.900203  1
  Al  Al12  1  0.157202  0.843048  0.596925  1
  Al  Al13  1  0.842798  0.156952  0.403075  1
  Al  Al14  1  0.864470  0.584047  0.748945  1
  Al  Al15  1  0.135530  0.415953  0.251055  1
  Al  Al16  1  0.413659  0.138392  0.745238  1
  Al  Al17  1  0.586341  0.861608  0.254762  1
  Al  Al18  1  0.219999  0.479239  0.749282  1
  Al  Al19  1  0.780001  0.520761  0.250718  1
  Al  Al20  1  0.521604  0.777179  0.744520  1
  Al  Al21  1  0.478396  0.222821  0.255480  1
  Fe  Fe22  1  0.000000  0.500000  0.500000  1
  Fe  Fe23  1  0.000000  0.500000  0.000000  1
  Fe  Fe24  1  0.500000  0.000000  0.500000  1
  Rh  Rh25  1  0.500000  0.000000  0.000000  1
