# generated using pymatgen
data_Nd3Tm5(AgRh)2
_symmetry_space_group_name_H-M   'P 1'
_cell_length_a   9.58331094
_cell_length_b   9.58331004
_cell_length_c   9.58331100
_cell_angle_alpha   60.00000012
_cell_angle_beta   60.00000325
_cell_angle_gamma   60.00000302
_symmetry_Int_Tables_number   1
_chemical_formula_structural   Nd3Tm5(AgRh)2
_chemical_formula_sum   'Nd6 Tm10 Ag4 Rh4'
_cell_volume   622.34574335
_cell_formula_units_Z   2
loop_
 _symmetry_equiv_pos_site_id
 _symmetry_equiv_pos_as_xyz
  1  'x, y, z'
loop_
 _atom_site_type_symbol
 _atom_site_label
 _atom_site_symmetry_multiplicity
 _atom_site_fract_x
 _atom_site_fract_y
 _atom_site_fract_z
 _atom_site_occupancy
  Nd  Nd0  1  0.188923  0.811077  0.811077  1
  Nd  Nd1  1  0.811077  0.188923  0.188923  1
  Nd  Nd2  1  0.811077  0.188923  0.811077  1
  Nd  Nd3  1  0.188923  0.811077  0.188923  1
  Nd  Nd4  1  0.811077  0.811077  0.188923  1
  Nd  Nd5  1  0.188923  0.188923  0.811077  1
  Tm  Tm6  1  0.601082  0.601082  0.601082  1
  Tm  Tm7  1  0.601082  0.601082  0.196753  1
  Tm  Tm8  1  0.601082  0.196753  0.601082  1
  Tm  Tm9  1  0.196753  0.601082  0.601082  1
  Tm  Tm10  1  0.065021  0.434979  0.434979  1
  Tm  Tm11  1  0.434979  0.065021  0.065021  1
  Tm  Tm12  1  0.434979  0.065021  0.434979  1
  Tm  Tm13  1  0.065021  0.434979  0.065021  1
  Tm  Tm14  1  0.434979  0.434979  0.065021  1
  Tm  Tm15  1  0.065021  0.065021  0.434979  1
  Ag  Ag16  1  0.829937  0.829937  0.829937  1
  Ag  Ag17  1  0.829937  0.829937  0.510189  1
  Ag  Ag18  1  0.829937  0.510189  0.829937  1
  Ag  Ag19  1  0.510189  0.829937  0.829937  1
  Rh  Rh20  1  0.393009  0.393009  0.393009  1
  Rh  Rh21  1  0.393009  0.393009  0.820970  1
  Rh  Rh22  1  0.393009  0.820970  0.393009  1
  Rh  Rh23  1  0.820970  0.393009  0.393009  1
