# generated using pymatgen
data_Pr8Cd2PdRu
_symmetry_space_group_name_H-M   'P 1'
_cell_length_a   10.03673648
_cell_length_b   10.03673676
_cell_length_c   10.11172600
_cell_angle_alpha   59.75253623
_cell_angle_beta   59.75253533
_cell_angle_gamma   59.84541766
_symmetry_Int_Tables_number   1
_chemical_formula_structural   Pr8Cd2PdRu
_chemical_formula_sum   'Pr16 Cd4 Pd2 Ru2'
_cell_volume   716.72841739
_cell_formula_units_Z   2
loop_
 _symmetry_equiv_pos_site_id
 _symmetry_equiv_pos_as_xyz
  1  'x, y, z'
loop_
 _atom_site_type_symbol
 _atom_site_label
 _atom_site_symmetry_multiplicity
 _atom_site_fract_x
 _atom_site_fract_y
 _atom_site_fract_z
 _atom_site_occupancy
  Pr  Pr0  1  0.347498  0.347498  0.356465  1
  Pr  Pr1  1  0.347498  0.347498  0.948539  1
  Pr  Pr2  1  0.343856  0.954875  0.350635  1
  Pr  Pr3  1  0.954875  0.343856  0.350635  1
  Pr  Pr4  1  0.816190  0.190181  0.190549  1
  Pr  Pr5  1  0.190181  0.816190  0.803080  1
  Pr  Pr6  1  0.190181  0.816190  0.190549  1
  Pr  Pr7  1  0.816190  0.190181  0.803080  1
  Pr  Pr8  1  0.189262  0.189262  0.810738  1
  Pr  Pr9  1  0.806699  0.806699  0.193301  1
  Pr  Pr10  1  0.936715  0.559235  0.565330  1
  Pr  Pr11  1  0.559235  0.936715  0.938720  1
  Pr  Pr12  1  0.559235  0.936715  0.565330  1
  Pr  Pr13  1  0.936715  0.559235  0.938720  1
  Pr  Pr14  1  0.562808  0.562808  0.937192  1
  Pr  Pr15  1  0.938050  0.938050  0.561950  1
  Cd  Cd16  1  0.579752  0.579752  0.579728  1
  Cd  Cd17  1  0.579752  0.579752  0.260767  1
  Cd  Cd18  1  0.580445  0.259424  0.580065  1
  Cd  Cd19  1  0.259424  0.580445  0.580065  1
  Pd  Pd20  1  0.146036  0.572796  0.140584  1
  Pd  Pd21  1  0.572796  0.146036  0.140584  1
  Ru  Ru22  1  0.143303  0.143303  0.138186  1
  Ru  Ru23  1  0.143303  0.143303  0.575209  1
