# generated using pymatgen
data_DyPa3(GePt)4
_symmetry_space_group_name_H-M   'P 1'
_cell_length_a   4.41135800
_cell_length_b   7.04569460
_cell_length_c   7.66416466
_cell_angle_alpha   90.04730491
_cell_angle_beta   90.00000000
_cell_angle_gamma   90.00000000
_symmetry_Int_Tables_number   1
_chemical_formula_structural   DyPa3(GePt)4
_chemical_formula_sum   'Dy1 Pa3 Ge4 Pt4'
_cell_volume   238.21044304
_cell_formula_units_Z   1
loop_
 _symmetry_equiv_pos_site_id
 _symmetry_equiv_pos_as_xyz
  1  'x, y, z'
loop_
 _atom_site_type_symbol
 _atom_site_label
 _atom_site_symmetry_multiplicity
 _atom_site_fract_x
 _atom_site_fract_y
 _atom_site_fract_z
 _atom_site_occupancy
  Dy  Dy0  1  0.250000  0.495783  0.203215  1
  Pa  Pa1  1  0.750000  0.504839  0.793021  1
  Pa  Pa2  1  0.250000  0.996234  0.296253  1
  Pa  Pa3  1  0.750000  0.006635  0.706305  1
  Ge  Ge4  1  0.250000  0.807123  0.912137  1
  Ge  Ge5  1  0.250000  0.307865  0.588091  1
  Ge  Ge6  1  0.750000  0.192555  0.091512  1
  Ge  Ge7  1  0.750000  0.696958  0.409277  1
  Pt  Pt8  1  0.250000  0.712274  0.583560  1
  Pt  Pt9  1  0.250000  0.206578  0.915601  1
  Pt  Pt10  1  0.750000  0.785387  0.082335  1
  Pt  Pt11  1  0.750000  0.287771  0.418694  1
