# generated using pymatgen
data_Ce4V(ZnRh5)2
_symmetry_space_group_name_H-M   'P 1'
_cell_length_a   7.20482714
_cell_length_b   7.29111204
_cell_length_c   7.29111180
_cell_angle_alpha   107.06025155
_cell_angle_beta   110.94935689
_cell_angle_gamma   110.94935305
_symmetry_Int_Tables_number   1
_chemical_formula_structural   Ce4V(ZnRh5)2
_chemical_formula_sum   'Ce4 V1 Zn2 Rh10'
_cell_volume   292.50790026
_cell_formula_units_Z   1
loop_
 _symmetry_equiv_pos_site_id
 _symmetry_equiv_pos_as_xyz
  1  'x, y, z'
loop_
 _atom_site_type_symbol
 _atom_site_label
 _atom_site_symmetry_multiplicity
 _atom_site_fract_x
 _atom_site_fract_y
 _atom_site_fract_z
 _atom_site_occupancy
  Ce  Ce0  1  0.025228  0.012614  0.512614  1
  Ce  Ce1  1  0.025228  0.512614  0.012614  1
  Ce  Ce2  1  0.476897  0.968691  0.968691  1
  Ce  Ce3  1  0.476897  0.508206  0.508206  1
  V  V4  1  0.000402  0.000201  0.000201  1
  Zn  Zn5  1  0.749755  0.251047  0.498709  1
  Zn  Zn6  1  0.749755  0.498709  0.251047  1
  Rh  Rh7  1  0.516847  0.258423  0.758423  1
  Rh  Rh8  1  0.235816  0.490372  0.745445  1
  Rh  Rh9  1  0.235816  0.745445  0.490372  1
  Rh  Rh10  1  0.516847  0.758423  0.258423  1
  Rh  Rh11  1  0.729502  0.715346  0.014156  1
  Rh  Rh12  1  0.301727  0.015055  0.286672  1
  Rh  Rh13  1  0.964025  0.265384  0.265384  1
  Rh  Rh14  1  0.301727  0.286672  0.015055  1
  Rh  Rh15  1  0.729502  0.014156  0.715346  1
  Rh  Rh16  1  0.964025  0.698642  0.698642  1
