# generated using pymatgen
data_Zr7Sc(Co4Si7)2
_symmetry_space_group_name_H-M   'P 1'
_cell_length_a   9.49372554
_cell_length_b   9.49372371
_cell_length_c   9.50292692
_cell_angle_alpha   94.10785938
_cell_angle_beta   94.10785411
_cell_angle_gamma   148.93611860
_symmetry_Int_Tables_number   1
_chemical_formula_structural   Zr7Sc(Co4Si7)2
_chemical_formula_sum   'Zr7 Sc1 Co8 Si14'
_cell_volume   425.84410597
_cell_formula_units_Z   1
loop_
 _symmetry_equiv_pos_site_id
 _symmetry_equiv_pos_as_xyz
  1  'x, y, z'
loop_
 _atom_site_type_symbol
 _atom_site_label
 _atom_site_symmetry_multiplicity
 _atom_site_fract_x
 _atom_site_fract_y
 _atom_site_fract_z
 _atom_site_occupancy
  Zr  Zr0  1  0.862161  0.862161  0.724322  1
  Zr  Zr1  1  0.862258  0.137563  0.999821  1
  Zr  Zr2  1  0.137563  0.862258  0.999821  1
  Zr  Zr3  1  0.499240  0.303477  0.802718  1
  Zr  Zr4  1  0.500253  0.696912  0.197165  1
  Zr  Zr5  1  0.696912  0.500253  0.197165  1
  Zr  Zr6  1  0.303477  0.499240  0.802718  1
  Sc  Sc7  1  0.138878  0.138878  0.277757  1
  Co  Co8  1  0.397474  0.897474  0.794950  1
  Co  Co9  1  0.102692  0.602692  0.205385  1
  Co  Co10  1  0.102392  0.896774  0.499825  1
  Co  Co11  1  0.397433  0.603050  0.499825  1
  Co  Co12  1  0.603050  0.397433  0.499825  1
  Co  Co13  1  0.896774  0.102392  0.499825  1
  Co  Co14  1  0.897474  0.397474  0.794950  1
  Co  Co15  1  0.602692  0.102692  0.205385  1
  Si  Si16  1  0.499754  0.091781  0.591535  1
  Si  Si17  1  0.499721  0.908762  0.408483  1
  Si  Si18  1  0.908762  0.499721  0.408483  1
  Si  Si19  1  0.091781  0.499754  0.591535  1
  Si  Si20  1  0.748383  0.748383  0.999638  1
  Si  Si21  1  0.251255  0.251255  0.999638  1
  Si  Si22  1  0.288910  0.288910  0.577818  1
  Si  Si23  1  0.710852  0.710852  0.421704  1
  Si  Si24  1  0.710705  0.289522  0.000227  1
  Si  Si25  1  0.289522  0.710705  0.000227  1
  Si  Si26  1  0.000356  0.301251  0.301606  1
  Si  Si27  1  0.999881  0.698143  0.698023  1
  Si  Si28  1  0.698143  0.999881  0.698023  1
  Si  Si29  1  0.301251  0.000356  0.301606  1
