# generated using pymatgen
data_Tb6Y14Cd6FeRu
_symmetry_space_group_name_H-M   'P 1'
_cell_length_a   9.62702900
_cell_length_b   9.62702816
_cell_length_c   9.86888000
_cell_angle_alpha   90.00000000
_cell_angle_beta   90.00000000
_cell_angle_gamma   119.99999944
_symmetry_Int_Tables_number   1
_chemical_formula_structural   Tb6Y14Cd6FeRu
_chemical_formula_sum   'Tb6 Y14 Cd6 Fe1 Ru1'
_cell_volume   792.10549263
_cell_formula_units_Z   1
loop_
 _symmetry_equiv_pos_site_id
 _symmetry_equiv_pos_as_xyz
  1  'x, y, z'
loop_
 _atom_site_type_symbol
 _atom_site_label
 _atom_site_symmetry_multiplicity
 _atom_site_fract_x
 _atom_site_fract_y
 _atom_site_fract_z
 _atom_site_occupancy
  Tb  Tb0  1  0.212243  0.787757  0.436687  1
  Tb  Tb1  1  0.212243  0.424487  0.436687  1
  Tb  Tb2  1  0.575513  0.787757  0.436687  1
  Tb  Tb3  1  0.790353  0.209647  0.560059  1
  Tb  Tb4  1  0.790353  0.580705  0.560059  1
  Tb  Tb5  1  0.419295  0.209647  0.560059  1
  Y  Y6  1  0.000000  0.000000  0.499726  1
  Y  Y7  1  0.000000  0.000000  0.000243  1
  Y  Y8  1  0.790316  0.209684  0.940383  1
  Y  Y9  1  0.790316  0.580632  0.940383  1
  Y  Y10  1  0.419368  0.209684  0.940383  1
  Y  Y11  1  0.212086  0.787914  0.062774  1
  Y  Y12  1  0.212086  0.424172  0.062774  1
  Y  Y13  1  0.575828  0.787914  0.062774  1
  Y  Y14  1  0.540665  0.459335  0.250117  1
  Y  Y15  1  0.540665  0.081330  0.250117  1
  Y  Y16  1  0.918670  0.459335  0.250117  1
  Y  Y17  1  0.458398  0.541602  0.749887  1
  Y  Y18  1  0.458398  0.916796  0.749887  1
  Y  Y19  1  0.083204  0.541602  0.749887  1
  Cd  Cd20  1  0.885428  0.114572  0.249362  1
  Cd  Cd21  1  0.885428  0.770858  0.249362  1
  Cd  Cd22  1  0.229142  0.114572  0.249362  1
  Cd  Cd23  1  0.114706  0.885294  0.750624  1
  Cd  Cd24  1  0.114706  0.229411  0.750624  1
  Cd  Cd25  1  0.770589  0.885294  0.750624  1
  Fe  Fe26  1  0.333333  0.666667  0.252411  1
  Ru  Ru27  1  0.666667  0.333333  0.747940  1
