# generated using pymatgen
data_Hf3Ti2Pt3
_symmetry_space_group_name_H-M   'P 1'
_cell_length_a   8.09622800
_cell_length_b   8.09622789
_cell_length_c   5.13709500
_cell_angle_alpha   90.00000000
_cell_angle_beta   90.00000000
_cell_angle_gamma   120.00000043
_symmetry_Int_Tables_number   1
_chemical_formula_structural   Hf3Ti2Pt3
_chemical_formula_sum   'Hf6 Ti4 Pt6'
_cell_volume   291.61756626
_cell_formula_units_Z   2
loop_
 _symmetry_equiv_pos_site_id
 _symmetry_equiv_pos_as_xyz
  1  'x, y, z'
loop_
 _atom_site_type_symbol
 _atom_site_label
 _atom_site_symmetry_multiplicity
 _atom_site_fract_x
 _atom_site_fract_y
 _atom_site_fract_z
 _atom_site_occupancy
  Hf  Hf0  1  0.248350  0.000000  0.250000  1
  Hf  Hf1  1  0.751650  0.000000  0.750000  1
  Hf  Hf2  1  0.000000  0.248350  0.250000  1
  Hf  Hf3  1  0.000000  0.751650  0.750000  1
  Hf  Hf4  1  0.751650  0.751650  0.250000  1
  Hf  Hf5  1  0.248350  0.248350  0.750000  1
  Ti  Ti6  1  0.333333  0.666667  0.000000  1
  Ti  Ti7  1  0.666667  0.333333  0.000000  1
  Ti  Ti8  1  0.666667  0.333333  0.500000  1
  Ti  Ti9  1  0.333333  0.666667  0.500000  1
  Pt  Pt10  1  0.597841  0.000000  0.250000  1
  Pt  Pt11  1  0.402159  0.000000  0.750000  1
  Pt  Pt12  1  0.000000  0.597841  0.250000  1
  Pt  Pt13  1  0.000000  0.402159  0.750000  1
  Pt  Pt14  1  0.402159  0.402159  0.250000  1
  Pt  Pt15  1  0.597841  0.597841  0.750000  1
