# generated using pymatgen
data_Er13Tm7Bi12
_symmetry_space_group_name_H-M   'P 1'
_cell_length_a   8.19513303
_cell_length_b   9.44320001
_cell_length_c   11.94719804
_cell_angle_alpha   89.99776602
_cell_angle_beta   89.99102263
_cell_angle_gamma   89.99584233
_symmetry_Int_Tables_number   1
_chemical_formula_structural   Er13Tm7Bi12
_chemical_formula_sum   'Er13 Tm7 Bi12'
_cell_volume   924.57309615
_cell_formula_units_Z   1
loop_
 _symmetry_equiv_pos_site_id
 _symmetry_equiv_pos_as_xyz
  1  'x, y, z'
loop_
 _atom_site_type_symbol
 _atom_site_label
 _atom_site_symmetry_multiplicity
 _atom_site_fract_x
 _atom_site_fract_y
 _atom_site_fract_z
 _atom_site_occupancy
  Er  Er0  1  0.026284  0.249992  0.511206  1
  Er  Er1  1  0.973702  0.750032  0.488813  1
  Er  Er2  1  0.473814  0.749984  0.011192  1
  Er  Er3  1  0.526356  0.250058  0.988788  1
  Er  Er4  1  0.355591  0.250079  0.283299  1
  Er  Er5  1  0.644532  0.749998  0.716726  1
  Er  Er6  1  0.144611  0.750070  0.783269  1
  Er  Er7  1  0.855405  0.250076  0.216767  1
  Er  Er8  1  0.187748  0.250030  0.781432  1
  Er  Er9  1  0.812252  0.749998  0.218535  1
  Er  Er10  1  0.312233  0.749995  0.281490  1
  Er  Er11  1  0.687774  0.250009  0.718505  1
  Er  Er12  1  0.193522  0.065398  0.060192  1
  Tm  Tm13  1  0.806429  0.934342  0.939754  1
  Tm  Tm14  1  0.306371  0.934328  0.560258  1
  Tm  Tm15  1  0.806358  0.565631  0.939744  1
  Tm  Tm16  1  0.693650  0.065660  0.439751  1
  Tm  Tm17  1  0.193615  0.434434  0.060270  1
  Tm  Tm18  1  0.693640  0.434336  0.439748  1
  Tm  Tm19  1  0.306372  0.565666  0.560261  1
  Bi  Bi20  1  0.407928  0.249986  0.542568  1
  Bi  Bi21  1  0.592070  0.749997  0.457453  1
  Bi  Bi22  1  0.091985  0.749717  0.042497  1
  Bi  Bi23  1  0.907808  0.250085  0.957410  1
  Bi  Bi24  1  0.066826  0.003634  0.325986  1
  Bi  Bi25  1  0.933114  0.996368  0.674046  1
  Bi  Bi26  1  0.433100  0.996383  0.825907  1
  Bi  Bi27  1  0.933108  0.503650  0.674069  1
  Bi  Bi28  1  0.566918  0.003642  0.174099  1
  Bi  Bi29  1  0.066859  0.496388  0.325952  1
  Bi  Bi30  1  0.566881  0.496372  0.174086  1
  Bi  Bi31  1  0.433144  0.503662  0.825926  1
