# generated using pymatgen
data_Sr7Ac(In4Au3)4
_symmetry_space_group_name_H-M   'P 1'
_cell_length_a   15.55062500
_cell_length_b   15.28591770
_cell_length_c   4.53440300
_cell_angle_alpha   90.00000000
_cell_angle_beta   90.00000000
_cell_angle_gamma   120.57451885
_symmetry_Int_Tables_number   1
_chemical_formula_structural   Sr7Ac(In4Au3)4
_chemical_formula_sum   'Sr7 Ac1 In16 Au12'
_cell_volume   927.99718092
_cell_formula_units_Z   1
loop_
 _symmetry_equiv_pos_site_id
 _symmetry_equiv_pos_as_xyz
  1  'x, y, z'
loop_
 _atom_site_type_symbol
 _atom_site_label
 _atom_site_symmetry_multiplicity
 _atom_site_fract_x
 _atom_site_fract_y
 _atom_site_fract_z
 _atom_site_occupancy
  Sr  Sr0  1  0.002274  0.454295  0.000000  1
  Sr  Sr1  1  0.547979  0.545705  0.000000  1
  Sr  Sr2  1  0.334725  0.668088  0.000000  1
  Sr  Sr3  1  0.666638  0.331912  0.000000  1
  Sr  Sr4  1  0.818697  0.000000  0.500000  1
  Sr  Sr5  1  0.999539  0.819621  0.500000  1
  Sr  Sr6  1  0.179918  0.180379  0.500000  1
  Ac  Ac7  1  0.451659  0.000000  0.000000  1
  In  In8  1  0.183669  0.381182  0.000000  1
  In  In9  1  0.623496  0.803795  0.000000  1
  In  In10  1  0.373840  0.180804  0.000000  1
  In  In11  1  0.193034  0.819196  0.000000  1
  In  In12  1  0.802488  0.618818  0.000000  1
  In  In13  1  0.819702  0.196205  0.000000  1
  In  In14  1  0.276835  0.000000  0.500000  1
  In  In15  1  0.999052  0.281965  0.500000  1
  In  In16  1  0.717087  0.718035  0.500000  1
  In  In17  1  0.350717  0.473320  0.500000  1
  In  In18  1  0.526724  0.875854  0.500000  1
  In  In19  1  0.475048  0.348689  0.500000  1
  In  In20  1  0.126360  0.651311  0.500000  1
  In  In21  1  0.877397  0.526680  0.500000  1
  In  In22  1  0.650869  0.124146  0.500000  1
  In  In23  1  0.998812  0.000000  0.000000  1
  Au  Au24  1  0.178196  0.497120  0.500000  1
  Au  Au25  1  0.509073  0.681110  0.500000  1
  Au  Au26  1  0.489909  0.170117  0.500000  1
  Au  Au27  1  0.319791  0.829883  0.500000  1
  Au  Au28  1  0.681076  0.502880  0.500000  1
  Au  Au29  1  0.827963  0.318890  0.500000  1
  Au  Au30  1  0.173396  0.000000  0.000000  1
  Au  Au31  1  0.002273  0.178406  0.000000  1
  Au  Au32  1  0.823866  0.821594  0.000000  1
  Au  Au33  1  0.659907  0.000000  0.000000  1
  Au  Au34  1  0.998992  0.659994  0.000000  1
  Au  Au35  1  0.338998  0.340006  0.000000  1
