# generated using pymatgen
data_Dy5Er11(ZnRh)4
_symmetry_space_group_name_H-M   'P 1'
_cell_length_a   9.43520456
_cell_length_b   9.41808566
_cell_length_c   9.41830553
_cell_angle_alpha   59.92552404
_cell_angle_beta   59.94062914
_cell_angle_gamma   59.93985518
_symmetry_Int_Tables_number   1
_chemical_formula_structural   Dy5Er11(ZnRh)4
_chemical_formula_sum   'Dy5 Er11 Zn4 Rh4'
_cell_volume   590.92759667
_cell_formula_units_Z   1
loop_
 _symmetry_equiv_pos_site_id
 _symmetry_equiv_pos_as_xyz
  1  'x, y, z'
loop_
 _atom_site_type_symbol
 _atom_site_label
 _atom_site_symmetry_multiplicity
 _atom_site_fract_x
 _atom_site_fract_y
 _atom_site_fract_z
 _atom_site_occupancy
  Dy  Dy0  1  0.564206  0.565028  0.935196  1
  Dy  Dy1  1  0.145594  0.563846  0.144966  1
  Dy  Dy2  1  0.690462  0.308952  0.310124  1
  Dy  Dy3  1  0.935525  0.564806  0.564144  1
  Dy  Dy4  1  0.935570  0.565028  0.935196  1
  Er  Er5  1  0.689266  0.691127  0.310177  1
  Er  Er6  1  0.564273  0.936219  0.935234  1
  Er  Er7  1  0.146843  0.144999  0.145655  1
  Er  Er8  1  0.309430  0.691127  0.310177  1
  Er  Er9  1  0.562503  0.144999  0.145655  1
  Er  Er10  1  0.309848  0.309388  0.690806  1
  Er  Er11  1  0.310107  0.690387  0.689398  1
  Er  Er12  1  0.145976  0.144727  0.563321  1
  Er  Er13  1  0.689958  0.309388  0.690806  1
  Er  Er14  1  0.935537  0.936049  0.564299  1
  Er  Er15  1  0.564115  0.936049  0.564299  1
  Zn  Zn16  1  0.920845  0.921743  0.920954  1
  Zn  Zn17  1  0.236458  0.921743  0.920954  1
  Zn  Zn18  1  0.920895  0.921531  0.236678  1
  Zn  Zn19  1  0.921402  0.235909  0.921286  1
  Rh  Rh20  1  0.357128  0.354869  0.930875  1
  Rh  Rh21  1  0.356392  0.355095  0.357041  1
  Rh  Rh22  1  0.931471  0.355095  0.357041  1
  Rh  Rh23  1  0.356193  0.931896  0.355717  1
