# generated using pymatgen
data_Er8AlZnRh2
_symmetry_space_group_name_H-M   'P 1'
_cell_length_a   9.40066921
_cell_length_b   9.42026909
_cell_length_c   9.42026918
_cell_angle_alpha   60.06429485
_cell_angle_beta   60.06880486
_cell_angle_gamma   60.06880916
_symmetry_Int_Tables_number   1
_chemical_formula_structural   Er8AlZnRh2
_chemical_formula_sum   'Er16 Al2 Zn2 Rh4'
_cell_volume   590.78887410
_cell_formula_units_Z   2
loop_
 _symmetry_equiv_pos_site_id
 _symmetry_equiv_pos_as_xyz
  1  'x, y, z'
loop_
 _atom_site_type_symbol
 _atom_site_label
 _atom_site_symmetry_multiplicity
 _atom_site_fract_x
 _atom_site_fract_y
 _atom_site_fract_z
 _atom_site_occupancy
  Er  Er0  1  0.191099  0.191247  0.807832  1
  Er  Er1  1  0.436794  0.063206  0.063206  1
  Er  Er2  1  0.436358  0.062380  0.435238  1
  Er  Er3  1  0.066024  0.435238  0.062380  1
  Er  Er4  1  0.646054  0.061283  0.646609  1
  Er  Er5  1  0.189612  0.810388  0.810388  1
  Er  Er6  1  0.066024  0.062380  0.435238  1
  Er  Er7  1  0.807044  0.192956  0.192956  1
  Er  Er8  1  0.809821  0.807832  0.191247  1
  Er  Er9  1  0.646054  0.646609  0.061283  1
  Er  Er10  1  0.644543  0.645656  0.645656  1
  Er  Er11  1  0.064043  0.435957  0.435957  1
  Er  Er12  1  0.064143  0.645656  0.645656  1
  Er  Er13  1  0.809821  0.191247  0.807832  1
  Er  Er14  1  0.436358  0.435238  0.062380  1
  Er  Er15  1  0.191099  0.807832  0.191247  1
  Al  Al16  1  0.732443  0.422780  0.422780  1
  Al  Al17  1  0.421995  0.422780  0.422780  1
  Zn  Zn18  1  0.420592  0.738302  0.420513  1
  Zn  Zn19  1  0.420592  0.420513  0.738302  1
  Rh  Rh20  1  0.855936  0.432288  0.855840  1
  Rh  Rh21  1  0.855936  0.855840  0.432288  1
  Rh  Rh22  1  0.430917  0.856195  0.856195  1
  Rh  Rh23  1  0.856695  0.856195  0.856195  1
