# generated using pymatgen
data_Sr11GaBi9
_symmetry_space_group_name_H-M   'P 1'
_cell_length_a   12.96006519
_cell_length_b   12.96006504
_cell_length_c   12.96006500
_cell_angle_alpha   120.98970105
_cell_angle_beta   117.38862618
_cell_angle_gamma   91.43784463
_symmetry_Int_Tables_number   1
_chemical_formula_structural   Sr11GaBi9
_chemical_formula_sum   'Sr22 Ga2 Bi18'
_cell_volume   1555.70938644
_cell_formula_units_Z   2
loop_
 _symmetry_equiv_pos_site_id
 _symmetry_equiv_pos_as_xyz
  1  'x, y, z'
loop_
 _atom_site_type_symbol
 _atom_site_label
 _atom_site_symmetry_multiplicity
 _atom_site_fract_x
 _atom_site_fract_y
 _atom_site_fract_z
 _atom_site_occupancy
  Sr  Sr0  1  0.291776  0.086893  0.351196  1
  Sr  Sr1  1  0.735696  0.940580  0.648804  1
  Sr  Sr2  1  0.235696  0.586893  0.795117  1
  Sr  Sr3  1  0.791776  0.440580  0.204883  1
  Sr  Sr4  1  0.601048  0.421867  0.360050  1
  Sr  Sr5  1  0.061818  0.240998  0.639950  1
  Sr  Sr6  1  0.561818  0.921867  0.820820  1
  Sr  Sr7  1  0.101048  0.740998  0.179180  1
  Sr  Sr8  1  0.100422  0.365186  0.371705  1
  Sr  Sr9  1  0.993481  0.728717  0.628295  1
  Sr  Sr10  1  0.493481  0.865186  0.264764  1
  Sr  Sr11  1  0.600422  0.228717  0.735236  1
  Sr  Sr12  1  0.504747  0.519587  0.675533  1
  Sr  Sr13  1  0.844053  0.829214  0.324467  1
  Sr  Sr14  1  0.344053  0.019587  0.014840  1
  Sr  Sr15  1  0.004747  0.329214  0.985160  1
  Sr  Sr16  1  0.993597  0.993597  0.000000  1
  Sr  Sr17  1  0.493597  0.493597  0.000000  1
  Sr  Sr18  1  0.357602  0.617854  0.373949  1
  Sr  Sr19  1  0.243904  0.983653  0.626051  1
  Sr  Sr20  1  0.743904  0.117854  0.260251  1
  Sr  Sr21  1  0.857602  0.483653  0.739749  1
  Ga  Ga22  1  0.279842  0.279842  0.000000  1
  Ga  Ga23  1  0.779842  0.779842  0.000000  1
  Bi  Bi24  1  0.726902  0.716345  0.719824  1
  Bi  Bi25  1  0.996520  0.007078  0.280176  1
  Bi  Bi26  1  0.496520  0.216345  0.989443  1
  Bi  Bi27  1  0.226902  0.507078  0.010557  1
  Bi  Bi28  1  0.565911  0.212231  0.426329  1
  Bi  Bi29  1  0.785902  0.139583  0.573671  1
  Bi  Bi30  1  0.285902  0.712231  0.646319  1
  Bi  Bi31  1  0.065911  0.639583  0.353681  1
  Bi  Bi32  1  0.285405  0.296849  0.239240  1
  Bi  Bi33  1  0.057609  0.046165  0.760760  1
  Bi  Bi34  1  0.557609  0.796849  0.011444  1
  Bi  Bi35  1  0.785405  0.546165  0.988556  1
  Bi  Bi36  1  0.922087  0.422087  0.500000  1
  Bi  Bi37  1  0.422087  0.922087  0.500000  1
  Bi  Bi38  1  0.671950  0.669408  0.358382  1
  Bi  Bi39  1  0.311025  0.313568  0.641618  1
  Bi  Bi40  1  0.811025  0.169408  0.997458  1
  Bi  Bi41  1  0.171950  0.813568  0.002542  1
