# generated using pymatgen
data_Pr2GeIrBr2
_symmetry_space_group_name_H-M   'P 1'
_cell_length_a   4.33833100
_cell_length_b   4.33833037
_cell_length_c   11.15781600
_cell_angle_alpha   90.00000000
_cell_angle_beta   90.00000000
_cell_angle_gamma   119.99998189
_symmetry_Int_Tables_number   1
_chemical_formula_structural   Pr2GeIrBr2
_chemical_formula_sum   'Pr2 Ge1 Ir1 Br2'
_cell_volume   181.86754817
_cell_formula_units_Z   1
loop_
 _symmetry_equiv_pos_site_id
 _symmetry_equiv_pos_as_xyz
  1  'x, y, z'
loop_
 _atom_site_type_symbol
 _atom_site_label
 _atom_site_symmetry_multiplicity
 _atom_site_fract_x
 _atom_site_fract_y
 _atom_site_fract_z
 _atom_site_occupancy
  Pr  Pr0  1  0.000000  0.000000  0.171789  1
  Pr  Pr1  1  0.000000  0.000000  0.827735  1
  Ge  Ge2  1  0.666667  0.333333  0.995897  1
  Ir  Ir3  1  0.333333  0.666667  0.003278  1
  Br  Br4  1  0.333333  0.666667  0.660920  1
  Br  Br5  1  0.666667  0.333333  0.340382  1
