# generated using pymatgen
data_Ca12Ga7Cu5N4
_symmetry_space_group_name_H-M   'P 1'
_cell_length_a   8.97674730
_cell_length_b   8.99645400
_cell_length_c   8.97674800
_cell_angle_alpha   60.07243205
_cell_angle_beta   59.99999741
_cell_angle_gamma   60.07243715
_symmetry_Int_Tables_number   1
_chemical_formula_structural   Ca12Ga7Cu5N4
_chemical_formula_sum   'Ca12 Ga7 Cu5 N4'
_cell_volume   513.17915891
_cell_formula_units_Z   1
loop_
 _symmetry_equiv_pos_site_id
 _symmetry_equiv_pos_as_xyz
  1  'x, y, z'
loop_
 _atom_site_type_symbol
 _atom_site_label
 _atom_site_symmetry_multiplicity
 _atom_site_fract_x
 _atom_site_fract_y
 _atom_site_fract_z
 _atom_site_occupancy
  Ca  Ca0  1  0.803596  0.199297  0.193513  1
  Ca  Ca1  1  0.196520  0.803475  0.196520  1
  Ca  Ca2  1  0.803485  0.803475  0.196520  1
  Ca  Ca3  1  0.196520  0.803475  0.803485  1
  Ca  Ca4  1  0.803596  0.199297  0.803596  1
  Ca  Ca5  1  0.193513  0.199297  0.803596  1
  Ca  Ca6  1  0.448555  0.051790  0.051099  1
  Ca  Ca7  1  0.051659  0.447087  0.051659  1
  Ca  Ca8  1  0.449596  0.447087  0.051659  1
  Ca  Ca9  1  0.051659  0.447087  0.449596  1
  Ca  Ca10  1  0.448555  0.051790  0.448555  1
  Ca  Ca11  1  0.051099  0.051790  0.448555  1
  Ga  Ga12  1  0.425126  0.426030  0.723718  1
  Ga  Ga13  1  0.425126  0.426030  0.425126  1
  Ga  Ga14  1  0.723718  0.426030  0.425126  1
  Ga  Ga15  1  0.426098  0.721706  0.426098  1
  Ga  Ga16  1  0.825596  0.820238  0.528570  1
  Ga  Ga17  1  0.825596  0.820238  0.825596  1
  Ga  Ga18  1  0.528570  0.820238  0.825596  1
  Cu  Cu19  1  0.820816  0.537553  0.820816  1
  Cu  Cu20  1  0.625789  0.624668  0.123754  1
  Cu  Cu21  1  0.625789  0.624668  0.625789  1
  Cu  Cu22  1  0.123754  0.624668  0.625789  1
  Cu  Cu23  1  0.625299  0.124102  0.625299  1
  N  N24  1  0.126040  0.124612  0.623309  1
  N  N25  1  0.126040  0.124612  0.126040  1
  N  N26  1  0.623309  0.124612  0.126040  1
  N  N27  1  0.124984  0.625049  0.124984  1
