# generated using pymatgen
data_Lu2Sc3Si12Ir19
_symmetry_space_group_name_H-M   'P 1'
_cell_length_a   12.75790200
_cell_length_b   12.75790230
_cell_length_c   3.94799100
_cell_angle_alpha   90.00000000
_cell_angle_beta   90.00000000
_cell_angle_gamma   120.00000441
_symmetry_Int_Tables_number   1
_chemical_formula_structural   Lu2Sc3Si12Ir19
_chemical_formula_sum   'Lu2 Sc3 Si12 Ir19'
_cell_volume   556.50016848
_cell_formula_units_Z   1
loop_
 _symmetry_equiv_pos_site_id
 _symmetry_equiv_pos_as_xyz
  1  'x, y, z'
loop_
 _atom_site_type_symbol
 _atom_site_label
 _atom_site_symmetry_multiplicity
 _atom_site_fract_x
 _atom_site_fract_y
 _atom_site_fract_z
 _atom_site_occupancy
  Lu  Lu0  1  0.333333  0.666667  0.000000  1
  Lu  Lu1  1  0.666667  0.333333  0.000000  1
  Sc  Sc2  1  0.816286  0.000000  0.500000  1
  Sc  Sc3  1  0.000000  0.816286  0.500000  1
  Sc  Sc4  1  0.183714  0.183714  0.500000  1
  Si  Si5  1  0.179006  0.000000  0.000000  1
  Si  Si6  1  0.000000  0.179006  0.000000  1
  Si  Si7  1  0.820994  0.820994  0.000000  1
  Si  Si8  1  0.168723  0.481310  0.500000  1
  Si  Si9  1  0.518690  0.687413  0.500000  1
  Si  Si10  1  0.312587  0.831277  0.500000  1
  Si  Si11  1  0.687413  0.518690  0.500000  1
  Si  Si12  1  0.831277  0.312587  0.500000  1
  Si  Si13  1  0.481310  0.168723  0.500000  1
  Si  Si14  1  0.634949  0.000000  0.000000  1
  Si  Si15  1  0.000000  0.634949  0.000000  1
  Si  Si16  1  0.365051  0.365051  0.000000  1
  Ir  Ir17  1  0.447755  0.000000  0.000000  1
  Ir  Ir18  1  0.000000  0.447755  0.000000  1
  Ir  Ir19  1  0.552245  0.552245  0.000000  1
  Ir  Ir20  1  0.360659  0.487714  0.500000  1
  Ir  Ir21  1  0.512286  0.872944  0.500000  1
  Ir  Ir22  1  0.127056  0.639341  0.500000  1
  Ir  Ir23  1  0.872944  0.512286  0.500000  1
  Ir  Ir24  1  0.639341  0.127056  0.500000  1
  Ir  Ir25  1  0.487714  0.360659  0.500000  1
  Ir  Ir26  1  0.182050  0.374428  0.000000  1
  Ir  Ir27  1  0.625572  0.807623  0.000000  1
  Ir  Ir28  1  0.192377  0.817950  0.000000  1
  Ir  Ir29  1  0.807623  0.625572  0.000000  1
  Ir  Ir30  1  0.817950  0.192377  0.000000  1
  Ir  Ir31  1  0.374428  0.182050  0.000000  1
  Ir  Ir32  1  0.280898  0.000000  0.500000  1
  Ir  Ir33  1  0.000000  0.280898  0.500000  1
  Ir  Ir34  1  0.719102  0.719102  0.500000  1
  Ir  Ir35  1  0.000000  0.000000  0.000000  1
