# generated using pymatgen
data_LiTb4(Ga2Pt)10
_symmetry_space_group_name_H-M   'P 1'
_cell_length_a   4.20408986
_cell_length_b   11.01556894
_cell_length_c   13.63513400
_cell_angle_alpha   81.54241638
_cell_angle_beta   81.13167624
_cell_angle_gamma   78.99907120
_symmetry_Int_Tables_number   1
_chemical_formula_structural   LiTb4(Ga2Pt)10
_chemical_formula_sum   'Li1 Tb4 Ga20 Pt10'
_cell_volume   607.91236311
_cell_formula_units_Z   1
loop_
 _symmetry_equiv_pos_site_id
 _symmetry_equiv_pos_as_xyz
  1  'x, y, z'
loop_
 _atom_site_type_symbol
 _atom_site_label
 _atom_site_symmetry_multiplicity
 _atom_site_fract_x
 _atom_site_fract_y
 _atom_site_fract_z
 _atom_site_occupancy
  Li  Li0  1  0.500000  0.500000  0.500000  1
  Tb  Tb1  1  0.123131  0.091366  0.662371  1
  Tb  Tb2  1  0.876869  0.908634  0.337629  1
  Tb  Tb3  1  0.773392  0.631356  0.821859  1
  Tb  Tb4  1  0.226608  0.368644  0.178141  1
  Ga  Ga5  1  0.009941  0.070145  0.909974  1
  Ga  Ga6  1  0.990059  0.929855  0.090026  1
  Ga  Ga7  1  0.063116  0.671371  0.202399  1
  Ga  Ga8  1  0.936884  0.328629  0.797601  1
  Ga  Ga9  1  0.108342  0.331473  0.451843  1
  Ga  Ga10  1  0.891658  0.668527  0.548157  1
  Ga  Ga11  1  0.201484  0.603526  0.993506  1
  Ga  Ga12  1  0.798516  0.396474  0.006494  1
  Ga  Ga13  1  0.258321  0.782613  0.700745  1
  Ga  Ga14  1  0.741679  0.217387  0.299255  1
  Ga  Ga15  1  0.303200  0.897095  0.496505  1
  Ga  Ga16  1  0.696800  0.102905  0.503495  1
  Ga  Ga17  1  0.387873  0.523524  0.700731  1
  Ga  Ga18  1  0.612127  0.476476  0.299269  1
  Ga  Ga19  1  0.397476  0.204561  0.000488  1
  Ga  Ga20  1  0.602524  0.795439  0.999512  1
  Ga  Ga21  1  0.542084  0.286336  0.629498  1
  Ga  Ga22  1  0.457916  0.713664  0.370502  1
  Ga  Ga23  1  0.634117  0.936946  0.794822  1
  Ga  Ga24  1  0.365883  0.063054  0.205178  1
  Pt  Pt25  1  0.025080  0.566219  0.383620  1
  Pt  Pt26  1  0.974920  0.433781  0.616380  1
  Pt  Pt27  1  0.139086  0.833323  0.888506  1
  Pt  Pt28  1  0.860914  0.166677  0.111494  1
  Pt  Pt29  1  0.244418  0.121627  0.389536  1
  Pt  Pt30  1  0.755582  0.878373  0.610464  1
  Pt  Pt31  1  0.345161  0.420533  0.889147  1
  Pt  Pt32  1  0.654839  0.579467  0.110853  1
  Pt  Pt33  1  0.506094  0.172243  0.815569  1
  Pt  Pt34  1  0.493906  0.827757  0.184431  1
