# generated using pymatgen
data_Ho2H(Pd2Pt)2
_symmetry_space_group_name_H-M   'P 1'
_cell_length_a   5.85139392
_cell_length_b   5.85494224
_cell_length_c   5.85139338
_cell_angle_alpha   59.97994242
_cell_angle_beta   60.24856178
_cell_angle_gamma   59.97993404
_symmetry_Int_Tables_number   1
_chemical_formula_structural   Ho2H(Pd2Pt)2
_chemical_formula_sum   'Ho2 H1 Pd4 Pt2'
_cell_volume   141.97215704
_cell_formula_units_Z   1
loop_
 _symmetry_equiv_pos_site_id
 _symmetry_equiv_pos_as_xyz
  1  'x, y, z'
loop_
 _atom_site_type_symbol
 _atom_site_label
 _atom_site_symmetry_multiplicity
 _atom_site_fract_x
 _atom_site_fract_y
 _atom_site_fract_z
 _atom_site_occupancy
  Ho  Ho0  1  0.244482  0.249284  0.256950  1
  Ho  Ho1  1  0.743050  0.750716  0.755518  1
  H  H2  1  0.049535  0.000000  0.950465  1
  Pd  Pd3  1  0.742910  0.251229  0.257091  1
  Pd  Pd4  1  0.246809  0.746690  0.259813  1
  Pd  Pd5  1  0.742909  0.748771  0.257092  1
  Pd  Pd6  1  0.740187  0.253312  0.753191  1
  Pt  Pt7  1  0.245059  0.254188  0.754942  1
  Pt  Pt8  1  0.245060  0.745812  0.754941  1
