# generated using pymatgen
data_Sr2Zn2PPt6
_symmetry_space_group_name_H-M   'P 1'
_cell_length_a   9.33819500
_cell_length_b   9.33819398
_cell_length_c   4.10252500
_cell_angle_alpha   90.00000000
_cell_angle_beta   90.00000000
_cell_angle_gamma   145.57866658
_symmetry_Int_Tables_number   1
_chemical_formula_structural   Sr2Zn2PPt6
_chemical_formula_sum   'Sr2 Zn2 P1 Pt6'
_cell_volume   202.22564033
_cell_formula_units_Z   1
loop_
 _symmetry_equiv_pos_site_id
 _symmetry_equiv_pos_as_xyz
  1  'x, y, z'
loop_
 _atom_site_type_symbol
 _atom_site_label
 _atom_site_symmetry_multiplicity
 _atom_site_fract_x
 _atom_site_fract_y
 _atom_site_fract_z
 _atom_site_occupancy
  Sr  Sr0  1  0.613034  0.377653  0.500000  1
  Sr  Sr1  1  0.377653  0.613034  0.500000  1
  Zn  Zn2  1  0.193790  0.791250  0.500000  1
  Zn  Zn3  1  0.791250  0.193790  0.500000  1
  P  P4  1  0.223936  0.223936  0.000000  1
  Pt  Pt5  1  0.110871  0.884595  0.000000  1
  Pt  Pt6  1  0.884595  0.110871  0.000000  1
  Pt  Pt7  1  0.491522  0.988230  0.000000  1
  Pt  Pt8  1  0.988230  0.491522  0.000000  1
  Pt  Pt9  1  0.003103  0.003103  0.500000  1
  Pt  Pt10  1  0.635617  0.635617  0.000000  1
