# generated using pymatgen
data_LiLa3(SnAu)5
_symmetry_space_group_name_H-M   'P 1'
_cell_length_a   4.71093800
_cell_length_b   10.18995700
_cell_length_c   13.90713800
_cell_angle_alpha   90.00000000
_cell_angle_beta   90.00000000
_cell_angle_gamma   90.00000000
_symmetry_Int_Tables_number   1
_chemical_formula_structural   LiLa3(SnAu)5
_chemical_formula_sum   'Li2 La6 Sn10 Au10'
_cell_volume   667.60180791
_cell_formula_units_Z   2
loop_
 _symmetry_equiv_pos_site_id
 _symmetry_equiv_pos_as_xyz
  1  'x, y, z'
loop_
 _atom_site_type_symbol
 _atom_site_label
 _atom_site_symmetry_multiplicity
 _atom_site_fract_x
 _atom_site_fract_y
 _atom_site_fract_z
 _atom_site_occupancy
  Li  Li0  1  0.000000  0.547470  0.000000  1
  Li  Li1  1  0.500000  0.452530  0.500000  1
  La  La2  1  0.000000  0.747213  0.805564  1
  La  La3  1  0.000000  0.747213  0.194436  1
  La  La4  1  0.500000  0.252787  0.694436  1
  La  La5  1  0.500000  0.252787  0.305564  1
  La  La6  1  0.000000  0.745293  0.500000  1
  La  La7  1  0.500000  0.254707  0.000000  1
  Sn  Sn8  1  0.000000  0.385815  0.843845  1
  Sn  Sn9  1  0.000000  0.385815  0.156155  1
  Sn  Sn10  1  0.500000  0.614185  0.656155  1
  Sn  Sn11  1  0.500000  0.614185  0.343845  1
  Sn  Sn12  1  0.000000  0.023225  0.359174  1
  Sn  Sn13  1  0.000000  0.023225  0.640826  1
  Sn  Sn14  1  0.500000  0.976775  0.140826  1
  Sn  Sn15  1  0.500000  0.976775  0.859174  1
  Sn  Sn16  1  0.000000  0.270066  0.500000  1
  Sn  Sn17  1  0.500000  0.729934  0.000000  1
  Au  Au18  1  0.000000  0.117806  0.839534  1
  Au  Au19  1  0.000000  0.117806  0.160466  1
  Au  Au20  1  0.500000  0.882194  0.660466  1
  Au  Au21  1  0.500000  0.882194  0.339534  1
  Au  Au22  1  0.000000  0.472451  0.357870  1
  Au  Au23  1  0.000000  0.472451  0.642130  1
  Au  Au24  1  0.500000  0.527549  0.142130  1
  Au  Au25  1  0.500000  0.527549  0.857870  1
  Au  Au26  1  0.000000  0.920274  0.000000  1
  Au  Au27  1  0.500000  0.079726  0.500000  1
