# generated using pymatgen
data_CePr5Np4O20
_symmetry_space_group_name_H-M   'P 1'
_cell_length_a   6.79125591
_cell_length_b   7.73105631
_cell_length_c   8.66882900
_cell_angle_alpha   101.40307683
_cell_angle_beta   97.44718666
_cell_angle_gamma   107.15030964
_symmetry_Int_Tables_number   1
_chemical_formula_structural   CePr5Np4O20
_chemical_formula_sum   'Ce1 Pr5 Np4 O20'
_cell_volume   417.65425565
_cell_formula_units_Z   1
loop_
 _symmetry_equiv_pos_site_id
 _symmetry_equiv_pos_as_xyz
  1  'x, y, z'
loop_
 _atom_site_type_symbol
 _atom_site_label
 _atom_site_symmetry_multiplicity
 _atom_site_fract_x
 _atom_site_fract_y
 _atom_site_fract_z
 _atom_site_occupancy
  Ce  Ce0  1  0.000000  0.000000  0.500000  1
  Pr  Pr1  1  0.607414  0.702258  0.700094  1
  Pr  Pr2  1  0.392586  0.297742  0.299906  1
  Pr  Pr3  1  0.200069  0.898465  0.896719  1
  Pr  Pr4  1  0.000000  0.500000  0.500000  1
  Pr  Pr5  1  0.799931  0.101535  0.103281  1
  Np  Np6  1  0.397606  0.800259  0.298569  1
  Np  Np7  1  0.200951  0.401794  0.901488  1
  Np  Np8  1  0.799049  0.598206  0.098512  1
  Np  Np9  1  0.602394  0.199741  0.701431  1
  O  O10  1  0.440826  0.535345  0.133513  1
  O  O11  1  0.557323  0.995295  0.837703  1
  O  O12  1  0.267918  0.151619  0.742108  1
  O  O13  1  0.359618  0.599160  0.437863  1
  O  O14  1  0.054910  0.732159  0.327463  1
  O  O15  1  0.442677  0.004705  0.162297  1
  O  O16  1  0.151778  0.191368  0.031515  1
  O  O17  1  0.559174  0.464655  0.866487  1
  O  O18  1  0.855593  0.343012  0.949188  1
  O  O19  1  0.253599  0.602313  0.763270  1
  O  O20  1  0.956045  0.782959  0.644846  1
  O  O21  1  0.349979  0.054167  0.456691  1
  O  O22  1  0.650021  0.945833  0.543309  1
  O  O23  1  0.043955  0.217041  0.355154  1
  O  O24  1  0.746401  0.397687  0.236730  1
  O  O25  1  0.144407  0.656988  0.050812  1
  O  O26  1  0.848222  0.808632  0.968485  1
  O  O27  1  0.945090  0.267841  0.672537  1
  O  O28  1  0.640382  0.400840  0.562137  1
  O  O29  1  0.732082  0.848381  0.257892  1
