# generated using pymatgen
data_NdPa(Ni4Pt)2
_symmetry_space_group_name_H-M   'P 1'
_cell_length_a   4.05205000
_cell_length_b   5.08805333
_cell_length_c   8.49841617
_cell_angle_alpha   93.49823077
_cell_angle_beta   90.00000000
_cell_angle_gamma   90.00000000
_symmetry_Int_Tables_number   1
_chemical_formula_structural   NdPa(Ni4Pt)2
_chemical_formula_sum   'Nd1 Pa1 Ni8 Pt2'
_cell_volume   174.88576547
_cell_formula_units_Z   1
loop_
 _symmetry_equiv_pos_site_id
 _symmetry_equiv_pos_as_xyz
  1  'x, y, z'
loop_
 _atom_site_type_symbol
 _atom_site_label
 _atom_site_symmetry_multiplicity
 _atom_site_fract_x
 _atom_site_fract_y
 _atom_site_fract_z
 _atom_site_occupancy
  Nd  Nd0  1  0.000000  0.500000  0.500000  1
  Pa  Pa1  1  0.000000  0.000000  0.000000  1
  Ni  Ni2  1  0.000000  0.977068  0.333097  1
  Ni  Ni3  1  0.000000  0.476049  0.846790  1
  Ni  Ni4  1  0.000000  0.523951  0.153210  1
  Ni  Ni5  1  0.000000  0.022932  0.666903  1
  Ni  Ni6  1  0.500000  0.500000  0.000000  1
  Ni  Ni7  1  0.500000  0.000000  0.500000  1
  Ni  Ni8  1  0.500000  0.750180  0.246612  1
  Ni  Ni9  1  0.500000  0.249820  0.753388  1
  Pt  Pt10  1  0.500000  0.243617  0.242412  1
  Pt  Pt11  1  0.500000  0.756383  0.757588  1
