# generated using pymatgen
data_Lu2Th2B12MoRu
_symmetry_space_group_name_H-M   'P 1'
_cell_length_a   3.75197100
_cell_length_b   9.19656970
_cell_length_c   11.63271302
_cell_angle_alpha   89.78187791
_cell_angle_beta   90.00000000
_cell_angle_gamma   90.00000000
_symmetry_Int_Tables_number   1
_chemical_formula_structural   Lu2Th2B12MoRu
_chemical_formula_sum   'Lu4 Th4 B24 Mo2 Ru2'
_cell_volume   401.38691150
_cell_formula_units_Z   2
loop_
 _symmetry_equiv_pos_site_id
 _symmetry_equiv_pos_as_xyz
  1  'x, y, z'
loop_
 _atom_site_type_symbol
 _atom_site_label
 _atom_site_symmetry_multiplicity
 _atom_site_fract_x
 _atom_site_fract_y
 _atom_site_fract_z
 _atom_site_occupancy
  Lu  Lu0  1  0.000000  0.944050  0.373273  1
  Lu  Lu1  1  0.000000  0.055950  0.626727  1
  Lu  Lu2  1  0.000000  0.446484  0.127368  1
  Lu  Lu3  1  0.000000  0.553516  0.872632  1
  Th  Th4  1  0.000000  0.323855  0.415560  1
  Th  Th5  1  0.000000  0.676145  0.584440  1
  Th  Th6  1  0.000000  0.820234  0.087300  1
  Th  Th7  1  0.000000  0.179766  0.912700  1
  B  B8  1  0.500000  0.555655  0.429988  1
  B  B9  1  0.500000  0.444345  0.570012  1
  B  B10  1  0.500000  0.057168  0.070481  1
  B  B11  1  0.500000  0.942832  0.929519  1
  B  B12  1  0.500000  0.751812  0.417525  1
  B  B13  1  0.500000  0.248188  0.582475  1
  B  B14  1  0.500000  0.252230  0.082689  1
  B  B15  1  0.500000  0.747770  0.917311  1
  B  B16  1  0.500000  0.794204  0.265710  1
  B  B17  1  0.500000  0.205796  0.734290  1
  B  B18  1  0.500000  0.291400  0.233312  1
  B  B19  1  0.500000  0.708600  0.766688  1
  B  B20  1  0.500000  0.630963  0.184054  1
  B  B21  1  0.500000  0.369037  0.815946  1
  B  B22  1  0.500000  0.129488  0.314796  1
  B  B23  1  0.500000  0.870512  0.685204  1
  B  B24  1  0.500000  0.985303  0.214313  1
  B  B25  1  0.500000  0.014697  0.785687  1
  B  B26  1  0.500000  0.483704  0.284393  1
  B  B27  1  0.500000  0.516296  0.715607  1
  B  B28  1  0.500000  0.602008  0.026609  1
  B  B29  1  0.500000  0.397992  0.973391  1
  B  B30  1  0.500000  0.100327  0.471664  1
  B  B31  1  0.500000  0.899673  0.528336  1
  Mo  Mo32  1  0.000000  0.640822  0.318180  1
  Mo  Mo33  1  0.000000  0.359178  0.681820  1
  Ru  Ru34  1  0.000000  0.139908  0.180238  1
  Ru  Ru35  1  0.000000  0.860092  0.819762  1
