# generated using pymatgen
data_TmFe3SiB
_symmetry_space_group_name_H-M   'P 1'
_cell_length_a   5.09637500
_cell_length_b   5.09768491
_cell_length_c   6.63256700
_cell_angle_alpha   90.00000000
_cell_angle_beta   90.00000000
_cell_angle_gamma   119.99149362
_symmetry_Int_Tables_number   1
_chemical_formula_structural   TmFe3SiB
_chemical_formula_sum   'Tm2 Fe6 Si2 B2'
_cell_volume   149.23952638
_cell_formula_units_Z   2
loop_
 _symmetry_equiv_pos_site_id
 _symmetry_equiv_pos_as_xyz
  1  'x, y, z'
loop_
 _atom_site_type_symbol
 _atom_site_label
 _atom_site_symmetry_multiplicity
 _atom_site_fract_x
 _atom_site_fract_y
 _atom_site_fract_z
 _atom_site_occupancy
  Tm  Tm0  1  0.999980  0.000000  0.000000  1
  Tm  Tm1  1  0.999985  0.000000  0.500000  1
  Fe  Fe2  1  0.499985  0.000000  0.282105  1
  Fe  Fe3  1  0.499984  0.500000  0.282103  1
  Fe  Fe4  1  0.999984  0.500000  0.282103  1
  Fe  Fe5  1  0.499985  0.000000  0.717895  1
  Fe  Fe6  1  0.499984  0.500000  0.717897  1
  Fe  Fe7  1  0.999984  0.500000  0.717897  1
  Si  Si8  1  0.333255  0.666548  0.000000  1
  Si  Si9  1  0.666706  0.333452  0.000000  1
  B  B10  1  0.333275  0.666580  0.500000  1
  B  B11  1  0.666694  0.333420  0.500000  1
