# generated using pymatgen
data_MnGa2Pd7
_symmetry_space_group_name_H-M   'P 1'
_cell_length_a   7.28770897
_cell_length_b   7.28770892
_cell_length_c   5.50151996
_cell_angle_alpha   73.61891668
_cell_angle_beta   73.61891828
_cell_angle_gamma   32.85435185
_symmetry_Int_Tables_number   1
_chemical_formula_structural   MnGa2Pd7
_chemical_formula_sum   'Mn1 Ga2 Pd7'
_cell_volume   151.50762211
_cell_formula_units_Z   1
loop_
 _symmetry_equiv_pos_site_id
 _symmetry_equiv_pos_as_xyz
  1  'x, y, z'
loop_
 _atom_site_type_symbol
 _atom_site_label
 _atom_site_symmetry_multiplicity
 _atom_site_fract_x
 _atom_site_fract_y
 _atom_site_fract_z
 _atom_site_occupancy
  Mn  Mn0  1  0.000000  0.000000  0.000000  1
  Ga  Ga1  1  0.190004  0.190004  0.344334  1
  Ga  Ga2  1  0.809996  0.809996  0.655666  1
  Pd  Pd3  1  0.000000  0.000000  0.500000  1
  Pd  Pd4  1  0.207973  0.207973  0.857181  1
  Pd  Pd5  1  0.792027  0.792027  0.142819  1
  Pd  Pd6  1  0.378810  0.378810  0.367129  1
  Pd  Pd7  1  0.621190  0.621190  0.632871  1
  Pd  Pd8  1  0.411730  0.411730  0.846515  1
  Pd  Pd9  1  0.588270  0.588270  0.153485  1
