# generated using pymatgen
data_Sr4Fe2PtWO12
_symmetry_space_group_name_H-M   'P 1'
_cell_length_a   5.61183852
_cell_length_b   5.65648152
_cell_length_c   9.76145672
_cell_angle_alpha   89.58916129
_cell_angle_beta   106.56048806
_cell_angle_gamma   119.58452538
_symmetry_Int_Tables_number   1
_chemical_formula_structural   Sr4Fe2PtWO12
_chemical_formula_sum   'Sr4 Fe2 Pt1 W1 O12'
_cell_volume   254.94934018
_cell_formula_units_Z   1
loop_
 _symmetry_equiv_pos_site_id
 _symmetry_equiv_pos_as_xyz
  1  'x, y, z'
loop_
 _atom_site_type_symbol
 _atom_site_label
 _atom_site_symmetry_multiplicity
 _atom_site_fract_x
 _atom_site_fract_y
 _atom_site_fract_z
 _atom_site_occupancy
  Sr  Sr0  1  0.751792  0.628087  0.385906  1
  Sr  Sr1  1  0.744552  0.122227  0.861843  1
  Sr  Sr2  1  0.255448  0.877773  0.138157  1
  Sr  Sr3  1  0.248208  0.371913  0.614094  1
  Fe  Fe4  1  0.003224  0.251990  0.255626  1
  Fe  Fe5  1  0.996776  0.748010  0.744374  1
  Pt  Pt6  1  0.500000  0.000000  0.500000  1
  W  W7  1  0.500000  0.500000  0.000000  1
  O  O8  1  0.740677  0.864906  0.119455  1
  O  O9  1  0.730793  0.374703  0.629711  1
  O  O10  1  0.269207  0.625297  0.370289  1
  O  O11  1  0.259323  0.135094  0.880545  1
  O  O12  1  0.191343  0.083804  0.387446  1
  O  O13  1  0.218904  0.604939  0.899299  1
  O  O14  1  0.808657  0.916196  0.612554  1
  O  O15  1  0.781096  0.395061  0.100701  1
  O  O16  1  0.707674  0.642163  0.861384  1
  O  O17  1  0.711593  0.159618  0.353042  1
  O  O18  1  0.288407  0.840382  0.646958  1
  O  O19  1  0.292326  0.357837  0.138616  1
