# generated using pymatgen
data_HoLuZn(Ni2P)6
_symmetry_space_group_name_H-M   'P 1'
_cell_length_a   9.09360800
_cell_length_b   9.09360803
_cell_length_c   3.65320500
_cell_angle_alpha   90.00000000
_cell_angle_beta   90.00000000
_cell_angle_gamma   120.00000716
_symmetry_Int_Tables_number   1
_chemical_formula_structural   HoLuZn(Ni2P)6
_chemical_formula_sum   'Ho1 Lu1 Zn1 Ni12 P6'
_cell_volume   261.62371207
_cell_formula_units_Z   1
loop_
 _symmetry_equiv_pos_site_id
 _symmetry_equiv_pos_as_xyz
  1  'x, y, z'
loop_
 _atom_site_type_symbol
 _atom_site_label
 _atom_site_symmetry_multiplicity
 _atom_site_fract_x
 _atom_site_fract_y
 _atom_site_fract_z
 _atom_site_occupancy
  Ho  Ho0  1  0.333333  0.666667  0.000000  1
  Lu  Lu1  1  0.666667  0.333333  0.500000  1
  Zn  Zn2  1  0.000000  0.000000  0.500000  1
  Ni  Ni3  1  0.616468  0.562855  0.000000  1
  Ni  Ni4  1  0.834917  0.704012  0.500000  1
  Ni  Ni5  1  0.946388  0.383532  0.000000  1
  Ni  Ni6  1  0.295988  0.130906  0.500000  1
  Ni  Ni7  1  0.136550  0.244714  0.000000  1
  Ni  Ni8  1  0.108165  0.863450  0.000000  1
  Ni  Ni9  1  0.755286  0.891835  0.000000  1
  Ni  Ni10  1  0.377082  0.438951  0.500000  1
  Ni  Ni11  1  0.561049  0.938132  0.500000  1
  Ni  Ni12  1  0.061868  0.622918  0.500000  1
  Ni  Ni13  1  0.869094  0.165083  0.500000  1
  Ni  Ni14  1  0.437145  0.053612  0.000000  1
  P  P15  1  0.706657  0.112428  0.000000  1
  P  P16  1  0.114524  0.403765  0.500000  1
  P  P17  1  0.596235  0.710760  0.500000  1
  P  P18  1  0.289240  0.885476  0.500000  1
  P  P19  1  0.887572  0.594229  0.000000  1
  P  P20  1  0.405771  0.293343  0.000000  1
