# generated using pymatgen
data_CeGdTh(B2C)3
_symmetry_space_group_name_H-M   'P 1'
_cell_length_a   5.33604489
_cell_length_b   5.33604608
_cell_length_c   5.33604660
_cell_angle_alpha   76.74088709
_cell_angle_beta   76.74088241
_cell_angle_gamma   76.74088993
_symmetry_Int_Tables_number   1
_chemical_formula_structural   CeGdTh(B2C)3
_chemical_formula_sum   'Ce1 Gd1 Th1 B6 C3'
_cell_volume   141.41564123
_cell_formula_units_Z   1
loop_
 _symmetry_equiv_pos_site_id
 _symmetry_equiv_pos_as_xyz
  1  'x, y, z'
loop_
 _atom_site_type_symbol
 _atom_site_label
 _atom_site_symmetry_multiplicity
 _atom_site_fract_x
 _atom_site_fract_y
 _atom_site_fract_z
 _atom_site_occupancy
  Ce  Ce0  1  0.687143  0.687143  0.687143  1
  Gd  Gd1  1  0.313522  0.313522  0.313522  1
  Th  Th2  1  0.999863  0.999863  0.999863  1
  B  B3  1  0.499379  0.774024  0.225062  1
  B  B4  1  0.225062  0.499379  0.774024  1
  B  B5  1  0.774024  0.225062  0.499379  1
  B  B6  1  0.499379  0.225062  0.774024  1
  B  B7  1  0.225062  0.774024  0.499379  1
  B  B8  1  0.774024  0.499379  0.225062  1
  C  C9  1  0.000123  0.000123  0.502296  1
  C  C10  1  0.000123  0.502296  0.000123  1
  C  C11  1  0.502296  0.000123  0.000123  1
