# generated using pymatgen
data_Dy2Ho2LuRu2
_symmetry_space_group_name_H-M   'P 1'
_cell_length_a   6.30744670
_cell_length_b   7.23969579
_cell_length_c   8.42542093
_cell_angle_alpha   96.76846534
_cell_angle_beta   111.98169918
_cell_angle_gamma   90.00000082
_symmetry_Int_Tables_number   1
_chemical_formula_structural   Dy2Ho2LuRu2
_chemical_formula_sum   'Dy4 Ho4 Lu2 Ru4'
_cell_volume   353.87594093
_cell_formula_units_Z   2
loop_
 _symmetry_equiv_pos_site_id
 _symmetry_equiv_pos_as_xyz
  1  'x, y, z'
loop_
 _atom_site_type_symbol
 _atom_site_label
 _atom_site_symmetry_multiplicity
 _atom_site_fract_x
 _atom_site_fract_y
 _atom_site_fract_z
 _atom_site_occupancy
  Dy  Dy0  1  0.522748  0.083384  0.813697  1
  Dy  Dy1  1  0.477252  0.916616  0.186303  1
  Dy  Dy2  1  0.709051  0.416616  0.186303  1
  Dy  Dy3  1  0.290949  0.583384  0.813697  1
  Ho  Ho4  1  0.297245  0.313030  0.432479  1
  Ho  Ho5  1  0.702755  0.686970  0.567521  1
  Ho  Ho6  1  0.864768  0.186970  0.567521  1
  Ho  Ho7  1  0.135232  0.813030  0.432479  1
  Lu  Lu8  1  0.078020  0.250000  0.000000  1
  Lu  Lu9  1  0.921980  0.750000  0.000000  1
  Ru  Ru10  1  0.319751  0.575575  0.218594  1
  Ru  Ru11  1  0.680249  0.424425  0.781406  1
  Ru  Ru12  1  0.101158  0.924425  0.781406  1
  Ru  Ru13  1  0.898842  0.075575  0.218594  1
