# generated using pymatgen
data_TbDyU2(Si5Os3)2
_symmetry_space_group_name_H-M   'P 1'
_cell_length_a   8.11776403
_cell_length_b   8.12019981
_cell_length_c   5.78380853
_cell_angle_alpha   70.60663605
_cell_angle_beta   70.59580516
_cell_angle_gamma   93.57883835
_symmetry_Int_Tables_number   1
_chemical_formula_structural   TbDyU2(Si5Os3)2
_chemical_formula_sum   'Tb1 Dy1 U2 Si10 Os6'
_cell_volume   332.74212950
_cell_formula_units_Z   1
loop_
 _symmetry_equiv_pos_site_id
 _symmetry_equiv_pos_as_xyz
  1  'x, y, z'
loop_
 _atom_site_type_symbol
 _atom_site_label
 _atom_site_symmetry_multiplicity
 _atom_site_fract_x
 _atom_site_fract_y
 _atom_site_fract_z
 _atom_site_occupancy
  Tb  Tb0  1  0.400845  0.131867  0.743089  1
  Dy  Dy1  1  0.866935  0.601037  0.756507  1
  U  U2  1  0.131703  0.404257  0.237787  1
  U  U3  1  0.596036  0.867251  0.264239  1
  Si  Si4  1  0.065103  0.261496  0.835206  1
  Si  Si5  1  0.737387  0.935700  0.666568  1
  Si  Si6  1  0.935593  0.738273  0.163304  1
  Si  Si7  1  0.262787  0.064737  0.336167  1
  Si  Si8  1  0.205065  0.794382  0.749252  1
  Si  Si9  1  0.793686  0.205246  0.252213  1
  Si  Si10  1  0.515916  0.483697  0.749107  1
  Si  Si11  1  0.486993  0.512648  0.249978  1
  Si  Si12  1  0.774593  0.226218  0.749024  1
  Si  Si13  1  0.224538  0.775383  0.250085  1
  Os  Os14  1  0.255285  0.542613  0.634220  1
  Os  Os15  1  0.456539  0.743319  0.865046  1
  Os  Os16  1  0.747444  0.457184  0.364825  1
  Os  Os17  1  0.544303  0.253226  0.133559  1
  Os  Os18  1  0.001466  0.999016  0.749777  1
  Os  Os19  1  0.997783  0.002449  0.250050  1
