# generated using pymatgen
data_CsRbNp2(CdTe3)2
_symmetry_space_group_name_H-M   'P 1'
_cell_length_a   4.60981800
_cell_length_b   8.77865215
_cell_length_c   11.87666800
_cell_angle_alpha   90.34589200
_cell_angle_beta   90.00000000
_cell_angle_gamma   74.77807620
_symmetry_Int_Tables_number   1
_chemical_formula_structural   CsRbNp2(CdTe3)2
_chemical_formula_sum   'Cs1 Rb1 Np2 Cd2 Te6'
_cell_volume   463.75359443
_cell_formula_units_Z   1
loop_
 _symmetry_equiv_pos_site_id
 _symmetry_equiv_pos_as_xyz
  1  'x, y, z'
loop_
 _atom_site_type_symbol
 _atom_site_label
 _atom_site_symmetry_multiplicity
 _atom_site_fract_x
 _atom_site_fract_y
 _atom_site_fract_z
 _atom_site_occupancy
  Cs  Cs0  1  0.751482  0.497036  0.749450  1
  Rb  Rb1  1  0.247685  0.504632  0.245986  1
  Np  Np2  1  0.999510  0.000978  0.494338  1
  Np  Np3  1  0.001343  0.997317  0.995556  1
  Cd  Cd4  1  0.530298  0.939402  0.244625  1
  Cd  Cd5  1  0.468338  0.063327  0.745486  1
  Te  Te6  1  0.623695  0.752610  0.441230  1
  Te  Te7  1  0.376690  0.246622  0.546837  1
  Te  Te8  1  0.624952  0.750095  0.047841  1
  Te  Te9  1  0.378586  0.242827  0.947393  1
  Te  Te10  1  0.927184  0.145632  0.245275  1
  Te  Te11  1  0.070239  0.859522  0.743806  1
