# generated using pymatgen
data_DyEr5Ir2
_symmetry_space_group_name_H-M   'P 1'
_cell_length_a   6.33738900
_cell_length_b   7.22662900
_cell_length_c   9.13709100
_cell_angle_alpha   90.00000000
_cell_angle_beta   90.00000000
_cell_angle_gamma   90.00000000
_symmetry_Int_Tables_number   1
_chemical_formula_structural   DyEr5Ir2
_chemical_formula_sum   'Dy2 Er10 Ir4'
_cell_volume   418.46012020
_cell_formula_units_Z   2
loop_
 _symmetry_equiv_pos_site_id
 _symmetry_equiv_pos_as_xyz
  1  'x, y, z'
loop_
 _atom_site_type_symbol
 _atom_site_label
 _atom_site_symmetry_multiplicity
 _atom_site_fract_x
 _atom_site_fract_y
 _atom_site_fract_z
 _atom_site_occupancy
  Dy  Dy0  1  0.868324  0.534243  0.250000  1
  Dy  Dy1  1  0.631676  0.034243  0.250000  1
  Er  Er2  1  0.328722  0.676872  0.062160  1
  Er  Er3  1  0.171278  0.176872  0.437840  1
  Er  Er4  1  0.671710  0.323090  0.562924  1
  Er  Er5  1  0.828290  0.823090  0.937076  1
  Er  Er6  1  0.671710  0.323090  0.937076  1
  Er  Er7  1  0.828290  0.823090  0.562924  1
  Er  Er8  1  0.328722  0.676872  0.437840  1
  Er  Er9  1  0.171278  0.176872  0.062160  1
  Er  Er10  1  0.131817  0.465242  0.750000  1
  Er  Er11  1  0.368183  0.965242  0.750000  1
  Ir  Ir12  1  0.047367  0.882720  0.250000  1
  Ir  Ir13  1  0.452633  0.382720  0.250000  1
  Ir  Ir14  1  0.954844  0.117870  0.750000  1
  Ir  Ir15  1  0.545156  0.617870  0.750000  1
