# generated using pymatgen
data_LaNi9P5
_symmetry_space_group_name_H-M   'P 1'
_cell_length_a   6.48537900
_cell_length_b   6.48537878
_cell_length_c   10.74198600
_cell_angle_alpha   90.00000000
_cell_angle_beta   90.00000000
_cell_angle_gamma   119.99999603
_symmetry_Int_Tables_number   1
_chemical_formula_structural   LaNi9P5
_chemical_formula_sum   'La2 Ni18 P10'
_cell_volume   391.27845790
_cell_formula_units_Z   2
loop_
 _symmetry_equiv_pos_site_id
 _symmetry_equiv_pos_as_xyz
  1  'x, y, z'
loop_
 _atom_site_type_symbol
 _atom_site_label
 _atom_site_symmetry_multiplicity
 _atom_site_fract_x
 _atom_site_fract_y
 _atom_site_fract_z
 _atom_site_occupancy
  La  La0  1  0.000000  0.000000  0.000000  1
  La  La1  1  0.000000  0.000000  0.500000  1
  Ni  Ni2  1  0.535601  0.071203  0.106397  1
  Ni  Ni3  1  0.464399  0.535601  0.606397  1
  Ni  Ni4  1  0.071203  0.535601  0.606397  1
  Ni  Ni5  1  0.928797  0.464399  0.106397  1
  Ni  Ni6  1  0.535601  0.464399  0.106397  1
  Ni  Ni7  1  0.464399  0.928797  0.893603  1
  Ni  Ni8  1  0.464399  0.535601  0.893603  1
  Ni  Ni9  1  0.464399  0.928797  0.606397  1
  Ni  Ni10  1  0.071203  0.535601  0.893603  1
  Ni  Ni11  1  0.928797  0.464399  0.393603  1
  Ni  Ni12  1  0.535601  0.071203  0.393603  1
  Ni  Ni13  1  0.535601  0.464399  0.393603  1
  Ni  Ni14  1  0.202382  0.404764  0.250000  1
  Ni  Ni15  1  0.797618  0.202382  0.750000  1
  Ni  Ni16  1  0.404764  0.202382  0.750000  1
  Ni  Ni17  1  0.595236  0.797618  0.250000  1
  Ni  Ni18  1  0.202382  0.797618  0.250000  1
  Ni  Ni19  1  0.797618  0.595236  0.750000  1
  P  P20  1  0.825952  0.651905  0.250000  1
  P  P21  1  0.174048  0.825952  0.750000  1
  P  P22  1  0.651905  0.825952  0.750000  1
  P  P23  1  0.348095  0.174048  0.250000  1
  P  P24  1  0.825952  0.174048  0.250000  1
  P  P25  1  0.174048  0.348095  0.750000  1
  P  P26  1  0.333333  0.666667  0.061609  1
  P  P27  1  0.666667  0.333333  0.561609  1
  P  P28  1  0.666667  0.333333  0.938391  1
  P  P29  1  0.333333  0.666667  0.438391  1
