# generated using pymatgen
data_Ca20Ga8Hg3Bi
_symmetry_space_group_name_H-M   'P 1'
_cell_length_a   8.13416700
_cell_length_b   8.13416700
_cell_length_c   14.61390400
_cell_angle_alpha   90.00000000
_cell_angle_beta   90.00000000
_cell_angle_gamma   90.00000000
_symmetry_Int_Tables_number   1
_chemical_formula_structural   Ca20Ga8Hg3Bi
_chemical_formula_sum   'Ca20 Ga8 Hg3 Bi1'
_cell_volume   966.92417626
_cell_formula_units_Z   1
loop_
 _symmetry_equiv_pos_site_id
 _symmetry_equiv_pos_as_xyz
  1  'x, y, z'
loop_
 _atom_site_type_symbol
 _atom_site_label
 _atom_site_symmetry_multiplicity
 _atom_site_fract_x
 _atom_site_fract_y
 _atom_site_fract_z
 _atom_site_occupancy
  Ca  Ca0  1  0.672334  0.169635  0.107799  1
  Ca  Ca1  1  0.171721  0.670776  0.609650  1
  Ca  Ca2  1  0.327666  0.830365  0.107799  1
  Ca  Ca3  1  0.828279  0.329224  0.609650  1
  Ca  Ca4  1  0.830365  0.672334  0.107799  1
  Ca  Ca5  1  0.329224  0.171721  0.609650  1
  Ca  Ca6  1  0.169635  0.327666  0.107799  1
  Ca  Ca7  1  0.670776  0.828279  0.609650  1
  Ca  Ca8  1  0.830365  0.327666  0.892201  1
  Ca  Ca9  1  0.329224  0.828279  0.390350  1
  Ca  Ca10  1  0.169635  0.672334  0.892201  1
  Ca  Ca11  1  0.670776  0.171721  0.390350  1
  Ca  Ca12  1  0.672334  0.830365  0.892201  1
  Ca  Ca13  1  0.171721  0.329224  0.390350  1
  Ca  Ca14  1  0.327666  0.169635  0.892201  1
  Ca  Ca15  1  0.828279  0.670776  0.390350  1
  Ca  Ca16  1  0.500000  0.500000  0.753088  1
  Ca  Ca17  1  0.000000  0.000000  0.250758  1
  Ca  Ca18  1  0.000000  0.000000  0.749242  1
  Ca  Ca19  1  0.500000  0.500000  0.246912  1
  Ga  Ga20  1  0.614720  0.116431  0.752352  1
  Ga  Ga21  1  0.116431  0.614720  0.247648  1
  Ga  Ga22  1  0.883569  0.385280  0.247648  1
  Ga  Ga23  1  0.385280  0.883569  0.752352  1
  Ga  Ga24  1  0.883569  0.614720  0.752352  1
  Ga  Ga25  1  0.385280  0.116431  0.247648  1
  Ga  Ga26  1  0.116431  0.385280  0.752352  1
  Ga  Ga27  1  0.614720  0.883569  0.247648  1
  Hg  Hg28  1  0.500000  0.500000  0.500000  1
  Hg  Hg29  1  0.500000  0.500000  0.000000  1
  Hg  Hg30  1  0.000000  0.000000  0.500000  1
  Bi  Bi31  1  0.000000  0.000000  0.000000  1
