# generated using pymatgen
data_Na4USnSe6
_symmetry_space_group_name_H-M   'P 1'
_cell_length_a   7.37134563
_cell_length_b   7.37134542
_cell_length_c   7.24229358
_cell_angle_alpha   80.14524870
_cell_angle_beta   80.14526303
_cell_angle_gamma   120.07124843
_symmetry_Int_Tables_number   1
_chemical_formula_structural   Na4USnSe6
_chemical_formula_sum   'Na4 U1 Sn1 Se6'
_cell_volume   319.93683988
_cell_formula_units_Z   1
loop_
 _symmetry_equiv_pos_site_id
 _symmetry_equiv_pos_as_xyz
  1  'x, y, z'
loop_
 _atom_site_type_symbol
 _atom_site_label
 _atom_site_symmetry_multiplicity
 _atom_site_fract_x
 _atom_site_fract_y
 _atom_site_fract_z
 _atom_site_occupancy
  Na  Na0  1  0.000107  0.999893  0.000000  1
  Na  Na1  1  0.501942  0.498058  0.500000  1
  Na  Na2  1  0.837632  0.162368  0.500000  1
  Na  Na3  1  0.160022  0.839978  0.500000  1
  U  U4  1  0.332906  0.667094  0.000000  1
  Sn  Sn5  1  0.667876  0.332124  0.000000  1
  Se  Se6  1  0.268290  0.289683  0.228060  1
  Se  Se7  1  0.420667  0.054744  0.771961  1
  Se  Se8  1  0.097653  0.442667  0.775632  1
  Se  Se9  1  0.710317  0.731710  0.771940  1
  Se  Se10  1  0.557333  0.902347  0.224368  1
  Se  Se11  1  0.945256  0.579333  0.228039  1
