# generated using pymatgen
data_Sm2Dy2Ho2SbRuO14
_symmetry_space_group_name_H-M   'P 1'
_cell_length_a   6.46921062
_cell_length_b   6.46921107
_cell_length_c   7.53406539
_cell_angle_alpha   90.19459171
_cell_angle_beta   89.80540875
_cell_angle_gamma   109.33149892
_symmetry_Int_Tables_number   1
_chemical_formula_structural   Sm2Dy2Ho2SbRuO14
_chemical_formula_sum   'Sm2 Dy2 Ho2 Sb1 Ru1 O14'
_cell_volume   297.52602420
_cell_formula_units_Z   1
loop_
 _symmetry_equiv_pos_site_id
 _symmetry_equiv_pos_as_xyz
  1  'x, y, z'
loop_
 _atom_site_type_symbol
 _atom_site_label
 _atom_site_symmetry_multiplicity
 _atom_site_fract_x
 _atom_site_fract_y
 _atom_site_fract_z
 _atom_site_occupancy
  Sm  Sm0  1  0.500740  0.500740  0.500000  1
  Sm  Sm1  1  0.500534  0.500534  0.000000  1
  Dy  Dy2  1  0.466393  0.999828  0.251354  1
  Dy  Dy3  1  0.999828  0.466393  0.748646  1
  Ho  Ho4  1  0.533340  0.000515  0.748798  1
  Ho  Ho5  1  0.000515  0.533340  0.251202  1
  Sb  Sb6  1  0.999974  0.999974  0.000000  1
  Ru  Ru7  1  0.999989  0.999989  0.500000  1
  O  O8  1  0.680812  0.929054  0.470963  1
  O  O9  1  0.929054  0.680812  0.529037  1
  O  O10  1  0.676794  0.929089  0.028454  1
  O  O11  1  0.929089  0.676794  0.971546  1
  O  O12  1  0.318669  0.070564  0.530610  1
  O  O13  1  0.070564  0.318669  0.469390  1
  O  O14  1  0.322757  0.070542  0.970084  1
  O  O15  1  0.070542  0.322757  0.029916  1
  O  O16  1  0.930018  0.069410  0.748457  1
  O  O17  1  0.069410  0.930018  0.251543  1
  O  O18  1  0.366443  0.635788  0.750088  1
  O  O19  1  0.635788  0.366443  0.249912  1
  O  O20  1  0.639242  0.359505  0.749097  1
  O  O21  1  0.359505  0.639242  0.250903  1
