# generated using pymatgen
data_Nd2Mn3PtO10
_symmetry_space_group_name_H-M   'P 1'
_cell_length_a   5.93381500
_cell_length_b   7.59958100
_cell_length_c   8.80620600
_cell_angle_alpha   90.00000000
_cell_angle_beta   90.00000000
_cell_angle_gamma   90.00000000
_symmetry_Int_Tables_number   1
_chemical_formula_structural   Nd2Mn3PtO10
_chemical_formula_sum   'Nd4 Mn6 Pt2 O20'
_cell_volume   397.11152455
_cell_formula_units_Z   2
loop_
 _symmetry_equiv_pos_site_id
 _symmetry_equiv_pos_as_xyz
  1  'x, y, z'
loop_
 _atom_site_type_symbol
 _atom_site_label
 _atom_site_symmetry_multiplicity
 _atom_site_fract_x
 _atom_site_fract_y
 _atom_site_fract_z
 _atom_site_occupancy
  Nd  Nd0  1  0.002642  0.360744  0.671105  1
  Nd  Nd1  1  0.002642  0.639256  0.328895  1
  Nd  Nd2  1  0.997358  0.860744  0.828895  1
  Nd  Nd3  1  0.997358  0.139256  0.171105  1
  Mn  Mn4  1  0.495817  0.086879  0.850988  1
  Mn  Mn5  1  0.495817  0.913121  0.149012  1
  Mn  Mn6  1  0.504183  0.586879  0.649012  1
  Mn  Mn7  1  0.504183  0.413121  0.350988  1
  Mn  Mn8  1  0.741833  0.500000  0.000000  1
  Mn  Mn9  1  0.258167  0.000000  0.500000  1
  Pt  Pt10  1  0.254106  0.500000  0.000000  1
  Pt  Pt11  1  0.745894  0.000000  0.500000  1
  O  O12  1  0.246124  0.900205  0.292624  1
  O  O13  1  0.246124  0.099795  0.707376  1
  O  O14  1  0.753876  0.400205  0.207376  1
  O  O15  1  0.753876  0.599795  0.792624  1
  O  O16  1  0.754143  0.102110  0.713937  1
  O  O17  1  0.754143  0.897890  0.286063  1
  O  O18  1  0.245857  0.602110  0.786063  1
  O  O19  1  0.245857  0.397890  0.213937  1
  O  O20  1  0.511270  0.343811  0.934208  1
  O  O21  1  0.511270  0.656189  0.065792  1
  O  O22  1  0.488730  0.843811  0.565792  1
  O  O23  1  0.488730  0.156189  0.434208  1
  O  O24  1  0.273224  0.000000  0.000000  1
  O  O25  1  0.726776  0.500000  0.500000  1
  O  O26  1  0.717953  0.000000  0.000000  1
  O  O27  1  0.282047  0.500000  0.500000  1
  O  O28  1  0.011775  0.162703  0.444911  1
  O  O29  1  0.011775  0.837297  0.555089  1
  O  O30  1  0.988225  0.662703  0.055089  1
  O  O31  1  0.988225  0.337297  0.944911  1
