# generated using pymatgen
data_YbNi3PdC
_symmetry_space_group_name_H-M   'P 1'
_cell_length_a   5.04069600
_cell_length_b   5.04069482
_cell_length_c   6.95794000
_cell_angle_alpha   90.00000000
_cell_angle_beta   90.00000000
_cell_angle_gamma   119.99999464
_symmetry_Int_Tables_number   1
_chemical_formula_structural   YbNi3PdC
_chemical_formula_sum   'Yb2 Ni6 Pd2 C2'
_cell_volume   153.10601228
_cell_formula_units_Z   2
loop_
 _symmetry_equiv_pos_site_id
 _symmetry_equiv_pos_as_xyz
  1  'x, y, z'
loop_
 _atom_site_type_symbol
 _atom_site_label
 _atom_site_symmetry_multiplicity
 _atom_site_fract_x
 _atom_site_fract_y
 _atom_site_fract_z
 _atom_site_occupancy
  Yb  Yb0  1  0.000000  0.000000  0.000000  1
  Yb  Yb1  1  0.000000  0.000000  0.500000  1
  Ni  Ni2  1  0.500000  0.500000  0.816332  1
  Ni  Ni3  1  0.500000  0.000000  0.816332  1
  Ni  Ni4  1  0.000000  0.500000  0.816332  1
  Ni  Ni5  1  0.500000  0.500000  0.183668  1
  Ni  Ni6  1  0.500000  0.000000  0.183668  1
  Ni  Ni7  1  0.000000  0.500000  0.183668  1
  Pd  Pd8  1  0.666667  0.333333  0.500000  1
  Pd  Pd9  1  0.333333  0.666667  0.500000  1
  C  C10  1  0.666667  0.333333  0.000000  1
  C  C11  1  0.333333  0.666667  0.000000  1
