# generated using pymatgen
data_Tb4YEr7Co5Bi
_symmetry_space_group_name_H-M   'P 1'
_cell_length_a   8.29207292
_cell_length_b   8.29207448
_cell_length_c   8.27955808
_cell_angle_alpha   110.99104115
_cell_angle_beta   110.56304418
_cell_angle_gamma   106.95442882
_symmetry_Int_Tables_number   1
_chemical_formula_structural   Tb4YEr7Co5Bi
_chemical_formula_sum   'Tb4 Y1 Er7 Co5 Bi1'
_cell_volume   437.23924022
_cell_formula_units_Z   1
loop_
 _symmetry_equiv_pos_site_id
 _symmetry_equiv_pos_as_xyz
  1  'x, y, z'
loop_
 _atom_site_type_symbol
 _atom_site_label
 _atom_site_symmetry_multiplicity
 _atom_site_fract_x
 _atom_site_fract_y
 _atom_site_fract_z
 _atom_site_occupancy
  Tb  Tb0  1  0.599739  0.794496  0.805931  1
  Tb  Tb1  1  0.399513  0.205103  0.194055  1
  Tb  Tb2  1  0.988954  0.794544  0.194055  1
  Tb  Tb3  1  0.011436  0.206192  0.805931  1
  Y  Y4  1  0.815888  0.709357  0.525245  1
  Er  Er5  1  0.183005  0.290965  0.473970  1
  Er  Er6  1  0.183119  0.708759  0.891879  1
  Er  Er7  1  0.817089  0.291061  0.108148  1
  Er  Er8  1  0.687669  0.377320  0.689924  1
  Er  Er9  1  0.311856  0.622431  0.309963  1
  Er  Er10  1  0.687531  0.998107  0.309963  1
  Er  Er11  1  0.312604  0.002255  0.689924  1
  Co  Co12  1  0.622842  0.999812  0.622654  1
  Co  Co13  1  0.377018  0.000125  0.377142  1
  Co  Co14  1  0.112317  0.611015  0.500235  1
  Co  Co15  1  0.889220  0.387918  0.500235  1
  Co  Co16  1  0.000024  0.000418  0.000443  1
  Bi  Bi17  1  0.500180  0.500123  0.000303  1
