# generated using pymatgen
data_Fe(PtO3)2
_symmetry_space_group_name_H-M   'P 1'
_cell_length_a   4.60212600
_cell_length_b   9.20647300
_cell_length_c   9.45974200
_cell_angle_alpha   90.00000000
_cell_angle_beta   90.00000000
_cell_angle_gamma   90.00000000
_symmetry_Int_Tables_number   1
_chemical_formula_structural   Fe(PtO3)2
_chemical_formula_sum   'Fe4 Pt8 O24'
_cell_volume   400.80310799
_cell_formula_units_Z   4
loop_
 _symmetry_equiv_pos_site_id
 _symmetry_equiv_pos_as_xyz
  1  'x, y, z'
loop_
 _atom_site_type_symbol
 _atom_site_label
 _atom_site_symmetry_multiplicity
 _atom_site_fract_x
 _atom_site_fract_y
 _atom_site_fract_z
 _atom_site_occupancy
  Fe  Fe0  1  0.000000  0.500000  0.000000  1
  Fe  Fe1  1  0.500000  0.750000  0.500000  1
  Fe  Fe2  1  0.000000  0.000000  0.000000  1
  Fe  Fe3  1  0.500000  0.250000  0.500000  1
  Pt  Pt4  1  0.000000  0.000000  0.332060  1
  Pt  Pt5  1  0.000000  0.500000  0.332060  1
  Pt  Pt6  1  0.500000  0.250000  0.832060  1
  Pt  Pt7  1  0.500000  0.750000  0.832060  1
  Pt  Pt8  1  0.500000  0.250000  0.167940  1
  Pt  Pt9  1  0.500000  0.750000  0.167940  1
  Pt  Pt10  1  0.000000  0.000000  0.667940  1
  Pt  Pt11  1  0.000000  0.500000  0.667940  1
  O  O12  1  0.308308  0.154175  0.000000  1
  O  O13  1  0.308308  0.654175  0.000000  1
  O  O14  1  0.191692  0.404175  0.500000  1
  O  O15  1  0.191692  0.904175  0.500000  1
  O  O16  1  0.808308  0.095825  0.500000  1
  O  O17  1  0.808308  0.595825  0.500000  1
  O  O18  1  0.691692  0.345825  0.000000  1
  O  O19  1  0.691692  0.845825  0.000000  1
  O  O20  1  0.307087  0.153585  0.336077  1
  O  O21  1  0.307087  0.653585  0.336077  1
  O  O22  1  0.192913  0.403585  0.836077  1
  O  O23  1  0.192913  0.903585  0.836077  1
  O  O24  1  0.807087  0.096415  0.836077  1
  O  O25  1  0.807087  0.596415  0.836077  1
  O  O26  1  0.807087  0.096415  0.163923  1
  O  O27  1  0.807087  0.596415  0.163923  1
  O  O28  1  0.192913  0.403585  0.163923  1
  O  O29  1  0.192913  0.903585  0.163923  1
  O  O30  1  0.692913  0.346415  0.336077  1
  O  O31  1  0.692913  0.846415  0.336077  1
  O  O32  1  0.307087  0.153585  0.663923  1
  O  O33  1  0.307087  0.653585  0.663923  1
  O  O34  1  0.692913  0.346415  0.663923  1
  O  O35  1  0.692913  0.846415  0.663923  1
