# generated using pymatgen
data_CeNd6Sm(Si3Pd)4
_symmetry_space_group_name_H-M   'P 1'
_cell_length_a   8.23825454
_cell_length_b   8.23825492
_cell_length_c   8.45994600
_cell_angle_alpha   90.00000000
_cell_angle_beta   90.00000000
_cell_angle_gamma   119.99868046
_symmetry_Int_Tables_number   1
_chemical_formula_structural   CeNd6Sm(Si3Pd)4
_chemical_formula_sum   'Ce1 Nd6 Sm1 Si12 Pd4'
_cell_volume   497.24958581
_cell_formula_units_Z   1
loop_
 _symmetry_equiv_pos_site_id
 _symmetry_equiv_pos_as_xyz
  1  'x, y, z'
loop_
 _atom_site_type_symbol
 _atom_site_label
 _atom_site_symmetry_multiplicity
 _atom_site_fract_x
 _atom_site_fract_y
 _atom_site_fract_z
 _atom_site_occupancy
  Ce  Ce0  1  0.999999  0.000001  0.750000  1
  Nd  Nd1  1  0.500046  0.499954  0.250000  1
  Nd  Nd2  1  0.000087  0.500047  0.750000  1
  Nd  Nd3  1  0.999914  0.499962  0.250000  1
  Nd  Nd4  1  0.499953  0.999913  0.750000  1
  Nd  Nd5  1  0.500038  0.000086  0.250000  1
  Nd  Nd6  1  0.000008  0.999992  0.250000  1
  Sm  Sm7  1  0.499938  0.500062  0.750000  1
  Si  Si8  1  0.834752  0.165248  0.997699  1
  Si  Si9  1  0.165250  0.834750  0.997710  1
  Si  Si10  1  0.330376  0.165405  0.996696  1
  Si  Si11  1  0.165250  0.834750  0.502290  1
  Si  Si12  1  0.669630  0.834598  0.996722  1
  Si  Si13  1  0.834752  0.165248  0.502301  1
  Si  Si14  1  0.834595  0.669624  0.996696  1
  Si  Si15  1  0.669630  0.834598  0.503278  1
  Si  Si16  1  0.165402  0.330370  0.996722  1
  Si  Si17  1  0.330376  0.165405  0.503304  1
  Si  Si18  1  0.165402  0.330370  0.503278  1
  Si  Si19  1  0.834595  0.669624  0.503304  1
  Pd  Pd20  1  0.666223  0.333777  0.999197  1
  Pd  Pd21  1  0.333782  0.666218  0.999376  1
  Pd  Pd22  1  0.333782  0.666218  0.500624  1
  Pd  Pd23  1  0.666223  0.333777  0.500803  1
