# generated using pymatgen
data_Tb20Co3Si8Os
_symmetry_space_group_name_H-M   'P 1'
_cell_length_a   7.56334326
_cell_length_b   8.67855100
_cell_length_c   11.79792854
_cell_angle_alpha   90.00000000
_cell_angle_beta   90.22635683
_cell_angle_gamma   90.00000000
_symmetry_Int_Tables_number   1
_chemical_formula_structural   Tb20Co3Si8Os
_chemical_formula_sum   'Tb20 Co3 Si8 Os1'
_cell_volume   774.39653922
_cell_formula_units_Z   1
loop_
 _symmetry_equiv_pos_site_id
 _symmetry_equiv_pos_as_xyz
  1  'x, y, z'
loop_
 _atom_site_type_symbol
 _atom_site_label
 _atom_site_symmetry_multiplicity
 _atom_site_fract_x
 _atom_site_fract_y
 _atom_site_fract_z
 _atom_site_occupancy
  Tb  Tb0  1  0.838553  0.750000  0.784488  1
  Tb  Tb1  1  0.158612  0.250000  0.213750  1
  Tb  Tb2  1  0.338992  0.250000  0.715381  1
  Tb  Tb3  1  0.658339  0.750000  0.281987  1
  Tb  Tb4  1  0.364596  0.750000  0.703721  1
  Tb  Tb5  1  0.635869  0.250000  0.296445  1
  Tb  Tb6  1  0.867180  0.250000  0.799541  1
  Tb  Tb7  1  0.136058  0.750000  0.201806  1
  Tb  Tb8  1  0.965730  0.750000  0.501661  1
  Tb  Tb9  1  0.037439  0.250000  0.497082  1
  Tb  Tb10  1  0.464612  0.250000  0.997347  1
  Tb  Tb11  1  0.534315  0.750000  0.002369  1
  Tb  Tb12  1  0.684269  0.036874  0.577584  1
  Tb  Tb13  1  0.317528  0.972938  0.425893  1
  Tb  Tb14  1  0.182918  0.970540  0.925914  1
  Tb  Tb15  1  0.317528  0.527062  0.425893  1
  Tb  Tb16  1  0.815700  0.028240  0.074227  1
  Tb  Tb17  1  0.684269  0.463126  0.577584  1
  Tb  Tb18  1  0.815700  0.471760  0.074227  1
  Tb  Tb19  1  0.182918  0.529460  0.925914  1
  Co  Co20  1  0.425134  0.250000  0.487505  1
  Co  Co21  1  0.068463  0.250000  0.989955  1
  Co  Co22  1  0.930251  0.750000  0.010163  1
  Si  Si23  1  0.570493  0.496160  0.831859  1
  Si  Si24  1  0.428519  0.502966  0.167893  1
  Si  Si25  1  0.069865  0.503748  0.669753  1
  Si  Si26  1  0.428519  0.997034  0.167893  1
  Si  Si27  1  0.930950  0.496687  0.329600  1
  Si  Si28  1  0.570493  0.003840  0.831859  1
  Si  Si29  1  0.930950  0.003313  0.329600  1
  Si  Si30  1  0.069865  0.996252  0.669753  1
  Os  Os31  1  0.575374  0.750000  0.511349  1
