# generated using pymatgen
data_Tb4Zn10SiSn
_symmetry_space_group_name_H-M   'P 1'
_cell_length_a   8.29200028
_cell_length_b   8.29200033
_cell_length_c   8.89910900
_cell_angle_alpha   90.00000000
_cell_angle_beta   90.00000000
_cell_angle_gamma   149.60308008
_symmetry_Int_Tables_number   1
_chemical_formula_structural   Tb4Zn10SiSn
_chemical_formula_sum   'Tb4 Zn10 Si1 Sn1'
_cell_volume   309.60277493
_cell_formula_units_Z   1
loop_
 _symmetry_equiv_pos_site_id
 _symmetry_equiv_pos_as_xyz
  1  'x, y, z'
loop_
 _atom_site_type_symbol
 _atom_site_label
 _atom_site_symmetry_multiplicity
 _atom_site_fract_x
 _atom_site_fract_y
 _atom_site_fract_z
 _atom_site_occupancy
  Tb  Tb0  1  0.199146  0.800854  0.250000  1
  Tb  Tb1  1  0.798057  0.201943  0.750000  1
  Tb  Tb2  1  0.000236  0.999764  0.482572  1
  Tb  Tb3  1  0.000236  0.999764  0.017428  1
  Zn  Zn4  1  0.811817  0.188183  0.391351  1
  Zn  Zn5  1  0.187154  0.812846  0.605802  1
  Zn  Zn6  1  0.811817  0.188183  0.108649  1
  Zn  Zn7  1  0.187154  0.812846  0.894198  1
  Zn  Zn8  1  0.648471  0.351529  0.472533  1
  Zn  Zn9  1  0.345634  0.654366  0.517160  1
  Zn  Zn10  1  0.648471  0.351529  0.027467  1
  Zn  Zn11  1  0.345634  0.654366  0.982840  1
  Zn  Zn12  1  0.401896  0.598104  0.250000  1
  Zn  Zn13  1  0.610224  0.389776  0.750000  1
  Si  Si14  1  0.555016  0.444984  0.250000  1
  Sn  Sn15  1  0.449033  0.550967  0.750000  1
