# generated using pymatgen
data_Hf6Ti2Al14GeRu7
_symmetry_space_group_name_H-M   'P 1'
_cell_length_a   8.79582217
_cell_length_b   8.79583759
_cell_length_c   8.79582628
_cell_angle_alpha   120.12207872
_cell_angle_beta   119.94264537
_cell_angle_gamma   89.94405893
_symmetry_Int_Tables_number   1
_chemical_formula_structural   Hf6Ti2Al14GeRu7
_chemical_formula_sum   'Hf6 Ti2 Al14 Ge1 Ru7'
_cell_volume   480.95131970
_cell_formula_units_Z   1
loop_
 _symmetry_equiv_pos_site_id
 _symmetry_equiv_pos_as_xyz
  1  'x, y, z'
loop_
 _atom_site_type_symbol
 _atom_site_label
 _atom_site_symmetry_multiplicity
 _atom_site_fract_x
 _atom_site_fract_y
 _atom_site_fract_z
 _atom_site_occupancy
  Hf  Hf0  1  0.794710  0.287166  0.074396  1
  Hf  Hf1  1  0.212753  0.287142  0.492443  1
  Hf  Hf2  1  0.209158  0.709166  0.500006  1
  Hf  Hf3  1  0.212774  0.720325  0.925606  1
  Hf  Hf4  1  0.794703  0.720309  0.507554  1
  Hf  Hf5  1  0.783814  0.283811  0.499996  1
  Ti  Ti6  1  0.380100  0.121454  0.741369  1
  Ti  Ti7  1  0.380088  0.638737  0.258632  1
  Al  Al8  1  0.165344  0.336860  0.171536  1
  Al  Al9  1  0.165322  0.993823  0.828474  1
  Al  Al10  1  0.161686  0.338230  0.823468  1
  Al  Al11  1  0.514756  0.338214  0.176529  1
  Al  Al12  1  0.836986  0.662087  0.825127  1
  Al  Al13  1  0.836954  0.011861  0.174875  1
  Al  Al14  1  0.835116  0.662251  0.172880  1
  Al  Al15  1  0.489363  0.662230  0.827114  1
  Al  Al16  1  0.381807  0.121355  0.260450  1
  Al  Al17  1  0.860904  0.121357  0.739552  1
  Al  Al18  1  0.618406  0.876191  0.257785  1
  Al  Al19  1  0.618408  0.360612  0.742206  1
  Al  Al20  1  0.617841  0.878234  0.739602  1
  Al  Al21  1  0.138633  0.878234  0.260394  1
  Ge  Ge22  1  0.995777  0.495776  0.500008  1
  Ru  Ru23  1  0.999547  0.999711  0.500374  1
  Ru  Ru24  1  0.499294  0.999678  0.000114  1
  Ru  Ru25  1  0.498232  0.498224  0.000001  1
  Ru  Ru26  1  0.499336  0.499171  0.499620  1
  Ru  Ru27  1  0.999560  0.499175  0.999881  1
  Ru  Ru28  1  0.001089  0.001095  0.000015  1
  Ru  Ru29  1  0.497529  0.997514  0.499994  1
