# generated using pymatgen
data_Dy3Er17(GaBi3)3
_symmetry_space_group_name_H-M   'P 1'
_cell_length_a   8.08595700
_cell_length_b   9.34869400
_cell_length_c   11.90288987
_cell_angle_alpha   90.00000000
_cell_angle_beta   90.22556595
_cell_angle_gamma   90.00000000
_symmetry_Int_Tables_number   1
_chemical_formula_structural   Dy3Er17(GaBi3)3
_chemical_formula_sum   'Dy3 Er17 Ga3 Bi9'
_cell_volume   899.76981944
_cell_formula_units_Z   1
loop_
 _symmetry_equiv_pos_site_id
 _symmetry_equiv_pos_as_xyz
  1  'x, y, z'
loop_
 _atom_site_type_symbol
 _atom_site_label
 _atom_site_symmetry_multiplicity
 _atom_site_fract_x
 _atom_site_fract_y
 _atom_site_fract_z
 _atom_site_occupancy
  Dy  Dy0  1  0.821282  0.250000  0.286238  1
  Dy  Dy1  1  0.675227  0.750000  0.788823  1
  Dy  Dy2  1  0.192300  0.750000  0.722850  1
  Er  Er3  1  0.349514  0.750000  0.205024  1
  Er  Er4  1  0.846999  0.750000  0.283982  1
  Er  Er5  1  0.650911  0.250000  0.794951  1
  Er  Er6  1  0.146781  0.250000  0.706815  1
  Er  Er7  1  0.683378  0.556101  0.055174  1
  Er  Er8  1  0.191583  0.951067  0.438637  1
  Er  Er9  1  0.317714  0.056526  0.944312  1
  Er  Er10  1  0.813894  0.429751  0.556356  1
  Er  Er11  1  0.317714  0.443474  0.944312  1
  Er  Er12  1  0.813894  0.070249  0.556356  1
  Er  Er13  1  0.683378  0.943899  0.055174  1
  Er  Er14  1  0.191583  0.548933  0.438637  1
  Er  Er15  1  0.462141  0.250000  0.490301  1
  Er  Er16  1  0.964221  0.250000  0.009496  1
  Er  Er17  1  0.521420  0.750000  0.509595  1
  Er  Er18  1  0.035566  0.750000  0.991683  1
  Er  Er19  1  0.322884  0.250000  0.213357  1
  Ga  Ga20  1  0.406253  0.750000  0.962331  1
  Ga  Ga21  1  0.589950  0.250000  0.040396  1
  Ga  Ga22  1  0.091288  0.250000  0.460888  1
  Bi  Bi23  1  0.907810  0.750000  0.543429  1
  Bi  Bi24  1  0.560670  0.997683  0.322862  1
  Bi  Bi25  1  0.060051  0.501295  0.176956  1
  Bi  Bi26  1  0.440472  0.495997  0.676239  1
  Bi  Bi27  1  0.939962  0.002292  0.824383  1
  Bi  Bi28  1  0.440472  0.004003  0.676239  1
  Bi  Bi29  1  0.939962  0.497708  0.824383  1
  Bi  Bi30  1  0.560670  0.502317  0.322862  1
  Bi  Bi31  1  0.060051  0.998705  0.176956  1
