# generated using pymatgen
data_Gd3HoLuSn3
_symmetry_space_group_name_H-M   'P 1'
_cell_length_a   8.95689900
_cell_length_b   8.95689869
_cell_length_c   6.50486300
_cell_angle_alpha   90.00000000
_cell_angle_beta   90.00000000
_cell_angle_gamma   119.99999746
_symmetry_Int_Tables_number   1
_chemical_formula_structural   Gd3HoLuSn3
_chemical_formula_sum   'Gd6 Ho2 Lu2 Sn6'
_cell_volume   451.94349097
_cell_formula_units_Z   2
loop_
 _symmetry_equiv_pos_site_id
 _symmetry_equiv_pos_as_xyz
  1  'x, y, z'
loop_
 _atom_site_type_symbol
 _atom_site_label
 _atom_site_symmetry_multiplicity
 _atom_site_fract_x
 _atom_site_fract_y
 _atom_site_fract_z
 _atom_site_occupancy
  Gd  Gd0  1  0.759828  0.759828  0.749569  1
  Gd  Gd1  1  0.240172  0.000000  0.749569  1
  Gd  Gd2  1  0.000000  0.240172  0.749569  1
  Gd  Gd3  1  0.240172  0.240172  0.250431  1
  Gd  Gd4  1  0.759828  0.000000  0.250431  1
  Gd  Gd5  1  0.000000  0.759828  0.250431  1
  Ho  Ho6  1  0.666667  0.333333  0.000000  1
  Ho  Ho7  1  0.333333  0.666667  0.000000  1
  Lu  Lu8  1  0.333333  0.666667  0.500000  1
  Lu  Lu9  1  0.666667  0.333333  0.500000  1
  Sn  Sn10  1  0.397014  0.397014  0.747600  1
  Sn  Sn11  1  0.602986  0.000000  0.747600  1
  Sn  Sn12  1  0.000000  0.602986  0.747600  1
  Sn  Sn13  1  0.602986  0.602986  0.252400  1
  Sn  Sn14  1  0.397014  0.000000  0.252400  1
  Sn  Sn15  1  0.000000  0.397014  0.252400  1
