# generated using pymatgen
data_GdLuI6
_symmetry_space_group_name_H-M   'P 1'
_cell_length_a   8.87925049
_cell_length_b   8.87925101
_cell_length_c   8.87924896
_cell_angle_alpha   51.43195442
_cell_angle_beta   51.43195715
_cell_angle_gamma   51.43195337
_symmetry_Int_Tables_number   1
_chemical_formula_structural   GdLuI6
_chemical_formula_sum   'Gd1 Lu1 I6'
_cell_volume   395.13865189
_cell_formula_units_Z   1
loop_
 _symmetry_equiv_pos_site_id
 _symmetry_equiv_pos_as_xyz
  1  'x, y, z'
loop_
 _atom_site_type_symbol
 _atom_site_label
 _atom_site_symmetry_multiplicity
 _atom_site_fract_x
 _atom_site_fract_y
 _atom_site_fract_z
 _atom_site_occupancy
  Gd  Gd0  1  0.833498  0.833498  0.833498  1
  Lu  Lu1  1  0.166528  0.166528  0.166528  1
  I  I2  1  0.568353  0.220249  0.939998  1
  I  I3  1  0.787315  0.067429  0.416628  1
  I  I4  1  0.067429  0.416628  0.787315  1
  I  I5  1  0.416628  0.787315  0.067429  1
  I  I6  1  0.939998  0.568353  0.220249  1
  I  I7  1  0.220249  0.939998  0.568353  1
