# generated using pymatgen
data_YThTc3Ge4
_symmetry_space_group_name_H-M   'P 1'
_cell_length_a   8.35102700
_cell_length_b   5.81318835
_cell_length_c   7.05884095
_cell_angle_alpha   76.29726247
_cell_angle_beta   90.00000000
_cell_angle_gamma   90.00000000
_symmetry_Int_Tables_number   1
_chemical_formula_structural   YThTc3Ge4
_chemical_formula_sum   'Y2 Th2 Tc6 Ge8'
_cell_volume   332.92574710
_cell_formula_units_Z   2
loop_
 _symmetry_equiv_pos_site_id
 _symmetry_equiv_pos_as_xyz
  1  'x, y, z'
loop_
 _atom_site_type_symbol
 _atom_site_label
 _atom_site_symmetry_multiplicity
 _atom_site_fract_x
 _atom_site_fract_y
 _atom_site_fract_z
 _atom_site_occupancy
  Y  Y0  1  0.434398  0.927913  0.752783  1
  Y  Y1  1  0.934398  0.572087  0.247217  1
  Th  Th2  1  0.556205  0.077743  0.246526  1
  Th  Th3  1  0.056205  0.422257  0.753474  1
  Tc  Tc4  1  0.215239  0.118804  0.109553  1
  Tc  Tc5  1  0.715239  0.381196  0.890447  1
  Tc  Tc6  1  0.796899  0.893376  0.887718  1
  Tc  Tc7  1  0.296899  0.606624  0.112282  1
  Tc  Tc8  1  0.000507  0.996146  0.499506  1
  Tc  Tc9  1  0.500507  0.503854  0.500494  1
  Ge  Ge10  1  0.908612  0.111398  0.134202  1
  Ge  Ge11  1  0.408612  0.388602  0.865798  1
  Ge  Ge12  1  0.097455  0.871901  0.885007  1
  Ge  Ge13  1  0.597455  0.628099  0.114993  1
  Ge  Ge14  1  0.743079  0.216612  0.585031  1
  Ge  Ge15  1  0.243079  0.283388  0.414969  1
  Ge  Ge16  1  0.247606  0.773429  0.412191  1
  Ge  Ge17  1  0.747606  0.726571  0.587809  1
