# generated using pymatgen
data_Tb2Lu2Al15(GaIr2)3
_symmetry_space_group_name_H-M   'P 1'
_cell_length_a   7.52520172
_cell_length_b   7.52654926
_cell_length_c   9.50953300
_cell_angle_alpha   90.00000000
_cell_angle_beta   90.00000000
_cell_angle_gamma   119.38780516
_symmetry_Int_Tables_number   1
_chemical_formula_structural   Tb2Lu2Al15(GaIr2)3
_chemical_formula_sum   'Tb2 Lu2 Al15 Ga3 Ir6'
_cell_volume   469.29947405
_cell_formula_units_Z   1
loop_
 _symmetry_equiv_pos_site_id
 _symmetry_equiv_pos_as_xyz
  1  'x, y, z'
loop_
 _atom_site_type_symbol
 _atom_site_label
 _atom_site_symmetry_multiplicity
 _atom_site_fract_x
 _atom_site_fract_y
 _atom_site_fract_z
 _atom_site_occupancy
  Tb  Tb0  1  0.998739  0.675890  0.250000  1
  Tb  Tb1  1  0.670948  0.991444  0.250000  1
  Lu  Lu2  1  0.005393  0.324061  0.750000  1
  Lu  Lu3  1  0.322810  0.003451  0.750000  1
  Al  Al4  1  0.002078  0.335562  0.071180  1
  Al  Al5  1  0.998910  0.663724  0.924299  1
  Al  Al6  1  0.998910  0.663724  0.575701  1
  Al  Al7  1  0.336460  0.004026  0.428780  1
  Al  Al8  1  0.002078  0.335562  0.428820  1
  Al  Al9  1  0.663817  0.999594  0.575400  1
  Al  Al10  1  0.663817  0.999594  0.924600  1
  Al  Al11  1  0.336460  0.004026  0.071220  1
  Al  Al12  1  0.333625  0.333802  0.558681  1
  Al  Al13  1  0.665969  0.665464  0.449752  1
  Al  Al14  1  0.665969  0.665464  0.050248  1
  Al  Al15  1  0.333625  0.333802  0.941319  1
  Al  Al16  1  0.661669  0.447855  0.750000  1
  Al  Al17  1  0.550960  0.339780  0.250000  1
  Al  Al18  1  0.448320  0.661915  0.750000  1
  Ga  Ga19  1  0.133681  0.134323  0.250000  1
  Ga  Ga20  1  0.864672  0.864713  0.750000  1
  Ga  Ga21  1  0.339765  0.545961  0.250000  1
  Ir  Ir22  1  0.671523  0.328737  0.999206  1
  Ir  Ir23  1  0.327962  0.672766  0.997122  1
  Ir  Ir24  1  0.327962  0.672766  0.502878  1
  Ir  Ir25  1  0.671523  0.328737  0.500794  1
  Ir  Ir26  1  0.001175  0.001630  0.998449  1
  Ir  Ir27  1  0.001175  0.001630  0.501551  1
