# generated using pymatgen
data_Tb3(GdIr)2
_symmetry_space_group_name_H-M   'P 1'
_cell_length_a   6.55478981
_cell_length_b   7.28087706
_cell_length_c   8.54399200
_cell_angle_alpha   96.89611151
_cell_angle_beta   112.55626367
_cell_angle_gamma   89.99999844
_symmetry_Int_Tables_number   1
_chemical_formula_structural   Tb3(GdIr)2
_chemical_formula_sum   'Tb6 Gd4 Ir4'
_cell_volume   373.37026433
_cell_formula_units_Z   2
loop_
 _symmetry_equiv_pos_site_id
 _symmetry_equiv_pos_as_xyz
  1  'x, y, z'
loop_
 _atom_site_type_symbol
 _atom_site_label
 _atom_site_symmetry_multiplicity
 _atom_site_fract_x
 _atom_site_fract_y
 _atom_site_fract_z
 _atom_site_occupancy
  Tb  Tb0  1  0.651068  0.816914  0.440760  1
  Tb  Tb1  1  0.210309  0.683086  0.559240  1
  Tb  Tb2  1  0.348932  0.183086  0.559240  1
  Tb  Tb3  1  0.789691  0.316914  0.440760  1
  Tb  Tb4  1  0.428837  0.750000  0.000000  1
  Tb  Tb5  1  0.571163  0.250000  0.000000  1
  Gd  Gd6  1  0.976785  0.917325  0.184601  1
  Gd  Gd7  1  0.792183  0.582675  0.815399  1
  Gd  Gd8  1  0.023215  0.082675  0.815399  1
  Gd  Gd9  1  0.207817  0.417325  0.184601  1
  Ir  Ir10  1  0.822311  0.575286  0.222324  1
  Ir  Ir11  1  0.599986  0.924714  0.777676  1
  Ir  Ir12  1  0.177689  0.424714  0.777676  1
  Ir  Ir13  1  0.400014  0.075286  0.222324  1
