# generated using pymatgen
data_Ca21Tl(Ga5Sb2)2
_symmetry_space_group_name_H-M   'P 1'
_cell_length_a   11.34068503
_cell_length_b   11.40771312
_cell_length_c   11.40771400
_cell_angle_alpha   59.71853997
_cell_angle_beta   60.19417863
_cell_angle_gamma   60.19417290
_symmetry_Int_Tables_number   1
_chemical_formula_structural   Ca21Tl(Ga5Sb2)2
_chemical_formula_sum   'Ca21 Tl1 Ga10 Sb4'
_cell_volume   1044.36487051
_cell_formula_units_Z   1
loop_
 _symmetry_equiv_pos_site_id
 _symmetry_equiv_pos_as_xyz
  1  'x, y, z'
loop_
 _atom_site_type_symbol
 _atom_site_label
 _atom_site_symmetry_multiplicity
 _atom_site_fract_x
 _atom_site_fract_y
 _atom_site_fract_z
 _atom_site_occupancy
  Ca  Ca0  1  0.000000  0.005711  0.994289  1
  Ca  Ca1  1  0.134596  0.134033  0.119916  1
  Ca  Ca2  1  0.388545  0.880084  0.865967  1
  Ca  Ca3  1  0.875013  0.386817  0.863156  1
  Ca  Ca4  1  0.868891  0.868692  0.393526  1
  Ca  Ca5  1  0.131109  0.606474  0.131308  1
  Ca  Ca6  1  0.124987  0.136844  0.613183  1
  Ca  Ca7  1  0.611455  0.134033  0.119916  1
  Ca  Ca8  1  0.865404  0.880084  0.865967  1
  Ca  Ca9  1  0.498165  0.819339  0.502383  1
  Ca  Ca10  1  0.818508  0.491509  0.508491  1
  Ca  Ca11  1  0.500000  0.819027  0.180973  1
  Ca  Ca12  1  0.180261  0.493500  0.819470  1
  Ca  Ca13  1  0.819886  0.497617  0.180661  1
  Ca  Ca14  1  0.506769  0.493500  0.819470  1
  Ca  Ca15  1  0.180114  0.819339  0.502383  1
  Ca  Ca16  1  0.500000  0.180194  0.819806  1
  Ca  Ca17  1  0.501835  0.497617  0.180661  1
  Ca  Ca18  1  0.819739  0.180530  0.506500  1
  Ca  Ca19  1  0.181492  0.491509  0.508491  1
  Ca  Ca20  1  0.493231  0.180530  0.506500  1
  Tl  Tl21  1  0.500000  0.504537  0.495463  1
  Ga  Ga22  1  0.210889  0.211171  0.788829  1
  Ga  Ga23  1  0.789111  0.211171  0.788829  1
  Ga  Ga24  1  0.310957  0.309686  0.307676  1
  Ga  Ga25  1  0.928317  0.692324  0.690314  1
  Ga  Ga26  1  0.690855  0.929959  0.688331  1
  Ga  Ga27  1  0.691091  0.690798  0.927021  1
  Ga  Ga28  1  0.308909  0.072979  0.309202  1
  Ga  Ga29  1  0.309145  0.311669  0.070041  1
  Ga  Ga30  1  0.071683  0.309686  0.307676  1
  Ga  Ga31  1  0.689044  0.692324  0.690313  1
  Sb  Sb32  1  0.207916  0.787581  0.212419  1
  Sb  Sb33  1  0.210016  0.785759  0.794208  1
  Sb  Sb34  1  0.789984  0.205792  0.214241  1
  Sb  Sb35  1  0.792084  0.787581  0.212419  1
