# generated using pymatgen
data_Er5Lu11(In3Tc)2
_symmetry_space_group_name_H-M   'P 1'
_cell_length_a   10.22862509
_cell_length_b   10.22862531
_cell_length_c   6.96040994
_cell_angle_alpha   90.19395745
_cell_angle_beta   89.80604805
_cell_angle_gamma   119.99513094
_symmetry_Int_Tables_number   1
_chemical_formula_structural   Er5Lu11(In3Tc)2
_chemical_formula_sum   'Er5 Lu11 In6 Tc2'
_cell_volume   630.69293894
_cell_formula_units_Z   1
loop_
 _symmetry_equiv_pos_site_id
 _symmetry_equiv_pos_as_xyz
  1  'x, y, z'
loop_
 _atom_site_type_symbol
 _atom_site_label
 _atom_site_symmetry_multiplicity
 _atom_site_fract_x
 _atom_site_fract_y
 _atom_site_fract_z
 _atom_site_occupancy
  Er  Er0  1  0.530233  0.060001  0.525986  1
  Er  Er1  1  0.939999  0.469767  0.525986  1
  Er  Er2  1  0.530061  0.469939  0.526887  1
  Er  Er3  1  0.469780  0.939143  0.026915  1
  Er  Er4  1  0.060857  0.530220  0.026915  1
  Lu  Lu5  1  0.469185  0.530815  0.027140  1
  Lu  Lu6  1  0.178048  0.355157  0.728442  1
  Lu  Lu7  1  0.644843  0.821952  0.728442  1
  Lu  Lu8  1  0.177373  0.822627  0.727962  1
  Lu  Lu9  1  0.822096  0.645151  0.227381  1
  Lu  Lu10  1  0.354849  0.177904  0.227381  1
  Lu  Lu11  1  0.822785  0.177215  0.227261  1
  Lu  Lu12  1  0.666238  0.333762  0.901929  1
  Lu  Lu13  1  0.333501  0.666499  0.400579  1
  Lu  Lu14  1  0.999947  0.000053  0.503340  1
  Lu  Lu15  1  0.999960  0.000040  0.003295  1
  In  In16  1  0.836530  0.673224  0.769996  1
  In  In17  1  0.326776  0.163470  0.769996  1
  In  In18  1  0.836651  0.163349  0.770181  1
  In  In19  1  0.163697  0.326925  0.269881  1
  In  In20  1  0.673075  0.836303  0.269881  1
  In  In21  1  0.163282  0.836718  0.270057  1
  Tc  Tc22  1  0.666686  0.333314  0.300230  1
  Tc  Tc23  1  0.333549  0.666451  0.799618  1
