# generated using pymatgen
data_K3BaB23C
_symmetry_space_group_name_H-M   'P 1'
_cell_length_a   7.30059175
_cell_length_b   7.30059106
_cell_length_c   5.99343600
_cell_angle_alpha   90.00000000
_cell_angle_beta   90.00000000
_cell_angle_gamma   110.30339382
_symmetry_Int_Tables_number   1
_chemical_formula_structural   K3BaB23C
_chemical_formula_sum   'K3 Ba1 B23 C1'
_cell_volume   299.59451144
_cell_formula_units_Z   1
loop_
 _symmetry_equiv_pos_site_id
 _symmetry_equiv_pos_as_xyz
  1  'x, y, z'
loop_
 _atom_site_type_symbol
 _atom_site_label
 _atom_site_symmetry_multiplicity
 _atom_site_fract_x
 _atom_site_fract_y
 _atom_site_fract_z
 _atom_site_occupancy
  K  K0  1  0.751404  0.248567  0.500000  1
  K  K1  1  0.501064  0.501064  0.000000  1
  K  K2  1  0.248567  0.751404  0.500000  1
  Ba  Ba3  1  0.998009  0.998009  0.000000  1
  B  B4  1  0.182032  0.330340  0.647570  1
  B  B5  1  0.923501  0.570836  0.150351  1
  B  B6  1  0.667167  0.817682  0.649418  1
  B  B7  1  0.431486  0.082138  0.149376  1
  B  B8  1  0.182032  0.330340  0.352430  1
  B  B9  1  0.923501  0.570836  0.849649  1
  B  B10  1  0.667167  0.817682  0.350582  1
  B  B11  1  0.431486  0.082138  0.850624  1
  B  B12  1  0.150681  0.653493  0.000000  1
  B  B13  1  0.893661  0.893661  0.500000  1
  B  B14  1  0.653493  0.150681  0.000000  1
  B  B15  1  0.330340  0.182032  0.647570  1
  B  B16  1  0.082138  0.431486  0.149376  1
  B  B17  1  0.817682  0.667167  0.649418  1
  B  B18  1  0.570836  0.923501  0.150351  1
  B  B19  1  0.103105  0.103105  0.500000  1
  B  B20  1  0.856801  0.348284  0.000000  1
  B  B21  1  0.589903  0.589903  0.500000  1
  B  B22  1  0.348284  0.856801  0.000000  1
  B  B23  1  0.330340  0.182032  0.352430  1
  B  B24  1  0.082138  0.431486  0.850624  1
  B  B25  1  0.817682  0.667167  0.350582  1
  B  B26  1  0.570836  0.923501  0.849649  1
  C  C27  1  0.394662  0.394662  0.500000  1
