# generated using pymatgen
data_Ho5CoRu
_symmetry_space_group_name_H-M   'P 1'
_cell_length_a   6.26453132
_cell_length_b   7.09238824
_cell_length_c   8.46869035
_cell_angle_alpha   96.43661369
_cell_angle_beta   111.70724447
_cell_angle_gamma   90.00000394
_symmetry_Int_Tables_number   1
_chemical_formula_structural   Ho5CoRu
_chemical_formula_sum   'Ho10 Co2 Ru2'
_cell_volume   347.03117435
_cell_formula_units_Z   2
loop_
 _symmetry_equiv_pos_site_id
 _symmetry_equiv_pos_as_xyz
  1  'x, y, z'
loop_
 _atom_site_type_symbol
 _atom_site_label
 _atom_site_symmetry_multiplicity
 _atom_site_fract_x
 _atom_site_fract_y
 _atom_site_fract_z
 _atom_site_occupancy
  Ho  Ho0  1  0.976717  0.911612  0.189072  1
  Ho  Ho1  1  0.787645  0.588388  0.810928  1
  Ho  Ho2  1  0.013764  0.082796  0.814480  1
  Ho  Ho3  1  0.199285  0.417204  0.185520  1
  Ho  Ho4  1  0.647532  0.811798  0.433238  1
  Ho  Ho5  1  0.214294  0.688202  0.566762  1
  Ho  Ho6  1  0.358069  0.181465  0.565383  1
  Ho  Ho7  1  0.792686  0.318535  0.434617  1
  Ho  Ho8  1  0.427543  0.750000  0.000000  1
  Ho  Ho9  1  0.578594  0.250000  0.000000  1
  Co  Co10  1  0.825652  0.576395  0.222181  1
  Co  Co11  1  0.603471  0.923605  0.777819  1
  Ru  Ru12  1  0.176881  0.427579  0.779013  1
  Ru  Ru13  1  0.397867  0.072421  0.220987  1
