# generated using pymatgen
data_Ho3Co4P6Ru3Rh2
_symmetry_space_group_name_H-M   'P 1'
_cell_length_a   3.78942300
_cell_length_b   10.79387900
_cell_length_c   12.55379700
_cell_angle_alpha   90.00000000
_cell_angle_beta   90.00000000
_cell_angle_gamma   90.00000000
_symmetry_Int_Tables_number   1
_chemical_formula_structural   Ho3Co4P6Ru3Rh2
_chemical_formula_sum   'Ho6 Co8 P12 Ru6 Rh4'
_cell_volume   513.48260251
_cell_formula_units_Z   2
loop_
 _symmetry_equiv_pos_site_id
 _symmetry_equiv_pos_as_xyz
  1  'x, y, z'
loop_
 _atom_site_type_symbol
 _atom_site_label
 _atom_site_symmetry_multiplicity
 _atom_site_fract_x
 _atom_site_fract_y
 _atom_site_fract_z
 _atom_site_occupancy
  Ho  Ho0  1  0.000000  0.500000  0.518030  1
  Ho  Ho1  1  0.500000  0.000000  0.475544  1
  Ho  Ho2  1  0.500000  0.814815  0.198347  1
  Ho  Ho3  1  0.500000  0.185185  0.198347  1
  Ho  Ho4  1  0.000000  0.681745  0.803848  1
  Ho  Ho5  1  0.000000  0.318255  0.803848  1
  Co  Co6  1  0.000000  0.500000  0.991820  1
  Co  Co7  1  0.500000  0.000000  0.013677  1
  Co  Co8  1  0.000000  0.618011  0.281858  1
  Co  Co9  1  0.000000  0.381989  0.281858  1
  Co  Co10  1  0.500000  0.332766  0.995692  1
  Co  Co11  1  0.500000  0.667234  0.995692  1
  Co  Co12  1  0.000000  0.168709  0.009562  1
  Co  Co13  1  0.000000  0.831291  0.009562  1
  P  P14  1  0.500000  0.313807  0.616824  1
  P  P15  1  0.500000  0.686193  0.616824  1
  P  P16  1  0.000000  0.195741  0.374493  1
  P  P17  1  0.000000  0.804259  0.374493  1
  P  P18  1  0.500000  0.500000  0.892725  1
  P  P19  1  0.000000  0.000000  0.109544  1
  P  P20  1  0.500000  0.844317  0.900834  1
  P  P21  1  0.500000  0.155683  0.900834  1
  P  P22  1  0.000000  0.654188  0.105469  1
  P  P23  1  0.000000  0.345812  0.105469  1
  P  P24  1  0.500000  0.500000  0.340689  1
  P  P25  1  0.000000  0.000000  0.661659  1
  Ru  Ru26  1  0.500000  0.300764  0.424019  1
  Ru  Ru27  1  0.500000  0.699236  0.424019  1
  Ru  Ru28  1  0.500000  0.874406  0.716254  1
  Ru  Ru29  1  0.500000  0.125594  0.716254  1
  Ru  Ru30  1  0.500000  0.500000  0.155061  1
  Ru  Ru31  1  0.000000  0.000000  0.850150  1
  Rh  Rh32  1  0.000000  0.203342  0.566865  1
  Rh  Rh33  1  0.000000  0.796658  0.566865  1
  Rh  Rh34  1  0.500000  0.500000  0.707941  1
  Rh  Rh35  1  0.000000  0.000000  0.295030  1
