# generated using pymatgen
data_Ba3Ga2Pt7
_symmetry_space_group_name_H-M   'P 1'
_cell_length_a   9.28439023
_cell_length_b   9.28439056
_cell_length_c   9.28438931
_cell_angle_alpha   36.38529020
_cell_angle_beta   36.38528320
_cell_angle_gamma   36.38529024
_symmetry_Int_Tables_number   1
_chemical_formula_structural   Ba3Ga2Pt7
_chemical_formula_sum   'Ba3 Ga2 Pt7'
_cell_volume   252.06926022
_cell_formula_units_Z   1
loop_
 _symmetry_equiv_pos_site_id
 _symmetry_equiv_pos_as_xyz
  1  'x, y, z'
loop_
 _atom_site_type_symbol
 _atom_site_label
 _atom_site_symmetry_multiplicity
 _atom_site_fract_x
 _atom_site_fract_y
 _atom_site_fract_z
 _atom_site_occupancy
  Ba  Ba0  1  0.358238  0.358238  0.358238  1
  Ba  Ba1  1  0.500000  0.500000  0.500000  1
  Ba  Ba2  1  0.641761  0.641761  0.641761  1
  Ga  Ga3  1  0.168583  0.168583  0.168583  1
  Ga  Ga4  1  0.831417  0.831417  0.831417  1
  Pt  Pt5  1  0.000000  0.000000  0.000000  1
  Pt  Pt6  1  0.580701  0.072796  0.072797  1
  Pt  Pt7  1  0.072796  0.580701  0.072797  1
  Pt  Pt8  1  0.927204  0.927204  0.419298  1
  Pt  Pt9  1  0.072796  0.072796  0.580702  1
  Pt  Pt10  1  0.927204  0.419299  0.927203  1
  Pt  Pt11  1  0.419299  0.927204  0.927203  1
