# generated using pymatgen
data_Gd2Er4TaO12
_symmetry_space_group_name_H-M   'P 1'
_cell_length_a   6.46020908
_cell_length_b   6.47670593
_cell_length_c   6.46146499
_cell_angle_alpha   98.86751431
_cell_angle_beta   98.59362430
_cell_angle_gamma   98.65823582
_symmetry_Int_Tables_number   1
_chemical_formula_structural   Gd2Er4TaO12
_chemical_formula_sum   'Gd2 Er4 Ta1 O12'
_cell_volume   259.92085497
_cell_formula_units_Z   1
loop_
 _symmetry_equiv_pos_site_id
 _symmetry_equiv_pos_as_xyz
  1  'x, y, z'
loop_
 _atom_site_type_symbol
 _atom_site_label
 _atom_site_symmetry_multiplicity
 _atom_site_fract_x
 _atom_site_fract_y
 _atom_site_fract_z
 _atom_site_occupancy
  Gd  Gd0  1  0.392705  0.694273  0.858531  1
  Gd  Gd1  1  0.137218  0.607174  0.305083  1
  Er  Er2  1  0.858720  0.385096  0.695745  1
  Er  Er3  1  0.612791  0.297796  0.138269  1
  Er  Er4  1  0.307583  0.141957  0.610575  1
  Er  Er5  1  0.700161  0.866199  0.391321  1
  Ta  Ta6  1  0.001764  0.999654  0.998823  1
  O  O7  1  0.924005  0.040301  0.694855  1
  O  O8  1  0.953541  0.303515  0.066976  1
  O  O9  1  0.587523  0.178746  0.435727  1
  O  O10  1  0.817927  0.564697  0.412144  1
  O  O11  1  0.303056  0.077871  0.958305  1
  O  O12  1  0.565338  0.408718  0.824412  1
  O  O13  1  0.438843  0.586585  0.180273  1
  O  O14  1  0.697086  0.933411  0.050156  1
  O  O15  1  0.173902  0.429571  0.587188  1
  O  O16  1  0.416782  0.825081  0.565795  1
  O  O17  1  0.035354  0.697316  0.921560  1
  O  O18  1  0.075701  0.962039  0.304261  1
