# generated using pymatgen
data_Sr5(CuPt2)2
_symmetry_space_group_name_H-M   'P 1'
_cell_length_a   14.61426025
_cell_length_b   14.61426028
_cell_length_c   4.43425700
_cell_angle_alpha   90.00000000
_cell_angle_beta   90.00000000
_cell_angle_gamma   162.21634486
_symmetry_Int_Tables_number   1
_chemical_formula_structural   Sr5(CuPt2)2
_chemical_formula_sum   'Sr5 Cu2 Pt4'
_cell_volume   289.25257683
_cell_formula_units_Z   1
loop_
 _symmetry_equiv_pos_site_id
 _symmetry_equiv_pos_as_xyz
  1  'x, y, z'
loop_
 _atom_site_type_symbol
 _atom_site_label
 _atom_site_symmetry_multiplicity
 _atom_site_fract_x
 _atom_site_fract_y
 _atom_site_fract_z
 _atom_site_occupancy
  Sr  Sr0  1  0.998229  0.001771  0.000000  1
  Sr  Sr1  1  0.616142  0.383856  0.000000  1
  Sr  Sr2  1  0.383007  0.616991  0.000000  1
  Sr  Sr3  1  0.804629  0.195369  0.500001  1
  Sr  Sr4  1  0.198869  0.801129  0.500001  1
  Cu  Cu5  1  0.456966  0.543032  0.500001  1
  Cu  Cu6  1  0.080483  0.919516  0.500001  1
  Pt  Pt7  1  0.724879  0.275119  0.000000  1
  Pt  Pt8  1  0.274649  0.725349  0.000000  1
  Pt  Pt9  1  0.916614  0.083385  0.500001  1
  Pt  Pt10  1  0.545525  0.454473  0.500001  1
