# generated using pymatgen
data_TbEr9(SiBi)4
_symmetry_space_group_name_H-M   'P 1'
_cell_length_a   8.61158877
_cell_length_b   8.59823641
_cell_length_c   7.87359679
_cell_angle_alpha   89.90237209
_cell_angle_beta   89.95268887
_cell_angle_gamma   125.66953368
_symmetry_Int_Tables_number   1
_chemical_formula_structural   TbEr9(SiBi)4
_chemical_formula_sum   'Tb1 Er9 Si4 Bi4'
_cell_volume   473.62068746
_cell_formula_units_Z   1
loop_
 _symmetry_equiv_pos_site_id
 _symmetry_equiv_pos_as_xyz
  1  'x, y, z'
loop_
 _atom_site_type_symbol
 _atom_site_label
 _atom_site_symmetry_multiplicity
 _atom_site_fract_x
 _atom_site_fract_y
 _atom_site_fract_z
 _atom_site_occupancy
  Tb  Tb0  1  0.042412  0.287953  0.335106  1
  Er  Er1  1  0.956873  0.713961  0.664051  1
  Er  Er2  1  0.457052  0.214310  0.835979  1
  Er  Er3  1  0.785244  0.542617  0.163731  1
  Er  Er4  1  0.543010  0.785213  0.163933  1
  Er  Er5  1  0.214869  0.457012  0.836032  1
  Er  Er6  1  0.714574  0.957034  0.664106  1
  Er  Er7  1  0.285438  0.042768  0.336184  1
  Er  Er8  1  0.999966  0.999600  0.999508  1
  Er  Er9  1  0.500639  0.500386  0.500228  1
  Si  Si10  1  0.366312  0.364660  0.133101  1
  Si  Si11  1  0.635381  0.635317  0.866036  1
  Si  Si12  1  0.135742  0.135017  0.635399  1
  Si  Si13  1  0.863865  0.863026  0.365831  1
  Bi  Bi14  1  0.791072  0.206997  0.998017  1
  Bi  Bi15  1  0.207387  0.791815  0.000430  1
  Bi  Bi16  1  0.705845  0.292256  0.500751  1
  Bi  Bi17  1  0.294320  0.710059  0.501577  1
