# generated using pymatgen
data_Ba5Pt2Cl2O9
_symmetry_space_group_name_H-M   'P 1'
_cell_length_a   5.90345800
_cell_length_b   5.90345748
_cell_length_c   25.51758000
_cell_angle_alpha   90.00000000
_cell_angle_beta   90.00000000
_cell_angle_gamma   120.00000290
_symmetry_Int_Tables_number   1
_chemical_formula_structural   Ba5Pt2Cl2O9
_chemical_formula_sum   'Ba10 Pt4 Cl4 O18'
_cell_volume   770.16365791
_cell_formula_units_Z   2
loop_
 _symmetry_equiv_pos_site_id
 _symmetry_equiv_pos_as_xyz
  1  'x, y, z'
loop_
 _atom_site_type_symbol
 _atom_site_label
 _atom_site_symmetry_multiplicity
 _atom_site_fract_x
 _atom_site_fract_y
 _atom_site_fract_z
 _atom_site_occupancy
  Ba  Ba0  1  0.666667  0.333333  0.832017  1
  Ba  Ba1  1  0.333333  0.666667  0.167983  1
  Ba  Ba2  1  0.333333  0.666667  0.582014  1
  Ba  Ba3  1  0.333333  0.666667  0.332017  1
  Ba  Ba4  1  0.333333  0.666667  0.917986  1
  Ba  Ba5  1  0.666667  0.333333  0.082014  1
  Ba  Ba6  1  0.666667  0.333333  0.417986  1
  Ba  Ba7  1  0.666667  0.333333  0.667983  1
  Ba  Ba8  1  0.666667  0.333333  0.250000  1
  Ba  Ba9  1  0.333333  0.666667  0.750000  1
  Pt  Pt10  1  0.000000  0.000000  0.804023  1
  Pt  Pt11  1  0.000000  0.000000  0.304023  1
  Pt  Pt12  1  0.000000  0.000000  0.195977  1
  Pt  Pt13  1  0.000000  0.000000  0.695977  1
  Cl  Cl14  1  0.666667  0.333333  0.545052  1
  Cl  Cl15  1  0.333333  0.666667  0.454948  1
  Cl  Cl16  1  0.333333  0.666667  0.045052  1
  Cl  Cl17  1  0.666667  0.333333  0.954948  1
  O  O18  1  0.154044  0.308087  0.250000  1
  O  O19  1  0.161642  0.838358  0.845336  1
  O  O20  1  0.838358  0.161642  0.154664  1
  O  O21  1  0.838358  0.676715  0.154664  1
  O  O22  1  0.161642  0.323285  0.845336  1
  O  O23  1  0.838358  0.676715  0.345336  1
  O  O24  1  0.691913  0.845956  0.250000  1
  O  O25  1  0.845956  0.154044  0.750000  1
  O  O26  1  0.676715  0.838358  0.654664  1
  O  O27  1  0.323285  0.161642  0.345336  1
  O  O28  1  0.845956  0.691913  0.750000  1
  O  O29  1  0.838358  0.161642  0.345336  1
  O  O30  1  0.676715  0.838358  0.845336  1
  O  O31  1  0.161642  0.323285  0.654664  1
  O  O32  1  0.161642  0.838358  0.654664  1
  O  O33  1  0.308087  0.154044  0.750000  1
  O  O34  1  0.154044  0.845956  0.250000  1
  O  O35  1  0.323285  0.161642  0.154664  1
