# generated using pymatgen
data_Er5Pa3(ReB6)4
_symmetry_space_group_name_H-M   'P 1'
_cell_length_a   3.69632200
_cell_length_b   9.14481025
_cell_length_c   11.49960701
_cell_angle_alpha   90.13459590
_cell_angle_beta   90.00000000
_cell_angle_gamma   90.00000000
_symmetry_Int_Tables_number   1
_chemical_formula_structural   Er5Pa3(ReB6)4
_chemical_formula_sum   'Er5 Pa3 Re4 B24'
_cell_volume   388.71052151
_cell_formula_units_Z   1
loop_
 _symmetry_equiv_pos_site_id
 _symmetry_equiv_pos_as_xyz
  1  'x, y, z'
loop_
 _atom_site_type_symbol
 _atom_site_label
 _atom_site_symmetry_multiplicity
 _atom_site_fract_x
 _atom_site_fract_y
 _atom_site_fract_z
 _atom_site_occupancy
  Er  Er0  1  0.000000  0.179662  0.913236  1
  Er  Er1  1  0.000000  0.945242  0.374440  1
  Er  Er2  1  0.000000  0.055663  0.627518  1
  Er  Er3  1  0.000000  0.443266  0.124969  1
  Er  Er4  1  0.000000  0.553829  0.873977  1
  Pa  Pa5  1  0.000000  0.321129  0.413430  1
  Pa  Pa6  1  0.000000  0.678223  0.587174  1
  Pa  Pa7  1  0.000000  0.823265  0.085904  1
  Re  Re8  1  0.000000  0.638260  0.321712  1
  Re  Re9  1  0.000000  0.363944  0.675651  1
  Re  Re10  1  0.000000  0.137825  0.180718  1
  Re  Re11  1  0.000000  0.859947  0.821278  1
  B  B12  1  0.500000  0.553619  0.432579  1
  B  B13  1  0.500000  0.446890  0.566467  1
  B  B14  1  0.500000  0.053160  0.067559  1
  B  B15  1  0.500000  0.945993  0.933105  1
  B  B16  1  0.500000  0.749019  0.420156  1
  B  B17  1  0.500000  0.251377  0.580619  1
  B  B18  1  0.500000  0.248161  0.079346  1
  B  B19  1  0.500000  0.751715  0.920171  1
  B  B20  1  0.500000  0.792510  0.265421  1
  B  B21  1  0.500000  0.207943  0.734571  1
  B  B22  1  0.500000  0.292327  0.233548  1
  B  B23  1  0.500000  0.707310  0.765739  1
  B  B24  1  0.500000  0.632044  0.184449  1
  B  B25  1  0.500000  0.367945  0.814881  1
  B  B26  1  0.500000  0.132227  0.315287  1
  B  B27  1  0.500000  0.868146  0.685859  1
  B  B28  1  0.500000  0.982438  0.212973  1
  B  B29  1  0.500000  0.018306  0.787117  1
  B  B30  1  0.500000  0.482455  0.285863  1
  B  B31  1  0.500000  0.516998  0.713877  1
  B  B32  1  0.500000  0.608171  0.029993  1
  B  B33  1  0.500000  0.390872  0.969564  1
  B  B34  1  0.500000  0.109016  0.470359  1
  B  B35  1  0.500000  0.891106  0.530490  1
