# generated using pymatgen
data_HfZr(Al3Rh)3
_symmetry_space_group_name_H-M   'P 1'
_cell_length_a   7.46140610
_cell_length_b   7.45828455
_cell_length_c   9.22670400
_cell_angle_alpha   90.00000000
_cell_angle_beta   90.00000000
_cell_angle_gamma   119.71604676
_symmetry_Int_Tables_number   1
_chemical_formula_structural   HfZr(Al3Rh)3
_chemical_formula_sum   'Hf2 Zr2 Al18 Rh6'
_cell_volume   445.93585897
_cell_formula_units_Z   2
loop_
 _symmetry_equiv_pos_site_id
 _symmetry_equiv_pos_as_xyz
  1  'x, y, z'
loop_
 _atom_site_type_symbol
 _atom_site_label
 _atom_site_symmetry_multiplicity
 _atom_site_fract_x
 _atom_site_fract_y
 _atom_site_fract_z
 _atom_site_occupancy
  Hf  Hf0  1  0.993285  0.671641  0.250000  1
  Hf  Hf1  1  0.006715  0.328359  0.750000  1
  Zr  Zr2  1  0.671396  0.993183  0.250000  1
  Zr  Zr3  1  0.328604  0.006817  0.750000  1
  Al  Al4  1  0.122457  0.122691  0.250000  1
  Al  Al5  1  0.877543  0.877309  0.750000  1
  Al  Al6  1  0.996925  0.334738  0.076481  1
  Al  Al7  1  0.003075  0.665262  0.923519  1
  Al  Al8  1  0.003075  0.665262  0.576481  1
  Al  Al9  1  0.334666  0.997379  0.422529  1
  Al  Al10  1  0.996925  0.334738  0.423519  1
  Al  Al11  1  0.665334  0.002621  0.577471  1
  Al  Al12  1  0.665334  0.002621  0.922529  1
  Al  Al13  1  0.334666  0.997379  0.077471  1
  Al  Al14  1  0.331047  0.331241  0.556732  1
  Al  Al15  1  0.668953  0.668759  0.443268  1
  Al  Al16  1  0.668953  0.668759  0.056732  1
  Al  Al17  1  0.331047  0.331241  0.943268  1
  Al  Al18  1  0.337725  0.554180  0.250000  1
  Al  Al19  1  0.662275  0.445820  0.750000  1
  Al  Al20  1  0.555631  0.340218  0.250000  1
  Al  Al21  1  0.444369  0.659782  0.750000  1
  Rh  Rh22  1  0.673621  0.327758  0.999921  1
  Rh  Rh23  1  0.326379  0.672242  0.000079  1
  Rh  Rh24  1  0.326379  0.672242  0.499921  1
  Rh  Rh25  1  0.673621  0.327758  0.500079  1
  Rh  Rh26  1  0.000000  0.000000  0.000000  1
  Rh  Rh27  1  0.000000  0.000000  0.500000  1
