# generated using pymatgen
data_Y4CrOsC4
_symmetry_space_group_name_H-M   'P 1'
_cell_length_a   5.08449100
_cell_length_b   6.49694503
_cell_length_c   9.82588596
_cell_angle_alpha   90.16984774
_cell_angle_beta   90.00000000
_cell_angle_gamma   90.00000000
_symmetry_Int_Tables_number   1
_chemical_formula_structural   Y4CrOsC4
_chemical_formula_sum   'Y8 Cr2 Os2 C8'
_cell_volume   324.58353527
_cell_formula_units_Z   2
loop_
 _symmetry_equiv_pos_site_id
 _symmetry_equiv_pos_as_xyz
  1  'x, y, z'
loop_
 _atom_site_type_symbol
 _atom_site_label
 _atom_site_symmetry_multiplicity
 _atom_site_fract_x
 _atom_site_fract_y
 _atom_site_fract_z
 _atom_site_occupancy
  Y  Y0  1  0.250000  0.683714  0.558056  1
  Y  Y1  1  0.750000  0.316286  0.441944  1
  Y  Y2  1  0.750000  0.820621  0.053873  1
  Y  Y3  1  0.250000  0.179379  0.946127  1
  Y  Y4  1  0.250000  0.530451  0.215732  1
  Y  Y5  1  0.750000  0.469549  0.784268  1
  Y  Y6  1  0.750000  0.972932  0.716301  1
  Y  Y7  1  0.250000  0.027068  0.283699  1
  Cr  Cr8  1  0.250000  0.726716  0.860791  1
  Cr  Cr9  1  0.750000  0.273284  0.139209  1
  Os  Os10  1  0.750000  0.774107  0.361315  1
  Os  Os11  1  0.250000  0.225893  0.638685  1
  C  C12  1  0.250000  0.465333  0.763604  1
  C  C13  1  0.750000  0.534667  0.236396  1
  C  C14  1  0.750000  0.044609  0.255891  1
  C  C15  1  0.250000  0.955391  0.744109  1
  C  C16  1  0.250000  0.811823  0.037897  1
  C  C17  1  0.750000  0.188177  0.962103  1
  C  C18  1  0.750000  0.680424  0.546193  1
  C  C19  1  0.250000  0.319576  0.453807  1
