# generated using pymatgen
data_Mg4Ge2Pd9Pt
_symmetry_space_group_name_H-M   'P 1'
_cell_length_a   4.12372400
_cell_length_b   5.55596643
_cell_length_c   10.83206869
_cell_angle_alpha   89.89315044
_cell_angle_beta   90.00000000
_cell_angle_gamma   90.00000000
_symmetry_Int_Tables_number   1
_chemical_formula_structural   Mg4Ge2Pd9Pt
_chemical_formula_sum   'Mg4 Ge2 Pd9 Pt1'
_cell_volume   248.17604151
_cell_formula_units_Z   1
loop_
 _symmetry_equiv_pos_site_id
 _symmetry_equiv_pos_as_xyz
  1  'x, y, z'
loop_
 _atom_site_type_symbol
 _atom_site_label
 _atom_site_symmetry_multiplicity
 _atom_site_fract_x
 _atom_site_fract_y
 _atom_site_fract_z
 _atom_site_occupancy
  Mg  Mg0  1  0.500000  0.161095  0.142771  1
  Mg  Mg1  1  0.500000  0.838867  0.857630  1
  Mg  Mg2  1  0.500000  0.338928  0.642195  1
  Mg  Mg3  1  0.500000  0.661683  0.357267  1
  Ge  Ge4  1  0.000000  0.000554  0.499843  1
  Ge  Ge5  1  0.000000  0.499794  0.000223  1
  Pd  Pd6  1  0.500000  0.819077  0.605812  1
  Pd  Pd7  1  0.500000  0.320601  0.894990  1
  Pd  Pd8  1  0.500000  0.679015  0.104799  1
  Pd  Pd9  1  0.000000  0.415700  0.237065  1
  Pd  Pd10  1  0.000000  0.584418  0.763180  1
  Pd  Pd11  1  0.000000  0.084290  0.736949  1
  Pd  Pd12  1  0.000000  0.915148  0.262168  1
  Pd  Pd13  1  0.000000  0.000228  0.999801  1
  Pd  Pd14  1  0.000000  0.501904  0.499964  1
  Pt  Pt15  1  0.500000  0.178699  0.395343  1
