# generated using pymatgen
data_Dy2Tm2Al17GeIr6
_symmetry_space_group_name_H-M   'P 1'
_cell_length_a   7.54530800
_cell_length_b   7.54530727
_cell_length_c   9.44249500
_cell_angle_alpha   90.00000000
_cell_angle_beta   90.00000000
_cell_angle_gamma   119.59038412
_symmetry_Int_Tables_number   1
_chemical_formula_structural   Dy2Tm2Al17GeIr6
_chemical_formula_sum   'Dy2 Tm2 Al17 Ge1 Ir6'
_cell_volume   467.46501898
_cell_formula_units_Z   1
loop_
 _symmetry_equiv_pos_site_id
 _symmetry_equiv_pos_as_xyz
  1  'x, y, z'
loop_
 _atom_site_type_symbol
 _atom_site_label
 _atom_site_symmetry_multiplicity
 _atom_site_fract_x
 _atom_site_fract_y
 _atom_site_fract_z
 _atom_site_occupancy
  Dy  Dy0  1  0.994682  0.677123  0.250000  1
  Dy  Dy1  1  0.677123  0.994682  0.250000  1
  Tm  Tm2  1  0.003329  0.328243  0.750000  1
  Tm  Tm3  1  0.328243  0.003329  0.750000  1
  Al  Al4  1  0.872224  0.872224  0.750000  1
  Al  Al5  1  0.000448  0.338078  0.073638  1
  Al  Al6  1  0.998544  0.664550  0.923834  1
  Al  Al7  1  0.998544  0.664550  0.576166  1
  Al  Al8  1  0.338078  0.000448  0.426362  1
  Al  Al9  1  0.000448  0.338078  0.426362  1
  Al  Al10  1  0.664550  0.998544  0.576166  1
  Al  Al11  1  0.664550  0.998544  0.923834  1
  Al  Al12  1  0.338078  0.000448  0.073638  1
  Al  Al13  1  0.331935  0.331935  0.560525  1
  Al  Al14  1  0.663490  0.663490  0.448698  1
  Al  Al15  1  0.663490  0.663490  0.051302  1
  Al  Al16  1  0.331935  0.331935  0.939475  1
  Al  Al17  1  0.337425  0.554250  0.250000  1
  Al  Al18  1  0.660895  0.450303  0.750000  1
  Al  Al19  1  0.554250  0.337425  0.250000  1
  Al  Al20  1  0.450303  0.660895  0.750000  1
  Ge  Ge21  1  0.136647  0.136647  0.250000  1
  Ir  Ir22  1  0.669657  0.326260  0.999774  1
  Ir  Ir23  1  0.326260  0.669657  0.999774  1
  Ir  Ir24  1  0.326260  0.669657  0.500226  1
  Ir  Ir25  1  0.669657  0.326260  0.500226  1
  Ir  Ir26  1  0.999477  0.999477  0.000779  1
  Ir  Ir27  1  0.999477  0.999477  0.499221  1
