# generated using pymatgen
data_Lu2FeCo16
_symmetry_space_group_name_H-M   'P 1'
_cell_length_a   6.23692741
_cell_length_b   6.23692806
_cell_length_c   6.23692801
_cell_angle_alpha   82.94044403
_cell_angle_beta   82.94044815
_cell_angle_gamma   82.94044488
_symmetry_Int_Tables_number   1
_chemical_formula_structural   Lu2FeCo16
_chemical_formula_sum   'Lu2 Fe1 Co16'
_cell_volume   237.51185443
_cell_formula_units_Z   1
loop_
 _symmetry_equiv_pos_site_id
 _symmetry_equiv_pos_as_xyz
  1  'x, y, z'
loop_
 _atom_site_type_symbol
 _atom_site_label
 _atom_site_symmetry_multiplicity
 _atom_site_fract_x
 _atom_site_fract_y
 _atom_site_fract_z
 _atom_site_occupancy
  Lu  Lu0  1  0.655718  0.655718  0.655718  1
  Lu  Lu1  1  0.346206  0.346207  0.346207  1
  Fe  Fe2  1  0.096188  0.096188  0.096188  1
  Co  Co3  1  0.348142  0.348142  0.848837  1
  Co  Co4  1  0.848837  0.348142  0.348142  1
  Co  Co5  1  0.348142  0.848837  0.348142  1
  Co  Co6  1  0.652806  0.652806  0.151841  1
  Co  Co7  1  0.151841  0.652806  0.652806  1
  Co  Co8  1  0.652806  0.151841  0.652806  1
  Co  Co9  1  0.708730  0.290988  0.999330  1
  Co  Co10  1  0.999330  0.708730  0.290988  1
  Co  Co11  1  0.290988  0.999330  0.708730  1
  Co  Co12  1  0.999330  0.290988  0.708730  1
  Co  Co13  1  0.708730  0.999330  0.290988  1
  Co  Co14  1  0.290988  0.708730  0.999330  1
  Co  Co15  1  0.998965  0.998965  0.501559  1
  Co  Co16  1  0.501559  0.998965  0.998965  1
  Co  Co17  1  0.998965  0.501559  0.998965  1
  Co  Co18  1  0.901728  0.901728  0.901728  1
