# generated using pymatgen
data_Sr4Th2P17Pd6
_symmetry_space_group_name_H-M   'P 1'
_cell_length_a   9.08776782
_cell_length_b   9.00295999
_cell_length_c   9.19674522
_cell_angle_alpha   110.12553337
_cell_angle_beta   109.60673319
_cell_angle_gamma   108.73744437
_symmetry_Int_Tables_number   1
_chemical_formula_structural   Sr4Th2P17Pd6
_chemical_formula_sum   'Sr4 Th2 P17 Pd6'
_cell_volume   578.76905124
_cell_formula_units_Z   1
loop_
 _symmetry_equiv_pos_site_id
 _symmetry_equiv_pos_as_xyz
  1  'x, y, z'
loop_
 _atom_site_type_symbol
 _atom_site_label
 _atom_site_symmetry_multiplicity
 _atom_site_fract_x
 _atom_site_fract_y
 _atom_site_fract_z
 _atom_site_occupancy
  Sr  Sr0  1  0.278201  0.997158  0.279334  1
  Sr  Sr1  1  0.000000  0.706743  0.711182  1
  Sr  Sr2  1  0.000000  0.288089  0.290279  1
  Sr  Sr3  1  0.721799  0.718957  0.001133  1
  Th  Th4  1  0.279132  0.282321  0.000527  1
  Th  Th5  1  0.720868  0.003187  0.721394  1
  P  P6  1  0.782602  0.787473  0.431730  1
  P  P7  1  0.641176  0.216947  0.996532  1
  P  P8  1  0.220844  0.635671  0.000949  1
  P  P9  1  0.358824  0.575771  0.355356  1
  P  P10  1  0.639156  0.998602  0.215096  1
  P  P11  1  0.000000  0.639078  0.220947  1
  P  P12  1  0.573149  0.356985  0.352893  1
  P  P13  1  0.426851  0.783836  0.779744  1
  P  P14  1  0.779156  0.414828  0.780105  1
  P  P15  1  0.217398  0.004871  0.649129  1
  P  P16  1  0.000000  0.218580  0.647896  1
  P  P17  1  0.360844  0.359445  0.575939  1
  P  P18  1  0.000000  0.000157  0.442980  1
  P  P19  1  0.438946  0.003224  0.999105  1
  P  P20  1  0.000000  0.432922  0.998198  1
  P  P21  1  0.561054  0.564279  0.560160  1
  P  P22  1  0.000000  0.012787  0.984384  1
  Pd  Pd23  1  0.256576  0.499456  0.754748  1
  Pd  Pd24  1  0.501424  0.751243  0.252112  1
  Pd  Pd25  1  0.498576  0.249819  0.750688  1
  Pd  Pd26  1  0.743424  0.242880  0.498173  1
  Pd  Pd27  1  0.253914  0.754304  0.501601  1
  Pd  Pd28  1  0.746086  0.500390  0.247687  1
