# generated using pymatgen
data_TbSi2P4(Pd10Pb)2
_symmetry_space_group_name_H-M   'P 1'
_cell_length_a   8.74433453
_cell_length_b   8.71567413
_cell_length_c   8.71567428
_cell_angle_alpha   60.21768362
_cell_angle_beta   59.89116626
_cell_angle_gamma   59.89116679
_symmetry_Int_Tables_number   1
_chemical_formula_structural   TbSi2P4(Pd10Pb)2
_chemical_formula_sum   'Tb1 Si2 P4 Pd20 Pb2'
_cell_volume   469.68249337
_cell_formula_units_Z   1
loop_
 _symmetry_equiv_pos_site_id
 _symmetry_equiv_pos_as_xyz
  1  'x, y, z'
loop_
 _atom_site_type_symbol
 _atom_site_label
 _atom_site_symmetry_multiplicity
 _atom_site_fract_x
 _atom_site_fract_y
 _atom_site_fract_z
 _atom_site_occupancy
  Tb  Tb0  1  0.000000  0.000000  0.000000  1
  Si  Si1  1  0.732929  0.267071  0.267071  1
  Si  Si2  1  0.267071  0.732929  0.732929  1
  P  P3  1  0.265532  0.734468  0.265532  1
  P  P4  1  0.734468  0.265532  0.734468  1
  P  P5  1  0.265532  0.265532  0.734468  1
  P  P6  1  0.734468  0.734468  0.265532  1
  Pd  Pd7  1  0.383305  0.384870  0.384870  1
  Pd  Pd8  1  0.616695  0.615130  0.615130  1
  Pd  Pd9  1  0.384870  0.383305  0.846954  1
  Pd  Pd10  1  0.384870  0.846954  0.383305  1
  Pd  Pd11  1  0.615130  0.616695  0.153046  1
  Pd  Pd12  1  0.615130  0.153046  0.616695  1
  Pd  Pd13  1  0.846954  0.384870  0.384870  1
  Pd  Pd14  1  0.153046  0.615130  0.615130  1
  Pd  Pd15  1  0.342824  0.000000  0.000000  1
  Pd  Pd16  1  0.657176  0.000000  0.000000  1
  Pd  Pd17  1  0.000000  0.342824  0.657176  1
  Pd  Pd18  1  0.000000  0.657176  0.342824  1
  Pd  Pd19  1  0.000591  0.344336  0.999409  1
  Pd  Pd20  1  0.655664  0.999409  0.344336  1
  Pd  Pd21  1  0.999409  0.655664  0.000591  1
  Pd  Pd22  1  0.344336  0.000591  0.655664  1
  Pd  Pd23  1  0.000591  0.999409  0.344336  1
  Pd  Pd24  1  0.999409  0.000591  0.655664  1
  Pd  Pd25  1  0.655664  0.344336  0.999409  1
  Pd  Pd26  1  0.344336  0.655664  0.000591  1
  Pb  Pb27  1  0.250000  0.250000  0.250000  1
  Pb  Pb28  1  0.750000  0.750000  0.750000  1
