# generated using pymatgen
data_Ta2BRu5Rh
_symmetry_space_group_name_H-M   'P 1'
_cell_length_a   5.63657599
_cell_length_b   5.62782578
_cell_length_c   5.62782481
_cell_angle_alpha   60.10289069
_cell_angle_beta   59.94855253
_cell_angle_gamma   59.94855578
_symmetry_Int_Tables_number   1
_chemical_formula_structural   Ta2BRu5Rh
_chemical_formula_sum   'Ta2 B1 Ru5 Rh1'
_cell_volume   126.23491070
_cell_formula_units_Z   1
loop_
 _symmetry_equiv_pos_site_id
 _symmetry_equiv_pos_as_xyz
  1  'x, y, z'
loop_
 _atom_site_type_symbol
 _atom_site_label
 _atom_site_symmetry_multiplicity
 _atom_site_fract_x
 _atom_site_fract_y
 _atom_site_fract_z
 _atom_site_occupancy
  Ta  Ta0  1  0.249856  0.250144  0.250144  1
  Ta  Ta1  1  0.749856  0.750144  0.750144  1
  B  B2  1  0.001052  0.998948  0.998948  1
  Ru  Ru3  1  0.257942  0.742058  0.258411  1
  Ru  Ru4  1  0.741589  0.742058  0.258411  1
  Ru  Ru5  1  0.257942  0.258411  0.742058  1
  Ru  Ru6  1  0.741589  0.258411  0.742058  1
  Ru  Ru7  1  0.258698  0.741302  0.741302  1
  Rh  Rh8  1  0.741478  0.258522  0.258522  1
