# generated using pymatgen
data_Sr4Te3(BrO2)4
_symmetry_space_group_name_H-M   'P 1'
_cell_length_a   8.78087257
_cell_length_b   8.78087228
_cell_length_c   17.22860200
_cell_angle_alpha   71.78096601
_cell_angle_beta   71.78096663
_cell_angle_gamma   38.52987980
_symmetry_Int_Tables_number   1
_chemical_formula_structural   Sr4Te3(BrO2)4
_chemical_formula_sum   'Sr8 Te6 Br8 O16'
_cell_volume   780.78214511
_cell_formula_units_Z   2
loop_
 _symmetry_equiv_pos_site_id
 _symmetry_equiv_pos_as_xyz
  1  'x, y, z'
loop_
 _atom_site_type_symbol
 _atom_site_label
 _atom_site_symmetry_multiplicity
 _atom_site_fract_x
 _atom_site_fract_y
 _atom_site_fract_z
 _atom_site_occupancy
  Sr  Sr0  1  0.735170  0.738921  0.697183  1
  Sr  Sr1  1  0.261079  0.264830  0.302817  1
  Sr  Sr2  1  0.160358  0.163067  0.558395  1
  Sr  Sr3  1  0.836933  0.839642  0.441605  1
  Sr  Sr4  1  0.055382  0.063853  0.811676  1
  Sr  Sr5  1  0.936147  0.944618  0.188324  1
  Sr  Sr6  1  0.646366  0.634044  0.952152  1
  Sr  Sr7  1  0.365956  0.353634  0.047848  1
  Te  Te8  1  0.366348  0.366765  0.573569  1
  Te  Te9  1  0.633235  0.633652  0.426431  1
  Te  Te10  1  0.272257  0.267382  0.820295  1
  Te  Te11  1  0.732618  0.727743  0.179705  1
  Te  Te12  1  0.532269  0.538062  0.673273  1
  Te  Te13  1  0.461938  0.467731  0.326727  1
  Br  Br14  1  0.818253  0.801385  0.978614  1
  Br  Br15  1  0.198615  0.181747  0.021386  1
  Br  Br16  1  0.900188  0.905589  0.744020  1
  Br  Br17  1  0.094411  0.099812  0.255980  1
  Br  Br18  1  0.504657  0.527638  0.129717  1
  Br  Br19  1  0.472362  0.495343  0.870283  1
  Br  Br20  1  0.000227  0.999773  0.500000  1
  Br  Br21  1  0.963049  0.036951  0.000000  1
  O  O22  1  0.841473  0.368407  0.689737  1
  O  O23  1  0.362792  0.847621  0.689125  1
  O  O24  1  0.152379  0.637208  0.310875  1
  O  O25  1  0.631593  0.158527  0.310263  1
  O  O26  1  0.951071  0.427699  0.831216  1
  O  O27  1  0.427813  0.948111  0.832387  1
  O  O28  1  0.051889  0.572187  0.167613  1
  O  O29  1  0.572301  0.048929  0.168784  1
  O  O30  1  0.300224  0.293305  0.702438  1
  O  O31  1  0.706695  0.699776  0.297562  1
  O  O32  1  0.050444  0.534099  0.568950  1
  O  O33  1  0.533129  0.051428  0.568356  1
  O  O34  1  0.948572  0.466871  0.431644  1
  O  O35  1  0.465901  0.949556  0.431050  1
  O  O36  1  0.591901  0.592694  0.556667  1
  O  O37  1  0.407306  0.408099  0.443333  1
