# generated using pymatgen
data_Ca8HfZrNb4(FeO12)2
_symmetry_space_group_name_H-M   'P 1'
_cell_length_a   5.51365140
_cell_length_b   9.71738126
_cell_length_c   9.73604700
_cell_angle_alpha   71.36593709
_cell_angle_beta   89.94652471
_cell_angle_gamma   90.21715872
_symmetry_Int_Tables_number   1
_chemical_formula_structural   Ca8HfZrNb4(FeO12)2
_chemical_formula_sum   'Ca8 Hf1 Zr1 Nb4 Fe2 O24'
_cell_volume   494.29046142
_cell_formula_units_Z   1
loop_
 _symmetry_equiv_pos_site_id
 _symmetry_equiv_pos_as_xyz
  1  'x, y, z'
loop_
 _atom_site_type_symbol
 _atom_site_label
 _atom_site_symmetry_multiplicity
 _atom_site_fract_x
 _atom_site_fract_y
 _atom_site_fract_z
 _atom_site_occupancy
  Ca  Ca0  1  0.011763  0.353132  0.900677  1
  Ca  Ca1  1  0.012833  0.840456  0.401936  1
  Ca  Ca2  1  0.988205  0.646856  0.099322  1
  Ca  Ca3  1  0.987190  0.159560  0.598060  1
  Ca  Ca4  1  0.482139  0.599015  0.657923  1
  Ca  Ca5  1  0.490126  0.099953  0.149809  1
  Ca  Ca6  1  0.517878  0.401006  0.342087  1
  Ca  Ca7  1  0.509874  0.900023  0.850196  1
  Hf  Hf8  1  0.499999  0.999994  0.500000  1
  Zr  Zr9  1  0.000005  0.000004  0.000001  1
  Nb  Nb10  1  0.009249  0.258691  0.248491  1
  Nb  Nb11  1  0.990689  0.741311  0.751532  1
  Nb  Nb12  1  0.500367  0.259403  0.743281  1
  Nb  Nb13  1  0.499663  0.740594  0.256705  1
  Fe  Fe14  1  0.000038  0.500016  0.500026  1
  Fe  Fe15  1  0.499910  0.499926  0.000013  1
  O  O16  1  0.900096  0.145928  0.109200  1
  O  O17  1  0.891822  0.647595  0.611662  1
  O  O18  1  0.099894  0.854073  0.890796  1
  O  O19  1  0.108179  0.352437  0.388326  1
  O  O20  1  0.603490  0.386929  0.851120  1
  O  O21  1  0.603718  0.893664  0.355403  1
  O  O22  1  0.396523  0.613071  0.148862  1
  O  O23  1  0.396301  0.106347  0.644591  1
  O  O24  1  0.200543  0.370940  0.678616  1
  O  O25  1  0.207453  0.876640  0.178390  1
  O  O26  1  0.799482  0.629072  0.321387  1
  O  O27  1  0.792574  0.123372  0.821599  1
  O  O28  1  0.298427  0.321426  0.126025  1
  O  O29  1  0.295409  0.824265  0.624975  1
  O  O30  1  0.701540  0.678525  0.873980  1
  O  O31  1  0.704594  0.175744  0.375028  1
  O  O32  1  0.307357  0.129052  0.923512  1
  O  O33  1  0.314372  0.635592  0.427437  1
  O  O34  1  0.692654  0.870959  0.076477  1
  O  O35  1  0.685662  0.364421  0.572559  1
  O  O36  1  0.186307  0.578496  0.866179  1
  O  O37  1  0.196822  0.073185  0.370331  1
  O  O38  1  0.813666  0.421499  0.133808  1
  O  O39  1  0.803187  0.926826  0.629676  1
