# generated using pymatgen
data_HoLuMg(PRh2)6
_symmetry_space_group_name_H-M   'P 1'
_cell_length_a   9.68589900
_cell_length_b   9.68589787
_cell_length_c   3.88048200
_cell_angle_alpha   90.00000000
_cell_angle_beta   90.00000000
_cell_angle_gamma   120.00000727
_symmetry_Int_Tables_number   1
_chemical_formula_structural   HoLuMg(PRh2)6
_chemical_formula_sum   'Ho1 Lu1 Mg1 P6 Rh12'
_cell_volume   315.27976252
_cell_formula_units_Z   1
loop_
 _symmetry_equiv_pos_site_id
 _symmetry_equiv_pos_as_xyz
  1  'x, y, z'
loop_
 _atom_site_type_symbol
 _atom_site_label
 _atom_site_symmetry_multiplicity
 _atom_site_fract_x
 _atom_site_fract_y
 _atom_site_fract_z
 _atom_site_occupancy
  Ho  Ho0  1  0.666667  0.333333  0.247111  1
  Lu  Lu1  1  0.333333  0.666667  0.752786  1
  Mg  Mg2  1  0.000000  0.000000  0.500112  1
  P  P3  1  0.402395  0.285206  0.746675  1
  P  P4  1  0.714794  0.117188  0.746675  1
  P  P5  1  0.882812  0.597605  0.746675  1
  P  P6  1  0.597028  0.714594  0.253338  1
  P  P7  1  0.285406  0.882435  0.253338  1
  P  P8  1  0.117565  0.402972  0.253338  1
  Rh  Rh9  1  0.453706  0.066480  0.748522  1
  Rh  Rh10  1  0.933520  0.387226  0.748522  1
  Rh  Rh11  1  0.612774  0.546294  0.748522  1
  Rh  Rh12  1  0.544936  0.931868  0.251497  1
  Rh  Rh13  1  0.068132  0.613068  0.251497  1
  Rh  Rh14  1  0.386932  0.455064  0.251497  1
  Rh  Rh15  1  0.161256  0.289653  0.754277  1
  Rh  Rh16  1  0.710347  0.871602  0.754277  1
  Rh  Rh17  1  0.128398  0.838744  0.754277  1
  Rh  Rh18  1  0.838833  0.710850  0.245688  1
  Rh  Rh19  1  0.289150  0.127985  0.245688  1
  Rh  Rh20  1  0.872015  0.161167  0.245688  1
