# generated using pymatgen
data_YEr3(Si2Pt3)2
_symmetry_space_group_name_H-M   'P 1'
_cell_length_a   4.17316100
_cell_length_b   6.65470263
_cell_length_c   8.91924453
_cell_angle_alpha   90.10187017
_cell_angle_beta   90.00000000
_cell_angle_gamma   90.00000000
_symmetry_Int_Tables_number   1
_chemical_formula_structural   YEr3(Si2Pt3)2
_chemical_formula_sum   'Y1 Er3 Si4 Pt6'
_cell_volume   247.69724575
_cell_formula_units_Z   1
loop_
 _symmetry_equiv_pos_site_id
 _symmetry_equiv_pos_as_xyz
  1  'x, y, z'
loop_
 _atom_site_type_symbol
 _atom_site_label
 _atom_site_symmetry_multiplicity
 _atom_site_fract_x
 _atom_site_fract_y
 _atom_site_fract_z
 _atom_site_occupancy
  Y  Y0  1  0.000000  0.888189  0.329157  1
  Er  Er1  1  0.000000  0.111730  0.671097  1
  Er  Er2  1  0.000000  0.388289  0.170532  1
  Er  Er3  1  0.000000  0.611524  0.829278  1
  Si  Si4  1  0.500000  0.573264  0.355854  1
  Si  Si5  1  0.500000  0.425865  0.644460  1
  Si  Si6  1  0.500000  0.074665  0.143594  1
  Si  Si7  1  0.500000  0.925962  0.855650  1
  Pt  Pt8  1  0.500000  0.693832  0.089015  1
  Pt  Pt9  1  0.500000  0.306106  0.910499  1
  Pt  Pt10  1  0.500000  0.195485  0.411075  1
  Pt  Pt11  1  0.500000  0.805897  0.590134  1
  Pt  Pt12  1  0.000000  0.499021  0.500477  1
  Pt  Pt13  1  0.000000  0.000170  0.999179  1
