# generated using pymatgen
data_Yb2DyHo(B4Os)4
_symmetry_space_group_name_H-M   'P 1'
_cell_length_a   3.55204500
_cell_length_b   5.96454992
_cell_length_c   11.52714704
_cell_angle_alpha   89.88065154
_cell_angle_beta   90.00000000
_cell_angle_gamma   90.00000000
_symmetry_Int_Tables_number   1
_chemical_formula_structural   Yb2DyHo(B4Os)4
_chemical_formula_sum   'Yb2 Dy1 Ho1 B16 Os4'
_cell_volume   244.21763876
_cell_formula_units_Z   1
loop_
 _symmetry_equiv_pos_site_id
 _symmetry_equiv_pos_as_xyz
  1  'x, y, z'
loop_
 _atom_site_type_symbol
 _atom_site_label
 _atom_site_symmetry_multiplicity
 _atom_site_fract_x
 _atom_site_fract_y
 _atom_site_fract_z
 _atom_site_occupancy
  Yb  Yb0  1  0.000000  0.628736  0.851084  1
  Yb  Yb1  1  0.000000  0.371275  0.148950  1
  Dy  Dy2  1  0.000000  0.128621  0.650812  1
  Ho  Ho3  1  0.000000  0.871272  0.349195  1
  B  B4  1  0.500000  0.474963  0.692092  1
  B  B5  1  0.500000  0.525292  0.307868  1
  B  B6  1  0.500000  0.975143  0.809238  1
  B  B7  1  0.500000  0.024758  0.190963  1
  B  B8  1  0.500000  0.288754  0.815738  1
  B  B9  1  0.500000  0.711287  0.184409  1
  B  B10  1  0.500000  0.787016  0.686208  1
  B  B11  1  0.500000  0.212649  0.313771  1
  B  B12  1  0.500000  0.363819  0.969567  1
  B  B13  1  0.500000  0.636226  0.030463  1
  B  B14  1  0.500000  0.863241  0.530306  1
  B  B15  1  0.500000  0.136670  0.469451  1
  B  B16  1  0.500000  0.388172  0.547282  1
  B  B17  1  0.500000  0.612202  0.452502  1
  B  B18  1  0.500000  0.886058  0.953357  1
  B  B19  1  0.500000  0.113900  0.046709  1
  Os  Os20  1  0.000000  0.137042  0.909487  1
  Os  Os21  1  0.000000  0.862965  0.090771  1
  Os  Os22  1  0.000000  0.641185  0.591630  1
  Os  Os23  1  0.000000  0.358755  0.408146  1
