# generated using pymatgen
data_Sn5Sb7Pt6
_symmetry_space_group_name_H-M   'P 1'
_cell_length_a   4.02395300
_cell_length_b   8.47063580
_cell_length_c   12.94062810
_cell_angle_alpha   97.55638138
_cell_angle_beta   90.00000000
_cell_angle_gamma   90.00000000
_symmetry_Int_Tables_number   1
_chemical_formula_structural   Sn5Sb7Pt6
_chemical_formula_sum   'Sn5 Sb7 Pt6'
_cell_volume   437.25658033
_cell_formula_units_Z   1
loop_
 _symmetry_equiv_pos_site_id
 _symmetry_equiv_pos_as_xyz
  1  'x, y, z'
loop_
 _atom_site_type_symbol
 _atom_site_label
 _atom_site_symmetry_multiplicity
 _atom_site_fract_x
 _atom_site_fract_y
 _atom_site_fract_z
 _atom_site_occupancy
  Sn  Sn0  1  0.500000  0.328686  0.808362  1
  Sn  Sn1  1  0.500000  0.992030  0.138739  1
  Sn  Sn2  1  0.500000  0.661653  0.477533  1
  Sn  Sn3  1  0.500000  0.672057  0.193250  1
  Sn  Sn4  1  0.500000  0.340475  0.523974  1
  Sb  Sb5  1  0.500000  0.009669  0.857667  1
  Sb  Sb6  1  0.000000  0.315792  0.054623  1
  Sb  Sb7  1  0.000000  0.981149  0.385567  1
  Sb  Sb8  1  0.000000  0.647093  0.719930  1
  Sb  Sb9  1  0.000000  0.684144  0.947020  1
  Sb  Sb10  1  0.000000  0.351484  0.280933  1
  Sb  Sb11  1  0.000000  0.017666  0.612822  1
  Pt  Pt12  1  0.500000  0.834481  0.669235  1
  Pt  Pt13  1  0.500000  0.499615  0.000246  1
  Pt  Pt14  1  0.500000  0.164869  0.332093  1
  Pt  Pt15  1  0.000000  0.331623  0.666971  1
  Pt  Pt16  1  0.000000  0.000726  0.996558  1
  Pt  Pt17  1  0.000000  0.666788  0.334477  1
