# generated using pymatgen
data_Tb11Ce(TcIr)2
_symmetry_space_group_name_H-M   'P 1'
_cell_length_a   6.38219210
_cell_length_b   7.31738161
_cell_length_c   9.36081800
_cell_angle_alpha   90.00000000
_cell_angle_beta   90.00000000
_cell_angle_gamma   91.22323239
_symmetry_Int_Tables_number   1
_chemical_formula_structural   Tb11Ce(TcIr)2
_chemical_formula_sum   'Tb11 Ce1 Tc2 Ir2'
_cell_volume   437.05932986
_cell_formula_units_Z   1
loop_
 _symmetry_equiv_pos_site_id
 _symmetry_equiv_pos_as_xyz
  1  'x, y, z'
loop_
 _atom_site_type_symbol
 _atom_site_label
 _atom_site_symmetry_multiplicity
 _atom_site_fract_x
 _atom_site_fract_y
 _atom_site_fract_z
 _atom_site_occupancy
  Tb  Tb0  1  0.326359  0.673070  0.065982  1
  Tb  Tb1  1  0.169938  0.176701  0.433085  1
  Tb  Tb2  1  0.672043  0.324585  0.564477  1
  Tb  Tb3  1  0.827958  0.826030  0.934958  1
  Tb  Tb4  1  0.672043  0.324585  0.935523  1
  Tb  Tb5  1  0.827958  0.826030  0.565042  1
  Tb  Tb6  1  0.326359  0.673070  0.434018  1
  Tb  Tb7  1  0.169938  0.176701  0.066915  1
  Tb  Tb8  1  0.626754  0.036901  0.250000  1
  Tb  Tb9  1  0.140902  0.459205  0.750000  1
  Tb  Tb10  1  0.361327  0.961095  0.750000  1
  Ce  Ce11  1  0.851820  0.557849  0.250000  1
  Tc  Tc12  1  0.019401  0.861857  0.250000  1
  Tc  Tc13  1  0.506112  0.390976  0.250000  1
  Ir  Ir14  1  0.954542  0.115204  0.750000  1
  Ir  Ir15  1  0.546545  0.616137  0.750000  1
