# generated using pymatgen
data_LaPrZn2(AsO)2
_symmetry_space_group_name_H-M   'P 1'
_cell_length_a   4.10922000
_cell_length_b   4.10922000
_cell_length_c   9.13967400
_cell_angle_alpha   90.00000000
_cell_angle_beta   90.00000000
_cell_angle_gamma   90.00000000
_symmetry_Int_Tables_number   1
_chemical_formula_structural   LaPrZn2(AsO)2
_chemical_formula_sum   'La1 Pr1 Zn2 As2 O2'
_cell_volume   154.32969280
_cell_formula_units_Z   1
loop_
 _symmetry_equiv_pos_site_id
 _symmetry_equiv_pos_as_xyz
  1  'x, y, z'
loop_
 _atom_site_type_symbol
 _atom_site_label
 _atom_site_symmetry_multiplicity
 _atom_site_fract_x
 _atom_site_fract_y
 _atom_site_fract_z
 _atom_site_occupancy
  La  La0  1  0.500001  0.000000  0.131567  1
  Pr  Pr1  1  0.000000  0.500001  0.868210  1
  Zn  Zn2  1  0.000000  0.000000  0.499800  1
  Zn  Zn3  1  0.500001  0.500001  0.499800  1
  As  As4  1  0.000000  0.500001  0.328146  1
  As  As5  1  0.500001  0.000000  0.673571  1
  O  O6  1  0.000000  0.000000  0.999453  1
  O  O7  1  0.500001  0.500001  0.999453  1
