# generated using pymatgen
data_Na2Sm(P2Rh3)3
_symmetry_space_group_name_H-M   'P 1'
_cell_length_a   3.95600500
_cell_length_b   11.27011600
_cell_length_c   12.57667400
_cell_angle_alpha   90.00000000
_cell_angle_beta   90.00000000
_cell_angle_gamma   90.00000000
_symmetry_Int_Tables_number   1
_chemical_formula_structural   Na2Sm(P2Rh3)3
_chemical_formula_sum   'Na4 Sm2 P12 Rh18'
_cell_volume   560.72642291
_cell_formula_units_Z   2
loop_
 _symmetry_equiv_pos_site_id
 _symmetry_equiv_pos_as_xyz
  1  'x, y, z'
loop_
 _atom_site_type_symbol
 _atom_site_label
 _atom_site_symmetry_multiplicity
 _atom_site_fract_x
 _atom_site_fract_y
 _atom_site_fract_z
 _atom_site_occupancy
  Na  Na0  1  0.500000  0.818713  0.205176  1
  Na  Na1  1  0.500000  0.181287  0.205176  1
  Na  Na2  1  0.000000  0.681287  0.794824  1
  Na  Na3  1  0.000000  0.318713  0.794824  1
  Sm  Sm4  1  0.000000  0.500000  0.528092  1
  Sm  Sm5  1  0.500000  0.000000  0.471908  1
  P  P6  1  0.500000  0.500000  0.881319  1
  P  P7  1  0.000000  0.000000  0.118681  1
  P  P8  1  0.500000  0.500000  0.346883  1
  P  P9  1  0.000000  0.000000  0.653117  1
  P  P10  1  0.500000  0.310641  0.620394  1
  P  P11  1  0.500000  0.689359  0.620394  1
  P  P12  1  0.000000  0.189359  0.379606  1
  P  P13  1  0.000000  0.810641  0.379606  1
  P  P14  1  0.500000  0.846110  0.893372  1
  P  P15  1  0.500000  0.153890  0.893372  1
  P  P16  1  0.000000  0.653890  0.106628  1
  P  P17  1  0.000000  0.346110  0.106628  1
  Rh  Rh18  1  0.500000  0.500000  0.164954  1
  Rh  Rh19  1  0.000000  0.000000  0.835046  1
  Rh  Rh20  1  0.500000  0.500000  0.698056  1
  Rh  Rh21  1  0.000000  0.000000  0.301944  1
  Rh  Rh22  1  0.000000  0.500000  0.984344  1
  Rh  Rh23  1  0.500000  0.000000  0.015656  1
  Rh  Rh24  1  0.500000  0.332206  0.992530  1
  Rh  Rh25  1  0.500000  0.667794  0.992530  1
  Rh  Rh26  1  0.000000  0.167794  0.007470  1
  Rh  Rh27  1  0.000000  0.832206  0.007470  1
  Rh  Rh28  1  0.500000  0.292768  0.430285  1
  Rh  Rh29  1  0.500000  0.707232  0.430285  1
  Rh  Rh30  1  0.000000  0.207232  0.569715  1
  Rh  Rh31  1  0.000000  0.792768  0.569715  1
  Rh  Rh32  1  0.500000  0.874834  0.711138  1
  Rh  Rh33  1  0.500000  0.125166  0.711138  1
  Rh  Rh34  1  0.000000  0.625166  0.288862  1
  Rh  Rh35  1  0.000000  0.374834  0.288862  1
