# generated using pymatgen
data_La3Ni2Sn3Pt
_symmetry_space_group_name_H-M   'P 1'
_cell_length_a   7.60811000
_cell_length_b   7.60811004
_cell_length_c   4.13391700
_cell_angle_alpha   90.00000000
_cell_angle_beta   90.00000000
_cell_angle_gamma   120.00000100
_symmetry_Int_Tables_number   1
_chemical_formula_structural   La3Ni2Sn3Pt
_chemical_formula_sum   'La3 Ni2 Sn3 Pt1'
_cell_volume   207.22681320
_cell_formula_units_Z   1
loop_
 _symmetry_equiv_pos_site_id
 _symmetry_equiv_pos_as_xyz
  1  'x, y, z'
loop_
 _atom_site_type_symbol
 _atom_site_label
 _atom_site_symmetry_multiplicity
 _atom_site_fract_x
 _atom_site_fract_y
 _atom_site_fract_z
 _atom_site_occupancy
  La  La0  1  0.412785  0.415513  0.000000  1
  La  La1  1  0.584487  0.997272  0.000000  1
  La  La2  1  0.002728  0.587215  0.000000  1
  Ni  Ni3  1  0.333333  0.666667  0.500000  1
  Ni  Ni4  1  0.000000  0.000000  0.000000  1
  Sn  Sn5  1  0.005356  0.245406  0.500000  1
  Sn  Sn6  1  0.754594  0.759950  0.500000  1
  Sn  Sn7  1  0.240050  0.994644  0.500000  1
  Pt  Pt8  1  0.666667  0.333333  0.500000  1
