# generated using pymatgen
data_Tb4Pr16Si15Tc
_symmetry_space_group_name_H-M   'P 1'
_cell_length_a   7.89125245
_cell_length_b   7.85973325
_cell_length_c   15.15672845
_cell_angle_alpha   90.23822571
_cell_angle_beta   89.94528567
_cell_angle_gamma   89.99682113
_symmetry_Int_Tables_number   1
_chemical_formula_structural   Tb4Pr16Si15Tc
_chemical_formula_sum   'Tb4 Pr16 Si15 Tc1'
_cell_volume   940.05932416
_cell_formula_units_Z   1
loop_
 _symmetry_equiv_pos_site_id
 _symmetry_equiv_pos_as_xyz
  1  'x, y, z'
loop_
 _atom_site_type_symbol
 _atom_site_label
 _atom_site_symmetry_multiplicity
 _atom_site_fract_x
 _atom_site_fract_y
 _atom_site_fract_z
 _atom_site_occupancy
  Tb  Tb0  1  0.308840  0.307253  0.998364  1
  Tb  Tb1  1  0.189511  0.809981  0.250883  1
  Tb  Tb2  1  0.821784  0.190031  0.748236  1
  Tb  Tb3  1  0.693553  0.690088  0.502412  1
  Pr  Pr4  1  0.371067  0.012514  0.451730  1
  Pr  Pr5  1  0.485169  0.880397  0.697336  1
  Pr  Pr6  1  0.511315  0.124226  0.199350  1
  Pr  Pr7  1  0.876023  0.487883  0.301151  1
  Pr  Pr8  1  0.128442  0.501508  0.797477  1
  Pr  Pr9  1  0.626156  0.987775  0.948946  1
  Pr  Pr10  1  0.007892  0.377767  0.551201  1
  Pr  Pr11  1  0.988554  0.625541  0.050770  1
  Pr  Pr12  1  0.132066  0.982981  0.871637  1
  Pr  Pr13  1  0.518506  0.629631  0.127016  1
  Pr  Pr14  1  0.471297  0.361018  0.629828  1
  Pr  Pr15  1  0.628298  0.517458  0.874372  1
  Pr  Pr16  1  0.374746  0.481926  0.373261  1
  Pr  Pr17  1  0.873137  0.022364  0.376865  1
  Pr  Pr18  1  0.980687  0.127501  0.123890  1
  Pr  Pr19  1  0.026459  0.881116  0.627097  1
  Si  Si20  1  0.330970  0.690996  0.952964  1
  Si  Si21  1  0.665605  0.305055  0.453353  1
  Si  Si22  1  0.694009  0.331933  0.048329  1
  Si  Si23  1  0.306881  0.669226  0.545565  1
  Si  Si24  1  0.809163  0.830322  0.204847  1
  Si  Si25  1  0.170085  0.193305  0.296031  1
  Si  Si26  1  0.829516  0.805395  0.797888  1
  Si  Si27  1  0.287694  0.923149  0.060874  1
  Si  Si28  1  0.578818  0.786814  0.313097  1
  Si  Si29  1  0.423658  0.211453  0.814812  1
  Si  Si30  1  0.777264  0.582665  0.688661  1
  Si  Si31  1  0.212141  0.424014  0.187579  1
  Si  Si32  1  0.706926  0.073072  0.560561  1
  Si  Si33  1  0.922680  0.286721  0.938889  1
  Si  Si34  1  0.078001  0.716082  0.438219  1
  Tc  Tc35  1  0.193085  0.170836  0.696510  1
