# generated using pymatgen
data_Mn5NiAs3
_symmetry_space_group_name_H-M   'P 1'
_cell_length_a   3.45137600
_cell_length_b   6.34528934
_cell_length_c   6.34528869
_cell_angle_alpha   59.52590488
_cell_angle_beta   90.00000000
_cell_angle_gamma   90.00000000
_symmetry_Int_Tables_number   1
_chemical_formula_structural   Mn5NiAs3
_chemical_formula_sum   'Mn5 Ni1 As3'
_cell_volume   119.76532071
_cell_formula_units_Z   1
loop_
 _symmetry_equiv_pos_site_id
 _symmetry_equiv_pos_as_xyz
  1  'x, y, z'
loop_
 _atom_site_type_symbol
 _atom_site_label
 _atom_site_symmetry_multiplicity
 _atom_site_fract_x
 _atom_site_fract_y
 _atom_site_fract_z
 _atom_site_occupancy
  Mn  Mn0  1  0.500000  0.601778  0.398222  1
  Mn  Mn1  1  0.500000  0.400049  0.008955  1
  Mn  Mn2  1  0.500000  0.991045  0.599951  1
  Mn  Mn3  1  0.000000  0.744076  0.998138  1
  Mn  Mn4  1  0.000000  0.001862  0.255924  1
  Ni  Ni5  1  0.000000  0.260377  0.739623  1
  As  As6  1  0.000000  0.332522  0.336208  1
  As  As7  1  0.000000  0.663792  0.667478  1
  As  As8  1  0.500000  0.004400  0.995600  1
