# generated using pymatgen
data_Dy2Y3P12Ir9Ru10
_symmetry_space_group_name_H-M   'P 1'
_cell_length_a   12.62176222
_cell_length_b   12.58416517
_cell_length_c   3.96844800
_cell_angle_alpha   90.00000000
_cell_angle_beta   90.00000000
_cell_angle_gamma   119.81717803
_symmetry_Int_Tables_number   1
_chemical_formula_structural   Dy2Y3P12Ir9Ru10
_chemical_formula_sum   'Dy2 Y3 P12 Ir9 Ru10'
_cell_volume   546.88102904
_cell_formula_units_Z   1
loop_
 _symmetry_equiv_pos_site_id
 _symmetry_equiv_pos_as_xyz
  1  'x, y, z'
loop_
 _atom_site_type_symbol
 _atom_site_label
 _atom_site_symmetry_multiplicity
 _atom_site_fract_x
 _atom_site_fract_y
 _atom_site_fract_z
 _atom_site_occupancy
  Dy  Dy0  1  0.667524  0.332485  0.000000  1
  Dy  Dy1  1  0.333333  0.666621  0.000000  1
  Y  Y2  1  0.812595  0.000930  0.500000  1
  Y  Y3  1  0.185419  0.187457  0.500000  1
  Y  Y4  1  0.000206  0.813699  0.500000  1
  P  P5  1  0.631431  0.997518  0.000000  1
  P  P6  1  0.365044  0.371095  0.000000  1
  P  P7  1  0.006205  0.635015  0.000000  1
  P  P8  1  0.689647  0.519390  0.500000  1
  P  P9  1  0.829658  0.306617  0.500000  1
  P  P10  1  0.313008  0.830137  0.500000  1
  P  P11  1  0.517147  0.686862  0.500000  1
  P  P12  1  0.181153  0.001548  0.000000  1
  P  P13  1  0.818717  0.818890  0.000000  1
  P  P14  1  0.996443  0.181431  0.000000  1
  P  P15  1  0.480023  0.168032  0.500000  1
  P  P16  1  0.170156  0.483313  0.500000  1
  Ir  Ir17  1  0.623864  0.803981  0.000000  1
  Ir  Ir18  1  0.180758  0.376558  0.000000  1
  Ir  Ir19  1  0.374770  0.184669  0.000000  1
  Ir  Ir20  1  0.195859  0.820911  0.000000  1
  Ir  Ir21  1  0.809856  0.625042  0.000000  1
  Ir  Ir22  1  0.868667  0.505172  0.500000  1
  Ir  Ir23  1  0.493928  0.361473  0.500000  1
  Ir  Ir24  1  0.636520  0.128103  0.500000  1
  Ir  Ir25  1  0.999441  0.000227  0.000000  1
  Ru  Ru26  1  0.127328  0.639896  0.500000  1
  Ru  Ru27  1  0.361549  0.488189  0.500000  1
  Ru  Ru28  1  0.510488  0.870935  0.500000  1
  Ru  Ru29  1  0.714767  0.713176  0.500000  1
  Ru  Ru30  1  0.000838  0.286359  0.500000  1
  Ru  Ru31  1  0.450718  0.001431  0.000000  1
  Ru  Ru32  1  0.551402  0.547231  0.000000  1
  Ru  Ru33  1  0.998845  0.450045  0.000000  1
  Ru  Ru34  1  0.816351  0.193764  0.000000  1
  Ru  Ru35  1  0.286341  0.001800  0.500000  1
