# generated using pymatgen
data_CaDyUIr3
_symmetry_space_group_name_H-M   'P 1'
_cell_length_a   5.33843620
_cell_length_b   5.33843553
_cell_length_c   5.33843619
_cell_angle_alpha   65.91019622
_cell_angle_beta   65.91020772
_cell_angle_gamma   65.91019881
_symmetry_Int_Tables_number   1
_chemical_formula_structural   CaDyUIr3
_chemical_formula_sum   'Ca1 Dy1 U1 Ir3'
_cell_volume   121.34969446
_cell_formula_units_Z   1
loop_
 _symmetry_equiv_pos_site_id
 _symmetry_equiv_pos_as_xyz
  1  'x, y, z'
loop_
 _atom_site_type_symbol
 _atom_site_label
 _atom_site_symmetry_multiplicity
 _atom_site_fract_x
 _atom_site_fract_y
 _atom_site_fract_z
 _atom_site_occupancy
  Ca  Ca0  1  0.000244  0.000244  0.000244  1
  Dy  Dy1  1  0.249139  0.249139  0.249139  1
  U  U2  1  0.625929  0.625929  0.625929  1
  Ir  Ir3  1  0.125691  0.624498  0.624498  1
  Ir  Ir4  1  0.624498  0.125691  0.624498  1
  Ir  Ir5  1  0.624498  0.624498  0.125691  1
