# generated using pymatgen
data_Lu4Zn3Ga5
_symmetry_space_group_name_H-M   'P 1'
_cell_length_a   4.40477400
_cell_length_b   6.92878706
_cell_length_c   7.60046900
_cell_angle_alpha   89.99373661
_cell_angle_beta   90.00000000
_cell_angle_gamma   90.00000000
_symmetry_Int_Tables_number   1
_chemical_formula_structural   Lu4Zn3Ga5
_chemical_formula_sum   'Lu4 Zn3 Ga5'
_cell_volume   231.96434466
_cell_formula_units_Z   1
loop_
 _symmetry_equiv_pos_site_id
 _symmetry_equiv_pos_as_xyz
  1  'x, y, z'
loop_
 _atom_site_type_symbol
 _atom_site_label
 _atom_site_symmetry_multiplicity
 _atom_site_fract_x
 _atom_site_fract_y
 _atom_site_fract_z
 _atom_site_occupancy
  Lu  Lu0  1  0.500000  0.500349  0.747898  1
  Lu  Lu1  1  0.500000  0.994530  0.750066  1
  Lu  Lu2  1  0.000000  0.502253  0.251857  1
  Lu  Lu3  1  0.000000  0.996450  0.250621  1
  Zn  Zn4  1  0.500000  0.784903  0.416558  1
  Zn  Zn5  1  0.000000  0.781166  0.915590  1
  Zn  Zn6  1  0.000000  0.287715  0.582566  1
  Ga  Ga7  1  0.500000  0.722487  0.083174  1
  Ga  Ga8  1  0.500000  0.214275  0.420862  1
  Ga  Ga9  1  0.000000  0.213094  0.913909  1
  Ga  Ga10  1  0.000000  0.718368  0.582765  1
  Ga  Ga11  1  0.500000  0.284412  0.084135  1
