# generated using pymatgen
data_Y4Cu2IrPd
_symmetry_space_group_name_H-M   'P 1'
_cell_length_a   4.39225200
_cell_length_b   5.59990903
_cell_length_c   7.16330001
_cell_angle_alpha   90.06310311
_cell_angle_beta   90.00000000
_cell_angle_gamma   90.00000000
_symmetry_Int_Tables_number   1
_chemical_formula_structural   Y4Cu2IrPd
_chemical_formula_sum   'Y4 Cu2 Ir1 Pd1'
_cell_volume   176.18993640
_cell_formula_units_Z   1
loop_
 _symmetry_equiv_pos_site_id
 _symmetry_equiv_pos_as_xyz
  1  'x, y, z'
loop_
 _atom_site_type_symbol
 _atom_site_label
 _atom_site_symmetry_multiplicity
 _atom_site_fract_x
 _atom_site_fract_y
 _atom_site_fract_z
 _atom_site_occupancy
  Y  Y0  1  0.250000  0.368228  0.678184  1
  Y  Y1  1  0.250000  0.130234  0.185137  1
  Y  Y2  1  0.750000  0.641962  0.326509  1
  Y  Y3  1  0.750000  0.861172  0.808755  1
  Cu  Cu4  1  0.750000  0.135716  0.461080  1
  Cu  Cu5  1  0.750000  0.367093  0.966801  1
  Ir  Ir6  1  0.250000  0.864533  0.535585  1
  Pd  Pd7  1  0.250000  0.631061  0.037950  1
