# generated using pymatgen
data_RbSm2GdB24
_symmetry_space_group_name_H-M   'P 1'
_cell_length_a   7.17349589
_cell_length_b   7.17349508
_cell_length_c   5.89596600
_cell_angle_alpha   90.00000000
_cell_angle_beta   90.00000000
_cell_angle_gamma   109.26606793
_symmetry_Int_Tables_number   1
_chemical_formula_structural   RbSm2GdB24
_chemical_formula_sum   'Rb1 Sm2 Gd1 B24'
_cell_volume   286.40924004
_cell_formula_units_Z   1
loop_
 _symmetry_equiv_pos_site_id
 _symmetry_equiv_pos_as_xyz
  1  'x, y, z'
loop_
 _atom_site_type_symbol
 _atom_site_label
 _atom_site_symmetry_multiplicity
 _atom_site_fract_x
 _atom_site_fract_y
 _atom_site_fract_z
 _atom_site_occupancy
  Rb  Rb0  1  0.000030  0.999970  0.000000  1
  Sm  Sm1  1  0.499644  0.500356  0.000000  1
  Sm  Sm2  1  0.249077  0.750923  0.500000  1
  Gd  Gd3  1  0.751238  0.248762  0.500000  1
  B  B4  1  0.176791  0.327034  0.649213  1
  B  B5  1  0.923572  0.573748  0.148995  1
  B  B6  1  0.672966  0.823209  0.649213  1
  B  B7  1  0.426252  0.076428  0.148995  1
  B  B8  1  0.176791  0.327034  0.350787  1
  B  B9  1  0.923572  0.573748  0.851005  1
  B  B10  1  0.672966  0.823209  0.350787  1
  B  B11  1  0.426252  0.076428  0.851005  1
  B  B12  1  0.400912  0.400644  0.500000  1
  B  B13  1  0.148352  0.650987  0.000000  1
  B  B14  1  0.898245  0.898404  0.500000  1
  B  B15  1  0.650952  0.148473  0.000000  1
  B  B16  1  0.327101  0.176917  0.649257  1
  B  B17  1  0.076349  0.426082  0.148935  1
  B  B18  1  0.823083  0.672899  0.649257  1
  B  B19  1  0.573918  0.923651  0.148935  1
  B  B20  1  0.101596  0.101755  0.500000  1
  B  B21  1  0.851527  0.349048  0.000000  1
  B  B22  1  0.599356  0.599088  0.500000  1
  B  B23  1  0.349013  0.851648  0.000000  1
  B  B24  1  0.327101  0.176917  0.350743  1
  B  B25  1  0.076349  0.426082  0.851065  1
  B  B26  1  0.823083  0.672899  0.350743  1
  B  B27  1  0.573918  0.923651  0.851065  1
