# generated using pymatgen
data_Tm10AlSn3Bi2
_symmetry_space_group_name_H-M   'P 1'
_cell_length_a   6.43596600
_cell_length_b   8.88723016
_cell_length_c   8.83570000
_cell_angle_alpha   119.80786436
_cell_angle_beta   89.99951728
_cell_angle_gamma   90.00085979
_symmetry_Int_Tables_number   1
_chemical_formula_structural   Tm10AlSn3Bi2
_chemical_formula_sum   'Tm10 Al1 Sn3 Bi2'
_cell_volume   438.51993631
_cell_formula_units_Z   1
loop_
 _symmetry_equiv_pos_site_id
 _symmetry_equiv_pos_as_xyz
  1  'x, y, z'
loop_
 _atom_site_type_symbol
 _atom_site_label
 _atom_site_symmetry_multiplicity
 _atom_site_fract_x
 _atom_site_fract_y
 _atom_site_fract_z
 _atom_site_occupancy
  Tm  Tm0  1  0.498239  0.321172  0.665337  1
  Tm  Tm1  1  0.498237  0.678830  0.344168  1
  Tm  Tm2  1  0.001763  0.678833  0.344168  1
  Tm  Tm3  1  0.001759  0.321168  0.665335  1
  Tm  Tm4  1  0.749998  0.226356  0.984274  1
  Tm  Tm5  1  0.749997  0.773625  0.757906  1
  Tm  Tm6  1  0.749999  0.999994  0.241065  1
  Tm  Tm7  1  0.249997  0.762992  0.000589  1
  Tm  Tm8  1  0.249996  0.237019  0.237603  1
  Tm  Tm9  1  0.249998  0.000004  0.762999  1
  Al  Al10  1  0.749998  0.999998  0.597996  1
  Sn  Sn11  1  0.249995  0.396498  0.005472  1
  Sn  Sn12  1  0.250013  0.603513  0.608982  1
  Sn  Sn13  1  0.250016  0.000007  0.395009  1
  Bi  Bi14  1  0.749996  0.607633  0.998363  1
  Bi  Bi15  1  0.750000  0.392359  0.390730  1
