# generated using pymatgen
data_Yb4Dy5HoRu4
_symmetry_space_group_name_H-M   'P 1'
_cell_length_a   6.44138060
_cell_length_b   7.24397222
_cell_length_c   8.52909462
_cell_angle_alpha   97.08772024
_cell_angle_beta   112.18585606
_cell_angle_gamma   89.99999820
_symmetry_Int_Tables_number   1
_chemical_formula_structural   Yb4Dy5HoRu4
_chemical_formula_sum   'Yb4 Dy5 Ho1 Ru4'
_cell_volume   365.22644867
_cell_formula_units_Z   1
loop_
 _symmetry_equiv_pos_site_id
 _symmetry_equiv_pos_as_xyz
  1  'x, y, z'
loop_
 _atom_site_type_symbol
 _atom_site_label
 _atom_site_symmetry_multiplicity
 _atom_site_fract_x
 _atom_site_fract_y
 _atom_site_fract_z
 _atom_site_occupancy
  Yb  Yb0  1  0.978114  0.919261  0.182578  1
  Yb  Yb1  1  0.795536  0.580739  0.817422  1
  Yb  Yb2  1  0.021918  0.081160  0.817462  1
  Yb  Yb3  1  0.204456  0.418840  0.182538  1
  Dy  Dy4  1  0.636068  0.817409  0.434122  1
  Dy  Dy5  1  0.201947  0.682591  0.565878  1
  Dy  Dy6  1  0.363921  0.182753  0.566136  1
  Dy  Dy7  1  0.797784  0.317247  0.433864  1
  Dy  Dy8  1  0.430183  0.750000  0.000000  1
  Ho  Ho9  1  0.569640  0.250000  0.000000  1
  Ru  Ru10  1  0.815959  0.573768  0.230062  1
  Ru  Ru11  1  0.585897  0.926232  0.769938  1
  Ru  Ru12  1  0.184267  0.425658  0.769954  1
  Ru  Ru13  1  0.414313  0.074342  0.230046  1
