# generated using pymatgen
data_Hf3Nb2Ir3N
_symmetry_space_group_name_H-M   'P 1'
_cell_length_a   7.97695200
_cell_length_b   7.97695057
_cell_length_c   5.34249600
_cell_angle_alpha   90.00000000
_cell_angle_beta   90.00000000
_cell_angle_gamma   119.99999765
_symmetry_Int_Tables_number   1
_chemical_formula_structural   Hf3Nb2Ir3N
_chemical_formula_sum   'Hf6 Nb4 Ir6 N2'
_cell_volume   294.40740360
_cell_formula_units_Z   2
loop_
 _symmetry_equiv_pos_site_id
 _symmetry_equiv_pos_as_xyz
  1  'x, y, z'
loop_
 _atom_site_type_symbol
 _atom_site_label
 _atom_site_symmetry_multiplicity
 _atom_site_fract_x
 _atom_site_fract_y
 _atom_site_fract_z
 _atom_site_occupancy
  Hf  Hf0  1  0.232859  0.000000  0.250000  1
  Hf  Hf1  1  0.767141  0.000000  0.750000  1
  Hf  Hf2  1  0.000000  0.232859  0.250000  1
  Hf  Hf3  1  0.000000  0.767141  0.750000  1
  Hf  Hf4  1  0.767141  0.767141  0.250000  1
  Hf  Hf5  1  0.232859  0.232859  0.750000  1
  Nb  Nb6  1  0.333333  0.666667  0.000000  1
  Nb  Nb7  1  0.666667  0.333333  0.000000  1
  Nb  Nb8  1  0.666667  0.333333  0.500000  1
  Nb  Nb9  1  0.333333  0.666667  0.500000  1
  Ir  Ir10  1  0.588403  0.000000  0.250000  1
  Ir  Ir11  1  0.411597  0.000000  0.750000  1
  Ir  Ir12  1  0.000000  0.588403  0.250000  1
  Ir  Ir13  1  0.000000  0.411597  0.750000  1
  Ir  Ir14  1  0.411597  0.411597  0.250000  1
  Ir  Ir15  1  0.588403  0.588403  0.750000  1
  N  N16  1  0.000000  0.000000  0.000000  1
  N  N17  1  0.000000  0.000000  0.500000  1
