# generated using pymatgen
data_Ho2ErTm3MnSb2
_symmetry_space_group_name_H-M   'P 1'
_cell_length_a   8.09771311
_cell_length_b   8.09771374
_cell_length_c   4.21689800
_cell_angle_alpha   90.00000000
_cell_angle_beta   90.00000000
_cell_angle_gamma   120.01904340
_symmetry_Int_Tables_number   1
_chemical_formula_structural   Ho2ErTm3MnSb2
_chemical_formula_sum   'Ho2 Er1 Tm3 Mn1 Sb2'
_cell_volume   239.42261186
_cell_formula_units_Z   1
loop_
 _symmetry_equiv_pos_site_id
 _symmetry_equiv_pos_as_xyz
  1  'x, y, z'
loop_
 _atom_site_type_symbol
 _atom_site_label
 _atom_site_symmetry_multiplicity
 _atom_site_fract_x
 _atom_site_fract_y
 _atom_site_fract_z
 _atom_site_occupancy
  Ho  Ho0  1  0.603259  0.999956  0.000000  1
  Ho  Ho1  1  0.999956  0.603259  0.000000  1
  Er  Er2  1  0.396452  0.396452  0.000000  1
  Tm  Tm3  1  0.235002  0.000172  0.500000  1
  Tm  Tm4  1  0.000172  0.235002  0.500000  1
  Tm  Tm5  1  0.765026  0.765026  0.500000  1
  Mn  Mn6  1  0.000278  0.000278  0.000000  1
  Sb  Sb7  1  0.333359  0.666495  0.500000  1
  Sb  Sb8  1  0.666495  0.333359  0.500000  1
