# generated using pymatgen
data_Dy2YAl10(SiOs2)2
_symmetry_space_group_name_H-M   'P 1'
_cell_length_a   8.69405400
_cell_length_b   8.69405314
_cell_length_c   9.64517000
_cell_angle_alpha   90.00000000
_cell_angle_beta   90.00000000
_cell_angle_gamma   120.00200845
_symmetry_Int_Tables_number   1
_chemical_formula_structural   Dy2YAl10(SiOs2)2
_chemical_formula_sum   'Dy4 Y2 Al20 Si4 Os8'
_cell_volume   631.35896608
_cell_formula_units_Z   2
loop_
 _symmetry_equiv_pos_site_id
 _symmetry_equiv_pos_as_xyz
  1  'x, y, z'
loop_
 _atom_site_type_symbol
 _atom_site_label
 _atom_site_symmetry_multiplicity
 _atom_site_fract_x
 _atom_site_fract_y
 _atom_site_fract_z
 _atom_site_occupancy
  Dy  Dy0  1  0.195546  0.391077  0.250000  1
  Dy  Dy1  1  0.804454  0.608923  0.750000  1
  Dy  Dy2  1  0.608923  0.804454  0.250000  1
  Dy  Dy3  1  0.391077  0.195546  0.750000  1
  Y  Y4  1  0.195550  0.804450  0.250000  1
  Y  Y5  1  0.804450  0.195550  0.750000  1
  Al  Al6  1  0.164942  0.329860  0.576975  1
  Al  Al7  1  0.835058  0.670140  0.423025  1
  Al  Al8  1  0.670140  0.835058  0.576975  1
  Al  Al9  1  0.835058  0.670140  0.076975  1
  Al  Al10  1  0.329860  0.164942  0.423025  1
  Al  Al11  1  0.164942  0.329860  0.923025  1
  Al  Al12  1  0.164924  0.835076  0.577011  1
  Al  Al13  1  0.329860  0.164942  0.076975  1
  Al  Al14  1  0.835076  0.164924  0.422989  1
  Al  Al15  1  0.670140  0.835058  0.923025  1
  Al  Al16  1  0.835076  0.164924  0.077011  1
  Al  Al17  1  0.164924  0.835076  0.922989  1
  Al  Al18  1  0.563795  0.127556  0.250000  1
  Al  Al19  1  0.436205  0.872444  0.750000  1
  Al  Al20  1  0.872444  0.436205  0.250000  1
  Al  Al21  1  0.127556  0.563795  0.750000  1
  Al  Al22  1  0.563771  0.436229  0.250000  1
  Al  Al23  1  0.436229  0.563771  0.750000  1
  Al  Al24  1  0.999969  0.000031  0.250000  1
  Al  Al25  1  0.000031  0.999969  0.750000  1
  Si  Si26  1  0.333343  0.666657  0.036649  1
  Si  Si27  1  0.666657  0.333343  0.963351  1
  Si  Si28  1  0.666657  0.333343  0.536649  1
  Si  Si29  1  0.333343  0.666657  0.463351  1
  Os  Os30  1  0.500000  0.000000  0.000000  1
  Os  Os31  1  0.000000  0.500000  0.000000  1
  Os  Os32  1  0.500000  0.000000  0.500000  1
  Os  Os33  1  0.500000  0.500000  0.000000  1
  Os  Os34  1  0.000000  0.500000  0.500000  1
  Os  Os35  1  0.500000  0.500000  0.500000  1
  Os  Os36  1  0.000000  0.000000  0.000000  1
  Os  Os37  1  0.000000  0.000000  0.500000  1
