# generated using pymatgen
data_ScTiCo4As3
_symmetry_space_group_name_H-M   'P 1'
_cell_length_a   3.71744100
_cell_length_b   10.73676500
_cell_length_c   12.31627200
_cell_angle_alpha   90.00000000
_cell_angle_beta   90.00000000
_cell_angle_gamma   90.00000000
_symmetry_Int_Tables_number   1
_chemical_formula_structural   ScTiCo4As3
_chemical_formula_sum   'Sc4 Ti4 Co16 As12'
_cell_volume   491.58294121
_cell_formula_units_Z   4
loop_
 _symmetry_equiv_pos_site_id
 _symmetry_equiv_pos_as_xyz
  1  'x, y, z'
loop_
 _atom_site_type_symbol
 _atom_site_label
 _atom_site_symmetry_multiplicity
 _atom_site_fract_x
 _atom_site_fract_y
 _atom_site_fract_z
 _atom_site_occupancy
  Sc  Sc0  1  0.250000  0.578628  0.707809  1
  Sc  Sc1  1  0.250000  0.921372  0.207809  1
  Sc  Sc2  1  0.750000  0.421372  0.292191  1
  Sc  Sc3  1  0.750000  0.078628  0.792191  1
  Ti  Ti4  1  0.250000  0.701654  0.990835  1
  Ti  Ti5  1  0.250000  0.798346  0.490835  1
  Ti  Ti6  1  0.750000  0.298346  0.009165  1
  Ti  Ti7  1  0.750000  0.201654  0.509165  1
  Co  Co8  1  0.250000  0.405388  0.487448  1
  Co  Co9  1  0.250000  0.094612  0.987448  1
  Co  Co10  1  0.750000  0.594612  0.512552  1
  Co  Co11  1  0.750000  0.905388  0.012552  1
  Co  Co12  1  0.250000  0.216943  0.175141  1
  Co  Co13  1  0.250000  0.283058  0.675141  1
  Co  Co14  1  0.750000  0.783058  0.824859  1
  Co  Co15  1  0.750000  0.716942  0.324859  1
  Co  Co16  1  0.250000  0.884559  0.699157  1
  Co  Co17  1  0.250000  0.615441  0.199157  1
  Co  Co18  1  0.750000  0.115441  0.300843  1
  Co  Co19  1  0.750000  0.384559  0.800843  1
  Co  Co20  1  0.250000  0.462905  0.933418  1
  Co  Co21  1  0.250000  0.037095  0.433418  1
  Co  Co22  1  0.750000  0.537095  0.066582  1
  Co  Co23  1  0.750000  0.962905  0.566582  1
  As  As24  1  0.250000  0.419588  0.120386  1
  As  As25  1  0.250000  0.080412  0.620386  1
  As  As26  1  0.750000  0.580412  0.879614  1
  As  As27  1  0.750000  0.919588  0.379614  1
  As  As28  1  0.250000  0.260838  0.861576  1
  As  As29  1  0.250000  0.239162  0.361576  1
  As  As30  1  0.750000  0.739162  0.138424  1
  As  As31  1  0.750000  0.760838  0.638424  1
  As  As32  1  0.250000  0.589299  0.387788  1
  As  As33  1  0.250000  0.910701  0.887788  1
  As  As34  1  0.750000  0.410701  0.612212  1
  As  As35  1  0.750000  0.089299  0.112212  1
