# generated using pymatgen
data_La19Yb(CoSb2)4
_symmetry_space_group_name_H-M   'P 1'
_cell_length_a   8.38284011
_cell_length_b   9.14854510
_cell_length_c   12.81981065
_cell_angle_alpha   90.08229165
_cell_angle_beta   90.18420312
_cell_angle_gamma   89.86089764
_symmetry_Int_Tables_number   1
_chemical_formula_structural   La19Yb(CoSb2)4
_chemical_formula_sum   'La19 Yb1 Co4 Sb8'
_cell_volume   983.15243593
_cell_formula_units_Z   1
loop_
 _symmetry_equiv_pos_site_id
 _symmetry_equiv_pos_as_xyz
  1  'x, y, z'
loop_
 _atom_site_type_symbol
 _atom_site_label
 _atom_site_symmetry_multiplicity
 _atom_site_fract_x
 _atom_site_fract_y
 _atom_site_fract_z
 _atom_site_occupancy
  La  La0  1  0.144858  0.751233  0.198016  1
  La  La1  1  0.646436  0.249314  0.299201  1
  La  La2  1  0.853734  0.250134  0.802875  1
  La  La3  1  0.352107  0.749114  0.700572  1
  La  La4  1  0.448137  0.750345  0.993978  1
  La  La5  1  0.947815  0.250176  0.505513  1
  La  La6  1  0.554000  0.246605  0.003701  1
  La  La7  1  0.051921  0.749851  0.495366  1
  La  La8  1  0.622076  0.748897  0.305829  1
  La  La9  1  0.119526  0.251090  0.190697  1
  La  La10  1  0.376383  0.252170  0.693582  1
  La  La11  1  0.877203  0.752536  0.810991  1
  La  La12  1  0.314945  0.032698  0.435216  1
  La  La13  1  0.188139  0.466613  0.936132  1
  La  La14  1  0.683354  0.533642  0.563571  1
  La  La15  1  0.179811  0.034491  0.938013  1
  La  La16  1  0.685678  0.967263  0.564725  1
  La  La17  1  0.817835  0.529286  0.063143  1
  La  La18  1  0.316339  0.467120  0.436756  1
  Yb  Yb19  1  0.818703  0.961790  0.069613  1
  Co  Co20  1  0.424907  0.752759  0.489439  1
  Co  Co21  1  0.927660  0.260234  0.006430  1
  Co  Co22  1  0.576368  0.247423  0.509731  1
  Co  Co23  1  0.080944  0.745190  0.988900  1
  Sb  Sb24  1  0.924289  0.994547  0.326233  1
  Sb  Sb25  1  0.423083  0.005216  0.172309  1
  Sb  Sb26  1  0.072556  0.495891  0.674781  1
  Sb  Sb27  1  0.576179  0.505081  0.826064  1
  Sb  Sb28  1  0.074934  0.004995  0.675036  1
  Sb  Sb29  1  0.571164  0.995256  0.824820  1
  Sb  Sb30  1  0.925102  0.505048  0.325946  1
  Sb  Sb31  1  0.423816  0.493992  0.172820  1
