# generated using pymatgen
data_CuB2Ir2Pt
_symmetry_space_group_name_H-M   'P 1'
_cell_length_a   6.70463045
_cell_length_b   6.05764638
_cell_length_c   5.55420198
_cell_angle_alpha   70.38249990
_cell_angle_beta   58.32694302
_cell_angle_gamma   50.78943237
_symmetry_Int_Tables_number   1
_chemical_formula_structural   CuB2Ir2Pt
_chemical_formula_sum   'Cu2 B4 Ir4 Pt2'
_cell_volume   148.75024056
_cell_formula_units_Z   2
loop_
 _symmetry_equiv_pos_site_id
 _symmetry_equiv_pos_as_xyz
  1  'x, y, z'
loop_
 _atom_site_type_symbol
 _atom_site_label
 _atom_site_symmetry_multiplicity
 _atom_site_fract_x
 _atom_site_fract_y
 _atom_site_fract_z
 _atom_site_occupancy
  Cu  Cu0  1  0.863036  0.367397  0.305501  1
  Cu  Cu1  1  0.882603  0.386964  0.785933  1
  B  B2  1  0.057244  0.974888  0.560615  1
  B  B3  1  0.680519  0.862708  0.200346  1
  B  B4  1  0.387292  0.569481  0.993572  1
  B  B5  1  0.275112  0.192756  0.842747  1
  Ir  Ir6  1  0.094522  0.626077  0.872711  1
  Ir  Ir7  1  0.384027  0.856235  0.147811  1
  Ir  Ir8  1  0.623923  0.155478  0.843311  1
  Ir  Ir9  1  0.393765  0.865973  0.638074  1
  Pt  Pt10  1  0.942703  0.779546  0.390963  1
  Pt  Pt11  1  0.470454  0.307297  0.363213  1
