# generated using pymatgen
data_SmLu3(CuSi3)2
_symmetry_space_group_name_H-M   'P 1'
_cell_length_a   7.92645300
_cell_length_b   7.92645404
_cell_length_c   7.89687100
_cell_angle_alpha   90.00000000
_cell_angle_beta   90.00000000
_cell_angle_gamma   120.00000816
_symmetry_Int_Tables_number   1
_chemical_formula_structural   SmLu3(CuSi3)2
_chemical_formula_sum   'Sm2 Lu6 Cu4 Si12'
_cell_volume   429.67835278
_cell_formula_units_Z   2
loop_
 _symmetry_equiv_pos_site_id
 _symmetry_equiv_pos_as_xyz
  1  'x, y, z'
loop_
 _atom_site_type_symbol
 _atom_site_label
 _atom_site_symmetry_multiplicity
 _atom_site_fract_x
 _atom_site_fract_y
 _atom_site_fract_z
 _atom_site_occupancy
  Sm  Sm0  1  0.000000  0.000000  0.750000  1
  Sm  Sm1  1  0.000000  0.000000  0.250000  1
  Lu  Lu2  1  0.997323  0.498661  0.250000  1
  Lu  Lu3  1  0.501339  0.498661  0.250000  1
  Lu  Lu4  1  0.498661  0.997323  0.750000  1
  Lu  Lu5  1  0.002677  0.501339  0.750000  1
  Lu  Lu6  1  0.498661  0.501339  0.750000  1
  Lu  Lu7  1  0.501339  0.002677  0.250000  1
  Cu  Cu8  1  0.333333  0.666667  0.004982  1
  Cu  Cu9  1  0.666667  0.333333  0.995018  1
  Cu  Cu10  1  0.666667  0.333333  0.504982  1
  Cu  Cu11  1  0.333333  0.666667  0.495018  1
  Si  Si12  1  0.170339  0.829661  0.499705  1
  Si  Si13  1  0.170339  0.340677  0.499705  1
  Si  Si14  1  0.659323  0.829661  0.499705  1
  Si  Si15  1  0.340677  0.170339  0.999705  1
  Si  Si16  1  0.829661  0.659323  0.500295  1
  Si  Si17  1  0.829661  0.170339  0.999705  1
  Si  Si18  1  0.829661  0.659323  0.999705  1
  Si  Si19  1  0.170339  0.340677  0.000295  1
  Si  Si20  1  0.659323  0.829661  0.000295  1
  Si  Si21  1  0.340677  0.170339  0.500295  1
  Si  Si22  1  0.829661  0.170339  0.500295  1
  Si  Si23  1  0.170339  0.829661  0.000295  1
