# generated using pymatgen
data_Hf6Al7(Cu3Au)4
_symmetry_space_group_name_H-M   'P 1'
_cell_length_a   8.53189260
_cell_length_b   8.53173610
_cell_length_c   8.53194726
_cell_angle_alpha   60.11052073
_cell_angle_beta   60.11500380
_cell_angle_gamma   60.11289143
_symmetry_Int_Tables_number   1
_chemical_formula_structural   Hf6Al7(Cu3Au)4
_chemical_formula_sum   'Hf6 Al7 Cu12 Au4'
_cell_volume   440.27547084
_cell_formula_units_Z   1
loop_
 _symmetry_equiv_pos_site_id
 _symmetry_equiv_pos_as_xyz
  1  'x, y, z'
loop_
 _atom_site_type_symbol
 _atom_site_label
 _atom_site_symmetry_multiplicity
 _atom_site_fract_x
 _atom_site_fract_y
 _atom_site_fract_z
 _atom_site_occupancy
  Hf  Hf0  1  0.698779  0.698782  0.301239  1
  Hf  Hf1  1  0.301236  0.698756  0.301227  1
  Hf  Hf2  1  0.698770  0.301213  0.301217  1
  Hf  Hf3  1  0.301227  0.301219  0.698762  1
  Hf  Hf4  1  0.698774  0.301245  0.698773  1
  Hf  Hf5  1  0.301239  0.698785  0.698781  1
  Al  Al6  1  0.000019  0.000030  0.000051  1
  Al  Al7  1  0.002708  0.002721  0.497251  1
  Al  Al8  1  0.497384  0.002722  0.497385  1
  Al  Al9  1  0.002765  0.497371  0.497361  1
  Al  Al10  1  0.497377  0.497365  0.002752  1
  Al  Al11  1  0.002703  0.497262  0.002718  1
  Al  Al12  1  0.497253  0.002714  0.002720  1
  Cu  Cu13  1  0.122019  0.122055  0.633673  1
  Cu  Cu14  1  0.122089  0.633644  0.122029  1
  Cu  Cu15  1  0.633679  0.122044  0.122018  1
  Cu  Cu16  1  0.122141  0.122135  0.122118  1
  Cu  Cu17  1  0.665394  0.665407  0.003950  1
  Cu  Cu18  1  0.665405  0.003947  0.665411  1
  Cu  Cu19  1  0.003943  0.665422  0.665408  1
  Cu  Cu20  1  0.665334  0.665367  0.665368  1
  Cu  Cu21  1  0.331189  0.331199  0.006398  1
  Cu  Cu22  1  0.331187  0.006413  0.331199  1
  Cu  Cu23  1  0.006388  0.331203  0.331195  1
  Cu  Cu24  1  0.331186  0.331164  0.331178  1
  Au  Au25  1  0.881995  0.881976  0.353956  1
  Au  Au26  1  0.881989  0.353964  0.881976  1
  Au  Au27  1  0.353942  0.881988  0.881997  1
  Au  Au28  1  0.881886  0.881885  0.881889  1
