# generated using pymatgen
data_Ba3FeP6Os5
_symmetry_space_group_name_H-M   'P 1'
_cell_length_a   8.87038120
_cell_length_b   8.86620925
_cell_length_c   8.86621131
_cell_angle_alpha   153.61050013
_cell_angle_beta   91.76689234
_cell_angle_gamma   94.20496652
_symmetry_Int_Tables_number   1
_chemical_formula_structural   Ba3FeP6Os5
_chemical_formula_sum   'Ba3 Fe1 P6 Os5'
_cell_volume   301.67850765
_cell_formula_units_Z   1
loop_
 _symmetry_equiv_pos_site_id
 _symmetry_equiv_pos_as_xyz
  1  'x, y, z'
loop_
 _atom_site_type_symbol
 _atom_site_label
 _atom_site_symmetry_multiplicity
 _atom_site_fract_x
 _atom_site_fract_y
 _atom_site_fract_z
 _atom_site_occupancy
  Ba  Ba0  1  0.333227  0.333595  0.999632  1
  Ba  Ba1  1  0.665817  0.666794  0.999023  1
  Ba  Ba2  1  0.999238  0.999575  0.999663  1
  Fe  Fe3  1  0.922687  0.166699  0.755987  1
  P  P4  1  0.320121  0.666555  0.653566  1
  P  P5  1  0.678886  0.335279  0.343607  1
  P  P6  1  0.981645  0.324356  0.657289  1
  P  P7  1  0.342012  0.998054  0.343958  1
  P  P8  1  0.012818  0.666554  0.346264  1
  P  P9  1  0.666262  0.009252  0.657010  1
  Os  Os10  1  0.584179  0.836626  0.747552  1
  Os  Os11  1  0.244728  0.496763  0.747965  1
  Os  Os12  1  0.754394  0.504725  0.249667  1
  Os  Os13  1  0.078607  0.828574  0.250033  1
  Os  Os14  1  0.415381  0.166598  0.248784  1
