# generated using pymatgen
data_Tb2Nb3As7Rh9
_symmetry_space_group_name_H-M   'P 1'
_cell_length_a   4.01666400
_cell_length_b   9.96539908
_cell_length_c   9.96552522
_cell_angle_alpha   119.99536456
_cell_angle_beta   90.00082391
_cell_angle_gamma   89.99788957
_symmetry_Int_Tables_number   1
_chemical_formula_structural   Tb2Nb3As7Rh9
_chemical_formula_sum   'Tb2 Nb3 As7 Rh9'
_cell_volume   345.47076932
_cell_formula_units_Z   1
loop_
 _symmetry_equiv_pos_site_id
 _symmetry_equiv_pos_as_xyz
  1  'x, y, z'
loop_
 _atom_site_type_symbol
 _atom_site_label
 _atom_site_symmetry_multiplicity
 _atom_site_fract_x
 _atom_site_fract_y
 _atom_site_fract_z
 _atom_site_occupancy
  Tb  Tb0  1  0.261336  0.666684  0.333416  1
  Tb  Tb1  1  0.761985  0.333327  0.666641  1
  Nb  Nb2  1  0.762049  0.096257  0.876049  1
  Nb  Nb3  1  0.762066  0.124022  0.220208  1
  Nb  Nb4  1  0.762080  0.779713  0.903781  1
  As  As5  1  0.262400  0.999964  0.000014  1
  As  As6  1  0.761820  0.877596  0.588717  1
  As  As7  1  0.761821  0.411271  0.288805  1
  As  As8  1  0.761847  0.711161  0.122448  1
  As  As9  1  0.261870  0.117508  0.416494  1
  As  As10  1  0.261879  0.583523  0.701009  1
  As  As11  1  0.261867  0.299000  0.882499  1
  Rh  Rh12  1  0.261874  0.881788  0.161221  1
  Rh  Rh13  1  0.261867  0.838733  0.720533  1
  Rh  Rh14  1  0.261882  0.279460  0.118224  1
  Rh  Rh15  1  0.761895  0.612234  0.560487  1
  Rh  Rh16  1  0.761885  0.439462  0.051687  1
  Rh  Rh17  1  0.761912  0.948361  0.387845  1
  Rh  Rh18  1  0.261889  0.368356  0.436330  1
  Rh  Rh19  1  0.261886  0.563561  0.931961  1
  Rh  Rh20  1  0.261890  0.068021  0.631627  1
