# generated using pymatgen
data_HfZr9Al2Sn5Sb
_symmetry_space_group_name_H-M   'P 1'
_cell_length_a   8.74407142
_cell_length_b   8.75613262
_cell_length_c   5.87817603
_cell_angle_alpha   89.99080505
_cell_angle_beta   89.99773388
_cell_angle_gamma   120.06720870
_symmetry_Int_Tables_number   1
_chemical_formula_structural   HfZr9Al2Sn5Sb
_chemical_formula_sum   'Hf1 Zr9 Al2 Sn5 Sb1'
_cell_volume   389.49753781
_cell_formula_units_Z   1
loop_
 _symmetry_equiv_pos_site_id
 _symmetry_equiv_pos_as_xyz
  1  'x, y, z'
loop_
 _atom_site_type_symbol
 _atom_site_label
 _atom_site_symmetry_multiplicity
 _atom_site_fract_x
 _atom_site_fract_y
 _atom_site_fract_z
 _atom_site_occupancy
  Hf  Hf0  1  0.667278  0.333378  0.999488  1
  Zr  Zr1  1  0.729937  0.729040  0.749736  1
  Zr  Zr2  1  0.270376  0.999707  0.749726  1
  Zr  Zr3  1  0.999714  0.270789  0.749904  1
  Zr  Zr4  1  0.268926  0.270121  0.250178  1
  Zr  Zr5  1  0.731483  0.001902  0.250199  1
  Zr  Zr6  1  0.999698  0.728693  0.250356  1
  Zr  Zr7  1  0.332454  0.665884  0.999624  1
  Zr  Zr8  1  0.332504  0.665935  0.500387  1
  Zr  Zr9  1  0.667629  0.333440  0.500327  1
  Al  Al10  1  0.999983  0.999225  0.999098  1
  Al  Al11  1  0.999992  0.999226  0.500901  1
  Sn  Sn12  1  0.386672  0.385479  0.750279  1
  Sn  Sn13  1  0.613729  0.999587  0.750323  1
  Sn  Sn14  1  0.999576  0.614800  0.750312  1
  Sn  Sn15  1  0.614335  0.614116  0.249734  1
  Sn  Sn16  1  0.386102  0.000599  0.249727  1
  Sb  Sb17  1  0.999613  0.388077  0.249701  1
