# generated using pymatgen
data_LaNd5Zn4IrPd12
_symmetry_space_group_name_H-M   'P 1'
_cell_length_a   8.39036399
_cell_length_b   8.39036479
_cell_length_c   8.39036514
_cell_angle_alpha   109.33112628
_cell_angle_beta   109.33113316
_cell_angle_gamma   109.75176662
_symmetry_Int_Tables_number   1
_chemical_formula_structural   LaNd5Zn4IrPd12
_chemical_formula_sum   'La1 Nd5 Zn4 Ir1 Pd12'
_cell_volume   454.68728021
_cell_formula_units_Z   1
loop_
 _symmetry_equiv_pos_site_id
 _symmetry_equiv_pos_as_xyz
  1  'x, y, z'
loop_
 _atom_site_type_symbol
 _atom_site_label
 _atom_site_symmetry_multiplicity
 _atom_site_fract_x
 _atom_site_fract_y
 _atom_site_fract_z
 _atom_site_occupancy
  La  La0  1  0.705260  0.705260  0.000000  1
  Nd  Nd1  1  0.298752  0.000516  0.298235  1
  Nd  Nd2  1  0.000516  0.298752  0.298235  1
  Nd  Nd3  1  0.295706  0.295706  0.000000  1
  Nd  Nd4  1  0.702281  0.000516  0.701765  1
  Nd  Nd5  1  0.000516  0.702281  0.701765  1
  Zn  Zn6  1  0.000717  0.000717  0.502354  1
  Zn  Zn7  1  0.000717  0.498363  0.000000  1
  Zn  Zn8  1  0.498363  0.000717  0.000000  1
  Zn  Zn9  1  0.498363  0.498363  0.497646  1
  Ir  Ir10  1  0.999251  0.999251  0.000000  1
  Pd  Pd11  1  0.331799  0.331799  0.663651  1
  Pd  Pd12  1  0.667657  0.000397  0.332739  1
  Pd  Pd13  1  0.000397  0.667657  0.332739  1
  Pd  Pd14  1  0.668148  0.331799  0.000000  1
  Pd  Pd15  1  0.332258  0.664294  0.332035  1
  Pd  Pd16  1  0.000223  0.332258  0.667965  1
  Pd  Pd17  1  0.331799  0.668148  0.000000  1
  Pd  Pd18  1  0.332258  0.000223  0.667965  1
  Pd  Pd19  1  0.664294  0.332258  0.332035  1
  Pd  Pd20  1  0.668148  0.668148  0.336349  1
  Pd  Pd21  1  0.667657  0.334918  0.667261  1
  Pd  Pd22  1  0.334918  0.667657  0.667261  1
