# generated using pymatgen
data_Cs4K2SmInAs4
_symmetry_space_group_name_H-M   'P 1'
_cell_length_a   9.96671581
_cell_length_b   9.96671555
_cell_length_c   9.96671550
_cell_angle_alpha   133.41154667
_cell_angle_beta   138.10651061
_cell_angle_gamma   64.42950542
_symmetry_Int_Tables_number   1
_chemical_formula_structural   Cs4K2SmInAs4
_chemical_formula_sum   'Cs4 K2 Sm1 In1 As4'
_cell_volume   473.68125399
_cell_formula_units_Z   1
loop_
 _symmetry_equiv_pos_site_id
 _symmetry_equiv_pos_as_xyz
  1  'x, y, z'
loop_
 _atom_site_type_symbol
 _atom_site_label
 _atom_site_symmetry_multiplicity
 _atom_site_fract_x
 _atom_site_fract_y
 _atom_site_fract_z
 _atom_site_occupancy
  Cs  Cs0  1  0.688506  0.438821  0.767110  1
  Cs  Cs1  1  0.811494  0.078604  0.250316  1
  Cs  Cs2  1  0.171711  0.921396  0.732890  1
  Cs  Cs3  1  0.328289  0.561179  0.249684  1
  K  K4  1  0.750000  0.000000  0.750000  1
  K  K5  1  0.250000  0.000000  0.250000  1
  Sm  Sm6  1  0.250000  0.500000  0.750000  1
  In  In7  1  0.750000  0.500000  0.250000  1
  As  As8  1  0.415279  0.207921  0.812133  1
  As  As9  1  0.604212  0.792079  0.207359  1
  As  As10  1  0.084721  0.396856  0.292641  1
  As  As11  1  0.895788  0.603144  0.687867  1
