# generated using pymatgen
data_LaCeNd14(CdIr)4
_symmetry_space_group_name_H-M   'P 1'
_cell_length_a   9.96501906
_cell_length_b   9.96501979
_cell_length_c   9.98462975
_cell_angle_alpha   59.63212960
_cell_angle_beta   59.63212770
_cell_angle_gamma   59.66324120
_symmetry_Int_Tables_number   1
_chemical_formula_structural   LaCeNd14(CdIr)4
_chemical_formula_sum   'La1 Ce1 Nd14 Cd4 Ir4'
_cell_volume   695.39377678
_cell_formula_units_Z   1
loop_
 _symmetry_equiv_pos_site_id
 _symmetry_equiv_pos_as_xyz
  1  'x, y, z'
loop_
 _atom_site_type_symbol
 _atom_site_label
 _atom_site_symmetry_multiplicity
 _atom_site_fract_x
 _atom_site_fract_y
 _atom_site_fract_z
 _atom_site_occupancy
  La  La0  1  0.348408  0.348408  0.955718  1
  Ce  Ce1  1  0.343233  0.343233  0.344670  1
  Nd  Nd2  1  0.349978  0.950795  0.350599  1
  Nd  Nd3  1  0.950795  0.349978  0.350599  1
  Nd  Nd4  1  0.810918  0.189906  0.189809  1
  Nd  Nd5  1  0.188953  0.809827  0.808929  1
  Nd  Nd6  1  0.189906  0.810918  0.189809  1
  Nd  Nd7  1  0.809827  0.188953  0.808929  1
  Nd  Nd8  1  0.189677  0.189677  0.809985  1
  Nd  Nd9  1  0.809033  0.809033  0.188792  1
  Nd  Nd10  1  0.942832  0.561542  0.560769  1
  Nd  Nd11  1  0.559236  0.938475  0.938147  1
  Nd  Nd12  1  0.561542  0.942832  0.560769  1
  Nd  Nd13  1  0.938475  0.559236  0.938147  1
  Nd  Nd14  1  0.561926  0.561926  0.941914  1
  Nd  Nd15  1  0.939059  0.939059  0.559114  1
  Cd  Cd16  1  0.581032  0.581032  0.579660  1
  Cd  Cd17  1  0.578185  0.578185  0.259644  1
  Cd  Cd18  1  0.578237  0.260111  0.576882  1
  Cd  Cd19  1  0.260111  0.578237  0.576882  1
  Ir  Ir20  1  0.142588  0.142588  0.142539  1
  Ir  Ir21  1  0.147108  0.147108  0.571418  1
  Ir  Ir22  1  0.147213  0.571724  0.148136  1
  Ir  Ir23  1  0.571724  0.147213  0.148136  1
