# generated using pymatgen
data_Gd3Zn3CuPdRu
_symmetry_space_group_name_H-M   'P 1'
_cell_length_a   7.24872700
_cell_length_b   7.24872785
_cell_length_c   3.82724400
_cell_angle_alpha   90.00000000
_cell_angle_beta   90.00000000
_cell_angle_gamma   119.99999155
_symmetry_Int_Tables_number   1
_chemical_formula_structural   Gd3Zn3CuPdRu
_chemical_formula_sum   'Gd3 Zn3 Cu1 Pd1 Ru1'
_cell_volume   174.15676867
_cell_formula_units_Z   1
loop_
 _symmetry_equiv_pos_site_id
 _symmetry_equiv_pos_as_xyz
  1  'x, y, z'
loop_
 _atom_site_type_symbol
 _atom_site_label
 _atom_site_symmetry_multiplicity
 _atom_site_fract_x
 _atom_site_fract_y
 _atom_site_fract_z
 _atom_site_occupancy
  Gd  Gd0  1  0.012305  0.414630  0.000000  1
  Gd  Gd1  1  0.585370  0.597675  0.000000  1
  Gd  Gd2  1  0.402325  0.987695  0.000000  1
  Zn  Zn3  1  0.003272  0.751289  0.500000  1
  Zn  Zn4  1  0.248711  0.251983  0.500000  1
  Zn  Zn5  1  0.748017  0.996728  0.500000  1
  Cu  Cu6  1  0.000000  0.000000  0.000000  1
  Pd  Pd7  1  0.666667  0.333333  0.500000  1
  Ru  Ru8  1  0.333333  0.666667  0.500000  1
