# generated using pymatgen
data_DyTh2(GaRh)3
_symmetry_space_group_name_H-M   'P 1'
_cell_length_a   7.30954023
_cell_length_b   7.25437075
_cell_length_c   3.96313700
_cell_angle_alpha   90.00000000
_cell_angle_beta   90.00000000
_cell_angle_gamma   119.75064676
_symmetry_Int_Tables_number   1
_chemical_formula_structural   DyTh2(GaRh)3
_chemical_formula_sum   'Dy1 Th2 Ga3 Rh3'
_cell_volume   182.45059330
_cell_formula_units_Z   1
loop_
 _symmetry_equiv_pos_site_id
 _symmetry_equiv_pos_as_xyz
  1  'x, y, z'
loop_
 _atom_site_type_symbol
 _atom_site_label
 _atom_site_symmetry_multiplicity
 _atom_site_fract_x
 _atom_site_fract_y
 _atom_site_fract_z
 _atom_site_occupancy
  Dy  Dy0  1  0.000000  0.410809  0.500000  1
  Th  Th1  1  0.584729  0.587008  0.500000  1
  Th  Th2  1  0.415271  0.002278  0.500000  1
  Ga  Ga3  1  0.000000  0.743970  0.000000  1
  Ga  Ga4  1  0.229248  0.242896  0.000000  1
  Ga  Ga5  1  0.770752  0.013648  0.000000  1
  Rh  Rh6  1  0.348964  0.680046  0.000000  1
  Rh  Rh7  1  0.651036  0.331082  0.000000  1
  Rh  Rh8  1  0.000000  0.988263  0.500000  1
