# generated using pymatgen
data_Lu12TlCo5
_symmetry_space_group_name_H-M   'P 1'
_cell_length_a   8.08491914
_cell_length_b   8.08491902
_cell_length_c   8.08491870
_cell_angle_alpha   106.39085470
_cell_angle_beta   111.15638957
_cell_angle_gamma   110.90973982
_symmetry_Int_Tables_number   1
_chemical_formula_structural   Lu12TlCo5
_chemical_formula_sum   'Lu12 Tl1 Co5'
_cell_volume   405.94478895
_cell_formula_units_Z   1
loop_
 _symmetry_equiv_pos_site_id
 _symmetry_equiv_pos_as_xyz
  1  'x, y, z'
loop_
 _atom_site_type_symbol
 _atom_site_label
 _atom_site_symmetry_multiplicity
 _atom_site_fract_x
 _atom_site_fract_y
 _atom_site_fract_z
 _atom_site_occupancy
  Lu  Lu0  1  0.471563  0.286653  0.184909  1
  Lu  Lu1  1  0.101743  0.286653  0.815091  1
  Lu  Lu2  1  0.898257  0.713347  0.184909  1
  Lu  Lu3  1  0.528437  0.713347  0.815091  1
  Lu  Lu4  1  0.305558  0.619831  0.314273  1
  Lu  Lu5  1  0.305558  0.991286  0.685727  1
  Lu  Lu6  1  0.694442  0.380169  0.685727  1
  Lu  Lu7  1  0.694442  0.008714  0.314273  1
  Lu  Lu8  1  0.192460  0.213829  0.406289  1
  Lu  Lu9  1  0.807540  0.786171  0.593711  1
  Lu  Lu10  1  0.192460  0.786171  0.978629  1
  Lu  Lu11  1  0.807540  0.213829  0.021371  1
  Tl  Tl12  1  0.000000  0.500000  0.500000  1
  Co  Co13  1  0.500000  0.613346  0.113346  1
  Co  Co14  1  0.500000  0.386654  0.886654  1
  Co  Co15  1  0.375323  0.000000  0.375323  1
  Co  Co16  1  0.624677  0.000000  0.624677  1
  Co  Co17  1  0.000000  0.000000  0.000000  1
