# generated using pymatgen
data_Ho3Er7Si5Bi
_symmetry_space_group_name_H-M   'P 1'
_cell_length_a   8.47414267
_cell_length_b   8.52063562
_cell_length_c   6.30128500
_cell_angle_alpha   90.00000000
_cell_angle_beta   90.00000000
_cell_angle_gamma   119.86522016
_symmetry_Int_Tables_number   1
_chemical_formula_structural   Ho3Er7Si5Bi
_chemical_formula_sum   'Ho3 Er7 Si5 Bi1'
_cell_volume   394.56244626
_cell_formula_units_Z   1
loop_
 _symmetry_equiv_pos_site_id
 _symmetry_equiv_pos_as_xyz
  1  'x, y, z'
loop_
 _atom_site_type_symbol
 _atom_site_label
 _atom_site_symmetry_multiplicity
 _atom_site_fract_x
 _atom_site_fract_y
 _atom_site_fract_z
 _atom_site_occupancy
  Ho  Ho0  1  0.768213  0.999919  0.750000  1
  Ho  Ho1  1  0.239862  0.254976  0.750000  1
  Ho  Ho2  1  0.239892  0.999907  0.250000  1
  Er  Er3  1  0.984313  0.744578  0.750000  1
  Er  Er4  1  0.998210  0.243202  0.250000  1
  Er  Er5  1  0.755178  0.756932  0.250000  1
  Er  Er6  1  0.330553  0.653488  0.494917  1
  Er  Er7  1  0.677210  0.346689  0.005009  1
  Er  Er8  1  0.677210  0.346689  0.494991  1
  Er  Er9  1  0.330553  0.653488  0.005083  1
  Si  Si10  1  0.393284  0.390761  0.250000  1
  Si  Si11  1  0.002516  0.609202  0.250000  1
  Si  Si12  1  0.998501  0.395250  0.750000  1
  Si  Si13  1  0.604151  0.605293  0.750000  1
  Si  Si14  1  0.607137  0.999967  0.250000  1
  Bi  Bi15  1  0.393217  0.999660  0.750000  1
