# generated using pymatgen
data_Hf4Fe2CoSi4Ni
_symmetry_space_group_name_H-M   'P 1'
_cell_length_a   3.87870300
_cell_length_b   6.38501208
_cell_length_c   7.05805034
_cell_angle_alpha   89.55514485
_cell_angle_beta   90.00000000
_cell_angle_gamma   90.00000000
_symmetry_Int_Tables_number   1
_chemical_formula_structural   Hf4Fe2CoSi4Ni
_chemical_formula_sum   'Hf4 Fe2 Co1 Si4 Ni1'
_cell_volume   174.79133945
_cell_formula_units_Z   1
loop_
 _symmetry_equiv_pos_site_id
 _symmetry_equiv_pos_as_xyz
  1  'x, y, z'
loop_
 _atom_site_type_symbol
 _atom_site_label
 _atom_site_symmetry_multiplicity
 _atom_site_fract_x
 _atom_site_fract_y
 _atom_site_fract_z
 _atom_site_occupancy
  Hf  Hf0  1  0.250000  0.002307  0.303909  1
  Hf  Hf1  1  0.250000  0.505923  0.196799  1
  Hf  Hf2  1  0.750000  0.990545  0.693508  1
  Hf  Hf3  1  0.750000  0.496192  0.803628  1
  Fe  Fe4  1  0.250000  0.653142  0.568318  1
  Fe  Fe5  1  0.750000  0.348427  0.433900  1
  Co  Co6  1  0.750000  0.855358  0.069146  1
  Si  Si7  1  0.250000  0.285430  0.599613  1
  Si  Si8  1  0.250000  0.779468  0.894173  1
  Si  Si9  1  0.750000  0.712821  0.395322  1
  Si  Si10  1  0.750000  0.220338  0.111652  1
  Ni  Ni11  1  0.250000  0.150048  0.930032  1
