# generated using pymatgen
data_BaLiNdSe3
_symmetry_space_group_name_H-M   'P 1'
_cell_length_a   7.40741563
_cell_length_b   7.40741577
_cell_length_c   11.12011400
_cell_angle_alpha   90.00000000
_cell_angle_beta   90.00000000
_cell_angle_gamma   145.73328777
_symmetry_Int_Tables_number   1
_chemical_formula_structural   BaLiNdSe3
_chemical_formula_sum   'Ba2 Li2 Nd2 Se6'
_cell_volume   343.54731414
_cell_formula_units_Z   2
loop_
 _symmetry_equiv_pos_site_id
 _symmetry_equiv_pos_as_xyz
  1  'x, y, z'
loop_
 _atom_site_type_symbol
 _atom_site_label
 _atom_site_symmetry_multiplicity
 _atom_site_fract_x
 _atom_site_fract_y
 _atom_site_fract_z
 _atom_site_occupancy
  Ba  Ba0  1  0.747057  0.252944  0.250000  1
  Ba  Ba1  1  0.252944  0.747057  0.750000  1
  Li  Li2  1  0.471493  0.528507  0.250000  1
  Li  Li3  1  0.528507  0.471493  0.750000  1
  Nd  Nd4  1  0.000000  0.000000  0.000000  1
  Nd  Nd5  1  0.000000  0.000000  0.500000  1
  Se  Se6  1  0.365079  0.634921  0.066345  1
  Se  Se7  1  0.071209  0.928792  0.250000  1
  Se  Se8  1  0.365079  0.634921  0.433654  1
  Se  Se9  1  0.634921  0.365079  0.566345  1
  Se  Se10  1  0.928792  0.071209  0.750000  1
  Se  Se11  1  0.634921  0.365079  0.933654  1
