# generated using pymatgen
data_La2Tb(NdIr)2
_symmetry_space_group_name_H-M   'P 1'
_cell_length_a   6.71940588
_cell_length_b   7.27563153
_cell_length_c   9.06199112
_cell_angle_alpha   96.33135232
_cell_angle_beta   111.76168449
_cell_angle_gamma   89.99999728
_symmetry_Int_Tables_number   1
_chemical_formula_structural   La2Tb(NdIr)2
_chemical_formula_sum   'La4 Tb2 Nd4 Ir4'
_cell_volume   408.53862874
_cell_formula_units_Z   2
loop_
 _symmetry_equiv_pos_site_id
 _symmetry_equiv_pos_as_xyz
  1  'x, y, z'
loop_
 _atom_site_type_symbol
 _atom_site_label
 _atom_site_symmetry_multiplicity
 _atom_site_fract_x
 _atom_site_fract_y
 _atom_site_fract_z
 _atom_site_occupancy
  La  La0  1  0.979192  0.918253  0.185608  1
  La  La1  1  0.793584  0.581747  0.814392  1
  La  La2  1  0.020808  0.081747  0.814392  1
  La  La3  1  0.206416  0.418253  0.185608  1
  Tb  Tb4  1  0.435315  0.750000  0.000000  1
  Tb  Tb5  1  0.564685  0.250000  0.000000  1
  Nd  Nd6  1  0.644850  0.815261  0.430358  1
  Nd  Nd7  1  0.214492  0.684739  0.569642  1
  Nd  Nd8  1  0.355150  0.184739  0.569642  1
  Nd  Nd9  1  0.785508  0.315261  0.430358  1
  Ir  Ir10  1  0.814566  0.574749  0.214348  1
  Ir  Ir11  1  0.600218  0.925251  0.785652  1
  Ir  Ir12  1  0.185434  0.425251  0.785652  1
  Ir  Ir13  1  0.399782  0.074749  0.214348  1
