# generated using pymatgen
data_HoPaB6Mo
_symmetry_space_group_name_H-M   'P 1'
_cell_length_a   3.76017600
_cell_length_b   9.18612200
_cell_length_c   11.54540600
_cell_angle_alpha   90.00000000
_cell_angle_beta   90.00000000
_cell_angle_gamma   90.00000000
_symmetry_Int_Tables_number   1
_chemical_formula_structural   HoPaB6Mo
_chemical_formula_sum   'Ho4 Pa4 B24 Mo4'
_cell_volume   398.79489641
_cell_formula_units_Z   4
loop_
 _symmetry_equiv_pos_site_id
 _symmetry_equiv_pos_as_xyz
  1  'x, y, z'
loop_
 _atom_site_type_symbol
 _atom_site_label
 _atom_site_symmetry_multiplicity
 _atom_site_fract_x
 _atom_site_fract_y
 _atom_site_fract_z
 _atom_site_occupancy
  Ho  Ho0  1  0.000000  0.945396  0.373822  1
  Ho  Ho1  1  0.000000  0.054604  0.626178  1
  Ho  Ho2  1  0.000000  0.445396  0.126178  1
  Ho  Ho3  1  0.000000  0.554604  0.873822  1
  Pa  Pa4  1  0.000000  0.322711  0.413486  1
  Pa  Pa5  1  0.000000  0.677289  0.586514  1
  Pa  Pa6  1  0.000000  0.822711  0.086514  1
  Pa  Pa7  1  0.000000  0.177289  0.913486  1
  B  B8  1  0.500000  0.552886  0.433025  1
  B  B9  1  0.500000  0.447114  0.566975  1
  B  B10  1  0.500000  0.052886  0.066975  1
  B  B11  1  0.500000  0.947114  0.933025  1
  B  B12  1  0.500000  0.748419  0.420630  1
  B  B13  1  0.500000  0.251581  0.579370  1
  B  B14  1  0.500000  0.248419  0.079370  1
  B  B15  1  0.500000  0.751581  0.920630  1
  B  B16  1  0.500000  0.793527  0.265184  1
  B  B17  1  0.500000  0.206473  0.734816  1
  B  B18  1  0.500000  0.293527  0.234816  1
  B  B19  1  0.500000  0.706473  0.765184  1
  B  B20  1  0.500000  0.632937  0.185293  1
  B  B21  1  0.500000  0.367063  0.814707  1
  B  B22  1  0.500000  0.132937  0.314707  1
  B  B23  1  0.500000  0.867063  0.685293  1
  B  B24  1  0.500000  0.981898  0.212834  1
  B  B25  1  0.500000  0.018102  0.787166  1
  B  B26  1  0.500000  0.481898  0.287166  1
  B  B27  1  0.500000  0.518102  0.712834  1
  B  B28  1  0.500000  0.612102  0.031140  1
  B  B29  1  0.500000  0.387898  0.968860  1
  B  B30  1  0.500000  0.112102  0.468860  1
  B  B31  1  0.500000  0.887898  0.531140  1
  Mo  Mo32  1  0.000000  0.638323  0.321820  1
  Mo  Mo33  1  0.000000  0.361677  0.678180  1
  Mo  Mo34  1  0.000000  0.138323  0.178180  1
  Mo  Mo35  1  0.000000  0.861677  0.821820  1
