# generated using pymatgen
data_Tb10Tl3Sn3S2
_symmetry_space_group_name_H-M   'P 1'
_cell_length_a   9.17282700
_cell_length_b   9.17282657
_cell_length_c   6.62086100
_cell_angle_alpha   90.00000000
_cell_angle_beta   90.00000000
_cell_angle_gamma   119.99999794
_symmetry_Int_Tables_number   1
_chemical_formula_structural   Tb10Tl3Sn3S2
_chemical_formula_sum   'Tb10 Tl3 Sn3 S2'
_cell_volume   482.44909518
_cell_formula_units_Z   1
loop_
 _symmetry_equiv_pos_site_id
 _symmetry_equiv_pos_as_xyz
  1  'x, y, z'
loop_
 _atom_site_type_symbol
 _atom_site_label
 _atom_site_symmetry_multiplicity
 _atom_site_fract_x
 _atom_site_fract_y
 _atom_site_fract_z
 _atom_site_occupancy
  Tb  Tb0  1  0.666667  0.333333  0.999955  1
  Tb  Tb1  1  0.333333  0.666667  0.999955  1
  Tb  Tb2  1  0.333333  0.666667  0.500045  1
  Tb  Tb3  1  0.666667  0.333333  0.500045  1
  Tb  Tb4  1  0.756143  0.756143  0.750000  1
  Tb  Tb5  1  0.243857  0.000000  0.750000  1
  Tb  Tb6  1  0.000000  0.243857  0.750000  1
  Tb  Tb7  1  0.242742  0.242742  0.250000  1
  Tb  Tb8  1  0.757258  0.000000  0.250000  1
  Tb  Tb9  1  0.000000  0.757258  0.250000  1
  Tl  Tl10  1  0.399582  0.399582  0.750000  1
  Tl  Tl11  1  0.600418  0.000000  0.750000  1
  Tl  Tl12  1  0.000000  0.600418  0.750000  1
  Sn  Sn13  1  0.602544  0.602544  0.250000  1
  Sn  Sn14  1  0.397456  0.000000  0.250000  1
  Sn  Sn15  1  0.000000  0.397456  0.250000  1
  S  S16  1  0.000000  0.000000  0.001438  1
  S  S17  1  0.000000  0.000000  0.498562  1
