# generated using pymatgen
data_YbDyY6(ReC2)4
_symmetry_space_group_name_H-M   'P 1'
_cell_length_a   5.12704100
_cell_length_b   6.58087395
_cell_length_c   9.95121601
_cell_angle_alpha   89.37814410
_cell_angle_beta   90.00000000
_cell_angle_gamma   90.00000000
_symmetry_Int_Tables_number   1
_chemical_formula_structural   YbDyY6(ReC2)4
_chemical_formula_sum   'Yb1 Dy1 Y6 Re4 C8'
_cell_volume   335.73833810
_cell_formula_units_Z   1
loop_
 _symmetry_equiv_pos_site_id
 _symmetry_equiv_pos_as_xyz
  1  'x, y, z'
loop_
 _atom_site_type_symbol
 _atom_site_label
 _atom_site_symmetry_multiplicity
 _atom_site_fract_x
 _atom_site_fract_y
 _atom_site_fract_z
 _atom_site_occupancy
  Yb  Yb0  1  0.250000  0.033161  0.280595  1
  Dy  Dy1  1  0.250000  0.684093  0.554340  1
  Y  Y2  1  0.750000  0.315123  0.443967  1
  Y  Y3  1  0.750000  0.817814  0.056207  1
  Y  Y4  1  0.250000  0.180266  0.945587  1
  Y  Y5  1  0.250000  0.531529  0.220216  1
  Y  Y6  1  0.750000  0.467382  0.781556  1
  Y  Y7  1  0.750000  0.966842  0.718371  1
  Re  Re8  1  0.250000  0.721608  0.862589  1
  Re  Re9  1  0.750000  0.278073  0.135886  1
  Re  Re10  1  0.750000  0.776814  0.363986  1
  Re  Re11  1  0.250000  0.225577  0.636325  1
  C  C12  1  0.250000  0.456196  0.759524  1
  C  C13  1  0.750000  0.544524  0.240877  1
  C  C14  1  0.750000  0.043713  0.259120  1
  C  C15  1  0.250000  0.956959  0.739361  1
  C  C16  1  0.250000  0.812899  0.044272  1
  C  C17  1  0.750000  0.178394  0.953928  1
  C  C18  1  0.750000  0.683450  0.548324  1
  C  C19  1  0.250000  0.325582  0.454972  1
