# generated using pymatgen
data_Tm3Lu5In3Os
_symmetry_space_group_name_H-M   'P 1'
_cell_length_a   10.21154800
_cell_length_b   10.21154715
_cell_length_c   6.97882200
_cell_angle_alpha   90.00000000
_cell_angle_beta   90.00000000
_cell_angle_gamma   120.00000275
_symmetry_Int_Tables_number   1
_chemical_formula_structural   Tm3Lu5In3Os
_chemical_formula_sum   'Tm6 Lu10 In6 Os2'
_cell_volume   630.22535456
_cell_formula_units_Z   2
loop_
 _symmetry_equiv_pos_site_id
 _symmetry_equiv_pos_as_xyz
  1  'x, y, z'
loop_
 _atom_site_type_symbol
 _atom_site_label
 _atom_site_symmetry_multiplicity
 _atom_site_fract_x
 _atom_site_fract_y
 _atom_site_fract_z
 _atom_site_occupancy
  Tm  Tm0  1  0.532228  0.064457  0.523880  1
  Tm  Tm1  1  0.935543  0.467772  0.523880  1
  Tm  Tm2  1  0.532228  0.467772  0.523880  1
  Tm  Tm3  1  0.467772  0.935543  0.023880  1
  Tm  Tm4  1  0.064457  0.532228  0.023880  1
  Tm  Tm5  1  0.467772  0.532228  0.023880  1
  Lu  Lu6  1  0.177524  0.355050  0.728020  1
  Lu  Lu7  1  0.644950  0.822476  0.728020  1
  Lu  Lu8  1  0.177524  0.822476  0.728020  1
  Lu  Lu9  1  0.822476  0.644950  0.228020  1
  Lu  Lu10  1  0.355050  0.177524  0.228020  1
  Lu  Lu11  1  0.822476  0.177524  0.228020  1
  Lu  Lu12  1  0.666667  0.333333  0.903321  1
  Lu  Lu13  1  0.333333  0.666667  0.403321  1
  Lu  Lu14  1  0.000000  0.000000  0.507001  1
  Lu  Lu15  1  0.000000  0.000000  0.007001  1
  In  In16  1  0.837066  0.674131  0.770717  1
  In  In17  1  0.325869  0.162934  0.770717  1
  In  In18  1  0.837066  0.162934  0.770717  1
  In  In19  1  0.162934  0.325869  0.270717  1
  In  In20  1  0.674131  0.837066  0.270717  1
  In  In21  1  0.162934  0.837066  0.270717  1
  Os  Os22  1  0.666667  0.333333  0.299666  1
  Os  Os23  1  0.333333  0.666667  0.799666  1
