# generated using pymatgen
data_Rb3Ru2Cl9
_symmetry_space_group_name_H-M   'P 1'
_cell_length_a   7.22394000
_cell_length_b   7.22394039
_cell_length_c   17.61865800
_cell_angle_alpha   90.00000000
_cell_angle_beta   90.00000000
_cell_angle_gamma   119.99999824
_symmetry_Int_Tables_number   1
_chemical_formula_structural   Rb3Ru2Cl9
_chemical_formula_sum   'Rb6 Ru4 Cl18'
_cell_volume   796.25422250
_cell_formula_units_Z   2
loop_
 _symmetry_equiv_pos_site_id
 _symmetry_equiv_pos_as_xyz
  1  'x, y, z'
loop_
 _atom_site_type_symbol
 _atom_site_label
 _atom_site_symmetry_multiplicity
 _atom_site_fract_x
 _atom_site_fract_y
 _atom_site_fract_z
 _atom_site_occupancy
  Rb  Rb0  1  0.333333  0.666667  0.064184  1
  Rb  Rb1  1  0.000000  0.000000  0.250000  1
  Rb  Rb2  1  0.333333  0.666667  0.435816  1
  Rb  Rb3  1  0.000000  0.000000  0.750000  1
  Rb  Rb4  1  0.666667  0.333333  0.564184  1
  Rb  Rb5  1  0.666667  0.333333  0.935816  1
  Ru  Ru6  1  0.333333  0.666667  0.674128  1
  Ru  Ru7  1  0.333333  0.666667  0.825872  1
  Ru  Ru8  1  0.666667  0.333333  0.174128  1
  Ru  Ru9  1  0.666667  0.333333  0.325872  1
  Cl  Cl10  1  0.493059  0.506941  0.750000  1
  Cl  Cl11  1  0.986118  0.493059  0.250000  1
  Cl  Cl12  1  0.506941  0.493059  0.250000  1
  Cl  Cl13  1  0.641495  0.820748  0.596604  1
  Cl  Cl14  1  0.820748  0.641495  0.403396  1
  Cl  Cl15  1  0.506941  0.013882  0.250000  1
  Cl  Cl16  1  0.179252  0.820748  0.596604  1
  Cl  Cl17  1  0.179252  0.820748  0.903396  1
  Cl  Cl18  1  0.820748  0.179252  0.096604  1
  Cl  Cl19  1  0.179252  0.358505  0.903396  1
  Cl  Cl20  1  0.358505  0.179252  0.096604  1
  Cl  Cl21  1  0.820748  0.641495  0.096604  1
  Cl  Cl22  1  0.179252  0.358505  0.596604  1
  Cl  Cl23  1  0.493059  0.986118  0.750000  1
  Cl  Cl24  1  0.013882  0.506941  0.750000  1
  Cl  Cl25  1  0.358505  0.179252  0.403396  1
  Cl  Cl26  1  0.641495  0.820748  0.903396  1
  Cl  Cl27  1  0.820748  0.179252  0.403396  1
