# generated using pymatgen
data_Nd3EuSe8
_symmetry_space_group_name_H-M   'P 1'
_cell_length_a   8.36567097
_cell_length_b   4.19713769
_cell_length_c   8.83272118
_cell_angle_alpha   89.92083443
_cell_angle_beta   89.88012189
_cell_angle_gamma   90.08157811
_symmetry_Int_Tables_number   1
_chemical_formula_structural   Nd3EuSe8
_chemical_formula_sum   'Nd3 Eu1 Se8'
_cell_volume   310.13209339
_cell_formula_units_Z   1
loop_
 _symmetry_equiv_pos_site_id
 _symmetry_equiv_pos_as_xyz
  1  'x, y, z'
loop_
 _atom_site_type_symbol
 _atom_site_label
 _atom_site_symmetry_multiplicity
 _atom_site_fract_x
 _atom_site_fract_y
 _atom_site_fract_z
 _atom_site_occupancy
  Nd  Nd0  1  0.373303  0.268294  0.278628  1
  Nd  Nd1  1  0.874322  0.231320  0.279589  1
  Nd  Nd2  1  0.625554  0.739647  0.718164  1
  Eu  Eu3  1  0.125974  0.761698  0.714346  1
  Se  Se4  1  0.118336  0.308434  0.002377  1
  Se  Se5  1  0.380503  0.809018  0.004901  1
  Se  Se6  1  0.882019  0.688247  0.006562  1
  Se  Se7  1  0.619589  0.192364  0.002240  1
  Se  Se8  1  0.125512  0.755718  0.366231  1
  Se  Se9  1  0.380837  0.253142  0.629361  1
  Se  Se10  1  0.869074  0.246927  0.629542  1
  Se  Se11  1  0.624975  0.745194  0.368061  1
