# generated using pymatgen
data_Ba3Nd(PPt3)8
_symmetry_space_group_name_H-M   'P 1'
_cell_length_a   8.63736103
_cell_length_b   8.63736103
_cell_length_c   8.63736103
_cell_angle_alpha   90.00634143
_cell_angle_beta   90.00634143
_cell_angle_gamma   90.00634143
_symmetry_Int_Tables_number   1
_chemical_formula_structural   Ba3Nd(PPt3)8
_chemical_formula_sum   'Ba3 Nd1 P8 Pt24'
_cell_volume   644.38171769
_cell_formula_units_Z   1
loop_
 _symmetry_equiv_pos_site_id
 _symmetry_equiv_pos_as_xyz
  1  'x, y, z'
loop_
 _atom_site_type_symbol
 _atom_site_label
 _atom_site_symmetry_multiplicity
 _atom_site_fract_x
 _atom_site_fract_y
 _atom_site_fract_z
 _atom_site_occupancy
  Ba  Ba0  1  0.500000  0.500000  0.000000  1
  Ba  Ba1  1  0.500000  0.000000  0.500000  1
  Ba  Ba2  1  0.000000  0.500000  0.500000  1
  Nd  Nd3  1  0.000000  0.000000  0.000000  1
  P  P4  1  0.807629  0.305979  0.196934  1
  P  P5  1  0.196934  0.807629  0.305979  1
  P  P6  1  0.694920  0.694920  0.694920  1
  P  P7  1  0.305979  0.196934  0.807629  1
  P  P8  1  0.192371  0.694021  0.803066  1
  P  P9  1  0.803066  0.192371  0.694021  1
  P  P10  1  0.305080  0.305080  0.305080  1
  P  P11  1  0.694021  0.803066  0.192371  1
  Pt  Pt12  1  0.424381  0.843097  0.155199  1
  Pt  Pt13  1  0.577793  0.341734  0.344946  1
  Pt  Pt14  1  0.080390  0.151421  0.664602  1
  Pt  Pt15  1  0.921868  0.664062  0.850644  1
  Pt  Pt16  1  0.155199  0.424381  0.843097  1
  Pt  Pt17  1  0.344946  0.577793  0.341734  1
  Pt  Pt18  1  0.664602  0.080390  0.151421  1
  Pt  Pt19  1  0.850644  0.921868  0.664062  1
  Pt  Pt20  1  0.843097  0.155199  0.424381  1
  Pt  Pt21  1  0.341734  0.344946  0.577793  1
  Pt  Pt22  1  0.151421  0.664602  0.080390  1
  Pt  Pt23  1  0.664062  0.850644  0.921868  1
  Pt  Pt24  1  0.575619  0.156903  0.844801  1
  Pt  Pt25  1  0.422207  0.658266  0.655054  1
  Pt  Pt26  1  0.919610  0.848579  0.335398  1
  Pt  Pt27  1  0.078132  0.335938  0.149356  1
  Pt  Pt28  1  0.844801  0.575619  0.156903  1
  Pt  Pt29  1  0.655054  0.422207  0.658266  1
  Pt  Pt30  1  0.335398  0.919610  0.848579  1
  Pt  Pt31  1  0.149356  0.078132  0.335938  1
  Pt  Pt32  1  0.156903  0.844801  0.575619  1
  Pt  Pt33  1  0.658266  0.655054  0.422207  1
  Pt  Pt34  1  0.848579  0.335398  0.919610  1
  Pt  Pt35  1  0.335938  0.149356  0.078132  1
