# generated using pymatgen
data_DyTm6Sn23Os6
_symmetry_space_group_name_H-M   'P 1'
_cell_length_a   9.82412600
_cell_length_b   9.82412577
_cell_length_c   10.09164000
_cell_angle_alpha   90.00000000
_cell_angle_beta   90.00000000
_cell_angle_gamma   119.99999403
_symmetry_Int_Tables_number   1
_chemical_formula_structural   DyTm6Sn23Os6
_chemical_formula_sum   'Dy1 Tm6 Sn23 Os6'
_cell_volume   843.49059598
_cell_formula_units_Z   1
loop_
 _symmetry_equiv_pos_site_id
 _symmetry_equiv_pos_as_xyz
  1  'x, y, z'
loop_
 _atom_site_type_symbol
 _atom_site_label
 _atom_site_symmetry_multiplicity
 _atom_site_fract_x
 _atom_site_fract_y
 _atom_site_fract_z
 _atom_site_occupancy
  Dy  Dy0  1  0.000000  0.000000  0.000000  1
  Tm  Tm1  1  0.486307  0.513693  0.301438  1
  Tm  Tm2  1  0.513693  0.486307  0.698562  1
  Tm  Tm3  1  0.486307  0.972613  0.301438  1
  Tm  Tm4  1  0.513693  0.027387  0.698562  1
  Tm  Tm5  1  0.027387  0.513693  0.301438  1
  Tm  Tm6  1  0.972613  0.486307  0.698562  1
  Sn  Sn7  1  0.349981  0.000000  0.000000  1
  Sn  Sn8  1  0.650019  0.000000  0.000000  1
  Sn  Sn9  1  0.000000  0.349981  0.000000  1
  Sn  Sn10  1  0.000000  0.650019  0.000000  1
  Sn  Sn11  1  0.650019  0.650019  0.000000  1
  Sn  Sn12  1  0.349981  0.349981  0.000000  1
  Sn  Sn13  1  0.333333  0.666667  0.825530  1
  Sn  Sn14  1  0.666667  0.333333  0.174470  1
  Sn  Sn15  1  0.000000  0.000000  0.500000  1
  Sn  Sn16  1  0.779367  0.220633  0.464058  1
  Sn  Sn17  1  0.220633  0.779367  0.535942  1
  Sn  Sn18  1  0.779367  0.558735  0.464058  1
  Sn  Sn19  1  0.220633  0.441265  0.535942  1
  Sn  Sn20  1  0.441265  0.220633  0.464058  1
  Sn  Sn21  1  0.558735  0.779367  0.535942  1
  Sn  Sn22  1  0.333333  0.666667  0.132497  1
  Sn  Sn23  1  0.666667  0.333333  0.867503  1
  Sn  Sn24  1  0.118210  0.881790  0.277223  1
  Sn  Sn25  1  0.881790  0.118210  0.722777  1
  Sn  Sn26  1  0.118210  0.236418  0.277223  1
  Sn  Sn27  1  0.881790  0.763582  0.722777  1
  Sn  Sn28  1  0.763582  0.881790  0.277223  1
  Sn  Sn29  1  0.236418  0.118210  0.722777  1
  Os  Os30  1  0.829161  0.170839  0.202953  1
  Os  Os31  1  0.170839  0.829161  0.797047  1
  Os  Os32  1  0.829161  0.658322  0.202953  1
  Os  Os33  1  0.170839  0.341678  0.797047  1
  Os  Os34  1  0.341678  0.170839  0.202953  1
  Os  Os35  1  0.658322  0.829161  0.797047  1
