# generated using pymatgen
data_Dy5Tm(CdIn4)2
_symmetry_space_group_name_H-M   'P 1'
_cell_length_a   6.34211600
_cell_length_b   6.34211641
_cell_length_c   10.42971000
_cell_angle_alpha   90.00000000
_cell_angle_beta   90.00000000
_cell_angle_gamma   102.52422475
_symmetry_Int_Tables_number   1
_chemical_formula_structural   Dy5Tm(CdIn4)2
_chemical_formula_sum   'Dy5 Tm1 Cd2 In8'
_cell_volume   409.52591383
_cell_formula_units_Z   1
loop_
 _symmetry_equiv_pos_site_id
 _symmetry_equiv_pos_as_xyz
  1  'x, y, z'
loop_
 _atom_site_type_symbol
 _atom_site_label
 _atom_site_symmetry_multiplicity
 _atom_site_fract_x
 _atom_site_fract_y
 _atom_site_fract_z
 _atom_site_occupancy
  Dy  Dy0  1  0.383458  0.383458  0.750000  1
  Dy  Dy1  1  0.204926  0.796075  0.499788  1
  Dy  Dy2  1  0.204926  0.796075  0.000212  1
  Dy  Dy3  1  0.796075  0.204926  0.499788  1
  Dy  Dy4  1  0.796075  0.204926  0.000212  1
  Tm  Tm5  1  0.616300  0.616300  0.250000  1
  Cd  Cd6  1  0.007873  0.007873  0.250000  1
  Cd  Cd7  1  0.990971  0.990971  0.750000  1
  In  In8  1  0.307111  0.307111  0.043799  1
  In  In9  1  0.693159  0.693159  0.957560  1
  In  In10  1  0.307111  0.307111  0.456201  1
  In  In11  1  0.693159  0.693159  0.542440  1
  In  In12  1  0.513183  0.072631  0.250000  1
  In  In13  1  0.926036  0.487005  0.750000  1
  In  In14  1  0.487005  0.926036  0.750000  1
  In  In15  1  0.072631  0.513183  0.250000  1
