# generated using pymatgen
data_HoGeRu2C
_symmetry_space_group_name_H-M   'P 1'
_cell_length_a   5.90868554
_cell_length_b   5.90868545
_cell_length_c   7.29518600
_cell_angle_alpha   90.00000000
_cell_angle_beta   90.00000000
_cell_angle_gamma   141.75169404
_symmetry_Int_Tables_number   1
_chemical_formula_structural   HoGeRu2C
_chemical_formula_sum   'Ho2 Ge2 Ru4 C2'
_cell_volume   157.67338392
_cell_formula_units_Z   2
loop_
 _symmetry_equiv_pos_site_id
 _symmetry_equiv_pos_as_xyz
  1  'x, y, z'
loop_
 _atom_site_type_symbol
 _atom_site_label
 _atom_site_symmetry_multiplicity
 _atom_site_fract_x
 _atom_site_fract_y
 _atom_site_fract_z
 _atom_site_occupancy
  Ho  Ho0  1  0.546212  0.453788  0.250000  1
  Ho  Ho1  1  0.453788  0.546212  0.750000  1
  Ge  Ge2  1  0.267294  0.732706  0.250000  1
  Ge  Ge3  1  0.732706  0.267294  0.750000  1
  Ru  Ru4  1  0.838082  0.161918  0.056275  1
  Ru  Ru5  1  0.161918  0.838082  0.943725  1
  Ru  Ru6  1  0.161918  0.838082  0.556275  1
  Ru  Ru7  1  0.838082  0.161918  0.443725  1
  C  C8  1  0.000000  0.000000  0.000000  1
  C  C9  1  0.000000  0.000000  0.500000  1
