# generated using pymatgen
data_Lu3Ga2SiRu3
_symmetry_space_group_name_H-M   'P 1'
_cell_length_a   7.27176800
_cell_length_b   7.27176852
_cell_length_c   3.44660600
_cell_angle_alpha   90.00000000
_cell_angle_beta   90.00000000
_cell_angle_gamma   119.99998852
_symmetry_Int_Tables_number   1
_chemical_formula_structural   Lu3Ga2SiRu3
_chemical_formula_sum   'Lu3 Ga2 Si1 Ru3'
_cell_volume   157.83466111
_cell_formula_units_Z   1
loop_
 _symmetry_equiv_pos_site_id
 _symmetry_equiv_pos_as_xyz
  1  'x, y, z'
loop_
 _atom_site_type_symbol
 _atom_site_label
 _atom_site_symmetry_multiplicity
 _atom_site_fract_x
 _atom_site_fract_y
 _atom_site_fract_z
 _atom_site_occupancy
  Lu  Lu0  1  0.385922  0.385922  0.500000  1
  Lu  Lu1  1  0.614078  0.000000  0.500000  1
  Lu  Lu2  1  0.000000  0.614078  0.500000  1
  Ga  Ga3  1  0.666667  0.333333  0.000000  1
  Ga  Ga4  1  0.333333  0.666667  0.000000  1
  Si  Si5  1  0.000000  0.000000  0.500000  1
  Ru  Ru6  1  0.756700  0.756700  0.000000  1
  Ru  Ru7  1  0.243300  0.000000  0.000000  1
  Ru  Ru8  1  0.000000  0.243300  0.000000  1
