# generated using pymatgen
data_Dy5Mo3(P3Rh4)4
_symmetry_space_group_name_H-M   'P 1'
_cell_length_a   12.68360700
_cell_length_b   12.68360723
_cell_length_c   3.92068900
_cell_angle_alpha   90.00000000
_cell_angle_beta   90.00000000
_cell_angle_gamma   119.99999159
_symmetry_Int_Tables_number   1
_chemical_formula_structural   Dy5Mo3(P3Rh4)4
_chemical_formula_sum   'Dy5 Mo3 P12 Rh16'
_cell_volume   546.23386845
_cell_formula_units_Z   1
loop_
 _symmetry_equiv_pos_site_id
 _symmetry_equiv_pos_as_xyz
  1  'x, y, z'
loop_
 _atom_site_type_symbol
 _atom_site_label
 _atom_site_symmetry_multiplicity
 _atom_site_fract_x
 _atom_site_fract_y
 _atom_site_fract_z
 _atom_site_occupancy
  Dy  Dy0  1  0.666667  0.333333  0.000000  1
  Dy  Dy1  1  0.333333  0.666667  0.000000  1
  Dy  Dy2  1  0.187721  0.187721  0.500000  1
  Dy  Dy3  1  0.812279  0.000000  0.500000  1
  Dy  Dy4  1  0.000000  0.812279  0.500000  1
  Mo  Mo5  1  0.549109  0.549109  0.000000  1
  Mo  Mo6  1  0.450891  0.000000  0.000000  1
  Mo  Mo7  1  0.000000  0.450891  0.000000  1
  P  P8  1  0.363081  0.363081  0.000000  1
  P  P9  1  0.636919  0.000000  0.000000  1
  P  P10  1  0.000000  0.636919  0.000000  1
  P  P11  1  0.835193  0.317639  0.500000  1
  P  P12  1  0.682361  0.517554  0.500000  1
  P  P13  1  0.482446  0.164807  0.500000  1
  P  P14  1  0.317639  0.835193  0.500000  1
  P  P15  1  0.517554  0.682361  0.500000  1
  P  P16  1  0.164807  0.482446  0.500000  1
  P  P17  1  0.823933  0.823933  0.000000  1
  P  P18  1  0.176067  0.000000  0.000000  1
  P  P19  1  0.000000  0.176067  0.000000  1
  Rh  Rh20  1  0.822122  0.197263  0.000000  1
  Rh  Rh21  1  0.802737  0.624861  0.000000  1
  Rh  Rh22  1  0.375139  0.177878  0.000000  1
  Rh  Rh23  1  0.197263  0.822122  0.000000  1
  Rh  Rh24  1  0.624861  0.802737  0.000000  1
  Rh  Rh25  1  0.177878  0.375139  0.000000  1
  Rh  Rh26  1  0.643757  0.130882  0.500000  1
  Rh  Rh27  1  0.869118  0.512876  0.500000  1
  Rh  Rh28  1  0.487124  0.356243  0.500000  1
  Rh  Rh29  1  0.130882  0.643757  0.500000  1
  Rh  Rh30  1  0.512876  0.869118  0.500000  1
  Rh  Rh31  1  0.356243  0.487124  0.500000  1
  Rh  Rh32  1  0.717994  0.717994  0.500000  1
  Rh  Rh33  1  0.282006  0.000000  0.500000  1
  Rh  Rh34  1  0.000000  0.282006  0.500000  1
  Rh  Rh35  1  0.000000  0.000000  0.000000  1
