# generated using pymatgen
data_Ba18Sr2Si11P
_symmetry_space_group_name_H-M   'P 1'
_cell_length_a   8.39225100
_cell_length_b   8.39225100
_cell_length_c   16.82849600
_cell_angle_alpha   90.00000000
_cell_angle_beta   90.00000000
_cell_angle_gamma   90.00000000
_symmetry_Int_Tables_number   1
_chemical_formula_structural   Ba18Sr2Si11P
_chemical_formula_sum   'Ba18 Sr2 Si11 P1'
_cell_volume   1185.22890080
_cell_formula_units_Z   1
loop_
 _symmetry_equiv_pos_site_id
 _symmetry_equiv_pos_as_xyz
  1  'x, y, z'
loop_
 _atom_site_type_symbol
 _atom_site_label
 _atom_site_symmetry_multiplicity
 _atom_site_fract_x
 _atom_site_fract_y
 _atom_site_fract_z
 _atom_site_occupancy
  Ba  Ba0  1  0.301076  0.665793  0.106503  1
  Ba  Ba1  1  0.165793  0.198924  0.106503  1
  Ba  Ba2  1  0.329870  0.694529  0.391454  1
  Ba  Ba3  1  0.671491  0.693047  0.894078  1
  Ba  Ba4  1  0.194529  0.170130  0.391454  1
  Ba  Ba5  1  0.670130  0.305471  0.391454  1
  Ba  Ba6  1  0.172728  0.808076  0.607836  1
  Ba  Ba7  1  0.328509  0.306953  0.894078  1
  Ba  Ba8  1  0.193047  0.828509  0.894078  1
  Ba  Ba9  1  0.500000  0.000000  0.219940  1
  Ba  Ba10  1  0.827272  0.191924  0.607836  1
  Ba  Ba11  1  0.308076  0.327272  0.607836  1
  Ba  Ba12  1  0.805471  0.829870  0.391454  1
  Ba  Ba13  1  0.806953  0.171491  0.894078  1
  Ba  Ba14  1  0.834207  0.801076  0.106503  1
  Ba  Ba15  1  0.000000  0.500000  0.775458  1
  Ba  Ba16  1  0.698924  0.334207  0.106503  1
  Ba  Ba17  1  0.691924  0.672728  0.607836  1
  Sr  Sr18  1  0.500000  0.000000  0.728759  1
  Sr  Sr19  1  0.000000  0.500000  0.278972  1
  Si  Si20  1  0.104896  0.100772  0.751964  1
  Si  Si21  1  0.399228  0.604896  0.751964  1
  Si  Si22  1  0.605739  0.600476  0.248283  1
  Si  Si23  1  0.500000  0.000000  0.013175  1
  Si  Si24  1  0.100476  0.894261  0.248283  1
  Si  Si25  1  0.600772  0.395104  0.751964  1
  Si  Si26  1  0.895104  0.899228  0.751964  1
  Si  Si27  1  0.394261  0.399524  0.248283  1
  Si  Si28  1  0.899524  0.105739  0.248283  1
  Si  Si29  1  0.500000  0.000000  0.517679  1
  Si  Si30  1  0.000000  0.500000  0.484339  1
  P  P31  1  0.000000  0.500000  0.981206  1
