# generated using pymatgen
data_Mg2B2PIr5
_symmetry_space_group_name_H-M   'P 1'
_cell_length_a   9.36539200
_cell_length_b   9.36539200
_cell_length_c   2.94745300
_cell_angle_alpha   90.00000000
_cell_angle_beta   90.00000000
_cell_angle_gamma   90.00000000
_symmetry_Int_Tables_number   1
_chemical_formula_structural   Mg2B2PIr5
_chemical_formula_sum   'Mg4 B4 P2 Ir10'
_cell_volume   258.52277476
_cell_formula_units_Z   2
loop_
 _symmetry_equiv_pos_site_id
 _symmetry_equiv_pos_as_xyz
  1  'x, y, z'
loop_
 _atom_site_type_symbol
 _atom_site_label
 _atom_site_symmetry_multiplicity
 _atom_site_fract_x
 _atom_site_fract_y
 _atom_site_fract_z
 _atom_site_occupancy
  Mg  Mg0  1  0.825141  0.325141  0.000000  1
  Mg  Mg1  1  0.174859  0.674859  0.000000  1
  Mg  Mg2  1  0.325141  0.174859  0.000000  1
  Mg  Mg3  1  0.674859  0.825141  0.000000  1
  B  B4  1  0.626236  0.126236  0.000000  1
  B  B5  1  0.373764  0.873764  0.000000  1
  B  B6  1  0.126236  0.373764  0.000000  1
  B  B7  1  0.873764  0.626236  0.000000  1
  P  P8  1  0.500000  0.500000  0.000000  1
  P  P9  1  0.000000  0.000000  0.000000  1
  Ir  Ir10  1  0.500000  0.000000  0.500000  1
  Ir  Ir11  1  0.000000  0.500000  0.500000  1
  Ir  Ir12  1  0.709938  0.572118  0.500000  1
  Ir  Ir13  1  0.290062  0.427882  0.500000  1
  Ir  Ir14  1  0.209938  0.927882  0.500000  1
  Ir  Ir15  1  0.790062  0.072118  0.500000  1
  Ir  Ir16  1  0.427882  0.709938  0.500000  1
  Ir  Ir17  1  0.572118  0.290062  0.500000  1
  Ir  Ir18  1  0.072118  0.209938  0.500000  1
  Ir  Ir19  1  0.927882  0.790062  0.500000  1
