# generated using pymatgen
data_DySbI6
_symmetry_space_group_name_H-M   'P 1'
_cell_length_a   8.72543713
_cell_length_b   8.72543755
_cell_length_c   8.72543839
_cell_angle_alpha   52.62413701
_cell_angle_beta   52.62413318
_cell_angle_gamma   52.62413844
_symmetry_Int_Tables_number   1
_chemical_formula_structural   DySbI6
_chemical_formula_sum   'Dy1 Sb1 I6'
_cell_volume   388.42362206
_cell_formula_units_Z   1
loop_
 _symmetry_equiv_pos_site_id
 _symmetry_equiv_pos_as_xyz
  1  'x, y, z'
loop_
 _atom_site_type_symbol
 _atom_site_label
 _atom_site_symmetry_multiplicity
 _atom_site_fract_x
 _atom_site_fract_y
 _atom_site_fract_z
 _atom_site_occupancy
  Dy  Dy0  1  0.833136  0.833136  0.833136  1
  Sb  Sb1  1  0.166829  0.166829  0.166829  1
  I  I2  1  0.221698  0.578352  0.933642  1
  I  I3  1  0.933642  0.221698  0.578352  1
  I  I4  1  0.578352  0.933642  0.221698  1
  I  I5  1  0.776515  0.423911  0.065916  1
  I  I6  1  0.065916  0.776515  0.423911  1
  I  I7  1  0.423911  0.065916  0.776515  1
