# generated using pymatgen
data_NaHoU4(Ni3Sb4)2
_symmetry_space_group_name_H-M   'P 1'
_cell_length_a   8.11357101
_cell_length_b   8.11357190
_cell_length_c   8.11357146
_cell_angle_alpha   109.44030769
_cell_angle_beta   109.53306003
_cell_angle_gamma   109.44030792
_symmetry_Int_Tables_number   1
_chemical_formula_structural   NaHoU4(Ni3Sb4)2
_chemical_formula_sum   'Na1 Ho1 U4 Ni6 Sb8'
_cell_volume   411.16292518
_cell_formula_units_Z   1
loop_
 _symmetry_equiv_pos_site_id
 _symmetry_equiv_pos_as_xyz
  1  'x, y, z'
loop_
 _atom_site_type_symbol
 _atom_site_label
 _atom_site_symmetry_multiplicity
 _atom_site_fract_x
 _atom_site_fract_y
 _atom_site_fract_z
 _atom_site_occupancy
  Na  Na0  1  0.875000  0.250000  0.125000  1
  Ho  Ho1  1  0.625000  0.750000  0.375000  1
  U  U2  1  0.250039  0.128493  0.879856  1
  U  U3  1  0.751362  0.371507  0.621546  1
  U  U4  1  0.120144  0.870184  0.248638  1
  U  U5  1  0.378454  0.629816  0.749961  1
  Ni  Ni6  1  0.375000  0.250000  0.625000  1
  Ni  Ni7  1  0.125000  0.750000  0.875000  1
  Ni  Ni8  1  0.256403  0.633401  0.382322  1
  Ni  Ni9  1  0.748921  0.866599  0.123002  1
  Ni  Ni10  1  0.617678  0.374081  0.251079  1
  Ni  Ni11  1  0.876998  0.125919  0.743597  1
  Sb  Sb12  1  0.662386  0.498605  0.001143  1
  Sb  Sb13  1  0.502537  0.001395  0.663780  1
  Sb  Sb14  1  0.997405  0.657500  0.495893  1
  Sb  Sb15  1  0.838393  0.842500  0.839905  1
  Sb  Sb16  1  0.504107  0.001511  0.161607  1
  Sb  Sb17  1  0.160095  0.498489  0.002595  1
  Sb  Sb18  1  0.998857  0.161243  0.497463  1
  Sb  Sb19  1  0.336220  0.338757  0.337614  1
