# generated using pymatgen
data_Sr13Pr7Si15P
_symmetry_space_group_name_H-M   'P 1'
_cell_length_a   8.16758225
_cell_length_b   8.19568438
_cell_length_c   15.53259244
_cell_angle_alpha   90.21015513
_cell_angle_beta   89.99663920
_cell_angle_gamma   90.13850940
_symmetry_Int_Tables_number   1
_chemical_formula_structural   Sr13Pr7Si15P
_chemical_formula_sum   'Sr13 Pr7 Si15 P1'
_cell_volume   1039.72502712
_cell_formula_units_Z   1
loop_
 _symmetry_equiv_pos_site_id
 _symmetry_equiv_pos_as_xyz
  1  'x, y, z'
loop_
 _atom_site_type_symbol
 _atom_site_label
 _atom_site_symmetry_multiplicity
 _atom_site_fract_x
 _atom_site_fract_y
 _atom_site_fract_z
 _atom_site_occupancy
  Sr  Sr0  1  0.307529  0.307994  0.000085  1
  Sr  Sr1  1  0.188304  0.808791  0.249940  1
  Sr  Sr2  1  0.814635  0.188058  0.751535  1
  Sr  Sr3  1  0.689290  0.689643  0.499419  1
  Sr  Sr4  1  0.373940  0.010573  0.450513  1
  Sr  Sr5  1  0.487830  0.874669  0.703154  1
  Sr  Sr6  1  0.512348  0.127733  0.203157  1
  Sr  Sr7  1  0.868834  0.485336  0.295384  1
  Sr  Sr8  1  0.128636  0.513723  0.796498  1
  Sr  Sr9  1  0.629356  0.984485  0.954525  1
  Sr  Sr10  1  0.012985  0.372756  0.546731  1
  Sr  Sr11  1  0.987524  0.629263  0.047011  1
  Sr  Sr12  1  0.131964  0.983824  0.874477  1
  Pr  Pr13  1  0.511228  0.626768  0.125231  1
  Pr  Pr14  1  0.489121  0.370747  0.623959  1
  Pr  Pr15  1  0.627819  0.512962  0.873990  1
  Pr  Pr16  1  0.370298  0.488696  0.375877  1
  Pr  Pr17  1  0.872710  0.011080  0.374951  1
  Pr  Pr18  1  0.987242  0.128809  0.125246  1
  Pr  Pr19  1  0.012330  0.874670  0.625095  1
  Si  Si20  1  0.352186  0.703865  0.950048  1
  Si  Si21  1  0.653100  0.290138  0.446485  1
  Si  Si22  1  0.706424  0.348448  0.054623  1
  Si  Si23  1  0.290861  0.655669  0.555656  1
  Si  Si24  1  0.791046  0.847263  0.197547  1
  Si  Si25  1  0.152637  0.208344  0.304152  1
  Si  Si26  1  0.837998  0.790951  0.798168  1
  Si  Si27  1  0.279680  0.910346  0.058043  1
  Si  Si28  1  0.587046  0.775152  0.305573  1
  Si  Si29  1  0.415274  0.226068  0.800913  1
  Si  Si30  1  0.774833  0.582863  0.692154  1
  Si  Si31  1  0.222848  0.412292  0.196685  1
  Si  Si32  1  0.725465  0.087661  0.555220  1
  Si  Si33  1  0.909965  0.284201  0.945940  1
  Si  Si34  1  0.085713  0.725076  0.446991  1
  P  P35  1  0.211005  0.161083  0.695027  1
