# generated using pymatgen
data_Lu12InCo5
_symmetry_space_group_name_H-M   'P 1'
_cell_length_a   8.09794527
_cell_length_b   8.09794684
_cell_length_c   8.09794548
_cell_angle_alpha   106.36125482
_cell_angle_beta   111.14533909
_cell_angle_gamma   110.95118239
_symmetry_Int_Tables_number   1
_chemical_formula_structural   Lu12InCo5
_chemical_formula_sum   'Lu12 In1 Co5'
_cell_volume   407.89401403
_cell_formula_units_Z   1
loop_
 _symmetry_equiv_pos_site_id
 _symmetry_equiv_pos_as_xyz
  1  'x, y, z'
loop_
 _atom_site_type_symbol
 _atom_site_label
 _atom_site_symmetry_multiplicity
 _atom_site_fract_x
 _atom_site_fract_y
 _atom_site_fract_z
 _atom_site_occupancy
  Lu  Lu0  1  0.472864  0.287311  0.185552  1
  Lu  Lu1  1  0.101759  0.287311  0.814448  1
  Lu  Lu2  1  0.898241  0.712689  0.185552  1
  Lu  Lu3  1  0.527136  0.712689  0.814448  1
  Lu  Lu4  1  0.304690  0.618912  0.314221  1
  Lu  Lu5  1  0.304690  0.990470  0.685779  1
  Lu  Lu6  1  0.695310  0.381088  0.685779  1
  Lu  Lu7  1  0.695310  0.009530  0.314221  1
  Lu  Lu8  1  0.192789  0.213955  0.406745  1
  Lu  Lu9  1  0.807211  0.786045  0.593255  1
  Lu  Lu10  1  0.192789  0.786045  0.978832  1
  Lu  Lu11  1  0.807211  0.213955  0.021168  1
  In  In12  1  0.000000  0.500000  0.500000  1
  Co  Co13  1  0.500000  0.613432  0.113432  1
  Co  Co14  1  0.500000  0.386568  0.886568  1
  Co  Co15  1  0.375576  0.000000  0.375576  1
  Co  Co16  1  0.624424  0.000000  0.624424  1
  Co  Co17  1  0.000000  0.000000  0.000000  1
