# generated using pymatgen
data_Cs16ThSnSb8
_symmetry_space_group_name_H-M   'P 1'
_cell_length_a   12.66904045
_cell_length_b   12.66904018
_cell_length_c   12.66904100
_cell_angle_alpha   60.00000046
_cell_angle_beta   60.00000117
_cell_angle_gamma   60.00000007
_symmetry_Int_Tables_number   1
_chemical_formula_structural   Cs16ThSnSb8
_chemical_formula_sum   'Cs16 Th1 Sn1 Sb8'
_cell_volume   1437.85862067
_cell_formula_units_Z   1
loop_
 _symmetry_equiv_pos_site_id
 _symmetry_equiv_pos_as_xyz
  1  'x, y, z'
loop_
 _atom_site_type_symbol
 _atom_site_label
 _atom_site_symmetry_multiplicity
 _atom_site_fract_x
 _atom_site_fract_y
 _atom_site_fract_z
 _atom_site_occupancy
  Cs  Cs0  1  0.622425  0.132724  0.622425  1
  Cs  Cs1  1  0.622425  0.622425  0.132724  1
  Cs  Cs2  1  0.132724  0.622425  0.622425  1
  Cs  Cs3  1  0.622425  0.622425  0.622425  1
  Cs  Cs4  1  0.023600  0.023600  0.476400  1
  Cs  Cs5  1  0.774726  0.225274  0.225274  1
  Cs  Cs6  1  0.225274  0.774726  0.774726  1
  Cs  Cs7  1  0.774726  0.774726  0.225274  1
  Cs  Cs8  1  0.774726  0.225274  0.774726  1
  Cs  Cs9  1  0.225274  0.774726  0.225274  1
  Cs  Cs10  1  0.476400  0.023600  0.476400  1
  Cs  Cs11  1  0.476400  0.023600  0.023600  1
  Cs  Cs12  1  0.023600  0.476400  0.476400  1
  Cs  Cs13  1  0.023600  0.476400  0.023600  1
  Cs  Cs14  1  0.225274  0.225274  0.774726  1
  Cs  Cs15  1  0.476400  0.476400  0.023600  1
  Th  Th16  1  0.750000  0.750000  0.750000  1
  Sn  Sn17  1  0.500000  0.500000  0.500000  1
  Sb  Sb18  1  0.403262  0.790215  0.403262  1
  Sb  Sb19  1  0.850456  0.850456  0.448633  1
  Sb  Sb20  1  0.448633  0.850456  0.850456  1
  Sb  Sb21  1  0.850456  0.850456  0.850456  1
  Sb  Sb22  1  0.790215  0.403262  0.403262  1
  Sb  Sb23  1  0.403262  0.403262  0.403262  1
  Sb  Sb24  1  0.403262  0.403262  0.790215  1
  Sb  Sb25  1  0.850456  0.448633  0.850456  1
