# generated using pymatgen
data_Ta5Nb(In2Br9)2
_symmetry_space_group_name_H-M   'P 1'
_cell_length_a   10.36088210
_cell_length_b   10.35783614
_cell_length_c   10.20031000
_cell_angle_alpha   77.35419135
_cell_angle_beta   77.62386127
_cell_angle_gamma   117.32131125
_symmetry_Int_Tables_number   1
_chemical_formula_structural   Ta5Nb(In2Br9)2
_chemical_formula_sum   'Ta5 Nb1 In4 Br18'
_cell_volume   884.17137687
_cell_formula_units_Z   1
loop_
 _symmetry_equiv_pos_site_id
 _symmetry_equiv_pos_as_xyz
  1  'x, y, z'
loop_
 _atom_site_type_symbol
 _atom_site_label
 _atom_site_symmetry_multiplicity
 _atom_site_fract_x
 _atom_site_fract_y
 _atom_site_fract_z
 _atom_site_occupancy
  Ta  Ta0  1  0.291305  0.456358  0.632780  1
  Ta  Ta1  1  0.456610  0.291451  0.632635  1
  Ta  Ta2  1  0.708594  0.543245  0.367349  1
  Ta  Ta3  1  0.385522  0.385523  0.378115  1
  Ta  Ta4  1  0.614431  0.614250  0.621876  1
  Nb  Nb5  1  0.543715  0.710082  0.366368  1
  In  In6  1  0.273235  0.951963  0.163981  1
  In  In7  1  0.047435  0.726914  0.835762  1
  In  In8  1  0.727383  0.048714  0.835962  1
  In  In9  1  0.952227  0.273213  0.164248  1
  Br  Br10  1  0.998893  0.394168  0.823213  1
  Br  Br11  1  0.606065  0.002425  0.175947  1
  Br  Br12  1  0.183738  0.183264  0.828609  1
  Br  Br13  1  0.817049  0.816151  0.171423  1
  Br  Br14  1  0.381838  0.586749  0.814701  1
  Br  Br15  1  0.412689  0.617789  0.184063  1
  Br  Br16  1  0.618150  0.413224  0.185125  1
  Br  Br17  1  0.586838  0.381075  0.815641  1
  Br  Br18  1  0.694273  0.901549  0.487074  1
  Br  Br19  1  0.099146  0.306304  0.513577  1
  Br  Br20  1  0.306052  0.098231  0.513931  1
  Br  Br21  1  0.900889  0.693689  0.486278  1
  Br  Br22  1  0.705792  0.293351  0.500304  1
  Br  Br23  1  0.292994  0.705546  0.500753  1
  Br  Br24  1  0.227894  0.228458  0.211465  1
  Br  Br25  1  0.771984  0.772102  0.788330  1
  Br  Br26  1  0.394127  0.997998  0.824023  1
  Br  Br27  1  0.001135  0.606213  0.176469  1
