# generated using pymatgen
data_Ho4Er4B24Ru3W
_symmetry_space_group_name_H-M   'P 1'
_cell_length_a   3.63093500
_cell_length_b   9.14400641
_cell_length_c   11.53715701
_cell_angle_alpha   89.85213385
_cell_angle_beta   90.00000000
_cell_angle_gamma   90.00000000
_symmetry_Int_Tables_number   1
_chemical_formula_structural   Ho4Er4B24Ru3W
_chemical_formula_sum   'Ho4 Er4 B24 Ru3 W1'
_cell_volume   383.04725367
_cell_formula_units_Z   1
loop_
 _symmetry_equiv_pos_site_id
 _symmetry_equiv_pos_as_xyz
  1  'x, y, z'
loop_
 _atom_site_type_symbol
 _atom_site_label
 _atom_site_symmetry_multiplicity
 _atom_site_fract_x
 _atom_site_fract_y
 _atom_site_fract_z
 _atom_site_occupancy
  Ho  Ho0  1  0.000000  0.321211  0.413768  1
  Ho  Ho1  1  0.000000  0.678073  0.585359  1
  Ho  Ho2  1  0.000000  0.820271  0.086817  1
  Ho  Ho3  1  0.000000  0.176888  0.914724  1
  Er  Er4  1  0.000000  0.946139  0.373027  1
  Er  Er5  1  0.000000  0.058083  0.629089  1
  Er  Er6  1  0.000000  0.442065  0.125839  1
  Er  Er7  1  0.000000  0.557026  0.870752  1
  B  B8  1  0.500000  0.549955  0.436636  1
  B  B9  1  0.500000  0.445868  0.568685  1
  B  B10  1  0.500000  0.053738  0.066733  1
  B  B11  1  0.500000  0.946101  0.933152  1
  B  B12  1  0.500000  0.752149  0.422412  1
  B  B13  1  0.500000  0.251827  0.581546  1
  B  B14  1  0.500000  0.247995  0.079834  1
  B  B15  1  0.500000  0.751379  0.918876  1
  B  B16  1  0.500000  0.795587  0.263778  1
  B  B17  1  0.500000  0.208961  0.734694  1
  B  B18  1  0.500000  0.290065  0.232431  1
  B  B19  1  0.500000  0.709788  0.765652  1
  B  B20  1  0.500000  0.631597  0.181736  1
  B  B21  1  0.500000  0.368277  0.815173  1
  B  B22  1  0.500000  0.131537  0.314182  1
  B  B23  1  0.500000  0.869802  0.685479  1
  B  B24  1  0.500000  0.983733  0.212503  1
  B  B25  1  0.500000  0.017260  0.788348  1
  B  B26  1  0.500000  0.476554  0.286289  1
  B  B27  1  0.500000  0.516581  0.713053  1
  B  B28  1  0.500000  0.605568  0.027269  1
  B  B29  1  0.500000  0.392959  0.969497  1
  B  B30  1  0.500000  0.107365  0.471399  1
  B  B31  1  0.500000  0.896850  0.530656  1
  Ru  Ru32  1  0.000000  0.361567  0.680751  1
  Ru  Ru33  1  0.000000  0.137348  0.177973  1
  Ru  Ru34  1  0.000000  0.862304  0.820606  1
  W  W35  1  0.000000  0.637530  0.321282  1
