# generated using pymatgen
data_Th4Al10Ga14PdRh
_symmetry_space_group_name_H-M   'P 1'
_cell_length_a   6.05259875
_cell_length_b   6.05156427
_cell_length_c   15.78009766
_cell_angle_alpha   89.97201271
_cell_angle_beta   90.37344258
_cell_angle_gamma   90.04799997
_symmetry_Int_Tables_number   1
_chemical_formula_structural   Th4Al10Ga14PdRh
_chemical_formula_sum   'Th4 Al10 Ga14 Pd1 Rh1'
_cell_volume   577.97598327
_cell_formula_units_Z   1
loop_
 _symmetry_equiv_pos_site_id
 _symmetry_equiv_pos_as_xyz
  1  'x, y, z'
loop_
 _atom_site_type_symbol
 _atom_site_label
 _atom_site_symmetry_multiplicity
 _atom_site_fract_x
 _atom_site_fract_y
 _atom_site_fract_z
 _atom_site_occupancy
  Th  Th0  1  0.752413  0.250516  0.250206  1
  Th  Th1  1  0.252386  0.749447  0.248654  1
  Th  Th2  1  0.248307  0.750049  0.750734  1
  Th  Th3  1  0.748323  0.249778  0.749179  1
  Al  Al4  1  0.502745  0.002997  0.912548  1
  Al  Al5  1  0.996867  0.003137  0.912732  1
  Al  Al6  1  0.502089  0.497891  0.912731  1
  Al  Al7  1  0.995945  0.496216  0.912619  1
  Al  Al8  1  0.503253  0.003244  0.087102  1
  Al  Al9  1  0.997029  0.002811  0.087139  1
  Al  Al10  1  0.503591  0.496218  0.087214  1
  Al  Al11  1  0.997707  0.497764  0.087219  1
  Al  Al12  1  0.583506  0.080108  0.432386  1
  Al  Al13  1  0.084021  0.919272  0.432191  1
  Ga  Ga14  1  0.250852  0.249973  0.186218  1
  Ga  Ga15  1  0.750804  0.750097  0.186226  1
  Ga  Ga16  1  0.748713  0.749670  0.813472  1
  Ga  Ga17  1  0.248628  0.250131  0.813491  1
  Ga  Ga18  1  0.254255  0.245706  0.343725  1
  Ga  Ga19  1  0.754213  0.754038  0.343717  1
  Ga  Ga20  1  0.746661  0.748240  0.655990  1
  Ga  Ga21  1  0.246448  0.252170  0.656013  1
  Ga  Ga22  1  0.421951  0.580781  0.429228  1
  Ga  Ga23  1  0.922322  0.419701  0.429440  1
  Ga  Ga24  1  0.416790  0.921605  0.570709  1
  Ga  Ga25  1  0.917384  0.077791  0.570432  1
  Ga  Ga26  1  0.576288  0.419257  0.569303  1
  Ga  Ga27  1  0.076813  0.581250  0.569702  1
  Pd  Pd28  1  0.249847  0.750137  0.999907  1
  Rh  Rh29  1  0.749850  0.250004  0.999772  1
