# generated using pymatgen
data_Hf15Sc3Re8POs
_symmetry_space_group_name_H-M   'P 1'
_cell_length_a   8.64113100
_cell_length_b   8.64113128
_cell_length_c   8.52340900
_cell_angle_alpha   90.00000000
_cell_angle_beta   90.00000000
_cell_angle_gamma   120.00000275
_symmetry_Int_Tables_number   1
_chemical_formula_structural   Hf15Sc3Re8POs
_chemical_formula_sum   'Hf15 Sc3 Re8 P1 Os1'
_cell_volume   551.16945400
_cell_formula_units_Z   1
loop_
 _symmetry_equiv_pos_site_id
 _symmetry_equiv_pos_as_xyz
  1  'x, y, z'
loop_
 _atom_site_type_symbol
 _atom_site_label
 _atom_site_symmetry_multiplicity
 _atom_site_fract_x
 _atom_site_fract_y
 _atom_site_fract_z
 _atom_site_occupancy
  Hf  Hf0  1  0.196902  0.803098  0.447594  1
  Hf  Hf1  1  0.196902  0.393804  0.447594  1
  Hf  Hf2  1  0.606196  0.803098  0.447594  1
  Hf  Hf3  1  0.805154  0.194846  0.548107  1
  Hf  Hf4  1  0.805154  0.610308  0.548107  1
  Hf  Hf5  1  0.389692  0.194846  0.548107  1
  Hf  Hf6  1  0.805154  0.194846  0.951893  1
  Hf  Hf7  1  0.805154  0.610308  0.951893  1
  Hf  Hf8  1  0.389692  0.194846  0.951893  1
  Hf  Hf9  1  0.196902  0.803098  0.052406  1
  Hf  Hf10  1  0.196902  0.393804  0.052406  1
  Hf  Hf11  1  0.606196  0.803098  0.052406  1
  Hf  Hf12  1  0.541261  0.458739  0.250000  1
  Hf  Hf13  1  0.541261  0.082523  0.250000  1
  Hf  Hf14  1  0.917477  0.458739  0.250000  1
  Sc  Sc15  1  0.462052  0.537948  0.750000  1
  Sc  Sc16  1  0.462052  0.924104  0.750000  1
  Sc  Sc17  1  0.075896  0.537948  0.750000  1
  Re  Re18  1  0.889561  0.110439  0.250000  1
  Re  Re19  1  0.889561  0.779121  0.250000  1
  Re  Re20  1  0.220879  0.110439  0.250000  1
  Re  Re21  1  0.109858  0.890142  0.750000  1
  Re  Re22  1  0.109858  0.219718  0.750000  1
  Re  Re23  1  0.780282  0.890142  0.750000  1
  Re  Re24  1  0.000000  0.000000  0.500924  1
  Re  Re25  1  0.000000  0.000000  0.999076  1
  P  P26  1  0.666667  0.333333  0.750000  1
  Os  Os27  1  0.333333  0.666667  0.250000  1
