# generated using pymatgen
data_KBaAs4F24
_symmetry_space_group_name_H-M   'P 1'
_cell_length_a   9.90472590
_cell_length_b   9.90472537
_cell_length_c   9.90472500
_cell_angle_alpha   131.67727262
_cell_angle_beta   131.67727763
_cell_angle_gamma   70.73922257
_symmetry_Int_Tables_number   1
_chemical_formula_structural   KBaAs4F24
_chemical_formula_sum   'K1 Ba1 As4 F24'
_cell_volume   530.97829448
_cell_formula_units_Z   1
loop_
 _symmetry_equiv_pos_site_id
 _symmetry_equiv_pos_as_xyz
  1  'x, y, z'
loop_
 _atom_site_type_symbol
 _atom_site_label
 _atom_site_symmetry_multiplicity
 _atom_site_fract_x
 _atom_site_fract_y
 _atom_site_fract_z
 _atom_site_occupancy
  K  K0  1  0.998783  0.998744  0.999885  1
  Ba  Ba1  1  0.749996  0.249935  0.500078  1
  As  As2  1  0.765265  0.765284  0.000018  1
  As  As3  1  0.235045  0.235042  0.000009  1
  As  As4  1  0.986765  0.486741  0.500035  1
  As  As5  1  0.513042  0.013008  0.500000  1
  F  F6  1  0.819774  0.772641  0.213500  1
  F  F7  1  0.559103  0.606260  0.786347  1
  F  F8  1  0.359711  0.803148  0.287028  1
  F  F9  1  0.393692  0.180757  0.951867  1
  F  F10  1  0.228921  0.441769  0.048048  1
  F  F11  1  0.196408  0.483082  0.556094  1
  F  F12  1  0.668836  0.226701  0.706567  1
  F  F13  1  0.773198  0.479859  0.441966  1
  F  F14  1  0.037868  0.331186  0.557997  1
  F  F15  1  0.077664  0.288265  0.052231  1
  F  F16  1  0.236133  0.025473  0.947903  1
  F  F17  1  0.520082  0.962360  0.293456  1
  F  F18  1  0.712743  0.764312  0.790123  1
  F  F19  1  0.974161  0.922703  0.210013  1
  F  F20  1  0.326353  0.124170  0.417507  1
  F  F21  1  0.875050  0.293350  0.202064  1
  F  F22  1  0.091291  0.672973  0.797938  1
  F  F23  1  0.422688  0.346867  0.303173  1
  F  F24  1  0.043677  0.119500  0.696874  1
  F  F25  1  0.706622  0.908756  0.582342  1
  F  F26  1  0.652619  0.956532  0.075141  1
  F  F27  1  0.881455  0.577560  0.924938  1
  F  F28  1  0.516034  0.072657  0.712877  1
  F  F29  1  0.927021  0.640364  0.443980  1
