# generated using pymatgen
data_Sm2Zn2Si2OsRh3
_symmetry_space_group_name_H-M   'P 1'
_cell_length_a   4.11461200
_cell_length_b   4.11461200
_cell_length_c   10.71461000
_cell_angle_alpha   90.00000000
_cell_angle_beta   90.00000000
_cell_angle_gamma   90.00000000
_symmetry_Int_Tables_number   1
_chemical_formula_structural   Sm2Zn2Si2OsRh3
_chemical_formula_sum   'Sm2 Zn2 Si2 Os1 Rh3'
_cell_volume   181.39868921
_cell_formula_units_Z   1
loop_
 _symmetry_equiv_pos_site_id
 _symmetry_equiv_pos_as_xyz
  1  'x, y, z'
loop_
 _atom_site_type_symbol
 _atom_site_label
 _atom_site_symmetry_multiplicity
 _atom_site_fract_x
 _atom_site_fract_y
 _atom_site_fract_z
 _atom_site_occupancy
  Sm  Sm0  1  0.000000  0.500000  0.758601  1
  Sm  Sm1  1  0.500000  0.000000  0.241399  1
  Zn  Zn2  1  0.500000  0.500000  0.500000  1
  Zn  Zn3  1  0.000000  0.000000  0.500000  1
  Si  Si4  1  0.000000  0.500000  0.117741  1
  Si  Si5  1  0.500000  0.000000  0.882259  1
  Os  Os6  1  0.000000  0.000000  0.000000  1
  Rh  Rh7  1  0.500000  0.000000  0.654687  1
  Rh  Rh8  1  0.500000  0.500000  0.000000  1
  Rh  Rh9  1  0.000000  0.500000  0.345313  1
