# generated using pymatgen
data_Th2GaRh5
_symmetry_space_group_name_H-M   'P 1'
_cell_length_a   4.22942400
_cell_length_b   5.88300000
_cell_length_c   11.59465100
_cell_angle_alpha   90.00000000
_cell_angle_beta   90.00000000
_cell_angle_gamma   90.00000000
_symmetry_Int_Tables_number   1
_chemical_formula_structural   Th2GaRh5
_chemical_formula_sum   'Th4 Ga2 Rh10'
_cell_volume   288.49464393
_cell_formula_units_Z   2
loop_
 _symmetry_equiv_pos_site_id
 _symmetry_equiv_pos_as_xyz
  1  'x, y, z'
loop_
 _atom_site_type_symbol
 _atom_site_label
 _atom_site_symmetry_multiplicity
 _atom_site_fract_x
 _atom_site_fract_y
 _atom_site_fract_z
 _atom_site_occupancy
  Th  Th0  1  0.500000  0.186536  0.639653  1
  Th  Th1  1  0.500000  0.813464  0.360347  1
  Th  Th2  1  0.500000  0.686536  0.860347  1
  Th  Th3  1  0.500000  0.313464  0.139653  1
  Ga  Ga4  1  0.000000  0.500000  0.500000  1
  Ga  Ga5  1  0.000000  0.000000  0.000000  1
  Rh  Rh6  1  0.500000  0.191489  0.893739  1
  Rh  Rh7  1  0.500000  0.808511  0.106261  1
  Rh  Rh8  1  0.500000  0.691489  0.606261  1
  Rh  Rh9  1  0.500000  0.308511  0.393739  1
  Rh  Rh10  1  0.000000  0.444119  0.743125  1
  Rh  Rh11  1  0.000000  0.555881  0.256875  1
  Rh  Rh12  1  0.000000  0.000000  0.500000  1
  Rh  Rh13  1  0.000000  0.500000  0.000000  1
  Rh  Rh14  1  0.000000  0.055881  0.243125  1
  Rh  Rh15  1  0.000000  0.944119  0.756875  1
