# generated using pymatgen
data_Dy7YRe13B12
_symmetry_space_group_name_H-M   'P 1'
_cell_length_a   7.80002489
_cell_length_b   7.80002586
_cell_length_c   7.79990307
_cell_angle_alpha   86.38509538
_cell_angle_beta   86.38509604
_cell_angle_gamma   86.38331145
_symmetry_Int_Tables_number   1
_chemical_formula_structural   Dy7YRe13B12
_chemical_formula_sum   'Dy7 Y1 Re13 B12'
_cell_volume   471.82974326
_cell_formula_units_Z   1
loop_
 _symmetry_equiv_pos_site_id
 _symmetry_equiv_pos_as_xyz
  1  'x, y, z'
loop_
 _atom_site_type_symbol
 _atom_site_label
 _atom_site_symmetry_multiplicity
 _atom_site_fract_x
 _atom_site_fract_y
 _atom_site_fract_z
 _atom_site_occupancy
  Dy  Dy0  1  0.641490  0.641490  0.641476  1
  Dy  Dy1  1  0.358585  0.358585  0.358303  1
  Dy  Dy2  1  0.687177  0.188532  0.188538  1
  Dy  Dy3  1  0.188532  0.687177  0.188538  1
  Dy  Dy4  1  0.811437  0.811437  0.312836  1
  Dy  Dy5  1  0.312856  0.811350  0.811503  1
  Dy  Dy6  1  0.811350  0.312856  0.811503  1
  Y  Y7  1  0.188562  0.188562  0.687388  1
  Re  Re8  1  0.999897  0.999897  0.000109  1
  Re  Re9  1  0.596733  0.063393  0.596608  1
  Re  Re10  1  0.596645  0.596645  0.063395  1
  Re  Re11  1  0.063393  0.596733  0.596608  1
  Re  Re12  1  0.403367  0.936576  0.403306  1
  Re  Re13  1  0.403370  0.403370  0.936607  1
  Re  Re14  1  0.936576  0.403367  0.403306  1
  Re  Re15  1  0.922850  0.922850  0.670774  1
  Re  Re16  1  0.670751  0.923006  0.923010  1
  Re  Re17  1  0.923006  0.670751  0.923010  1
  Re  Re18  1  0.077003  0.077003  0.329077  1
  Re  Re19  1  0.329281  0.076990  0.077092  1
  Re  Re20  1  0.076990  0.329281  0.077092  1
  B  B21  1  0.152315  0.847700  0.499995  1
  B  B22  1  0.500052  0.152307  0.847696  1
  B  B23  1  0.847685  0.500019  0.152307  1
  B  B24  1  0.500019  0.847685  0.152307  1
  B  B25  1  0.152307  0.500052  0.847696  1
  B  B26  1  0.847700  0.152315  0.499995  1
  B  B27  1  0.671302  0.500003  0.328698  1
  B  B28  1  0.328706  0.671300  0.499984  1
  B  B29  1  0.500028  0.328730  0.671279  1
  B  B30  1  0.328730  0.500028  0.671279  1
  B  B31  1  0.671300  0.328706  0.499984  1
  B  B32  1  0.500003  0.671302  0.328698  1
