# generated using pymatgen
data_Ti3Si2B4W7
_symmetry_space_group_name_H-M   'P 1'
_cell_length_a   7.01684424
_cell_length_b   7.01104092
_cell_length_c   7.00596304
_cell_angle_alpha   128.87736582
_cell_angle_beta   128.90011534
_cell_angle_gamma   75.27431251
_symmetry_Int_Tables_number   1
_chemical_formula_structural   Ti3Si2B4W7
_chemical_formula_sum   'Ti3 Si2 B4 W7'
_cell_volume   203.16663674
_cell_formula_units_Z   1
loop_
 _symmetry_equiv_pos_site_id
 _symmetry_equiv_pos_as_xyz
  1  'x, y, z'
loop_
 _atom_site_type_symbol
 _atom_site_label
 _atom_site_symmetry_multiplicity
 _atom_site_fract_x
 _atom_site_fract_y
 _atom_site_fract_z
 _atom_site_occupancy
  Ti  Ti0  1  0.999695  0.998917  0.998790  1
  Ti  Ti1  1  0.804951  0.977636  0.500000  1
  Ti  Ti2  1  0.500904  0.500128  0.001210  1
  Si  Si3  1  0.749644  0.750311  0.001801  1
  Si  Si4  1  0.247843  0.248511  0.998199  1
  B  B5  1  0.380579  0.880008  0.258827  1
  B  B6  1  0.877159  0.621868  0.500000  1
  B  B7  1  0.621752  0.121182  0.741173  1
  B  B8  1  0.122411  0.376173  0.500000  1
  W  W9  1  0.304624  0.803939  0.830540  1
  W  W10  1  0.196449  0.025395  0.500000  1
  W  W11  1  0.526869  0.696267  0.500000  1
  W  W12  1  0.025781  0.526209  0.831311  1
  W  W13  1  0.694469  0.194896  0.168689  1
  W  W14  1  0.974085  0.473399  0.169460  1
  W  W15  1  0.472784  0.305160  0.500000  1
