# generated using pymatgen
data_Ta2TiMnRu4
_symmetry_space_group_name_H-M   'P 1'
_cell_length_a   6.27953600
_cell_length_b   4.40082100
_cell_length_c   8.80854600
_cell_angle_alpha   90.00000000
_cell_angle_beta   89.99971091
_cell_angle_gamma   90.00000000
_symmetry_Int_Tables_number   1
_chemical_formula_structural   Ta2TiMnRu4
_chemical_formula_sum   'Ta4 Ti2 Mn2 Ru8'
_cell_volume   243.42517199
_cell_formula_units_Z   2
loop_
 _symmetry_equiv_pos_site_id
 _symmetry_equiv_pos_as_xyz
  1  'x, y, z'
loop_
 _atom_site_type_symbol
 _atom_site_label
 _atom_site_symmetry_multiplicity
 _atom_site_fract_x
 _atom_site_fract_y
 _atom_site_fract_z
 _atom_site_occupancy
  Ta  Ta0  1  0.749996  0.249999  0.117503  1
  Ta  Ta1  1  0.249992  0.749999  0.382491  1
  Ta  Ta2  1  0.750001  0.249999  0.634280  1
  Ta  Ta3  1  0.250003  0.749999  0.865712  1
  Ti  Ti4  1  0.249995  0.249999  0.124425  1
  Ti  Ti5  1  0.749993  0.749999  0.375566  1
  Mn  Mn6  1  0.250015  0.249999  0.623348  1
  Mn  Mn7  1  0.750003  0.749999  0.876688  1
  Ru  Ru8  1  0.004570  0.749999  0.127805  1
  Ru  Ru9  1  0.495421  0.749999  0.127802  1
  Ru  Ru10  1  0.995426  0.249999  0.372192  1
  Ru  Ru11  1  0.504574  0.249999  0.372201  1
  Ru  Ru12  1  0.505567  0.749999  0.621158  1
  Ru  Ru13  1  0.994439  0.749999  0.621162  1
  Ru  Ru14  1  0.494442  0.249999  0.878832  1
  Ru  Ru15  1  0.005563  0.249999  0.878830  1
