# generated using pymatgen
data_RbHo2CuS4
_symmetry_space_group_name_H-M   'P 1'
_cell_length_a   3.96581300
_cell_length_b   7.13843689
_cell_length_c   13.76626500
_cell_angle_alpha   90.00000000
_cell_angle_beta   90.00000000
_cell_angle_gamma   73.87231409
_symmetry_Int_Tables_number   1
_chemical_formula_structural   RbHo2CuS4
_chemical_formula_sum   'Rb2 Ho4 Cu2 S8'
_cell_volume   374.38154061
_cell_formula_units_Z   2
loop_
 _symmetry_equiv_pos_site_id
 _symmetry_equiv_pos_as_xyz
  1  'x, y, z'
loop_
 _atom_site_type_symbol
 _atom_site_label
 _atom_site_symmetry_multiplicity
 _atom_site_fract_x
 _atom_site_fract_y
 _atom_site_fract_z
 _atom_site_occupancy
  Rb  Rb0  1  0.893312  0.213379  0.250000  1
  Rb  Rb1  1  0.106690  0.786620  0.750000  1
  Ho  Ho2  1  0.634209  0.731582  0.061943  1
  Ho  Ho3  1  0.634209  0.731582  0.438057  1
  Ho  Ho4  1  0.365792  0.268419  0.561944  1
  Ho  Ho5  1  0.365792  0.268419  0.938057  1
  Cu  Cu6  1  0.166148  0.667703  0.250000  1
  Cu  Cu7  1  0.833853  0.332296  0.750000  1
  S  S8  1  0.000000  0.000000  0.000000  1
  S  S9  1  0.259528  0.480945  0.107575  1
  S  S10  1  0.576282  0.847439  0.250000  1
  S  S11  1  0.259528  0.480945  0.392425  1
  S  S12  1  0.000000  0.000000  0.500000  1
  S  S13  1  0.740473  0.519055  0.607575  1
  S  S14  1  0.423720  0.152560  0.750000  1
  S  S15  1  0.740473  0.519055  0.892424  1
