# generated using pymatgen
data_Sm2Al3Re14C3
_symmetry_space_group_name_H-M   'P 1'
_cell_length_a   6.99047089
_cell_length_b   6.99047091
_cell_length_c   6.99047163
_cell_angle_alpha   82.48825131
_cell_angle_beta   82.48824513
_cell_angle_gamma   82.48824526
_symmetry_Int_Tables_number   1
_chemical_formula_structural   Sm2Al3Re14C3
_chemical_formula_sum   'Sm2 Al3 Re14 C3'
_cell_volume   333.51152288
_cell_formula_units_Z   1
loop_
 _symmetry_equiv_pos_site_id
 _symmetry_equiv_pos_as_xyz
  1  'x, y, z'
loop_
 _atom_site_type_symbol
 _atom_site_label
 _atom_site_symmetry_multiplicity
 _atom_site_fract_x
 _atom_site_fract_y
 _atom_site_fract_z
 _atom_site_occupancy
  Sm  Sm0  1  0.657295  0.657295  0.657295  1
  Sm  Sm1  1  0.342705  0.342705  0.342705  1
  Al  Al2  1  0.000000  0.000000  0.500000  1
  Al  Al3  1  0.500000  0.000000  0.000000  1
  Al  Al4  1  0.000000  0.500000  0.000000  1
  Re  Re5  1  0.721306  0.278694  0.000000  1
  Re  Re6  1  0.000000  0.721306  0.278694  1
  Re  Re7  1  0.278694  0.000000  0.721306  1
  Re  Re8  1  0.000000  0.278694  0.721306  1
  Re  Re9  1  0.721306  0.000000  0.278694  1
  Re  Re10  1  0.278694  0.721306  0.000000  1
  Re  Re11  1  0.349517  0.349517  0.849939  1
  Re  Re12  1  0.849939  0.349517  0.349517  1
  Re  Re13  1  0.349517  0.849939  0.349517  1
  Re  Re14  1  0.650483  0.650483  0.150061  1
  Re  Re15  1  0.150061  0.650483  0.650483  1
  Re  Re16  1  0.650483  0.150061  0.650483  1
  Re  Re17  1  0.903632  0.903632  0.903632  1
  Re  Re18  1  0.096368  0.096368  0.096368  1
  C  C19  1  0.500000  0.500000  0.000000  1
  C  C20  1  0.000000  0.500000  0.500000  1
  C  C21  1  0.500000  0.000000  0.500000  1
