# generated using pymatgen
data_Ce2Lu10ZnCo4Sn
_symmetry_space_group_name_H-M   'P 1'
_cell_length_a   8.32794996
_cell_length_b   8.07061650
_cell_length_c   8.07061814
_cell_angle_alpha   110.41940209
_cell_angle_beta   109.55012019
_cell_angle_gamma   107.23910612
_symmetry_Int_Tables_number   1
_chemical_formula_structural   Ce2Lu10ZnCo4Sn
_chemical_formula_sum   'Ce2 Lu10 Zn1 Co4 Sn1'
_cell_volume   423.40522427
_cell_formula_units_Z   1
loop_
 _symmetry_equiv_pos_site_id
 _symmetry_equiv_pos_as_xyz
  1  'x, y, z'
loop_
 _atom_site_type_symbol
 _atom_site_label
 _atom_site_symmetry_multiplicity
 _atom_site_fract_x
 _atom_site_fract_y
 _atom_site_fract_z
 _atom_site_occupancy
  Ce  Ce0  1  0.433222  0.217530  0.215691  1
  Ce  Ce1  1  0.566778  0.782470  0.784309  1
  Lu  Lu2  1  0.029017  0.232276  0.796742  1
  Lu  Lu3  1  0.970983  0.767724  0.203258  1
  Lu  Lu4  1  0.179872  0.286531  0.465643  1
  Lu  Lu5  1  0.820128  0.713469  0.534357  1
  Lu  Lu6  1  0.179872  0.714230  0.893340  1
  Lu  Lu7  1  0.820128  0.285770  0.106660  1
  Lu  Lu8  1  0.313221  0.630477  0.299096  1
  Lu  Lu9  1  0.686779  0.369523  0.700904  1
  Lu  Lu10  1  0.313221  0.014125  0.682742  1
  Lu  Lu11  1  0.686779  0.985875  0.317258  1
  Zn  Zn12  1  0.000000  0.000000  0.000000  1
  Co  Co13  1  0.349218  0.011805  0.337414  1
  Co  Co14  1  0.650782  0.988195  0.662586  1
  Co  Co15  1  0.108801  0.616360  0.492441  1
  Co  Co16  1  0.891199  0.383640  0.507559  1
  Sn  Sn17  1  0.500000  0.500000  0.000000  1
