# generated using pymatgen
data_MnAg(SO4)2
_symmetry_space_group_name_H-M   'P 1'
_cell_length_a   4.96552049
_cell_length_b   4.96551979
_cell_length_c   7.25071238
_cell_angle_alpha   93.23837457
_cell_angle_beta   93.23836923
_cell_angle_gamma   64.75824868
_symmetry_Int_Tables_number   1
_chemical_formula_structural   MnAg(SO4)2
_chemical_formula_sum   'Mn1 Ag1 S2 O8'
_cell_volume   161.34404243
_cell_formula_units_Z   1
loop_
 _symmetry_equiv_pos_site_id
 _symmetry_equiv_pos_as_xyz
  1  'x, y, z'
loop_
 _atom_site_type_symbol
 _atom_site_label
 _atom_site_symmetry_multiplicity
 _atom_site_fract_x
 _atom_site_fract_y
 _atom_site_fract_z
 _atom_site_occupancy
  Mn  Mn0  1  0.000000  0.000000  0.000000  1
  Ag  Ag1  1  0.000000  0.000000  0.500000  1
  S  S2  1  0.347775  0.347775  0.774450  1
  S  S3  1  0.652225  0.652225  0.225550  1
  O  O4  1  0.262046  0.262046  0.590384  1
  O  O5  1  0.737954  0.737954  0.409616  1
  O  O6  1  0.684351  0.224234  0.787701  1
  O  O7  1  0.315649  0.775766  0.212299  1
  O  O8  1  0.775766  0.315649  0.212299  1
  O  O9  1  0.224234  0.684351  0.787701  1
  O  O10  1  0.243762  0.243762  0.929349  1
  O  O11  1  0.756238  0.756238  0.070651  1
