# generated using pymatgen
data_LiEu4Zn3Pt4
_symmetry_space_group_name_H-M   'P 1'
_cell_length_a   7.31557966
_cell_length_b   4.39000900
_cell_length_c   8.05859317
_cell_angle_alpha   90.00000000
_cell_angle_beta   90.28534803
_cell_angle_gamma   90.00000000
_symmetry_Int_Tables_number   1
_chemical_formula_structural   LiEu4Zn3Pt4
_chemical_formula_sum   'Li1 Eu4 Zn3 Pt4'
_cell_volume   258.80222140
_cell_formula_units_Z   1
loop_
 _symmetry_equiv_pos_site_id
 _symmetry_equiv_pos_as_xyz
  1  'x, y, z'
loop_
 _atom_site_type_symbol
 _atom_site_label
 _atom_site_symmetry_multiplicity
 _atom_site_fract_x
 _atom_site_fract_y
 _atom_site_fract_z
 _atom_site_occupancy
  Li  Li0  1  0.150156  0.249999  0.071395  1
  Eu  Eu1  1  0.483282  0.750000  0.194174  1
  Eu  Eu2  1  0.984819  0.750000  0.306773  1
  Eu  Eu3  1  0.015530  0.249999  0.690773  1
  Eu  Eu4  1  0.517067  0.249999  0.807352  1
  Zn  Zn5  1  0.661396  0.249999  0.425174  1
  Zn  Zn6  1  0.341019  0.750000  0.574645  1
  Zn  Zn7  1  0.846932  0.750000  0.926859  1
  Pt  Pt8  1  0.774717  0.249999  0.106453  1
  Pt  Pt9  1  0.286258  0.249999  0.400560  1
  Pt  Pt10  1  0.719208  0.750000  0.605863  1
  Pt  Pt11  1  0.219615  0.750000  0.889981  1
