# generated using pymatgen
data_CaNd4Si3
_symmetry_space_group_name_H-M   'P 1'
_cell_length_a   8.92842808
_cell_length_b   8.92842781
_cell_length_c   8.92842801
_cell_angle_alpha   128.57437221
_cell_angle_beta   128.57436635
_cell_angle_gamma   75.69639975
_symmetry_Int_Tables_number   1
_chemical_formula_structural   CaNd4Si3
_chemical_formula_sum   'Ca2 Nd8 Si6'
_cell_volume   423.16925697
_cell_formula_units_Z   2
loop_
 _symmetry_equiv_pos_site_id
 _symmetry_equiv_pos_as_xyz
  1  'x, y, z'
loop_
 _atom_site_type_symbol
 _atom_site_label
 _atom_site_symmetry_multiplicity
 _atom_site_fract_x
 _atom_site_fract_y
 _atom_site_fract_z
 _atom_site_occupancy
  Ca  Ca0  1  0.000000  0.000000  0.000000  1
  Ca  Ca1  1  0.500000  0.500000  0.000000  1
  Nd  Nd2  1  0.823505  0.323505  0.855888  1
  Nd  Nd3  1  0.176495  0.676495  0.144112  1
  Nd  Nd4  1  0.467618  0.967618  0.144112  1
  Nd  Nd5  1  0.323505  0.467618  0.500000  1
  Nd  Nd6  1  0.032382  0.176495  0.500000  1
  Nd  Nd7  1  0.532382  0.032382  0.855888  1
  Nd  Nd8  1  0.676495  0.532382  0.500000  1
  Nd  Nd9  1  0.967618  0.823505  0.500000  1
  Si  Si10  1  0.113771  0.613771  0.727543  1
  Si  Si11  1  0.886229  0.386229  0.272457  1
  Si  Si12  1  0.613771  0.886229  0.500000  1
  Si  Si13  1  0.386229  0.113771  0.500000  1
  Si  Si14  1  0.250000  0.250000  0.000000  1
  Si  Si15  1  0.750000  0.750000  0.000000  1
