# generated using pymatgen
data_YbHoTm5Sn23Ru6
_symmetry_space_group_name_H-M   'P 1'
_cell_length_a   9.81265740
_cell_length_b   9.81265697
_cell_length_c   10.07673305
_cell_angle_alpha   89.84799298
_cell_angle_beta   90.15200928
_cell_angle_gamma   119.69390447
_symmetry_Int_Tables_number   1
_chemical_formula_structural   YbHoTm5Sn23Ru6
_chemical_formula_sum   'Yb1 Ho1 Tm5 Sn23 Ru6'
_cell_volume   842.85505351
_cell_formula_units_Z   1
loop_
 _symmetry_equiv_pos_site_id
 _symmetry_equiv_pos_as_xyz
  1  'x, y, z'
loop_
 _atom_site_type_symbol
 _atom_site_label
 _atom_site_symmetry_multiplicity
 _atom_site_fract_x
 _atom_site_fract_y
 _atom_site_fract_z
 _atom_site_occupancy
  Yb  Yb0  1  0.000173  0.999827  0.999702  1
  Ho  Ho1  1  0.485321  0.514679  0.302147  1
  Tm  Tm2  1  0.513746  0.486254  0.698589  1
  Tm  Tm3  1  0.513620  0.026531  0.699390  1
  Tm  Tm4  1  0.973469  0.486380  0.699390  1
  Tm  Tm5  1  0.026589  0.513401  0.300639  1
  Tm  Tm6  1  0.486599  0.973411  0.300639  1
  Sn  Sn7  1  0.666185  0.333815  0.175811  1
  Sn  Sn8  1  0.666954  0.333046  0.869382  1
  Sn  Sn9  1  0.332101  0.667899  0.129788  1
  Sn  Sn10  1  0.348232  0.348233  0.000103  1
  Sn  Sn11  1  0.000482  0.651824  0.999606  1
  Sn  Sn12  1  0.651929  0.000431  0.000249  1
  Sn  Sn13  1  0.651767  0.651768  0.000103  1
  Sn  Sn14  1  0.333780  0.666220  0.824068  1
  Sn  Sn15  1  0.440771  0.220952  0.465574  1
  Sn  Sn16  1  0.220441  0.779559  0.534890  1
  Sn  Sn17  1  0.220737  0.440599  0.534958  1
  Sn  Sn18  1  0.559401  0.779263  0.534958  1
  Sn  Sn19  1  0.119463  0.880537  0.272911  1
  Sn  Sn20  1  0.779048  0.559229  0.465574  1
  Sn  Sn21  1  0.779673  0.220327  0.465129  1
  Sn  Sn22  1  0.348176  0.999518  0.999606  1
  Sn  Sn23  1  0.119209  0.237531  0.273633  1
  Sn  Sn24  1  0.762469  0.880791  0.273633  1
  Sn  Sn25  1  0.238580  0.119856  0.726265  1
  Sn  Sn26  1  0.880144  0.761420  0.726265  1
  Sn  Sn27  1  0.880833  0.119167  0.726971  1
  Sn  Sn28  1  0.000313  0.999687  0.500174  1
  Sn  Sn29  1  0.999569  0.348071  0.000249  1
  Ru  Ru30  1  0.171265  0.828735  0.794493  1
  Ru  Ru31  1  0.171193  0.343788  0.795052  1
  Ru  Ru32  1  0.656212  0.828807  0.795052  1
  Ru  Ru33  1  0.343535  0.170565  0.204836  1
  Ru  Ru34  1  0.829435  0.656465  0.204836  1
  Ru  Ru35  1  0.828588  0.171412  0.205336  1
