# generated using pymatgen
data_HfVBr6
_symmetry_space_group_name_H-M   'P 1'
_cell_length_a   6.61030600
_cell_length_b   6.61030607
_cell_length_c   13.88143500
_cell_angle_alpha   90.00000000
_cell_angle_beta   90.00000000
_cell_angle_gamma   119.99999967
_symmetry_Int_Tables_number   1
_chemical_formula_structural   HfVBr6
_chemical_formula_sum   'Hf2 V2 Br12'
_cell_volume   525.30088134
_cell_formula_units_Z   2
loop_
 _symmetry_equiv_pos_site_id
 _symmetry_equiv_pos_as_xyz
  1  'x, y, z'
loop_
 _atom_site_type_symbol
 _atom_site_label
 _atom_site_symmetry_multiplicity
 _atom_site_fract_x
 _atom_site_fract_y
 _atom_site_fract_z
 _atom_site_occupancy
  Hf  Hf0  1  0.333333  0.666667  0.250000  1
  Hf  Hf1  1  0.666667  0.333333  0.750000  1
  V  V2  1  0.000000  0.000000  0.250000  1
  V  V3  1  0.000000  0.000000  0.750000  1
  Br  Br4  1  0.666963  0.982213  0.140272  1
  Br  Br5  1  0.017787  0.684750  0.140272  1
  Br  Br6  1  0.315250  0.333037  0.140272  1
  Br  Br7  1  0.017787  0.333037  0.359728  1
  Br  Br8  1  0.333037  0.315250  0.640272  1
  Br  Br9  1  0.684750  0.017787  0.640272  1
  Br  Br10  1  0.982213  0.666963  0.640272  1
  Br  Br11  1  0.684750  0.666963  0.859728  1
  Br  Br12  1  0.982213  0.315250  0.859728  1
  Br  Br13  1  0.333037  0.017787  0.859728  1
  Br  Br14  1  0.666963  0.684750  0.359728  1
  Br  Br15  1  0.315250  0.982213  0.359728  1
