# generated using pymatgen
data_ThTcGeH
_symmetry_space_group_name_H-M   'P 1'
_cell_length_a   4.27894000
_cell_length_b   4.27894000
_cell_length_c   7.28128700
_cell_angle_alpha   90.00000000
_cell_angle_beta   90.00000000
_cell_angle_gamma   90.00000000
_symmetry_Int_Tables_number   1
_chemical_formula_structural   ThTcGeH
_chemical_formula_sum   'Th2 Tc2 Ge2 H2'
_cell_volume   133.31546848
_cell_formula_units_Z   2
loop_
 _symmetry_equiv_pos_site_id
 _symmetry_equiv_pos_as_xyz
  1  'x, y, z'
loop_
 _atom_site_type_symbol
 _atom_site_label
 _atom_site_symmetry_multiplicity
 _atom_site_fract_x
 _atom_site_fract_y
 _atom_site_fract_z
 _atom_site_occupancy
  Th  Th0  1  0.500000  0.000000  0.323575  1
  Th  Th1  1  0.000000  0.500000  0.676425  1
  Tc  Tc2  1  0.500000  0.500000  0.000000  1
  Tc  Tc3  1  0.000000  0.000000  0.000000  1
  Ge  Ge4  1  0.500000  0.000000  0.813119  1
  Ge  Ge5  1  0.000000  0.500000  0.186881  1
  H  H6  1  0.000000  0.000000  0.500000  1
  H  H7  1  0.500000  0.500000  0.500000  1
