# generated using pymatgen
data_Sm5Dy3(Si3Pt)4
_symmetry_space_group_name_H-M   'P 1'
_cell_length_a   8.17748900
_cell_length_b   8.17748943
_cell_length_c   8.31235000
_cell_angle_alpha   90.00000000
_cell_angle_beta   90.00000000
_cell_angle_gamma   119.99999421
_symmetry_Int_Tables_number   1
_chemical_formula_structural   Sm5Dy3(Si3Pt)4
_chemical_formula_sum   'Sm5 Dy3 Si12 Pt4'
_cell_volume   481.38708940
_cell_formula_units_Z   1
loop_
 _symmetry_equiv_pos_site_id
 _symmetry_equiv_pos_as_xyz
  1  'x, y, z'
loop_
 _atom_site_type_symbol
 _atom_site_label
 _atom_site_symmetry_multiplicity
 _atom_site_fract_x
 _atom_site_fract_y
 _atom_site_fract_z
 _atom_site_occupancy
  Sm  Sm0  1  0.000000  0.000000  0.250000  1
  Sm  Sm1  1  0.000000  0.000000  0.750000  1
  Sm  Sm2  1  0.499539  0.500461  0.250000  1
  Sm  Sm3  1  0.499539  0.999078  0.250000  1
  Sm  Sm4  1  0.000922  0.500461  0.250000  1
  Dy  Dy5  1  0.501275  0.498725  0.750000  1
  Dy  Dy6  1  0.501275  0.002550  0.750000  1
  Dy  Dy7  1  0.997450  0.498725  0.750000  1
  Si  Si8  1  0.165936  0.834064  0.501950  1
  Si  Si9  1  0.165936  0.331873  0.501950  1
  Si  Si10  1  0.668127  0.834064  0.501950  1
  Si  Si11  1  0.834246  0.165754  0.502083  1
  Si  Si12  1  0.834246  0.668491  0.502083  1
  Si  Si13  1  0.331509  0.165754  0.502083  1
  Si  Si14  1  0.834246  0.165754  0.997917  1
  Si  Si15  1  0.834246  0.668491  0.997917  1
  Si  Si16  1  0.331509  0.165754  0.997917  1
  Si  Si17  1  0.165936  0.834064  0.998050  1
  Si  Si18  1  0.165936  0.331873  0.998050  1
  Si  Si19  1  0.668127  0.834064  0.998050  1
  Pt  Pt20  1  0.333333  0.666667  0.510432  1
  Pt  Pt21  1  0.666667  0.333333  0.506730  1
  Pt  Pt22  1  0.666667  0.333333  0.993270  1
  Pt  Pt23  1  0.333333  0.666667  0.989568  1
