# generated using pymatgen
data_Ho9ScPt18
_symmetry_space_group_name_H-M   'P 1'
_cell_length_a   9.73585200
_cell_length_b   9.73585243
_cell_length_c   5.76448900
_cell_angle_alpha   90.00000000
_cell_angle_beta   90.00000000
_cell_angle_gamma   89.96897412
_symmetry_Int_Tables_number   1
_chemical_formula_structural   Ho9ScPt18
_chemical_formula_sum   'Ho9 Sc1 Pt18'
_cell_volume   546.39749148
_cell_formula_units_Z   1
loop_
 _symmetry_equiv_pos_site_id
 _symmetry_equiv_pos_as_xyz
  1  'x, y, z'
loop_
 _atom_site_type_symbol
 _atom_site_label
 _atom_site_symmetry_multiplicity
 _atom_site_fract_x
 _atom_site_fract_y
 _atom_site_fract_z
 _atom_site_occupancy
  Ho  Ho0  1  0.452893  0.809276  0.000000  1
  Ho  Ho1  1  0.547107  0.190724  0.000000  1
  Ho  Ho2  1  0.190724  0.547107  0.000000  1
  Ho  Ho3  1  0.809276  0.452893  0.000000  1
  Ho  Ho4  1  0.500000  0.500000  0.500000  1
  Ho  Ho5  1  0.308501  0.047150  0.500000  1
  Ho  Ho6  1  0.691499  0.952850  0.500000  1
  Ho  Ho7  1  0.952850  0.691499  0.500000  1
  Ho  Ho8  1  0.047150  0.308501  0.500000  1
  Sc  Sc9  1  0.000000  0.000000  0.000000  1
  Pt  Pt10  1  0.189671  0.810329  0.249629  1
  Pt  Pt11  1  0.810329  0.189671  0.750371  1
  Pt  Pt12  1  0.810329  0.189671  0.249629  1
  Pt  Pt13  1  0.189671  0.810329  0.750371  1
  Pt  Pt14  1  0.440131  0.781944  0.500000  1
  Pt  Pt15  1  0.559869  0.218056  0.500000  1
  Pt  Pt16  1  0.218056  0.559869  0.500000  1
  Pt  Pt17  1  0.781944  0.440131  0.500000  1
  Pt  Pt18  1  0.307510  0.307510  0.248701  1
  Pt  Pt19  1  0.692490  0.692490  0.751299  1
  Pt  Pt20  1  0.692490  0.692490  0.248701  1
  Pt  Pt21  1  0.307510  0.307510  0.751299  1
  Pt  Pt22  1  0.275471  0.058299  0.000000  1
  Pt  Pt23  1  0.724529  0.941701  0.000000  1
  Pt  Pt24  1  0.941701  0.724529  0.000000  1
  Pt  Pt25  1  0.058299  0.275471  0.000000  1
  Pt  Pt26  1  0.000000  0.000000  0.500000  1
  Pt  Pt27  1  0.500000  0.500000  0.000000  1
