# generated using pymatgen
data_Tb2Ho2Ga4Ir3Pd
_symmetry_space_group_name_H-M   'P 1'
_cell_length_a   4.36488400
_cell_length_b   6.83802835
_cell_length_c   7.79431790
_cell_angle_alpha   89.95401446
_cell_angle_beta   90.00000000
_cell_angle_gamma   90.00000000
_symmetry_Int_Tables_number   1
_chemical_formula_structural   Tb2Ho2Ga4Ir3Pd
_chemical_formula_sum   'Tb2 Ho2 Ga4 Ir3 Pd1'
_cell_volume   232.63849457
_cell_formula_units_Z   1
loop_
 _symmetry_equiv_pos_site_id
 _symmetry_equiv_pos_as_xyz
  1  'x, y, z'
loop_
 _atom_site_type_symbol
 _atom_site_label
 _atom_site_symmetry_multiplicity
 _atom_site_fract_x
 _atom_site_fract_y
 _atom_site_fract_z
 _atom_site_occupancy
  Tb  Tb0  1  0.250000  0.030970  0.810742  1
  Tb  Tb1  1  0.250000  0.521499  0.684037  1
  Ho  Ho2  1  0.750000  0.979944  0.195641  1
  Ho  Ho3  1  0.750000  0.476864  0.310398  1
  Ga  Ga4  1  0.250000  0.155789  0.429548  1
  Ga  Ga5  1  0.250000  0.654402  0.070333  1
  Ga  Ga6  1  0.750000  0.845042  0.566750  1
  Ga  Ga7  1  0.750000  0.338476  0.931172  1
  Ir  Ir8  1  0.250000  0.768094  0.387916  1
  Ir  Ir9  1  0.250000  0.268308  0.110822  1
  Ir  Ir10  1  0.750000  0.231367  0.610169  1
  Pd  Pd11  1  0.750000  0.729243  0.892472  1
