# generated using pymatgen
data_ZnSb2Br2O3
_symmetry_space_group_name_H-M   'P 1'
_cell_length_a   8.73916615
_cell_length_b   9.79689098
_cell_length_c   9.95398905
_cell_angle_alpha   63.87213045
_cell_angle_beta   82.92324596
_cell_angle_gamma   87.89202545
_symmetry_Int_Tables_number   1
_chemical_formula_structural   ZnSb2Br2O3
_chemical_formula_sum   'Zn4 Sb8 Br8 O12'
_cell_volume   759.16629649
_cell_formula_units_Z   4
loop_
 _symmetry_equiv_pos_site_id
 _symmetry_equiv_pos_as_xyz
  1  'x, y, z'
loop_
 _atom_site_type_symbol
 _atom_site_label
 _atom_site_symmetry_multiplicity
 _atom_site_fract_x
 _atom_site_fract_y
 _atom_site_fract_z
 _atom_site_occupancy
  Zn  Zn0  1  0.495339  0.640707  0.103870  1
  Zn  Zn1  1  0.504666  0.859290  0.396129  1
  Zn  Zn2  1  0.495343  0.140710  0.603868  1
  Zn  Zn3  1  0.504659  0.359293  0.896128  1
  Sb  Sb4  1  0.681859  0.012385  0.933697  1
  Sb  Sb5  1  0.681861  0.512385  0.433699  1
  Sb  Sb6  1  0.318143  0.987614  0.066300  1
  Sb  Sb7  1  0.318143  0.487616  0.566299  1
  Sb  Sb8  1  0.683934  0.795559  0.722965  1
  Sb  Sb9  1  0.683939  0.295561  0.222961  1
  Sb  Sb10  1  0.316066  0.204436  0.277038  1
  Sb  Sb11  1  0.316059  0.704440  0.777035  1
  Br  Br12  1  0.772597  0.928930  0.290622  1
  Br  Br13  1  0.772590  0.428932  0.790612  1
  Br  Br14  1  0.227408  0.071076  0.709372  1
  Br  Br15  1  0.227406  0.571078  0.209394  1
  Br  Br16  1  0.864655  0.246127  0.463507  1
  Br  Br17  1  0.864657  0.746133  0.963506  1
  Br  Br18  1  0.135324  0.753857  0.536513  1
  Br  Br19  1  0.135344  0.253870  0.036494  1
  O  O20  1  0.482336  0.643961  0.425753  1
  O  O21  1  0.482332  0.143961  0.925748  1
  O  O22  1  0.517669  0.356039  0.574247  1
  O  O23  1  0.517669  0.856040  0.074247  1
  O  O24  1  0.376055  0.011527  0.249390  1
  O  O25  1  0.376055  0.511532  0.749387  1
  O  O26  1  0.623943  0.988469  0.750611  1
  O  O27  1  0.623949  0.488470  0.250609  1
  O  O28  1  0.517639  0.169089  0.390352  1
  O  O29  1  0.517633  0.669090  0.890354  1
  O  O30  1  0.482362  0.830910  0.609645  1
  O  O31  1  0.482363  0.330910  0.109646  1
