# generated using pymatgen
data_Co8Si4Mo5W7C2
_symmetry_space_group_name_H-M   'P 1'
_cell_length_a   7.72297092
_cell_length_b   7.72296989
_cell_length_c   7.72381400
_cell_angle_alpha   59.99637580
_cell_angle_beta   59.99638023
_cell_angle_gamma   60.00824111
_symmetry_Int_Tables_number   1
_chemical_formula_structural   Co8Si4Mo5W7C2
_chemical_formula_sum   'Co8 Si4 Mo5 W7 C2'
_cell_volume   325.75329017
_cell_formula_units_Z   1
loop_
 _symmetry_equiv_pos_site_id
 _symmetry_equiv_pos_as_xyz
  1  'x, y, z'
loop_
 _atom_site_type_symbol
 _atom_site_label
 _atom_site_symmetry_multiplicity
 _atom_site_fract_x
 _atom_site_fract_y
 _atom_site_fract_z
 _atom_site_occupancy
  Co  Co0  1  0.417354  0.417354  0.746069  1
  Co  Co1  1  0.418255  0.745810  0.417969  1
  Co  Co2  1  0.745810  0.418255  0.417969  1
  Co  Co3  1  0.417354  0.417354  0.419225  1
  Co  Co4  1  0.831032  0.831032  0.506256  1
  Co  Co5  1  0.832918  0.505875  0.830603  1
  Co  Co6  1  0.505875  0.832918  0.830603  1
  Co  Co7  1  0.831032  0.831032  0.831678  1
  Si  Si8  1  0.624398  0.624398  0.126284  1
  Si  Si9  1  0.625601  0.126304  0.624047  1
  Si  Si10  1  0.126304  0.625601  0.624047  1
  Si  Si11  1  0.624398  0.624398  0.624921  1
  Mo  Mo12  1  0.803246  0.196284  0.803750  1
  Mo  Mo13  1  0.196284  0.803246  0.803750  1
  Mo  Mo14  1  0.804283  0.804283  0.195717  1
  Mo  Mo15  1  0.196284  0.803246  0.196720  1
  Mo  Mo16  1  0.803246  0.196284  0.196720  1
  W  W17  1  0.052972  0.052972  0.447028  1
  W  W18  1  0.447003  0.052747  0.447103  1
  W  W19  1  0.052747  0.447003  0.447103  1
  W  W20  1  0.447130  0.447130  0.052870  1
  W  W21  1  0.052747  0.447003  0.053147  1
  W  W22  1  0.447003  0.052747  0.053147  1
  W  W23  1  0.196128  0.196128  0.803872  1
  C  C24  1  0.250096  0.250096  0.249904  1
  C  C25  1  0.000498  0.000498  0.999502  1
