# generated using pymatgen
data_Eu4AgH12Pt
_symmetry_space_group_name_H-M   'P 1'
_cell_length_a   7.26322270
_cell_length_b   7.26322247
_cell_length_c   5.49864376
_cell_angle_alpha   89.99646922
_cell_angle_beta   89.99647169
_cell_angle_gamma   135.34205239
_symmetry_Int_Tables_number   1
_chemical_formula_structural   Eu4AgH12Pt
_chemical_formula_sum   'Eu4 Ag1 H12 Pt1'
_cell_volume   203.88770401
_cell_formula_units_Z   1
loop_
 _symmetry_equiv_pos_site_id
 _symmetry_equiv_pos_as_xyz
  1  'x, y, z'
loop_
 _atom_site_type_symbol
 _atom_site_label
 _atom_site_symmetry_multiplicity
 _atom_site_fract_x
 _atom_site_fract_y
 _atom_site_fract_z
 _atom_site_occupancy
  Eu  Eu0  1  0.652183  0.347817  0.000000  1
  Eu  Eu1  1  0.347817  0.652183  0.000000  1
  Eu  Eu2  1  0.851867  0.148133  0.500000  1
  Eu  Eu3  1  0.148133  0.851867  0.500000  1
  Ag  Ag4  1  0.000000  0.000000  0.000000  1
  H  H5  1  0.865737  0.134263  0.000000  1
  H  H6  1  0.134263  0.865737  0.000000  1
  H  H7  1  0.626655  0.373345  0.500000  1
  H  H8  1  0.373345  0.626655  0.500000  1
  H  H9  1  0.000124  0.500175  0.255969  1
  H  H10  1  0.999876  0.499825  0.744031  1
  H  H11  1  0.499825  0.999876  0.744031  1
  H  H12  1  0.500175  0.000124  0.255969  1
  H  H13  1  0.272797  0.272797  0.276588  1
  H  H14  1  0.727203  0.727203  0.723412  1
  H  H15  1  0.279247  0.279247  0.729946  1
  H  H16  1  0.720753  0.720753  0.270054  1
  Pt  Pt17  1  0.500000  0.500000  0.500000  1
