# generated using pymatgen
data_Na2LiAgTe2
_symmetry_space_group_name_H-M   'P 1'
_cell_length_a   4.63351100
_cell_length_b   7.80522600
_cell_length_c   8.38910600
_cell_angle_alpha   90.00000000
_cell_angle_beta   90.00000000
_cell_angle_gamma   90.00000000
_symmetry_Int_Tables_number   1
_chemical_formula_structural   Na2LiAgTe2
_chemical_formula_sum   'Na4 Li2 Ag2 Te4'
_cell_volume   303.39705639
_cell_formula_units_Z   2
loop_
 _symmetry_equiv_pos_site_id
 _symmetry_equiv_pos_as_xyz
  1  'x, y, z'
loop_
 _atom_site_type_symbol
 _atom_site_label
 _atom_site_symmetry_multiplicity
 _atom_site_fract_x
 _atom_site_fract_y
 _atom_site_fract_z
 _atom_site_occupancy
  Na  Na0  1  0.750000  0.482320  0.314928  1
  Na  Na1  1  0.250000  0.014135  0.814827  1
  Na  Na2  1  0.750000  0.982320  0.185072  1
  Na  Na3  1  0.250000  0.514135  0.685173  1
  Li  Li4  1  0.750000  0.362809  0.933153  1
  Li  Li5  1  0.750000  0.862809  0.566847  1
  Ag  Ag6  1  0.250000  0.642246  0.071703  1
  Ag  Ag7  1  0.250000  0.142246  0.428297  1
  Te  Te8  1  0.250000  0.769311  0.394581  1
  Te  Te9  1  0.250000  0.269311  0.105419  1
  Te  Te10  1  0.750000  0.729179  0.883968  1
  Te  Te11  1  0.750000  0.229179  0.616032  1
