# generated using pymatgen
data_Tm4B12RhW
_symmetry_space_group_name_H-M   'P 1'
_cell_length_a   3.60849900
_cell_length_b   9.13933162
_cell_length_c   11.54797341
_cell_angle_alpha   90.44528602
_cell_angle_beta   90.00000000
_cell_angle_gamma   90.00000000
_symmetry_Int_Tables_number   1
_chemical_formula_structural   Tm4B12RhW
_chemical_formula_sum   'Tm8 B24 Rh2 W2'
_cell_volume   380.83222024
_cell_formula_units_Z   2
loop_
 _symmetry_equiv_pos_site_id
 _symmetry_equiv_pos_as_xyz
  1  'x, y, z'
loop_
 _atom_site_type_symbol
 _atom_site_label
 _atom_site_symmetry_multiplicity
 _atom_site_fract_x
 _atom_site_fract_y
 _atom_site_fract_z
 _atom_site_occupancy
  Tm  Tm0  1  0.500000  0.319690  0.411794  1
  Tm  Tm1  1  0.500000  0.680310  0.588206  1
  Tm  Tm2  1  0.500000  0.175365  0.916553  1
  Tm  Tm3  1  0.500000  0.824635  0.083447  1
  Tm  Tm4  1  0.500000  0.444465  0.126856  1
  Tm  Tm5  1  0.500000  0.555535  0.873144  1
  Tm  Tm6  1  0.500000  0.055360  0.627253  1
  Tm  Tm7  1  0.500000  0.944640  0.372747  1
  B  B8  1  0.000000  0.107706  0.471827  1
  B  B9  1  0.000000  0.892294  0.528173  1
  B  B10  1  0.000000  0.395669  0.970277  1
  B  B11  1  0.000000  0.604331  0.029723  1
  B  B12  1  0.000000  0.133259  0.318438  1
  B  B13  1  0.000000  0.866741  0.681562  1
  B  B14  1  0.000000  0.367492  0.816057  1
  B  B15  1  0.000000  0.632508  0.183943  1
  B  B16  1  0.000000  0.051494  0.065442  1
  B  B17  1  0.000000  0.948506  0.934558  1
  B  B18  1  0.000000  0.446397  0.565158  1
  B  B19  1  0.000000  0.553603  0.434842  1
  B  B20  1  0.000000  0.483562  0.288950  1
  B  B21  1  0.000000  0.516438  0.711050  1
  B  B22  1  0.000000  0.020953  0.785658  1
  B  B23  1  0.000000  0.979047  0.214342  1
  B  B24  1  0.000000  0.251580  0.078749  1
  B  B25  1  0.000000  0.748420  0.921251  1
  B  B26  1  0.000000  0.251098  0.578552  1
  B  B27  1  0.000000  0.748902  0.421448  1
  B  B28  1  0.000000  0.297469  0.237332  1
  B  B29  1  0.000000  0.702531  0.762668  1
  B  B30  1  0.000000  0.208486  0.734324  1
  B  B31  1  0.000000  0.791514  0.265676  1
  Rh  Rh32  1  0.500000  0.361282  0.678501  1
  Rh  Rh33  1  0.500000  0.638718  0.321499  1
  W  W34  1  0.500000  0.139387  0.180892  1
  W  W35  1  0.500000  0.860613  0.819108  1
