# generated using pymatgen
data_Li2HfCo8TcP6
_symmetry_space_group_name_H-M   'P 1'
_cell_length_a   11.85143993
_cell_length_b   11.77490782
_cell_length_c   3.58111500
_cell_angle_alpha   90.00000000
_cell_angle_beta   90.00000000
_cell_angle_gamma   119.90045899
_symmetry_Int_Tables_number   1
_chemical_formula_structural   Li2HfCo8TcP6
_chemical_formula_sum   'Li4 Hf2 Co16 Tc2 P12'
_cell_volume   433.22376939
_cell_formula_units_Z   2
loop_
 _symmetry_equiv_pos_site_id
 _symmetry_equiv_pos_as_xyz
  1  'x, y, z'
loop_
 _atom_site_type_symbol
 _atom_site_label
 _atom_site_symmetry_multiplicity
 _atom_site_fract_x
 _atom_site_fract_y
 _atom_site_fract_z
 _atom_site_occupancy
  Li  Li0  1  0.817301  0.817415  0.500000  1
  Li  Li1  1  0.332850  0.668555  0.000000  1
  Li  Li2  1  0.666046  0.332389  0.000000  1
  Li  Li3  1  0.002465  0.558261  0.000000  1
  Hf  Hf4  1  0.998510  0.181187  0.500000  1
  Hf  Hf5  1  0.181754  0.000070  0.500000  1
  Co  Co6  1  0.624312  0.820995  0.000000  1
  Co  Co7  1  0.370351  0.194819  0.000000  1
  Co  Co8  1  0.000378  0.712816  0.500000  1
  Co  Co9  1  0.279371  0.278725  0.500000  1
  Co  Co10  1  0.871598  0.353869  0.500000  1
  Co  Co11  1  0.720771  0.002245  0.500000  1
  Co  Co12  1  0.821142  0.621787  0.000000  1
  Co  Co13  1  0.179263  0.803499  0.000000  1
  Co  Co14  1  0.355215  0.878285  0.500000  1
  Co  Co15  1  0.127399  0.479020  0.500000  1
  Co  Co16  1  0.647003  0.524954  0.500000  1
  Co  Co17  1  0.999843  0.994443  0.000000  1
  Co  Co18  1  0.517439  0.647762  0.500000  1
  Co  Co19  1  0.481939  0.132178  0.500000  1
  Co  Co20  1  0.194004  0.368907  0.000000  1
  Co  Co21  1  0.808483  0.176624  0.000000  1
  Tc  Tc22  1  0.445447  0.446909  0.000000  1
  Tc  Tc23  1  0.556465  0.005402  0.000000  1
  P  P24  1  0.000895  0.362112  0.000000  1
  P  P25  1  0.824860  0.511102  0.500000  1
  P  P26  1  0.683569  0.171177  0.500000  1
  P  P27  1  0.175011  0.174362  0.000000  1
  P  P28  1  0.640801  0.642528  0.000000  1
  P  P29  1  0.821480  0.994197  0.000000  1
  P  P30  1  0.514223  0.832953  0.500000  1
  P  P31  1  0.175796  0.685160  0.500000  1
  P  P32  1  0.360281  0.001193  0.000000  1
  P  P33  1  0.487922  0.320933  0.500000  1
  P  P34  1  0.999501  0.815622  0.000000  1
  P  P35  1  0.316312  0.487544  0.500000  1
