# generated using pymatgen
data_Tm2MoWC3
_symmetry_space_group_name_H-M   'P 1'
_cell_length_a   6.03144346
_cell_length_b   6.03144354
_cell_length_c   5.66136410
_cell_angle_alpha   69.41052802
_cell_angle_beta   69.41052942
_cell_angle_gamma   31.83707190
_symmetry_Int_Tables_number   1
_chemical_formula_structural   Tm2MoWC3
_chemical_formula_sum   'Tm2 Mo1 W1 C3'
_cell_volume   101.11532325
_cell_formula_units_Z   1
loop_
 _symmetry_equiv_pos_site_id
 _symmetry_equiv_pos_as_xyz
  1  'x, y, z'
loop_
 _atom_site_type_symbol
 _atom_site_label
 _atom_site_symmetry_multiplicity
 _atom_site_fract_x
 _atom_site_fract_y
 _atom_site_fract_z
 _atom_site_occupancy
  Tm  Tm0  1  0.610968  0.610968  0.171212  1
  Tm  Tm1  1  0.388991  0.388991  0.825396  1
  Mo  Mo2  1  0.154897  0.154897  0.672969  1
  W  W3  1  0.844131  0.844131  0.329369  1
  C  C4  1  0.752825  0.752825  0.736999  1
  C  C5  1  0.248905  0.248905  0.261592  1
  C  C6  1  0.999283  0.999283  0.002464  1
