# generated using pymatgen
data_YbHo3B16Os3Ru
_symmetry_space_group_name_H-M   'P 1'
_cell_length_a   3.55106800
_cell_length_b   5.95921022
_cell_length_c   11.51622107
_cell_angle_alpha   89.94679450
_cell_angle_beta   90.00000000
_cell_angle_gamma   90.00000000
_symmetry_Int_Tables_number   1
_chemical_formula_structural   YbHo3B16Os3Ru
_chemical_formula_sum   'Yb1 Ho3 B16 Os3 Ru1'
_cell_volume   243.70110622
_cell_formula_units_Z   1
loop_
 _symmetry_equiv_pos_site_id
 _symmetry_equiv_pos_as_xyz
  1  'x, y, z'
loop_
 _atom_site_type_symbol
 _atom_site_label
 _atom_site_symmetry_multiplicity
 _atom_site_fract_x
 _atom_site_fract_y
 _atom_site_fract_z
 _atom_site_occupancy
  Yb  Yb0  1  0.500000  0.869881  0.649777  1
  Ho  Ho1  1  0.500000  0.627705  0.149724  1
  Ho  Ho2  1  0.500000  0.371589  0.849168  1
  Ho  Ho3  1  0.500000  0.128282  0.350815  1
  B  B4  1  0.000000  0.975769  0.191714  1
  B  B5  1  0.000000  0.024666  0.808237  1
  B  B6  1  0.000000  0.475014  0.308609  1
  B  B7  1  0.000000  0.525332  0.691150  1
  B  B8  1  0.000000  0.789561  0.314591  1
  B  B9  1  0.000000  0.210644  0.685277  1
  B  B10  1  0.000000  0.289394  0.185901  1
  B  B11  1  0.000000  0.711975  0.814148  1
  B  B12  1  0.000000  0.863694  0.470222  1
  B  B13  1  0.000000  0.136021  0.530204  1
  B  B14  1  0.000000  0.363745  0.030254  1
  B  B15  1  0.000000  0.636012  0.969684  1
  B  B16  1  0.000000  0.887215  0.046932  1
  B  B17  1  0.000000  0.112064  0.952942  1
  B  B18  1  0.000000  0.387860  0.453775  1
  B  B19  1  0.000000  0.614123  0.547249  1
  Os  Os20  1  0.500000  0.640359  0.406810  1
  Os  Os21  1  0.500000  0.359847  0.591621  1
  Os  Os22  1  0.500000  0.140255  0.093005  1
  Ru  Ru23  1  0.500000  0.858992  0.908192  1
