# generated using pymatgen
data_Tb3LuAl8
_symmetry_space_group_name_H-M   'P 1'
_cell_length_a   9.63436475
_cell_length_b   9.63436463
_cell_length_c   9.63436523
_cell_angle_alpha   33.50751833
_cell_angle_beta   33.50751797
_cell_angle_gamma   33.50751846
_symmetry_Int_Tables_number   1
_chemical_formula_structural   Tb3LuAl8
_chemical_formula_sum   'Tb3 Lu1 Al8'
_cell_volume   242.73244500
_cell_formula_units_Z   1
loop_
 _symmetry_equiv_pos_site_id
 _symmetry_equiv_pos_as_xyz
  1  'x, y, z'
loop_
 _atom_site_type_symbol
 _atom_site_label
 _atom_site_symmetry_multiplicity
 _atom_site_fract_x
 _atom_site_fract_y
 _atom_site_fract_z
 _atom_site_occupancy
  Tb  Tb0  1  0.187481  0.187481  0.187481  1
  Tb  Tb1  1  0.812567  0.812567  0.812567  1
  Tb  Tb2  1  0.312535  0.312535  0.312535  1
  Lu  Lu3  1  0.687421  0.687421  0.687421  1
  Al  Al4  1  0.000121  0.000121  0.000121  1
  Al  Al5  1  0.499958  0.499958  0.499958  1
  Al  Al6  1  0.750023  0.249701  0.249701  1
  Al  Al7  1  0.250336  0.750078  0.750078  1
  Al  Al8  1  0.249701  0.750023  0.249701  1
  Al  Al9  1  0.750078  0.250336  0.750078  1
  Al  Al10  1  0.249701  0.249701  0.750023  1
  Al  Al11  1  0.750078  0.750078  0.250336  1
