# generated using pymatgen
data_Tb5Eu(BN2)6
_symmetry_space_group_name_H-M   'P 1'
_cell_length_a   7.23446799
_cell_length_b   7.23446782
_cell_length_c   7.23231671
_cell_angle_alpha   110.64549259
_cell_angle_beta   110.64548753
_cell_angle_gamma   110.98840217
_symmetry_Int_Tables_number   1
_chemical_formula_structural   Tb5Eu(BN2)6
_chemical_formula_sum   'Tb5 Eu1 B6 N12'
_cell_volume   276.61124890
_cell_formula_units_Z   1
loop_
 _symmetry_equiv_pos_site_id
 _symmetry_equiv_pos_as_xyz
  1  'x, y, z'
loop_
 _atom_site_type_symbol
 _atom_site_label
 _atom_site_symmetry_multiplicity
 _atom_site_fract_x
 _atom_site_fract_y
 _atom_site_fract_z
 _atom_site_occupancy
  Tb  Tb0  1  0.295778  0.204222  0.750000  1
  Tb  Tb1  1  0.750694  0.301055  0.206995  1
  Tb  Tb2  1  0.198945  0.749306  0.293005  1
  Tb  Tb3  1  0.250221  0.700434  0.794565  1
  Tb  Tb4  1  0.799566  0.249779  0.705435  1
  Eu  Eu5  1  0.701407  0.798593  0.250000  1
  B  B6  1  0.629847  0.870153  0.750000  1
  B  B7  1  0.748301  0.622103  0.867630  1
  B  B8  1  0.877897  0.751699  0.632370  1
  B  B9  1  0.245896  0.371036  0.125984  1
  B  B10  1  0.128964  0.254104  0.374016  1
  B  B11  1  0.369396  0.130604  0.250000  1
  N  N12  1  0.877267  0.622733  0.750000  1
  N  N13  1  0.762604  0.881974  0.635473  1
  N  N14  1  0.618026  0.737396  0.864527  1
  N  N15  1  0.246977  0.125252  0.374567  1
  N  N16  1  0.374748  0.253023  0.125433  1
  N  N17  1  0.123524  0.376476  0.250000  1
  N  N18  1  0.506722  0.993278  0.750000  1
  N  N19  1  0.750049  0.499113  0.991922  1
  N  N20  1  0.000887  0.749951  0.508078  1
  N  N21  1  0.239310  0.489761  0.998579  1
  N  N22  1  0.010239  0.260690  0.501421  1
  N  N23  1  0.492734  0.007266  0.250000  1
