# generated using pymatgen
data_Tm6Si7Ni16
_symmetry_space_group_name_H-M   'P 1'
_cell_length_a   8.24291404
_cell_length_b   8.24861787
_cell_length_c   8.26497025
_cell_angle_alpha   60.01789048
_cell_angle_beta   59.99436293
_cell_angle_gamma   59.93332802
_symmetry_Int_Tables_number   1
_chemical_formula_structural   Tm6Si7Ni16
_chemical_formula_sum   'Tm6 Si7 Ni16'
_cell_volume   397.19985383
_cell_formula_units_Z   1
loop_
 _symmetry_equiv_pos_site_id
 _symmetry_equiv_pos_as_xyz
  1  'x, y, z'
loop_
 _atom_site_type_symbol
 _atom_site_label
 _atom_site_symmetry_multiplicity
 _atom_site_fract_x
 _atom_site_fract_y
 _atom_site_fract_z
 _atom_site_occupancy
  Tm  Tm0  1  0.209463  0.209427  0.790502  1
  Tm  Tm1  1  0.209416  0.790583  0.209423  1
  Tm  Tm2  1  0.209445  0.790608  0.790555  1
  Tm  Tm3  1  0.790584  0.209417  0.790577  1
  Tm  Tm4  1  0.790555  0.209392  0.209445  1
  Tm  Tm5  1  0.790537  0.790573  0.209498  1
  Si  Si6  1  0.500000  0.500000  0.000000  1
  Si  Si7  1  0.000000  0.000000  0.500000  1
  Si  Si8  1  0.500000  0.500000  0.500000  1
  Si  Si9  1  0.000000  0.500000  0.000000  1
  Si  Si10  1  0.500000  0.000000  0.000000  1
  Si  Si11  1  0.500000  0.000000  0.500000  1
  Si  Si12  1  0.000000  0.500000  0.500000  1
  Ni  Ni13  1  0.170916  0.486704  0.171319  1
  Ni  Ni14  1  0.379897  0.860240  0.380026  1
  Ni  Ni15  1  0.619966  0.619927  0.620164  1
  Ni  Ni16  1  0.171249  0.170769  0.486644  1
  Ni  Ni17  1  0.620103  0.139760  0.619974  1
  Ni  Ni18  1  0.619908  0.619982  0.140085  1
  Ni  Ni19  1  0.829084  0.513296  0.828681  1
  Ni  Ni20  1  0.139503  0.620258  0.620111  1
  Ni  Ni21  1  0.380034  0.380073  0.379836  1
  Ni  Ni22  1  0.171291  0.170880  0.171219  1
  Ni  Ni23  1  0.828709  0.829120  0.828781  1
  Ni  Ni24  1  0.828751  0.829231  0.513356  1
  Ni  Ni25  1  0.380092  0.380018  0.859915  1
  Ni  Ni26  1  0.513278  0.829093  0.828714  1
  Ni  Ni27  1  0.860497  0.379742  0.379889  1
  Ni  Ni28  1  0.486722  0.170907  0.171286  1
