# generated using pymatgen
data_Tb4Ir3PtF28
_symmetry_space_group_name_H-M   'P 1'
_cell_length_a   5.58754806
_cell_length_b   8.95320471
_cell_length_c   12.00738113
_cell_angle_alpha   62.52293099
_cell_angle_beta   90.09881306
_cell_angle_gamma   90.03568063
_symmetry_Int_Tables_number   1
_chemical_formula_structural   Tb4Ir3PtF28
_chemical_formula_sum   'Tb4 Ir3 Pt1 F28'
_cell_volume   532.92585362
_cell_formula_units_Z   1
loop_
 _symmetry_equiv_pos_site_id
 _symmetry_equiv_pos_as_xyz
  1  'x, y, z'
loop_
 _atom_site_type_symbol
 _atom_site_label
 _atom_site_symmetry_multiplicity
 _atom_site_fract_x
 _atom_site_fract_y
 _atom_site_fract_z
 _atom_site_occupancy
  Tb  Tb0  1  0.260351  0.813682  0.264509  1
  Tb  Tb1  1  0.739217  0.188263  0.733837  1
  Tb  Tb2  1  0.761167  0.185931  0.235520  1
  Tb  Tb3  1  0.239680  0.813642  0.765610  1
  Ir  Ir4  1  0.756364  0.726484  0.043363  1
  Ir  Ir5  1  0.243226  0.273060  0.957175  1
  Ir  Ir6  1  0.257585  0.274073  0.455611  1
  Pt  Pt7  1  0.742123  0.727289  0.543301  1
  F  F8  1  0.938926  0.702978  0.416790  1
  F  F9  1  0.061169  0.294216  0.582502  1
  F  F10  1  0.445484  0.293893  0.083676  1
  F  F11  1  0.555972  0.706821  0.916020  1
  F  F12  1  0.468591  0.730389  0.137028  1
  F  F13  1  0.530177  0.267435  0.864619  1
  F  F14  1  0.967742  0.273587  0.359950  1
  F  F15  1  0.032413  0.728084  0.636078  1
  F  F16  1  0.952972  0.745452  0.172781  1
  F  F17  1  0.046058  0.252972  0.828147  1
  F  F18  1  0.451058  0.255561  0.326460  1
  F  F19  1  0.549752  0.745931  0.673819  1
  F  F20  1  0.764085  0.482408  0.139753  1
  F  F21  1  0.234972  0.518169  0.859644  1
  F  F22  1  0.268616  0.518575  0.358199  1
  F  F23  1  0.732116  0.480515  0.642709  1
  F  F24  1  0.949369  0.282546  0.045039  1
  F  F25  1  0.050898  0.718027  0.954594  1
  F  F26  1  0.445238  0.717796  0.457423  1
  F  F27  1  0.555266  0.280259  0.544800  1
  F  F28  1  0.741829  0.974496  0.449628  1
  F  F29  1  0.255728  0.029711  0.549884  1
  F  F30  1  0.240292  0.027911  0.050920  1
  F  F31  1  0.758582  0.970635  0.949724  1
  F  F32  1  0.584076  0.969523  0.232398  1
  F  F33  1  0.416728  0.028995  0.768760  1
  F  F34  1  0.084420  0.028608  0.268514  1
  F  F35  1  0.917760  0.972086  0.731213  1
