# generated using pymatgen
data_Dy3LuSc2MnBi2
_symmetry_space_group_name_H-M   'P 1'
_cell_length_a   4.27444400
_cell_length_b   8.02686676
_cell_length_c   8.02686673
_cell_angle_alpha   119.90543087
_cell_angle_beta   90.00000000
_cell_angle_gamma   90.00000000
_symmetry_Int_Tables_number   1
_chemical_formula_structural   Dy3LuSc2MnBi2
_chemical_formula_sum   'Dy3 Lu1 Sc2 Mn1 Bi2'
_cell_volume   238.73463993
_cell_formula_units_Z   1
loop_
 _symmetry_equiv_pos_site_id
 _symmetry_equiv_pos_as_xyz
  1  'x, y, z'
loop_
 _atom_site_type_symbol
 _atom_site_label
 _atom_site_symmetry_multiplicity
 _atom_site_fract_x
 _atom_site_fract_y
 _atom_site_fract_z
 _atom_site_occupancy
  Dy  Dy0  1  0.000000  0.387495  0.387495  1
  Dy  Dy1  1  0.000000  0.001745  0.609818  1
  Dy  Dy2  1  0.000000  0.609818  0.001745  1
  Lu  Lu3  1  0.500000  0.773574  0.773574  1
  Sc  Sc4  1  0.500000  0.001532  0.225117  1
  Sc  Sc5  1  0.500000  0.225117  0.001532  1
  Mn  Mn6  1  0.000000  0.004949  0.004949  1
  Bi  Bi7  1  0.500000  0.665921  0.329850  1
  Bi  Bi8  1  0.500000  0.329850  0.665921  1
