# generated using pymatgen
data_Dy3ErLu12(Ga3Co)2
_symmetry_space_group_name_H-M   'P 1'
_cell_length_a   9.80881304
_cell_length_b   9.81085863
_cell_length_c   6.86736006
_cell_angle_alpha   89.99910764
_cell_angle_beta   90.01186495
_cell_angle_gamma   119.95053941
_symmetry_Int_Tables_number   1
_chemical_formula_structural   Dy3ErLu12(Ga3Co)2
_chemical_formula_sum   'Dy3 Er1 Lu12 Ga6 Co2'
_cell_volume   572.61160904
_cell_formula_units_Z   1
loop_
 _symmetry_equiv_pos_site_id
 _symmetry_equiv_pos_as_xyz
  1  'x, y, z'
loop_
 _atom_site_type_symbol
 _atom_site_label
 _atom_site_symmetry_multiplicity
 _atom_site_fract_x
 _atom_site_fract_y
 _atom_site_fract_z
 _atom_site_occupancy
  Dy  Dy0  1  0.535434  0.071139  0.708345  1
  Dy  Dy1  1  0.000010  0.000095  0.231254  1
  Dy  Dy2  1  0.000015  0.000003  0.731313  1
  Er  Er3  1  0.928499  0.464444  0.707967  1
  Lu  Lu4  1  0.173979  0.825238  0.509992  1
  Lu  Lu5  1  0.650810  0.824456  0.510758  1
  Lu  Lu6  1  0.175277  0.349319  0.511084  1
  Lu  Lu7  1  0.825768  0.174659  0.013705  1
  Lu  Lu8  1  0.348753  0.175184  0.012993  1
  Lu  Lu9  1  0.824887  0.650805  0.012661  1
  Lu  Lu10  1  0.333512  0.665886  0.827802  1
  Lu  Lu11  1  0.666659  0.334071  0.326908  1
  Lu  Lu12  1  0.463323  0.536725  0.207038  1
  Lu  Lu13  1  0.073897  0.536917  0.207300  1
  Lu  Lu14  1  0.462907  0.925870  0.207354  1
  Lu  Lu15  1  0.536446  0.463946  0.707371  1
  Ga  Ga16  1  0.163966  0.835939  0.959793  1
  Ga  Ga17  1  0.671917  0.836061  0.958976  1
  Ga  Ga18  1  0.163855  0.328068  0.958857  1
  Ga  Ga19  1  0.836936  0.163546  0.457537  1
  Ga  Ga20  1  0.327451  0.164113  0.458173  1
  Ga  Ga21  1  0.835955  0.672303  0.458550  1
  Co  Co22  1  0.333377  0.666615  0.444146  1
  Co  Co23  1  0.666367  0.334597  0.944958  1
