# generated using pymatgen
data_Mn2AlPdPt4
_symmetry_space_group_name_H-M   'P 1'
_cell_length_a   4.08884200
_cell_length_b   5.47288600
_cell_length_c   10.77441800
_cell_angle_alpha   90.00000000
_cell_angle_beta   90.00000000
_cell_angle_gamma   90.00000000
_symmetry_Int_Tables_number   1
_chemical_formula_structural   Mn2AlPdPt4
_chemical_formula_sum   'Mn4 Al2 Pd2 Pt8'
_cell_volume   241.10740628
_cell_formula_units_Z   2
loop_
 _symmetry_equiv_pos_site_id
 _symmetry_equiv_pos_as_xyz
  1  'x, y, z'
loop_
 _atom_site_type_symbol
 _atom_site_label
 _atom_site_symmetry_multiplicity
 _atom_site_fract_x
 _atom_site_fract_y
 _atom_site_fract_z
 _atom_site_occupancy
  Mn  Mn0  1  0.500000  0.178354  0.362089  1
  Mn  Mn1  1  0.500000  0.821646  0.637911  1
  Mn  Mn2  1  0.500000  0.678354  0.137911  1
  Mn  Mn3  1  0.500000  0.321646  0.862089  1
  Al  Al4  1  0.000000  0.000000  0.000000  1
  Al  Al5  1  0.000000  0.500000  0.500000  1
  Pd  Pd6  1  0.000000  0.000000  0.500000  1
  Pd  Pd7  1  0.000000  0.500000  0.000000  1
  Pt  Pt8  1  0.500000  0.187301  0.108127  1
  Pt  Pt9  1  0.500000  0.812699  0.891873  1
  Pt  Pt10  1  0.500000  0.687301  0.391873  1
  Pt  Pt11  1  0.500000  0.312699  0.608127  1
  Pt  Pt12  1  0.000000  0.922350  0.239358  1
  Pt  Pt13  1  0.000000  0.077650  0.760642  1
  Pt  Pt14  1  0.000000  0.422350  0.260642  1
  Pt  Pt15  1  0.000000  0.577650  0.739358  1
