# generated using pymatgen
data_Sr2Si7(Ir5Ru)2
_symmetry_space_group_name_H-M   'P 1'
_cell_length_a   9.73769744
_cell_length_b   9.73217045
_cell_length_c   3.97910406
_cell_angle_alpha   90.01674500
_cell_angle_beta   89.98424264
_cell_angle_gamma   120.07915764
_symmetry_Int_Tables_number   1
_chemical_formula_structural   Sr2Si7(Ir5Ru)2
_chemical_formula_sum   'Sr2 Si7 Ir10 Ru2'
_cell_volume   326.31341104
_cell_formula_units_Z   1
loop_
 _symmetry_equiv_pos_site_id
 _symmetry_equiv_pos_as_xyz
  1  'x, y, z'
loop_
 _atom_site_type_symbol
 _atom_site_label
 _atom_site_symmetry_multiplicity
 _atom_site_fract_x
 _atom_site_fract_y
 _atom_site_fract_z
 _atom_site_occupancy
  Sr  Sr0  1  0.334620  0.667583  0.738189  1
  Sr  Sr1  1  0.666181  0.333804  0.238503  1
  Si  Si2  1  0.001395  0.998216  0.736768  1
  Si  Si3  1  0.287595  0.892834  0.238170  1
  Si  Si4  1  0.606519  0.712022  0.238270  1
  Si  Si5  1  0.109900  0.397831  0.238072  1
  Si  Si6  1  0.702047  0.114439  0.738564  1
  Si  Si7  1  0.410114  0.295952  0.738410  1
  Si  Si8  1  0.884819  0.589276  0.738239  1
  Ir  Ir9  1  0.907454  0.122116  0.237783  1
  Ir  Ir10  1  0.728717  0.886318  0.738086  1
  Ir  Ir11  1  0.156181  0.272148  0.737991  1
  Ir  Ir12  1  0.116035  0.841191  0.737901  1
  Ir  Ir13  1  0.048904  0.611155  0.238170  1
  Ir  Ir14  1  0.562441  0.950139  0.238393  1
  Ir  Ir15  1  0.386602  0.436200  0.238291  1
  Ir  Ir16  1  0.939880  0.369966  0.738111  1
  Ir  Ir17  1  0.429489  0.059830  0.738171  1
  Ir  Ir18  1  0.629223  0.570252  0.738297  1
  Ru  Ru19  1  0.209426  0.090947  0.237772  1
  Ru  Ru20  1  0.882457  0.787779  0.237847  1
