# generated using pymatgen
data_HoEr3(Tm3Ir2)2
_symmetry_space_group_name_H-M   'P 1'
_cell_length_a   6.43083704
_cell_length_b   7.16391061
_cell_length_c   8.38846212
_cell_angle_alpha   96.52396247
_cell_angle_beta   112.48836144
_cell_angle_gamma   89.98140773
_symmetry_Int_Tables_number   1
_chemical_formula_structural   HoEr3(Tm3Ir2)2
_chemical_formula_sum   'Ho1 Er3 Tm6 Ir4'
_cell_volume   354.36470789
_cell_formula_units_Z   1
loop_
 _symmetry_equiv_pos_site_id
 _symmetry_equiv_pos_as_xyz
  1  'x, y, z'
loop_
 _atom_site_type_symbol
 _atom_site_label
 _atom_site_symmetry_multiplicity
 _atom_site_fract_x
 _atom_site_fract_y
 _atom_site_fract_z
 _atom_site_occupancy
  Ho  Ho0  1  0.970247  0.919162  0.182579  1
  Er  Er1  1  0.787881  0.581086  0.817283  1
  Er  Er2  1  0.029649  0.081031  0.817402  1
  Er  Er3  1  0.212125  0.418832  0.182575  1
  Tm  Tm4  1  0.653551  0.817841  0.441944  1
  Tm  Tm5  1  0.211976  0.681808  0.558102  1
  Tm  Tm6  1  0.346469  0.182212  0.558293  1
  Tm  Tm7  1  0.788113  0.318158  0.442009  1
  Tm  Tm8  1  0.427424  0.750011  0.999952  1
  Tm  Tm9  1  0.572371  0.249997  0.999921  1
  Ir  Ir10  1  0.825541  0.572977  0.219035  1
  Ir  Ir11  1  0.606405  0.926711  0.781018  1
  Ir  Ir12  1  0.174332  0.426712  0.780995  1
  Ir  Ir13  1  0.393919  0.073462  0.218893  1
