# generated using pymatgen
data_Ce2HfPaH12
_symmetry_space_group_name_H-M   'P 1'
_cell_length_a   6.55594200
_cell_length_b   6.47560100
_cell_length_c   6.55594200
_cell_angle_alpha   90.00000000
_cell_angle_beta   90.00000000
_cell_angle_gamma   90.00000000
_symmetry_Int_Tables_number   1
_chemical_formula_structural   Ce2HfPaH12
_chemical_formula_sum   'Ce4 Hf2 Pa2 H24'
_cell_volume   278.32376262
_cell_formula_units_Z   2
loop_
 _symmetry_equiv_pos_site_id
 _symmetry_equiv_pos_as_xyz
  1  'x, y, z'
loop_
 _atom_site_type_symbol
 _atom_site_label
 _atom_site_symmetry_multiplicity
 _atom_site_fract_x
 _atom_site_fract_y
 _atom_site_fract_z
 _atom_site_occupancy
  Ce  Ce0  1  0.249498  0.000000  0.500000  1
  Ce  Ce1  1  0.750502  0.000000  0.500000  1
  Ce  Ce2  1  0.000000  0.500000  0.250502  1
  Ce  Ce3  1  0.000000  0.500000  0.749498  1
  Hf  Hf4  1  0.000000  0.000000  0.000000  1
  Hf  Hf5  1  0.500000  0.500000  0.500000  1
  Pa  Pa6  1  0.500000  0.750000  0.000000  1
  Pa  Pa7  1  0.500000  0.250000  0.000000  1
  H  H8  1  0.000000  0.148668  0.286316  1
  H  H9  1  0.500000  0.214413  0.654446  1
  H  H10  1  0.500000  0.785587  0.345554  1
  H  H11  1  0.786316  0.648668  0.500000  1
  H  H12  1  0.213684  0.648668  0.500000  1
  H  H13  1  0.353477  0.500000  0.793998  1
  H  H14  1  0.646523  0.500000  0.793998  1
  H  H15  1  0.293998  0.000000  0.146523  1
  H  H16  1  0.154446  0.285587  0.000000  1
  H  H17  1  0.845554  0.714413  0.000000  1
  H  H18  1  0.293998  0.000000  0.853477  1
  H  H19  1  0.845554  0.285587  0.000000  1
  H  H20  1  0.706002  0.000000  0.146523  1
  H  H21  1  0.706002  0.000000  0.853477  1
  H  H22  1  0.154446  0.714413  0.000000  1
  H  H23  1  0.000000  0.851332  0.713684  1
  H  H24  1  0.000000  0.148668  0.713684  1
  H  H25  1  0.000000  0.851332  0.286316  1
  H  H26  1  0.646523  0.500000  0.206002  1
  H  H27  1  0.353477  0.500000  0.206002  1
  H  H28  1  0.786316  0.351332  0.500000  1
  H  H29  1  0.213684  0.351332  0.500000  1
  H  H30  1  0.500000  0.785587  0.654446  1
  H  H31  1  0.500000  0.214413  0.345554  1
