# generated using pymatgen
data_Hf3Zn3IrAu2
_symmetry_space_group_name_H-M   'P 1'
_cell_length_a   7.29626700
_cell_length_b   7.29626798
_cell_length_c   3.49035400
_cell_angle_alpha   90.00000000
_cell_angle_beta   90.00000000
_cell_angle_gamma   119.99999100
_symmetry_Int_Tables_number   1
_chemical_formula_structural   Hf3Zn3IrAu2
_chemical_formula_sum   'Hf3 Zn3 Ir1 Au2'
_cell_volume   160.91689443
_cell_formula_units_Z   1
loop_
 _symmetry_equiv_pos_site_id
 _symmetry_equiv_pos_as_xyz
  1  'x, y, z'
loop_
 _atom_site_type_symbol
 _atom_site_label
 _atom_site_symmetry_multiplicity
 _atom_site_fract_x
 _atom_site_fract_y
 _atom_site_fract_z
 _atom_site_occupancy
  Hf  Hf0  1  0.411302  0.021802  0.000000  1
  Hf  Hf1  1  0.978198  0.389500  0.000000  1
  Hf  Hf2  1  0.610500  0.588698  0.000000  1
  Zn  Zn3  1  0.726433  0.997218  0.500000  1
  Zn  Zn4  1  0.270786  0.273567  0.500000  1
  Zn  Zn5  1  0.002782  0.729215  0.500000  1
  Ir  Ir6  1  0.666667  0.333334  0.500000  1
  Au  Au7  1  0.000000  0.000000  0.000000  1
  Au  Au8  1  0.333333  0.666666  0.500000  1
