# generated using pymatgen
data_LiTmLu2Ag2Sn3
_symmetry_space_group_name_H-M   'P 1'
_cell_length_a   7.24806722
_cell_length_b   7.23953002
_cell_length_c   4.51481100
_cell_angle_alpha   90.00000000
_cell_angle_beta   90.00000000
_cell_angle_gamma   120.05809852
_symmetry_Int_Tables_number   1
_chemical_formula_structural   LiTmLu2Ag2Sn3
_chemical_formula_sum   'Li1 Tm1 Lu2 Ag2 Sn3'
_cell_volume   205.04455524
_cell_formula_units_Z   1
loop_
 _symmetry_equiv_pos_site_id
 _symmetry_equiv_pos_as_xyz
  1  'x, y, z'
loop_
 _atom_site_type_symbol
 _atom_site_label
 _atom_site_symmetry_multiplicity
 _atom_site_fract_x
 _atom_site_fract_y
 _atom_site_fract_z
 _atom_site_occupancy
  Li  Li0  1  0.230741  0.230697  0.500000  1
  Tm  Tm1  1  0.998098  0.438117  0.000000  1
  Lu  Lu2  1  0.571703  0.571780  0.000000  1
  Lu  Lu3  1  0.438142  0.998183  0.000000  1
  Ag  Ag4  1  0.758399  0.001906  0.500000  1
  Ag  Ag5  1  0.001924  0.758625  0.500000  1
  Sn  Sn6  1  0.333000  0.657428  0.500000  1
  Sn  Sn7  1  0.011366  0.010967  0.000000  1
  Sn  Sn8  1  0.656629  0.332299  0.500000  1
