# generated using pymatgen
data_Rb2GdDy5F20
_symmetry_space_group_name_H-M   'P 1'
_cell_length_a   8.32079356
_cell_length_b   8.32079327
_cell_length_c   8.29946200
_cell_angle_alpha   60.08476735
_cell_angle_beta   60.08476852
_cell_angle_gamma   59.83046363
_symmetry_Int_Tables_number   1
_chemical_formula_structural   Rb2GdDy5F20
_chemical_formula_sum   'Rb2 Gd1 Dy5 F20'
_cell_volume   406.31113695
_cell_formula_units_Z   1
loop_
 _symmetry_equiv_pos_site_id
 _symmetry_equiv_pos_as_xyz
  1  'x, y, z'
loop_
 _atom_site_type_symbol
 _atom_site_label
 _atom_site_symmetry_multiplicity
 _atom_site_fract_x
 _atom_site_fract_y
 _atom_site_fract_z
 _atom_site_occupancy
  Rb  Rb0  1  0.249797  0.249797  0.250203  1
  Rb  Rb1  1  0.749797  0.749797  0.750203  1
  Gd  Gd2  1  0.759084  0.759084  0.240916  1
  Dy  Dy3  1  0.759454  0.239791  0.240546  1
  Dy  Dy4  1  0.239791  0.759454  0.760209  1
  Dy  Dy5  1  0.239791  0.759454  0.240546  1
  Dy  Dy6  1  0.759454  0.239791  0.760209  1
  Dy  Dy7  1  0.240176  0.240176  0.759824  1
  F  F8  1  0.830655  0.496944  0.503056  1
  F  F9  1  0.171011  0.500051  0.499949  1
  F  F10  1  0.496944  0.830655  0.169345  1
  F  F11  1  0.500051  0.171011  0.828989  1
  F  F12  1  0.496944  0.830655  0.503056  1
  F  F13  1  0.171011  0.500051  0.828989  1
  F  F14  1  0.500051  0.171011  0.499949  1
  F  F15  1  0.830655  0.496944  0.169345  1
  F  F16  1  0.499970  0.499970  0.828605  1
  F  F17  1  0.499970  0.499970  0.171456  1
  F  F18  1  0.171395  0.828544  0.500030  1
  F  F19  1  0.828544  0.171395  0.500030  1
  F  F20  1  0.110506  0.110506  0.110207  1
  F  F21  1  0.890859  0.890859  0.885923  1
  F  F22  1  0.110506  0.110506  0.668782  1
  F  F23  1  0.114077  0.667640  0.109141  1
  F  F24  1  0.890859  0.890859  0.332360  1
  F  F25  1  0.889793  0.331218  0.889494  1
  F  F26  1  0.667640  0.114077  0.109141  1
  F  F27  1  0.331218  0.889793  0.889494  1
