# generated using pymatgen
data_ErPu2Ni7B2
_symmetry_space_group_name_H-M   'P 1'
_cell_length_a   5.00187800
_cell_length_b   5.00187714
_cell_length_c   14.35178700
_cell_angle_alpha   90.00000000
_cell_angle_beta   90.00000000
_cell_angle_gamma   119.99999245
_symmetry_Int_Tables_number   1
_chemical_formula_structural   ErPu2Ni7B2
_chemical_formula_sum   'Er2 Pu4 Ni14 B4'
_cell_volume   310.95873421
_cell_formula_units_Z   2
loop_
 _symmetry_equiv_pos_site_id
 _symmetry_equiv_pos_as_xyz
  1  'x, y, z'
loop_
 _atom_site_type_symbol
 _atom_site_label
 _atom_site_symmetry_multiplicity
 _atom_site_fract_x
 _atom_site_fract_y
 _atom_site_fract_z
 _atom_site_occupancy
  Er  Er0  1  0.666667  0.333333  0.750000  1
  Er  Er1  1  0.333333  0.666667  0.250000  1
  Pu  Pu2  1  0.333333  0.666667  0.470695  1
  Pu  Pu3  1  0.666667  0.333333  0.970695  1
  Pu  Pu4  1  0.666667  0.333333  0.529305  1
  Pu  Pu5  1  0.333333  0.666667  0.029305  1
  Ni  Ni6  1  0.834271  0.165729  0.349923  1
  Ni  Ni7  1  0.834271  0.668540  0.349923  1
  Ni  Ni8  1  0.000000  0.000000  0.000000  1
  Ni  Ni9  1  0.000000  0.000000  0.500000  1
  Ni  Ni10  1  0.834271  0.668540  0.150077  1
  Ni  Ni11  1  0.165729  0.834271  0.650077  1
  Ni  Ni12  1  0.668540  0.834271  0.650077  1
  Ni  Ni13  1  0.331460  0.165729  0.150077  1
  Ni  Ni14  1  0.834271  0.165729  0.150077  1
  Ni  Ni15  1  0.165729  0.331460  0.849923  1
  Ni  Ni16  1  0.165729  0.834271  0.849923  1
  Ni  Ni17  1  0.165729  0.331460  0.650077  1
  Ni  Ni18  1  0.668540  0.834271  0.849923  1
  Ni  Ni19  1  0.331460  0.165729  0.349923  1
  B  B20  1  0.666667  0.333333  0.250000  1
  B  B21  1  0.333333  0.666667  0.750000  1
  B  B22  1  0.000000  0.000000  0.750000  1
  B  B23  1  0.000000  0.000000  0.250000  1
