# generated using pymatgen
data_ThAl3Au
_symmetry_space_group_name_H-M   'P 1'
_cell_length_a   4.36271087
_cell_length_b   4.36271101
_cell_length_c   6.19211707
_cell_angle_alpha   69.37319344
_cell_angle_beta   69.37319321
_cell_angle_gamma   89.99999949
_symmetry_Int_Tables_number   1
_chemical_formula_structural   ThAl3Au
_chemical_formula_sum   'Th1 Al3 Au1'
_cell_volume   102.18865526
_cell_formula_units_Z   1
loop_
 _symmetry_equiv_pos_site_id
 _symmetry_equiv_pos_as_xyz
  1  'x, y, z'
loop_
 _atom_site_type_symbol
 _atom_site_label
 _atom_site_symmetry_multiplicity
 _atom_site_fract_x
 _atom_site_fract_y
 _atom_site_fract_z
 _atom_site_occupancy
  Th  Th0  1  0.988527  0.988527  0.022946  1
  Al  Al1  1  0.748372  0.248372  0.503256  1
  Al  Al2  1  0.248372  0.748372  0.503256  1
  Al  Al3  1  0.392033  0.392033  0.215934  1
  Au  Au4  1  0.622695  0.622695  0.754609  1
