# generated using pymatgen
data_DyY3Ru7W
_symmetry_space_group_name_H-M   'P 1'
_cell_length_a   5.50785440
_cell_length_b   5.19983309
_cell_length_c   9.06571107
_cell_angle_alpha   89.98859746
_cell_angle_beta   89.99887939
_cell_angle_gamma   122.00943520
_symmetry_Int_Tables_number   1
_chemical_formula_structural   DyY3Ru7W
_chemical_formula_sum   'Dy1 Y3 Ru7 W1'
_cell_volume   220.16561955
_cell_formula_units_Z   1
loop_
 _symmetry_equiv_pos_site_id
 _symmetry_equiv_pos_as_xyz
  1  'x, y, z'
loop_
 _atom_site_type_symbol
 _atom_site_label
 _atom_site_symmetry_multiplicity
 _atom_site_fract_x
 _atom_site_fract_y
 _atom_site_fract_z
 _atom_site_occupancy
  Dy  Dy0  1  0.673046  0.346661  0.936857  1
  Y  Y1  1  0.672959  0.346491  0.563170  1
  Y  Y2  1  0.334895  0.669829  0.431771  1
  Y  Y3  1  0.334979  0.670004  0.068153  1
  Ru  Ru4  1  0.009587  0.019372  0.498292  1
  Ru  Ru5  1  0.009535  0.019218  0.001569  1
  Ru  Ru6  1  0.171496  0.818615  0.750122  1
  Ru  Ru7  1  0.647798  0.818551  0.750119  1
  Ru  Ru8  1  0.823809  0.647209  0.249933  1
  Ru  Ru9  1  0.832104  0.164369  0.249978  1
  Ru  Ru10  1  0.332918  0.164776  0.249972  1
  W  W11  1  0.156875  0.314906  0.750065  1
