# generated using pymatgen
data_Tb3Dy5(Lu3Sn4)4
_symmetry_space_group_name_H-M   'P 1'
_cell_length_a   7.94819807
_cell_length_b   8.07844702
_cell_length_c   15.25965310
_cell_angle_alpha   89.99724569
_cell_angle_beta   90.01303115
_cell_angle_gamma   90.00705012
_symmetry_Int_Tables_number   1
_chemical_formula_structural   Tb3Dy5(Lu3Sn4)4
_chemical_formula_sum   'Tb3 Dy5 Lu12 Sn16'
_cell_volume   979.80851186
_cell_formula_units_Z   1
loop_
 _symmetry_equiv_pos_site_id
 _symmetry_equiv_pos_as_xyz
  1  'x, y, z'
loop_
 _atom_site_type_symbol
 _atom_site_label
 _atom_site_symmetry_multiplicity
 _atom_site_fract_x
 _atom_site_fract_y
 _atom_site_fract_z
 _atom_site_occupancy
  Tb  Tb0  1  0.521874  0.320418  0.902916  1
  Tb  Tb1  1  0.021854  0.179590  0.597079  1
  Tb  Tb2  1  0.478146  0.679606  0.402901  1
  Dy  Dy3  1  0.978088  0.820415  0.097116  1
  Dy  Dy4  1  0.478095  0.679632  0.097179  1
  Dy  Dy5  1  0.978112  0.820411  0.402852  1
  Dy  Dy6  1  0.521903  0.320385  0.597173  1
  Dy  Dy7  1  0.021923  0.179566  0.902852  1
  Lu  Lu8  1  0.367466  0.836212  0.877359  1
  Lu  Lu9  1  0.867455  0.663780  0.622641  1
  Lu  Lu10  1  0.632556  0.163779  0.377345  1
  Lu  Lu11  1  0.132536  0.336236  0.122647  1
  Lu  Lu12  1  0.632568  0.163734  0.122673  1
  Lu  Lu13  1  0.132554  0.336215  0.377322  1
  Lu  Lu14  1  0.367451  0.836216  0.622663  1
  Lu  Lu15  1  0.867487  0.663814  0.877373  1
  Lu  Lu16  1  0.197556  0.504659  0.749991  1
  Lu  Lu17  1  0.697560  0.995328  0.750018  1
  Lu  Lu18  1  0.802471  0.495379  0.249955  1
  Lu  Lu19  1  0.302389  0.004618  0.249987  1
  Sn  Sn20  1  0.294243  0.036965  0.041676  1
  Sn  Sn21  1  0.794465  0.462886  0.458351  1
  Sn  Sn22  1  0.705539  0.962893  0.541643  1
  Sn  Sn23  1  0.205530  0.537120  0.958357  1
  Sn  Sn24  1  0.705832  0.962913  0.958347  1
  Sn  Sn25  1  0.205651  0.537036  0.541724  1
  Sn  Sn26  1  0.294350  0.037043  0.458272  1
  Sn  Sn27  1  0.794421  0.463080  0.041752  1
  Sn  Sn28  1  0.564007  0.621419  0.749991  1
  Sn  Sn29  1  0.063997  0.878600  0.750017  1
  Sn  Sn30  1  0.436012  0.378574  0.249991  1
  Sn  Sn31  1  0.936005  0.121339  0.249990  1
  Sn  Sn32  1  0.330535  0.147334  0.749933  1
  Sn  Sn33  1  0.830541  0.352660  0.750066  1
  Sn  Sn34  1  0.669519  0.852653  0.249896  1
  Sn  Sn35  1  0.169310  0.647492  0.249950  1
