# generated using pymatgen
data_K2CaInF7
_symmetry_space_group_name_H-M   'P 1'
_cell_length_a   8.26200453
_cell_length_b   8.26200460
_cell_length_c   8.26200500
_cell_angle_alpha   120.32908403
_cell_angle_beta   117.68857228
_cell_angle_gamma   91.74026817
_symmetry_Int_Tables_number   1
_chemical_formula_structural   K2CaInF7
_chemical_formula_sum   'K4 Ca2 In2 F14'
_cell_volume   404.30102765
_cell_formula_units_Z   2
loop_
 _symmetry_equiv_pos_site_id
 _symmetry_equiv_pos_as_xyz
  1  'x, y, z'
loop_
 _atom_site_type_symbol
 _atom_site_label
 _atom_site_symmetry_multiplicity
 _atom_site_fract_x
 _atom_site_fract_y
 _atom_site_fract_z
 _atom_site_occupancy
  K  K0  1  0.500000  0.500000  0.000000  1
  K  K1  1  0.000000  0.000000  0.000000  1
  K  K2  1  0.000000  0.500000  0.000000  1
  K  K3  1  0.000000  0.000000  0.500000  1
  Ca  Ca4  1  0.500000  0.500000  0.500000  1
  Ca  Ca5  1  0.500000  0.000000  0.000000  1
  In  In6  1  0.000000  0.500000  0.500000  1
  In  In7  1  0.500000  0.000000  0.500000  1
  F  F8  1  0.872276  0.589081  0.283194  1
  F  F9  1  0.194112  0.910919  0.283194  1
  F  F10  1  0.179066  0.804487  0.756468  1
  F  F11  1  0.451981  0.695513  0.374579  1
  F  F12  1  0.451981  0.077402  0.756468  1
  F  F13  1  0.179066  0.422598  0.374579  1
  F  F14  1  0.820934  0.577402  0.625421  1
  F  F15  1  0.548019  0.922598  0.243532  1
  F  F16  1  0.548019  0.304487  0.625421  1
  F  F17  1  0.820934  0.195513  0.243532  1
  F  F18  1  0.394531  0.250000  0.144531  1
  F  F19  1  0.127724  0.410919  0.716806  1
  F  F20  1  0.805888  0.089081  0.716806  1
  F  F21  1  0.605469  0.750000  0.855469  1
