# generated using pymatgen
data_Sr3CeSb3
_symmetry_space_group_name_H-M   'P 1'
_cell_length_a   8.56862333
_cell_length_b   8.68760394
_cell_length_c   8.64936088
_cell_angle_alpha   109.73772782
_cell_angle_beta   109.48189344
_cell_angle_gamma   109.66342626
_symmetry_Int_Tables_number   1
_chemical_formula_structural   Sr3CeSb3
_chemical_formula_sum   'Sr6 Ce2 Sb6'
_cell_volume   492.75374376
_cell_formula_units_Z   2
loop_
 _symmetry_equiv_pos_site_id
 _symmetry_equiv_pos_as_xyz
  1  'x, y, z'
loop_
 _atom_site_type_symbol
 _atom_site_label
 _atom_site_symmetry_multiplicity
 _atom_site_fract_x
 _atom_site_fract_y
 _atom_site_fract_z
 _atom_site_occupancy
  Sr  Sr0  1  0.499842  0.002568  0.859371  1
  Sr  Sr1  1  0.861482  0.498831  0.002354  1
  Sr  Sr2  1  0.138518  0.137349  0.140872  1
  Sr  Sr3  1  0.002201  0.859123  0.499495  1
  Sr  Sr4  1  0.500158  0.002725  0.359528  1
  Sr  Sr5  1  0.997799  0.356922  0.497294  1
  Ce  Ce6  1  0.359205  0.500310  0.000209  1
  Ce  Ce7  1  0.640795  0.641104  0.641004  1
  Sb  Sb8  1  0.736649  0.860529  0.111959  1
  Sb  Sb9  1  0.380803  0.266163  0.634480  1
  Sb  Sb10  1  0.263351  0.623880  0.375311  1
  Sb  Sb11  1  0.880036  0.122587  0.752241  1
  Sb  Sb12  1  0.619197  0.385360  0.253677  1
  Sb  Sb13  1  0.119964  0.742550  0.872204  1
