# generated using pymatgen
data_AcBIrN
_symmetry_space_group_name_H-M   'P 1'
_cell_length_a   3.97201500
_cell_length_b   3.97201500
_cell_length_c   7.76433300
_cell_angle_alpha   90.00000000
_cell_angle_beta   90.00000000
_cell_angle_gamma   90.00000000
_symmetry_Int_Tables_number   1
_chemical_formula_structural   AcBIrN
_chemical_formula_sum   'Ac2 B2 Ir2 N2'
_cell_volume   122.49712984
_cell_formula_units_Z   2
loop_
 _symmetry_equiv_pos_site_id
 _symmetry_equiv_pos_as_xyz
  1  'x, y, z'
loop_
 _atom_site_type_symbol
 _atom_site_label
 _atom_site_symmetry_multiplicity
 _atom_site_fract_x
 _atom_site_fract_y
 _atom_site_fract_z
 _atom_site_occupancy
  Ac  Ac0  1  0.500000  0.000000  0.175747  1
  Ac  Ac1  1  0.000000  0.500000  0.824253  1
  B  B2  1  0.000000  0.500000  0.359658  1
  B  B3  1  0.500000  0.000000  0.640342  1
  Ir  Ir4  1  0.000000  0.000000  0.500000  1
  Ir  Ir5  1  0.500000  0.500000  0.500000  1
  N  N6  1  0.000000  0.500000  0.166817  1
  N  N7  1  0.500000  0.000000  0.833183  1
