# generated using pymatgen
data_Sm7Ho(Si4W3)4
_symmetry_space_group_name_H-M   'P 1'
_cell_length_a   6.85190695
_cell_length_b   7.00708786
_cell_length_c   12.99881474
_cell_angle_alpha   89.92984810
_cell_angle_beta   89.98866293
_cell_angle_gamma   89.95656824
_symmetry_Int_Tables_number   1
_chemical_formula_structural   Sm7Ho(Si4W3)4
_chemical_formula_sum   'Sm7 Ho1 Si16 W12'
_cell_volume   624.09731585
_cell_formula_units_Z   1
loop_
 _symmetry_equiv_pos_site_id
 _symmetry_equiv_pos_as_xyz
  1  'x, y, z'
loop_
 _atom_site_type_symbol
 _atom_site_label
 _atom_site_symmetry_multiplicity
 _atom_site_fract_x
 _atom_site_fract_y
 _atom_site_fract_z
 _atom_site_occupancy
  Sm  Sm0  1  0.496752  0.334023  0.093672  1
  Sm  Sm1  1  0.996698  0.166031  0.406420  1
  Sm  Sm2  1  0.503377  0.665884  0.593717  1
  Sm  Sm3  1  0.002733  0.833437  0.906908  1
  Sm  Sm4  1  0.502947  0.666330  0.906872  1
  Sm  Sm5  1  0.003173  0.833828  0.593765  1
  Sm  Sm6  1  0.496668  0.334058  0.405554  1
  Ho  Ho7  1  0.995766  0.167206  0.094429  1
  Si  Si8  1  0.658208  0.044662  0.548028  1
  Si  Si9  1  0.158080  0.454178  0.953019  1
  Si  Si10  1  0.338871  0.957381  0.048405  1
  Si  Si11  1  0.841639  0.544728  0.451719  1
  Si  Si12  1  0.342113  0.955289  0.451321  1
  Si  Si13  1  0.842486  0.542014  0.048316  1
  Si  Si14  1  0.659214  0.044434  0.952977  1
  Si  Si15  1  0.158434  0.455542  0.547965  1
  Si  Si16  1  0.536318  0.365375  0.750534  1
  Si  Si17  1  0.036260  0.133835  0.750231  1
  Si  Si18  1  0.464035  0.635350  0.249478  1
  Si  Si19  1  0.964581  0.867858  0.248839  1
  Si  Si20  1  0.804324  0.626039  0.750517  1
  Si  Si21  1  0.304053  0.872869  0.750296  1
  Si  Si22  1  0.194264  0.371460  0.248860  1
  Si  Si23  1  0.697527  0.127727  0.248969  1
  W  W24  1  0.832242  0.335565  0.626594  1
  W  W25  1  0.331470  0.163744  0.874296  1
  W  W26  1  0.167805  0.664199  0.126092  1
  W  W27  1  0.668794  0.836299  0.372993  1
  W  W28  1  0.167533  0.664265  0.372867  1
  W  W29  1  0.669214  0.837151  0.125740  1
  W  W30  1  0.832753  0.334581  0.874642  1
  W  W31  1  0.332264  0.163953  0.626442  1
  W  W32  1  0.664277  0.003762  0.750480  1
  W  W33  1  0.164508  0.495553  0.750412  1
  W  W34  1  0.334785  0.997819  0.249218  1
  W  W35  1  0.835829  0.503570  0.249419  1
