# generated using pymatgen
data_GdPaF7
_symmetry_space_group_name_H-M   'P 1'
_cell_length_a   5.99786100
_cell_length_b   6.34900745
_cell_length_c   8.62749600
_cell_angle_alpha   102.77249702
_cell_angle_beta   90.00000000
_cell_angle_gamma   90.00000000
_symmetry_Int_Tables_number   1
_chemical_formula_structural   GdPaF7
_chemical_formula_sum   'Gd2 Pa2 F14'
_cell_volume   320.40954698
_cell_formula_units_Z   2
loop_
 _symmetry_equiv_pos_site_id
 _symmetry_equiv_pos_as_xyz
  1  'x, y, z'
loop_
 _atom_site_type_symbol
 _atom_site_label
 _atom_site_symmetry_multiplicity
 _atom_site_fract_x
 _atom_site_fract_y
 _atom_site_fract_z
 _atom_site_occupancy
  Gd  Gd0  1  0.699273  0.651400  0.682948  1
  Gd  Gd1  1  0.199273  0.348600  0.317052  1
  Pa  Pa2  1  0.706636  0.811535  0.225860  1
  Pa  Pa3  1  0.206636  0.188465  0.774140  1
  F  F4  1  0.905661  0.470789  0.480081  1
  F  F5  1  0.405661  0.529211  0.519919  1
  F  F6  1  0.432833  0.913883  0.766089  1
  F  F7  1  0.932833  0.086117  0.233911  1
  F  F8  1  0.942045  0.941547  0.758009  1
  F  F9  1  0.442045  0.058453  0.241991  1
  F  F10  1  0.982863  0.467284  0.788914  1
  F  F11  1  0.482863  0.532716  0.211086  1
  F  F12  1  0.695381  0.756239  0.967264  1
  F  F13  1  0.195381  0.243761  0.032736  1
  F  F14  1  0.698442  0.867284  0.486619  1
  F  F15  1  0.198442  0.132716  0.513381  1
  F  F16  1  0.513227  0.385975  0.781840  1
  F  F17  1  0.013227  0.614025  0.218160  1
