# generated using pymatgen
data_Ac4CrFeN6
_symmetry_space_group_name_H-M   'P 1'
_cell_length_a   6.43082867
_cell_length_b   6.43082801
_cell_length_c   12.41220803
_cell_angle_alpha   90.05638228
_cell_angle_beta   89.94361724
_cell_angle_gamma   128.12888447
_symmetry_Int_Tables_number   1
_chemical_formula_structural   Ac4CrFeN6
_chemical_formula_sum   'Ac8 Cr2 Fe2 N12'
_cell_volume   403.78458341
_cell_formula_units_Z   2
loop_
 _symmetry_equiv_pos_site_id
 _symmetry_equiv_pos_as_xyz
  1  'x, y, z'
loop_
 _atom_site_type_symbol
 _atom_site_label
 _atom_site_symmetry_multiplicity
 _atom_site_fract_x
 _atom_site_fract_y
 _atom_site_fract_z
 _atom_site_occupancy
  Ac  Ac0  1  0.563868  0.436132  0.650954  1
  Ac  Ac1  1  0.436132  0.563868  0.349046  1
  Ac  Ac2  1  0.939671  0.060329  0.141484  1
  Ac  Ac3  1  0.060329  0.939671  0.858516  1
  Ac  Ac4  1  0.858503  0.141497  0.577588  1
  Ac  Ac5  1  0.141497  0.858503  0.422412  1
  Ac  Ac6  1  0.644695  0.355305  0.072594  1
  Ac  Ac7  1  0.355305  0.644695  0.927406  1
  Cr  Cr8  1  0.762480  0.237520  0.335304  1
  Cr  Cr9  1  0.237520  0.762480  0.664696  1
  Fe  Fe10  1  0.744528  0.255472  0.838679  1
  Fe  Fe11  1  0.255472  0.744528  0.161321  1
  N  N12  1  0.849161  0.150839  0.956310  1
  N  N13  1  0.150839  0.849161  0.043690  1
  N  N14  1  0.660442  0.339558  0.454080  1
  N  N15  1  0.339558  0.660442  0.545920  1
  N  N16  1  0.566933  0.433067  0.865580  1
  N  N17  1  0.433067  0.566933  0.134420  1
  N  N18  1  0.925845  0.074155  0.372430  1
  N  N19  1  0.074155  0.925845  0.627570  1
  N  N20  1  0.501153  0.999257  0.747523  1
  N  N21  1  0.999257  0.501153  0.252477  1
  N  N22  1  0.498847  0.000743  0.252477  1
  N  N23  1  0.000743  0.498847  0.747523  1
