# generated using pymatgen
data_Nb8CuNi3N2
_symmetry_space_group_name_H-M   'P 1'
_cell_length_a   8.27806036
_cell_length_b   8.27806072
_cell_length_c   8.28190700
_cell_angle_alpha   59.98463277
_cell_angle_beta   59.98463135
_cell_angle_gamma   59.99421862
_symmetry_Int_Tables_number   1
_chemical_formula_structural   Nb8CuNi3N2
_chemical_formula_sum   'Nb16 Cu2 Ni6 N4'
_cell_volume   401.19236327
_cell_formula_units_Z   2
loop_
 _symmetry_equiv_pos_site_id
 _symmetry_equiv_pos_as_xyz
  1  'x, y, z'
loop_
 _atom_site_type_symbol
 _atom_site_label
 _atom_site_symmetry_multiplicity
 _atom_site_fract_x
 _atom_site_fract_y
 _atom_site_fract_z
 _atom_site_occupancy
  Nb  Nb0  1  0.432873  0.066991  0.067717  1
  Nb  Nb1  1  0.066991  0.432873  0.432418  1
  Nb  Nb2  1  0.066991  0.432873  0.067717  1
  Nb  Nb3  1  0.066842  0.066842  0.433158  1
  Nb  Nb4  1  0.432873  0.066991  0.432418  1
  Nb  Nb5  1  0.431818  0.431818  0.068182  1
  Nb  Nb6  1  0.184787  0.816658  0.181558  1
  Nb  Nb7  1  0.816658  0.184787  0.816996  1
  Nb  Nb8  1  0.816658  0.184787  0.181558  1
  Nb  Nb9  1  0.182397  0.182397  0.817603  1
  Nb  Nb10  1  0.184787  0.816658  0.816996  1
  Nb  Nb11  1  0.816051  0.816051  0.183949  1
  Nb  Nb12  1  0.622681  0.622681  0.628158  1
  Nb  Nb13  1  0.622681  0.622681  0.126480  1
  Nb  Nb14  1  0.129647  0.619385  0.625485  1
  Nb  Nb15  1  0.619385  0.129647  0.625485  1
  Cu  Cu16  1  0.832564  0.832564  0.831221  1
  Cu  Cu17  1  0.832564  0.832564  0.503649  1
  Ni  Ni18  1  0.510971  0.830502  0.829262  1
  Ni  Ni19  1  0.830502  0.510971  0.829262  1
  Ni  Ni20  1  0.420192  0.420192  0.420142  1
  Ni  Ni21  1  0.420192  0.420192  0.739475  1
  Ni  Ni22  1  0.420506  0.738760  0.420367  1
  Ni  Ni23  1  0.738760  0.420506  0.420367  1
  N  N24  1  0.124481  0.625912  0.124803  1
  N  N25  1  0.625912  0.124481  0.124803  1
  N  N26  1  0.124617  0.124617  0.625805  1
  N  N27  1  0.124617  0.124617  0.124961  1
