# generated using pymatgen
data_Th4Re5TcB12
_symmetry_space_group_name_H-M   'P 1'
_cell_length_a   6.35940483
_cell_length_b   6.35940367
_cell_length_c   7.63830031
_cell_angle_alpha   90.84346869
_cell_angle_beta   90.84346826
_cell_angle_gamma   115.07400795
_symmetry_Int_Tables_number   1
_chemical_formula_structural   Th4Re5TcB12
_chemical_formula_sum   'Th4 Re5 Tc1 B12'
_cell_volume   279.69189995
_cell_formula_units_Z   1
loop_
 _symmetry_equiv_pos_site_id
 _symmetry_equiv_pos_as_xyz
  1  'x, y, z'
loop_
 _atom_site_type_symbol
 _atom_site_label
 _atom_site_symmetry_multiplicity
 _atom_site_fract_x
 _atom_site_fract_y
 _atom_site_fract_z
 _atom_site_occupancy
  Th  Th0  1  0.096439  0.440546  0.325920  1
  Th  Th1  1  0.559454  0.903561  0.174080  1
  Th  Th2  1  0.904159  0.559943  0.673257  1
  Th  Th3  1  0.440057  0.095841  0.826743  1
  Re  Re4  1  0.411393  0.588607  0.750000  1
  Re  Re5  1  0.992026  0.805410  0.086285  1
  Re  Re6  1  0.194590  0.007974  0.413715  1
  Re  Re7  1  0.007608  0.194654  0.913614  1
  Re  Re8  1  0.805346  0.992392  0.586386  1
  Tc  Tc9  1  0.589003  0.410997  0.250000  1
  B  B10  1  0.245880  0.154276  0.134309  1
  B  B11  1  0.845724  0.754120  0.365691  1
  B  B12  1  0.752759  0.845998  0.866173  1
  B  B13  1  0.154002  0.247241  0.633827  1
  B  B14  1  0.583015  0.159777  0.482682  1
  B  B15  1  0.840223  0.416985  0.017318  1
  B  B16  1  0.415138  0.837601  0.519299  1
  B  B17  1  0.162399  0.584862  0.980701  1
  B  B18  1  0.444205  0.349733  0.533622  1
  B  B19  1  0.650267  0.555795  0.966378  1
  B  B20  1  0.556485  0.650171  0.465840  1
  B  B21  1  0.349829  0.443515  0.034160  1
