# generated using pymatgen
data_Li2Zr2Pt3Rh
_symmetry_space_group_name_H-M   'P 1'
_cell_length_a   4.22387400
_cell_length_b   7.12607400
_cell_length_c   12.94268028
_cell_angle_alpha   90.14352931
_cell_angle_beta   89.99960128
_cell_angle_gamma   90.00034488
_symmetry_Int_Tables_number   1
_chemical_formula_structural   Li2Zr2Pt3Rh
_chemical_formula_sum   'Li6 Zr6 Pt9 Rh3'
_cell_volume   389.56877785
_cell_formula_units_Z   3
loop_
 _symmetry_equiv_pos_site_id
 _symmetry_equiv_pos_as_xyz
  1  'x, y, z'
loop_
 _atom_site_type_symbol
 _atom_site_label
 _atom_site_symmetry_multiplicity
 _atom_site_fract_x
 _atom_site_fract_y
 _atom_site_fract_z
 _atom_site_occupancy
  Li  Li0  1  0.999996  0.000140  0.997696  1
  Li  Li1  1  0.499877  0.499189  0.164357  1
  Li  Li2  1  0.999880  0.000233  0.334599  1
  Li  Li3  1  0.500005  0.499624  0.502659  1
  Li  Li4  1  0.000125  0.000447  0.667848  1
  Li  Li5  1  0.500104  0.500196  0.832873  1
  Zr  Zr6  1  0.000019  0.498247  0.991976  1
  Zr  Zr7  1  0.499869  0.999113  0.165287  1
  Zr  Zr8  1  0.999867  0.500104  0.333978  1
  Zr  Zr9  1  0.500017  0.997828  0.504778  1
  Zr  Zr10  1  0.000129  0.510868  0.673914  1
  Zr  Zr11  1  0.500107  0.995310  0.829910  1
  Pt  Pt12  1  0.500011  0.248107  0.998399  1
  Pt  Pt13  1  0.500013  0.749090  0.999168  1
  Pt  Pt14  1  0.999872  0.250746  0.165514  1
  Pt  Pt15  1  0.999871  0.748301  0.165677  1
  Pt  Pt16  1  0.499867  0.248970  0.334149  1
  Pt  Pt17  1  0.499877  0.750226  0.333526  1
  Pt  Pt18  1  0.000019  0.251693  0.501680  1
  Pt  Pt19  1  0.000007  0.748918  0.501092  1
  Pt  Pt20  1  0.500148  0.254596  0.667831  1
  Rh  Rh21  1  0.500110  0.747239  0.665590  1
  Rh  Rh22  1  0.000108  0.244888  0.832785  1
  Rh  Rh23  1  0.000102  0.755929  0.834713  1
