# generated using pymatgen
data_LiAc3Sn7Ir
_symmetry_space_group_name_H-M   'P 1'
_cell_length_a   4.79886440
_cell_length_b   4.79320600
_cell_length_c   14.74453479
_cell_angle_alpha   90.00000000
_cell_angle_beta   99.34934386
_cell_angle_gamma   90.00000000
_symmetry_Int_Tables_number   1
_chemical_formula_structural   LiAc3Sn7Ir
_chemical_formula_sum   'Li1 Ac3 Sn7 Ir1'
_cell_volume   334.64773887
_cell_formula_units_Z   1
loop_
 _symmetry_equiv_pos_site_id
 _symmetry_equiv_pos_as_xyz
  1  'x, y, z'
loop_
 _atom_site_type_symbol
 _atom_site_label
 _atom_site_symmetry_multiplicity
 _atom_site_fract_x
 _atom_site_fract_y
 _atom_site_fract_z
 _atom_site_occupancy
  Li  Li0  1  0.636432  0.500001  0.265189  1
  Ac  Ac1  1  0.503184  0.500001  0.996757  1
  Ac  Ac2  1  0.180222  0.000000  0.367567  1
  Ac  Ac3  1  0.816178  0.000000  0.638119  1
  Sn  Sn4  1  0.994920  0.000000  0.983542  1
  Sn  Sn5  1  0.574179  0.000000  0.172566  1
  Sn  Sn6  1  0.091761  0.500001  0.174292  1
  Sn  Sn7  1  0.721209  0.500001  0.445919  1
  Sn  Sn8  1  0.281195  0.500001  0.564026  1
  Sn  Sn9  1  0.915897  0.500001  0.823346  1
  Sn  Sn10  1  0.406529  0.000000  0.823533  1
  Ir  Ir11  1  0.378298  0.500001  0.745145  1
