# generated using pymatgen
data_Er3Hf5Pt4
_symmetry_space_group_name_H-M   'P 1'
_cell_length_a   4.62102000
_cell_length_b   6.91644494
_cell_length_c   8.18589730
_cell_angle_alpha   90.23617477
_cell_angle_beta   90.00000000
_cell_angle_gamma   90.00000000
_symmetry_Int_Tables_number   1
_chemical_formula_structural   Er3Hf5Pt4
_chemical_formula_sum   'Er3 Hf5 Pt4'
_cell_volume   261.62748964
_cell_formula_units_Z   1
loop_
 _symmetry_equiv_pos_site_id
 _symmetry_equiv_pos_as_xyz
  1  'x, y, z'
loop_
 _atom_site_type_symbol
 _atom_site_label
 _atom_site_symmetry_multiplicity
 _atom_site_fract_x
 _atom_site_fract_y
 _atom_site_fract_z
 _atom_site_occupancy
  Er  Er0  1  0.250000  0.486066  0.175602  1
  Er  Er1  1  0.750000  0.016309  0.680983  1
  Er  Er2  1  0.250000  0.985077  0.320017  1
  Hf  Hf3  1  0.750000  0.648277  0.425679  1
  Hf  Hf4  1  0.250000  0.356326  0.582065  1
  Hf  Hf5  1  0.750000  0.151219  0.078273  1
  Hf  Hf6  1  0.250000  0.846821  0.919646  1
  Hf  Hf7  1  0.750000  0.511972  0.829107  1
  Pt  Pt8  1  0.750000  0.266285  0.404854  1
  Pt  Pt9  1  0.250000  0.734794  0.595332  1
  Pt  Pt10  1  0.750000  0.760021  0.089201  1
  Pt  Pt11  1  0.250000  0.236833  0.899240  1
