# generated using pymatgen
data_Ho2TaBi4SbO14
_symmetry_space_group_name_H-M   'P 1'
_cell_length_a   6.48219177
_cell_length_b   6.80340408
_cell_length_c   7.64780200
_cell_angle_alpha   106.35403322
_cell_angle_beta   89.83320348
_cell_angle_gamma   98.82232602
_symmetry_Int_Tables_number   1
_chemical_formula_structural   Ho2TaBi4SbO14
_chemical_formula_sum   'Ho2 Ta1 Bi4 Sb1 O14'
_cell_volume   319.51181917
_cell_formula_units_Z   1
loop_
 _symmetry_equiv_pos_site_id
 _symmetry_equiv_pos_as_xyz
  1  'x, y, z'
loop_
 _atom_site_type_symbol
 _atom_site_label
 _atom_site_symmetry_multiplicity
 _atom_site_fract_x
 _atom_site_fract_y
 _atom_site_fract_z
 _atom_site_occupancy
  Ho  Ho0  1  0.545160  0.996027  0.754707  1
  Ho  Ho1  1  0.454840  0.003973  0.245293  1
  Ta  Ta2  1  0.000000  0.000000  0.000000  1
  Bi  Bi3  1  0.254155  0.512495  0.879710  1
  Bi  Bi4  1  0.745845  0.487505  0.120290  1
  Bi  Bi5  1  0.729137  0.458680  0.607655  1
  Bi  Bi6  1  0.270863  0.541320  0.392345  1
  Sb  Sb7  1  0.000000  0.000000  0.500000  1
  O  O8  1  0.460267  0.659597  0.179206  1
  O  O9  1  0.539733  0.340403  0.820794  1
  O  O10  1  0.291205  0.950870  0.950732  1
  O  O11  1  0.708795  0.049130  0.049268  1
  O  O12  1  0.288605  0.926320  0.514338  1
  O  O13  1  0.711395  0.073680  0.485662  1
  O  O14  1  0.526857  0.347149  0.348981  1
  O  O15  1  0.473143  0.652851  0.651019  1
  O  O16  1  0.914789  0.690714  0.959115  1
  O  O17  1  0.085211  0.309286  0.040885  1
  O  O18  1  0.098638  0.306394  0.612311  1
  O  O19  1  0.901362  0.693606  0.387689  1
  O  O20  1  0.905701  0.956744  0.739231  1
  O  O21  1  0.094299  0.043256  0.260769  1
