# generated using pymatgen
data_NaSnSb3
_symmetry_space_group_name_H-M   'P 1'
_cell_length_a   9.82578116
_cell_length_b   9.82578141
_cell_length_c   9.82578167
_cell_angle_alpha   25.84099611
_cell_angle_beta   25.84099533
_cell_angle_gamma   25.84100086
_symmetry_Int_Tables_number   1
_chemical_formula_structural   NaSnSb3
_chemical_formula_sum   'Na1 Sn1 Sb3'
_cell_volume   158.72689139
_cell_formula_units_Z   1
loop_
 _symmetry_equiv_pos_site_id
 _symmetry_equiv_pos_as_xyz
  1  'x, y, z'
loop_
 _atom_site_type_symbol
 _atom_site_label
 _atom_site_symmetry_multiplicity
 _atom_site_fract_x
 _atom_site_fract_y
 _atom_site_fract_z
 _atom_site_occupancy
  Na  Na0  1  0.003604  0.003604  0.003604  1
  Sn  Sn1  1  0.794354  0.794354  0.794354  1
  Sb  Sb2  1  0.203219  0.203219  0.203219  1
  Sb  Sb3  1  0.409572  0.409572  0.409572  1
  Sb  Sb4  1  0.589250  0.589250  0.589250  1
