# generated using pymatgen
data_Li5Hf(ZrIr2)6
_symmetry_space_group_name_H-M   'P 1'
_cell_length_a   4.53622100
_cell_length_b   6.33509600
_cell_length_c   13.47691000
_cell_angle_alpha   89.99957462
_cell_angle_beta   89.99728806
_cell_angle_gamma   89.99994760
_symmetry_Int_Tables_number   1
_chemical_formula_structural   Li5Hf(ZrIr2)6
_chemical_formula_sum   'Li5 Hf1 Zr6 Ir12'
_cell_volume   387.29129273
_cell_formula_units_Z   1
loop_
 _symmetry_equiv_pos_site_id
 _symmetry_equiv_pos_as_xyz
  1  'x, y, z'
loop_
 _atom_site_type_symbol
 _atom_site_label
 _atom_site_symmetry_multiplicity
 _atom_site_fract_x
 _atom_site_fract_y
 _atom_site_fract_z
 _atom_site_occupancy
  Li  Li0  1  0.499922  0.999991  0.167672  1
  Li  Li1  1  0.999886  0.500004  0.334712  1
  Li  Li2  1  0.500001  0.000000  0.500000  1
  Li  Li3  1  0.000116  0.499996  0.665288  1
  Li  Li4  1  0.500077  0.000009  0.832328  1
  Hf  Hf5  1  0.000000  0.500000  0.000000  1
  Zr  Zr6  1  0.000000  0.000000  0.000000  1
  Zr  Zr7  1  0.499927  0.500001  0.176968  1
  Zr  Zr8  1  0.999891  0.000000  0.337152  1
  Zr  Zr9  1  0.500001  0.500000  0.500000  1
  Zr  Zr10  1  0.000108  0.000000  0.662848  1
  Zr  Zr11  1  0.500075  0.499999  0.823032  1
  Ir  Ir12  1  0.500001  0.252041  0.000002  1
  Ir  Ir13  1  0.500001  0.747957  0.999998  1
  Ir  Ir14  1  0.999916  0.249507  0.167123  1
  Ir  Ir15  1  0.999915  0.750493  0.167122  1
  Ir  Ir16  1  0.499895  0.244406  0.335493  1
  Ir  Ir17  1  0.499893  0.755594  0.335496  1
  Ir  Ir18  1  0.999999  0.252793  0.500000  1
  Ir  Ir19  1  0.000001  0.747208  0.500000  1
  Ir  Ir20  1  0.500107  0.244405  0.664504  1
  Ir  Ir21  1  0.500105  0.755593  0.664507  1
  Ir  Ir22  1  0.000087  0.249507  0.832878  1
  Ir  Ir23  1  0.000086  0.750493  0.832877  1
