# generated using pymatgen
data_Yb11Mg(CuSi)12
_symmetry_space_group_name_H-M   'P 1'
_cell_length_a   4.24662700
_cell_length_b   7.17634407
_cell_length_c   20.64401413
_cell_angle_alpha   90.31557964
_cell_angle_beta   90.00000000
_cell_angle_gamma   90.00000000
_symmetry_Int_Tables_number   1
_chemical_formula_structural   Yb11Mg(CuSi)12
_chemical_formula_sum   'Yb11 Mg1 Cu12 Si12'
_cell_volume   629.12208230
_cell_formula_units_Z   1
loop_
 _symmetry_equiv_pos_site_id
 _symmetry_equiv_pos_as_xyz
  1  'x, y, z'
loop_
 _atom_site_type_symbol
 _atom_site_label
 _atom_site_symmetry_multiplicity
 _atom_site_fract_x
 _atom_site_fract_y
 _atom_site_fract_z
 _atom_site_occupancy
  Yb  Yb0  1  0.250000  0.705706  0.001146  1
  Yb  Yb1  1  0.750000  0.290823  0.995810  1
  Yb  Yb2  1  0.750000  0.206628  0.497782  1
  Yb  Yb3  1  0.250000  0.792945  0.503427  1
  Yb  Yb4  1  0.250000  0.797942  0.165866  1
  Yb  Yb5  1  0.750000  0.198540  0.833064  1
  Yb  Yb6  1  0.750000  0.298217  0.333031  1
  Yb  Yb7  1  0.250000  0.702229  0.668716  1
  Yb  Yb8  1  0.250000  0.700118  0.332995  1
  Yb  Yb9  1  0.750000  0.302510  0.668789  1
  Yb  Yb10  1  0.750000  0.201647  0.165478  1
  Mg  Mg11  1  0.250000  0.799040  0.835928  1
  Cu  Cu12  1  0.250000  0.411365  0.095319  1
  Cu  Cu13  1  0.750000  0.588178  0.900152  1
  Cu  Cu14  1  0.750000  0.913253  0.402794  1
  Cu  Cu15  1  0.250000  0.086399  0.599297  1
  Cu  Cu16  1  0.250000  0.411563  0.234803  1
  Cu  Cu17  1  0.750000  0.599700  0.768531  1
  Cu  Cu18  1  0.750000  0.912090  0.263883  1
  Cu  Cu19  1  0.250000  0.085625  0.738160  1
  Cu  Cu20  1  0.250000  0.416889  0.438480  1
  Cu  Cu21  1  0.750000  0.582308  0.561965  1
  Cu  Cu22  1  0.750000  0.913457  0.062566  1
  Cu  Cu23  1  0.250000  0.077790  0.934165  1
  Si  Si24  1  0.250000  0.086273  0.063022  1
  Si  Si25  1  0.750000  0.907815  0.931207  1
  Si  Si26  1  0.750000  0.589986  0.434095  1
  Si  Si27  1  0.250000  0.409149  0.567489  1
  Si  Si28  1  0.250000  0.080376  0.272860  1
  Si  Si29  1  0.750000  0.921925  0.728253  1
  Si  Si30  1  0.750000  0.581196  0.226284  1
  Si  Si31  1  0.250000  0.427484  0.775305  1
  Si  Si32  1  0.250000  0.083905  0.394309  1
  Si  Si33  1  0.750000  0.915957  0.606590  1
  Si  Si34  1  0.750000  0.582368  0.104386  1
  Si  Si35  1  0.250000  0.418603  0.894049  1
