# generated using pymatgen
data_Y13Er3MgCo4Hg3
_symmetry_space_group_name_H-M   'P 1'
_cell_length_a   9.48892952
_cell_length_b   9.49128749
_cell_length_c   9.49128900
_cell_angle_alpha   59.99999821
_cell_angle_beta   59.99177767
_cell_angle_gamma   59.99177675
_symmetry_Int_Tables_number   1
_chemical_formula_structural   Y13Er3MgCo4Hg3
_chemical_formula_sum   'Y13 Er3 Mg1 Co4 Hg3'
_cell_volume   604.36395449
_cell_formula_units_Z   1
loop_
 _symmetry_equiv_pos_site_id
 _symmetry_equiv_pos_as_xyz
  1  'x, y, z'
loop_
 _atom_site_type_symbol
 _atom_site_label
 _atom_site_symmetry_multiplicity
 _atom_site_fract_x
 _atom_site_fract_y
 _atom_site_fract_z
 _atom_site_occupancy
  Y  Y0  1  0.951051  0.349649  0.349649  1
  Y  Y1  1  0.809455  0.189726  0.189726  1
  Y  Y2  1  0.186344  0.812892  0.812892  1
  Y  Y3  1  0.186344  0.812892  0.187871  1
  Y  Y4  1  0.809455  0.189726  0.811093  1
  Y  Y5  1  0.186344  0.187871  0.812892  1
  Y  Y6  1  0.809455  0.811093  0.189726  1
  Y  Y7  1  0.937589  0.562205  0.562205  1
  Y  Y8  1  0.560621  0.938398  0.938398  1
  Y  Y9  1  0.560621  0.938398  0.562583  1
  Y  Y10  1  0.937589  0.562205  0.938002  1
  Y  Y11  1  0.560621  0.562583  0.938398  1
  Y  Y12  1  0.937589  0.938002  0.562205  1
  Er  Er13  1  0.346855  0.345142  0.345142  1
  Er  Er14  1  0.346855  0.345142  0.962861  1
  Er  Er15  1  0.346855  0.962861  0.345142  1
  Mg  Mg16  1  0.287775  0.570742  0.570742  1
  Co  Co17  1  0.141131  0.142446  0.142446  1
  Co  Co18  1  0.141131  0.142446  0.573976  1
  Co  Co19  1  0.141131  0.573976  0.142446  1
  Co  Co20  1  0.571786  0.142738  0.142738  1
  Hg  Hg21  1  0.581133  0.585268  0.585268  1
  Hg  Hg22  1  0.581133  0.585268  0.248332  1
  Hg  Hg23  1  0.581133  0.248332  0.585268  1
