# generated using pymatgen
data_NdSi4(Ir2Rh)2
_symmetry_space_group_name_H-M   'P 1'
_cell_length_a   7.03351300
_cell_length_b   7.04836652
_cell_length_c   3.87056400
_cell_angle_alpha   90.00000000
_cell_angle_beta   90.00000000
_cell_angle_gamma   119.93031787
_symmetry_Int_Tables_number   1
_chemical_formula_structural   NdSi4(Ir2Rh)2
_chemical_formula_sum   'Nd1 Si4 Ir4 Rh2'
_cell_volume   166.29154817
_cell_formula_units_Z   1
loop_
 _symmetry_equiv_pos_site_id
 _symmetry_equiv_pos_as_xyz
  1  'x, y, z'
loop_
 _atom_site_type_symbol
 _atom_site_label
 _atom_site_symmetry_multiplicity
 _atom_site_fract_x
 _atom_site_fract_y
 _atom_site_fract_z
 _atom_site_occupancy
  Nd  Nd0  1  0.999789  0.999578  0.000000  1
  Si  Si1  1  0.333614  0.667228  0.000000  1
  Si  Si2  1  0.399709  0.199844  0.500000  1
  Si  Si3  1  0.800135  0.199844  0.500000  1
  Si  Si4  1  0.799378  0.598756  0.500000  1
  Ir  Ir5  1  0.532631  0.065260  0.000000  1
  Ir  Ir6  1  0.533167  0.468118  0.000000  1
  Ir  Ir7  1  0.934951  0.468118  0.000000  1
  Ir  Ir8  1  0.199090  0.398179  0.500000  1
  Rh  Rh9  1  0.198918  0.800872  0.500000  1
  Rh  Rh10  1  0.601953  0.800872  0.500000  1
