# generated using pymatgen
data_Hf4Nb16Al9Au
_symmetry_space_group_name_H-M   'P 1'
_cell_length_a   10.08717605
_cell_length_b   10.08717605
_cell_length_c   5.24792900
_cell_angle_alpha   90.00000000
_cell_angle_beta   90.00000000
_cell_angle_gamma   89.12353526
_symmetry_Int_Tables_number   1
_chemical_formula_structural   Hf4Nb16Al9Au
_chemical_formula_sum   'Hf4 Nb16 Al9 Au1'
_cell_volume   533.92018144
_cell_formula_units_Z   1
loop_
 _symmetry_equiv_pos_site_id
 _symmetry_equiv_pos_as_xyz
  1  'x, y, z'
loop_
 _atom_site_type_symbol
 _atom_site_label
 _atom_site_symmetry_multiplicity
 _atom_site_fract_x
 _atom_site_fract_y
 _atom_site_fract_z
 _atom_site_occupancy
  Hf  Hf0  1  0.396217  0.396217  0.000000  1
  Hf  Hf1  1  0.892670  0.107330  0.500000  1
  Hf  Hf2  1  0.107330  0.892670  0.500000  1
  Hf  Hf3  1  0.603783  0.603783  0.000000  1
  Nb  Nb4  1  0.124757  0.464329  0.000000  1
  Nb  Nb5  1  0.967614  0.373529  0.500000  1
  Nb  Nb6  1  0.032386  0.626471  0.500000  1
  Nb  Nb7  1  0.875243  0.535671  0.000000  1
  Nb  Nb8  1  0.373529  0.967614  0.500000  1
  Nb  Nb9  1  0.626471  0.032386  0.500000  1
  Nb  Nb10  1  0.464329  0.124757  0.000000  1
  Nb  Nb11  1  0.535671  0.875243  0.000000  1
  Nb  Nb12  1  0.183674  0.183674  0.253400  1
  Nb  Nb13  1  0.681524  0.318476  0.753967  1
  Nb  Nb14  1  0.318476  0.681524  0.753967  1
  Nb  Nb15  1  0.816326  0.816326  0.253400  1
  Nb  Nb16  1  0.318476  0.681524  0.246033  1
  Nb  Nb17  1  0.681524  0.318476  0.246033  1
  Nb  Nb18  1  0.183674  0.183674  0.746600  1
  Nb  Nb19  1  0.816326  0.816326  0.746600  1
  Al  Al20  1  0.500000  0.500000  0.500000  1
  Al  Al21  1  0.262797  0.933154  0.000000  1
  Al  Al22  1  0.434226  0.236756  0.500000  1
  Al  Al23  1  0.565774  0.763244  0.500000  1
  Al  Al24  1  0.737203  0.066846  0.000000  1
  Al  Al25  1  0.236756  0.434226  0.500000  1
  Al  Al26  1  0.763244  0.565774  0.500000  1
  Al  Al27  1  0.933154  0.262797  0.000000  1
  Al  Al28  1  0.066846  0.737203  0.000000  1
  Au  Au29  1  0.000000  0.000000  0.000000  1
