# generated using pymatgen
data_PrSm3Np2O12
_symmetry_space_group_name_H-M   'P 1'
_cell_length_a   5.67379000
_cell_length_b   8.00194551
_cell_length_c   12.09608629
_cell_angle_alpha   74.07428868
_cell_angle_beta   90.00000000
_cell_angle_gamma   90.00000000
_symmetry_Int_Tables_number   1
_chemical_formula_structural   PrSm3Np2O12
_chemical_formula_sum   'Pr2 Sm6 Np4 O24'
_cell_volume   528.10032083
_cell_formula_units_Z   2
loop_
 _symmetry_equiv_pos_site_id
 _symmetry_equiv_pos_as_xyz
  1  'x, y, z'
loop_
 _atom_site_type_symbol
 _atom_site_label
 _atom_site_symmetry_multiplicity
 _atom_site_fract_x
 _atom_site_fract_y
 _atom_site_fract_z
 _atom_site_occupancy
  Pr  Pr0  1  0.693666  0.500000  0.750000  1
  Pr  Pr1  1  0.306334  0.500000  0.250000  1
  Sm  Sm2  1  0.743798  0.000000  0.750000  1
  Sm  Sm3  1  0.256202  0.000000  0.250000  1
  Sm  Sm4  1  0.188304  0.795500  0.577817  1
  Sm  Sm5  1  0.811696  0.795500  0.077817  1
  Sm  Sm6  1  0.188304  0.204500  0.922183  1
  Sm  Sm7  1  0.811696  0.204500  0.422183  1
  Np  Np8  1  0.253754  0.724088  0.885570  1
  Np  Np9  1  0.746246  0.724088  0.385570  1
  Np  Np10  1  0.253754  0.275912  0.614430  1
  Np  Np11  1  0.746246  0.275912  0.114430  1
  O  O12  1  0.044069  0.942046  0.896308  1
  O  O13  1  0.543946  0.848849  0.931104  1
  O  O14  1  0.955931  0.942046  0.396308  1
  O  O15  1  0.447930  0.798102  0.729189  1
  O  O16  1  0.456054  0.848849  0.431104  1
  O  O17  1  0.971772  0.716099  0.768150  1
  O  O18  1  0.552070  0.798102  0.229189  1
  O  O19  1  0.871468  0.632001  0.549874  1
  O  O20  1  0.378178  0.486485  0.885963  1
  O  O21  1  0.028228  0.716099  0.268150  1
  O  O22  1  0.378178  0.513515  0.614037  1
  O  O23  1  0.871468  0.367999  0.950126  1
  O  O24  1  0.128532  0.632001  0.049874  1
  O  O25  1  0.621822  0.486485  0.385963  1
  O  O26  1  0.971772  0.283901  0.731850  1
  O  O27  1  0.621822  0.513515  0.114037  1
  O  O28  1  0.128532  0.367999  0.450126  1
  O  O29  1  0.447930  0.201898  0.770811  1
  O  O30  1  0.028228  0.283901  0.231850  1
  O  O31  1  0.543946  0.151151  0.568896  1
  O  O32  1  0.552070  0.201898  0.270811  1
  O  O33  1  0.044069  0.057954  0.603692  1
  O  O34  1  0.456054  0.151151  0.068896  1
  O  O35  1  0.955931  0.057954  0.103692  1
