# generated using pymatgen
data_BaPrF5
_symmetry_space_group_name_H-M   'P 1'
_cell_length_a   8.71801422
_cell_length_b   8.71801367
_cell_length_c   6.16472993
_cell_angle_alpha   89.18529725
_cell_angle_beta   89.18530569
_cell_angle_gamma   149.70031679
_symmetry_Int_Tables_number   1
_chemical_formula_structural   BaPrF5
_chemical_formula_sum   'Ba2 Pr2 F10'
_cell_volume   236.04037895
_cell_formula_units_Z   2
loop_
 _symmetry_equiv_pos_site_id
 _symmetry_equiv_pos_as_xyz
  1  'x, y, z'
loop_
 _atom_site_type_symbol
 _atom_site_label
 _atom_site_symmetry_multiplicity
 _atom_site_fract_x
 _atom_site_fract_y
 _atom_site_fract_z
 _atom_site_occupancy
  Ba  Ba0  1  0.323644  0.676356  0.750000  1
  Ba  Ba1  1  0.676356  0.323644  0.250000  1
  Pr  Pr2  1  0.074784  0.925216  0.750000  1
  Pr  Pr3  1  0.925216  0.074784  0.250000  1
  F  F4  1  0.732201  0.809191  0.598681  1
  F  F5  1  0.809191  0.732201  0.098681  1
  F  F6  1  0.802153  0.176991  0.005433  1
  F  F7  1  0.621453  0.378547  0.750000  1
  F  F8  1  0.823009  0.197847  0.494567  1
  F  F9  1  0.176991  0.802153  0.505433  1
  F  F10  1  0.378547  0.621453  0.250000  1
  F  F11  1  0.197847  0.823009  0.994567  1
  F  F12  1  0.190809  0.267799  0.901319  1
  F  F13  1  0.267799  0.190809  0.401319  1
