# generated using pymatgen
data_UTa2(Co3B2)3
_symmetry_space_group_name_H-M   'P 1'
_cell_length_a   5.66956334
_cell_length_b   5.66956285
_cell_length_c   5.66956303
_cell_angle_alpha   94.79050618
_cell_angle_beta   94.79050821
_cell_angle_gamma   94.79049678
_symmetry_Int_Tables_number   1
_chemical_formula_structural   UTa2(Co3B2)3
_chemical_formula_sum   'U1 Ta2 Co9 B6'
_cell_volume   180.21820558
_cell_formula_units_Z   1
loop_
 _symmetry_equiv_pos_site_id
 _symmetry_equiv_pos_as_xyz
  1  'x, y, z'
loop_
 _atom_site_type_symbol
 _atom_site_label
 _atom_site_symmetry_multiplicity
 _atom_site_fract_x
 _atom_site_fract_y
 _atom_site_fract_z
 _atom_site_occupancy
  U  U0  1  0.000000  0.000000  0.000000  1
  Ta  Ta1  1  0.662353  0.662353  0.662353  1
  Ta  Ta2  1  0.337647  0.337647  0.337647  1
  Co  Co3  1  0.500000  0.000000  0.000000  1
  Co  Co4  1  0.000000  0.500000  0.000000  1
  Co  Co5  1  0.000000  0.000000  0.500000  1
  Co  Co6  1  0.694983  0.201550  0.694983  1
  Co  Co7  1  0.694983  0.694983  0.201550  1
  Co  Co8  1  0.201550  0.694983  0.694983  1
  Co  Co9  1  0.305017  0.798450  0.305017  1
  Co  Co10  1  0.305017  0.305017  0.798450  1
  Co  Co11  1  0.798450  0.305017  0.305017  1
  B  B12  1  0.381034  0.000000  0.618966  1
  B  B13  1  0.618966  0.381034  0.000000  1
  B  B14  1  0.000000  0.618966  0.381034  1
  B  B15  1  0.618966  0.000000  0.381034  1
  B  B16  1  0.381034  0.618966  0.000000  1
  B  B17  1  0.000000  0.381034  0.618966  1
