# generated using pymatgen
data_Dy2YIn3Cu2Pt
_symmetry_space_group_name_H-M   'P 1'
_cell_length_a   7.56627421
_cell_length_b   7.57335212
_cell_length_c   3.89661600
_cell_angle_alpha   90.00000000
_cell_angle_beta   90.00000000
_cell_angle_gamma   119.99573074
_symmetry_Int_Tables_number   1
_chemical_formula_structural   Dy2YIn3Cu2Pt
_chemical_formula_sum   'Dy2 Y1 In3 Cu2 Pt1'
_cell_volume   193.37803771
_cell_formula_units_Z   1
loop_
 _symmetry_equiv_pos_site_id
 _symmetry_equiv_pos_as_xyz
  1  'x, y, z'
loop_
 _atom_site_type_symbol
 _atom_site_label
 _atom_site_symmetry_multiplicity
 _atom_site_fract_x
 _atom_site_fract_y
 _atom_site_fract_z
 _atom_site_occupancy
  Dy  Dy0  1  0.007817  0.414528  0.500000  1
  Dy  Dy1  1  0.584522  0.592822  0.500000  1
  Y  Y2  1  0.407273  0.993453  0.500000  1
  In  In3  1  0.752250  0.008832  0.000000  1
  In  In4  1  0.990500  0.743234  0.000000  1
  In  In5  1  0.256246  0.247096  0.000000  1
  Cu  Cu6  1  0.000341  0.000412  0.500000  1
  Cu  Cu7  1  0.668292  0.334601  0.000000  1
  Pt  Pt8  1  0.332758  0.665022  0.000000  1
