# generated using pymatgen
data_Tb3ErBBr6
_symmetry_space_group_name_H-M   'P 1'
_cell_length_a   3.97078000
_cell_length_b   13.19373673
_cell_length_c   13.67033388
_cell_angle_alpha   89.74481732
_cell_angle_beta   90.00000000
_cell_angle_gamma   90.00000000
_symmetry_Int_Tables_number   1
_chemical_formula_structural   Tb3ErBBr6
_chemical_formula_sum   'Tb6 Er2 B2 Br12'
_cell_volume   716.17384113
_cell_formula_units_Z   2
loop_
 _symmetry_equiv_pos_site_id
 _symmetry_equiv_pos_as_xyz
  1  'x, y, z'
loop_
 _atom_site_type_symbol
 _atom_site_label
 _atom_site_symmetry_multiplicity
 _atom_site_fract_x
 _atom_site_fract_y
 _atom_site_fract_z
 _atom_site_occupancy
  Tb  Tb0  1  0.000000  0.102810  0.081559  1
  Tb  Tb1  1  0.000000  0.897190  0.918441  1
  Tb  Tb2  1  0.500000  0.123501  0.854827  1
  Tb  Tb3  1  0.500000  0.876499  0.145173  1
  Tb  Tb4  1  0.500000  0.622774  0.644358  1
  Tb  Tb5  1  0.500000  0.377226  0.355642  1
  Er  Er6  1  0.000000  0.600161  0.420475  1
  Er  Er7  1  0.000000  0.399839  0.579525  1
  B  B8  1  0.500000  0.000000  0.000000  1
  B  B9  1  0.500000  0.500000  0.500000  1
  Br  Br10  1  0.500000  0.271067  0.679522  1
  Br  Br11  1  0.500000  0.728933  0.320478  1
  Br  Br12  1  0.500000  0.767211  0.817287  1
  Br  Br13  1  0.500000  0.232789  0.182713  1
  Br  Br14  1  0.000000  0.261807  0.931101  1
  Br  Br15  1  0.000000  0.738193  0.068899  1
  Br  Br16  1  0.000000  0.483306  0.240604  1
  Br  Br17  1  0.000000  0.516694  0.759396  1
  Br  Br18  1  0.000000  0.980778  0.261373  1
  Br  Br19  1  0.000000  0.019222  0.738627  1
  Br  Br20  1  0.000000  0.239731  0.433739  1
  Br  Br21  1  0.000000  0.760269  0.566261  1
