# generated using pymatgen
data_Ca5La15Sn16
_symmetry_space_group_name_H-M   'P 1'
_cell_length_a   8.23355291
_cell_length_b   8.65188181
_cell_length_c   16.41710392
_cell_angle_alpha   90.09937962
_cell_angle_beta   89.30996201
_cell_angle_gamma   90.00519784
_symmetry_Int_Tables_number   1
_chemical_formula_structural   Ca5La15Sn16
_chemical_formula_sum   'Ca5 La15 Sn16'
_cell_volume   1169.39775378
_cell_formula_units_Z   1
loop_
 _symmetry_equiv_pos_site_id
 _symmetry_equiv_pos_as_xyz
  1  'x, y, z'
loop_
 _atom_site_type_symbol
 _atom_site_label
 _atom_site_symmetry_multiplicity
 _atom_site_fract_x
 _atom_site_fract_y
 _atom_site_fract_z
 _atom_site_occupancy
  Ca  Ca0  1  0.333447  0.830203  0.876111  1
  Ca  Ca1  1  0.171414  0.497401  0.750564  1
  Ca  Ca2  1  0.669752  0.005880  0.750683  1
  Ca  Ca3  1  0.829048  0.505487  0.250914  1
  Ca  Ca4  1  0.329024  0.992631  0.250397  1
  La  La5  1  0.843270  0.671187  0.623362  1
  La  La6  1  0.656625  0.169276  0.376292  1
  La  La7  1  0.163424  0.326644  0.123374  1
  La  La8  1  0.664277  0.171472  0.123672  1
  La  La9  1  0.157503  0.329410  0.376491  1
  La  La10  1  0.344451  0.829869  0.624920  1
  La  La11  1  0.837921  0.674713  0.875101  1
  La  La12  1  0.492334  0.316129  0.903581  1
  La  La13  1  0.998836  0.184269  0.596128  1
  La  La14  1  0.504695  0.683102  0.404386  1
  La  La15  1  0.006365  0.813611  0.096312  1
  La  La16  1  0.504368  0.682852  0.095479  1
  La  La17  1  0.003917  0.816407  0.403855  1
  La  La18  1  0.495685  0.315157  0.596119  1
  La  La19  1  0.994585  0.184687  0.903024  1
  Sn  Sn20  1  0.328637  0.033173  0.037587  1
  Sn  Sn21  1  0.816868  0.461660  0.462736  1
  Sn  Sn22  1  0.686077  0.963753  0.538024  1
  Sn  Sn23  1  0.173814  0.535254  0.960539  1
  Sn  Sn24  1  0.668223  0.963914  0.961124  1
  Sn  Sn25  1  0.185689  0.538573  0.537747  1
  Sn  Sn26  1  0.315063  0.036609  0.463225  1
  Sn  Sn27  1  0.826115  0.464941  0.037438  1
  Sn  Sn28  1  0.537965  0.601527  0.750183  1
  Sn  Sn29  1  0.038727  0.898306  0.750557  1
  Sn  Sn30  1  0.462217  0.397664  0.249759  1
  Sn  Sn31  1  0.962571  0.101401  0.249997  1
  Sn  Sn32  1  0.295104  0.142477  0.750573  1
  Sn  Sn33  1  0.795805  0.361798  0.751074  1
  Sn  Sn34  1  0.703728  0.858518  0.249380  1
  Sn  Sn35  1  0.202455  0.640046  0.249291  1
