# generated using pymatgen
data_Ho20(PdRh3)3
_symmetry_space_group_name_H-M   'P 1'
_cell_length_a   10.95043863
_cell_length_b   10.95043850
_cell_length_c   6.32531902
_cell_angle_alpha   90.00766004
_cell_angle_beta   90.00765719
_cell_angle_gamma   90.13195257
_symmetry_Int_Tables_number   1
_chemical_formula_structural   Ho20(PdRh3)3
_chemical_formula_sum   'Ho20 Pd3 Rh9'
_cell_volume   758.48029158
_cell_formula_units_Z   1
loop_
 _symmetry_equiv_pos_site_id
 _symmetry_equiv_pos_as_xyz
  1  'x, y, z'
loop_
 _atom_site_type_symbol
 _atom_site_label
 _atom_site_symmetry_multiplicity
 _atom_site_fract_x
 _atom_site_fract_y
 _atom_site_fract_z
 _atom_site_occupancy
  Ho  Ho0  1  0.291760  0.086315  0.377424  1
  Ho  Ho1  1  0.291486  0.915448  0.878100  1
  Ho  Ho2  1  0.709201  0.090768  0.878112  1
  Ho  Ho3  1  0.710219  0.915952  0.377324  1
  Ho  Ho4  1  0.591364  0.797615  0.871281  1
  Ho  Ho5  1  0.592666  0.207773  0.376541  1
  Ho  Ho6  1  0.410026  0.795311  0.371589  1
  Ho  Ho7  1  0.413936  0.207156  0.868655  1
  Ho  Ho8  1  0.202385  0.408636  0.628719  1
  Ho  Ho9  1  0.204689  0.589974  0.128411  1
  Ho  Ho10  1  0.792227  0.407334  0.123459  1
  Ho  Ho11  1  0.792844  0.586064  0.631345  1
  Ho  Ho12  1  0.913685  0.708240  0.122576  1
  Ho  Ho13  1  0.909232  0.290799  0.621888  1
  Ho  Ho14  1  0.084552  0.708514  0.621900  1
  Ho  Ho15  1  0.084048  0.289781  0.122676  1
  Ho  Ho16  1  0.001469  0.000690  0.500443  1
  Ho  Ho17  1  0.999310  0.998531  0.999557  1
  Ho  Ho18  1  0.502585  0.499930  0.999394  1
  Ho  Ho19  1  0.500070  0.497415  0.500606  1
  Pd  Pd20  1  0.655648  0.655346  0.249579  1
  Pd  Pd21  1  0.344654  0.344352  0.250421  1
  Pd  Pd22  1  0.345578  0.654422  0.750000  1
  Rh  Rh23  1  0.846681  0.153319  0.250000  1
  Rh  Rh24  1  0.845843  0.844422  0.748520  1
  Rh  Rh25  1  0.155578  0.154157  0.751480  1
  Rh  Rh26  1  0.154856  0.845144  0.250000  1
  Rh  Rh27  1  0.652676  0.347324  0.750000  1
  Rh  Rh28  1  0.500640  0.000524  0.119468  1
  Rh  Rh29  1  0.500817  0.000195  0.617068  1
  Rh  Rh30  1  0.999805  0.499183  0.882932  1
  Rh  Rh31  1  0.999476  0.499360  0.380532  1
