# generated using pymatgen
data_YbPa3Os8
_symmetry_space_group_name_H-M   'P 1'
_cell_length_a   5.33787800
_cell_length_b   5.33787754
_cell_length_c   8.79317700
_cell_angle_alpha   90.00000000
_cell_angle_beta   90.00000000
_cell_angle_gamma   119.99999044
_symmetry_Int_Tables_number   1
_chemical_formula_structural   YbPa3Os8
_chemical_formula_sum   'Yb1 Pa3 Os8'
_cell_volume   216.97701924
_cell_formula_units_Z   1
loop_
 _symmetry_equiv_pos_site_id
 _symmetry_equiv_pos_as_xyz
  1  'x, y, z'
loop_
 _atom_site_type_symbol
 _atom_site_label
 _atom_site_symmetry_multiplicity
 _atom_site_fract_x
 _atom_site_fract_y
 _atom_site_fract_z
 _atom_site_occupancy
  Yb  Yb0  1  0.333333  0.666667  0.064643  1
  Pa  Pa1  1  0.333333  0.666667  0.423846  1
  Pa  Pa2  1  0.666667  0.333333  0.573595  1
  Pa  Pa3  1  0.666667  0.333333  0.930659  1
  Os  Os4  1  0.000000  0.000000  0.500402  1
  Os  Os5  1  0.000000  0.000000  0.002766  1
  Os  Os6  1  0.829416  0.170584  0.250230  1
  Os  Os7  1  0.829416  0.658833  0.250230  1
  Os  Os8  1  0.341167  0.170584  0.250230  1
  Os  Os9  1  0.171089  0.828911  0.751133  1
  Os  Os10  1  0.171089  0.342177  0.751133  1
  Os  Os11  1  0.657823  0.828911  0.751133  1
