# generated using pymatgen
data_Dy3Hf4Zr3(Si5Ir2)4
_symmetry_space_group_name_H-M   'P 1'
_cell_length_a   12.45541015
_cell_length_b   12.45540919
_cell_length_c   4.12680200
_cell_angle_alpha   90.00000000
_cell_angle_beta   90.00000000
_cell_angle_gamma   90.10399847
_symmetry_Int_Tables_number   1
_chemical_formula_structural   Dy3Hf4Zr3(Si5Ir2)4
_chemical_formula_sum   'Dy3 Hf4 Zr3 Si20 Ir8'
_cell_volume   640.21957625
_cell_formula_units_Z   1
loop_
 _symmetry_equiv_pos_site_id
 _symmetry_equiv_pos_as_xyz
  1  'x, y, z'
loop_
 _atom_site_type_symbol
 _atom_site_label
 _atom_site_symmetry_multiplicity
 _atom_site_fract_x
 _atom_site_fract_y
 _atom_site_fract_z
 _atom_site_occupancy
  Dy  Dy0  1  0.115307  0.615307  0.500000  1
  Dy  Dy1  1  0.384069  0.116179  0.500000  1
  Dy  Dy2  1  0.616179  0.884069  0.500000  1
  Hf  Hf3  1  0.677366  0.177366  0.500000  1
  Hf  Hf4  1  0.324925  0.824925  0.500000  1
  Hf  Hf5  1  0.173651  0.324358  0.500000  1
  Hf  Hf6  1  0.824358  0.673651  0.500000  1
  Zr  Zr7  1  0.499803  0.500513  0.000000  1
  Zr  Zr8  1  0.000513  0.999803  0.000000  1
  Zr  Zr9  1  0.882601  0.382601  0.500000  1
  Si  Si10  1  0.567649  0.067649  0.000000  1
  Si  Si11  1  0.433476  0.933476  0.000000  1
  Si  Si12  1  0.064999  0.432888  0.000000  1
  Si  Si13  1  0.932888  0.564999  0.000000  1
  Si  Si14  1  0.664376  0.699393  0.000000  1
  Si  Si15  1  0.335794  0.299895  0.000000  1
  Si  Si16  1  0.164267  0.799543  0.000000  1
  Si  Si17  1  0.837080  0.202114  0.000000  1
  Si  Si18  1  0.299543  0.664267  0.000000  1
  Si  Si19  1  0.702114  0.337080  0.000000  1
  Si  Si20  1  0.199393  0.164376  0.000000  1
  Si  Si21  1  0.799895  0.835794  0.000000  1
  Si  Si22  1  0.653638  0.504570  0.500000  1
  Si  Si23  1  0.346872  0.492276  0.500000  1
  Si  Si24  1  0.152934  0.993637  0.500000  1
  Si  Si25  1  0.847677  0.006677  0.500000  1
  Si  Si26  1  0.493637  0.652934  0.500000  1
  Si  Si27  1  0.506677  0.347677  0.500000  1
  Si  Si28  1  0.004570  0.153638  0.500000  1
  Si  Si29  1  0.992276  0.846872  0.500000  1
  Ir  Ir30  1  0.745278  0.521288  0.000000  1
  Ir  Ir31  1  0.254948  0.477501  0.000000  1
  Ir  Ir32  1  0.244025  0.978155  0.000000  1
  Ir  Ir33  1  0.756853  0.023426  0.000000  1
  Ir  Ir34  1  0.478155  0.744025  0.000000  1
  Ir  Ir35  1  0.523426  0.256853  0.000000  1
  Ir  Ir36  1  0.021288  0.245278  0.000000  1
  Ir  Ir37  1  0.977501  0.754948  0.000000  1
