# generated using pymatgen
data_BaSr5Ca2Ta4O18
_symmetry_space_group_name_H-M   'P 1'
_cell_length_a   5.93294611
_cell_length_b   5.93306108
_cell_length_c   15.09031704
_cell_angle_alpha   89.99066236
_cell_angle_beta   89.99384489
_cell_angle_gamma   59.99948692
_symmetry_Int_Tables_number   1
_chemical_formula_structural   BaSr5Ca2Ta4O18
_chemical_formula_sum   'Ba1 Sr5 Ca2 Ta4 O18'
_cell_volume   460.01920932
_cell_formula_units_Z   1
loop_
 _symmetry_equiv_pos_site_id
 _symmetry_equiv_pos_as_xyz
  1  'x, y, z'
loop_
 _atom_site_type_symbol
 _atom_site_label
 _atom_site_symmetry_multiplicity
 _atom_site_fract_x
 _atom_site_fract_y
 _atom_site_fract_z
 _atom_site_occupancy
  Ba  Ba0  1  0.000258  0.999549  0.249635  1
  Sr  Sr1  1  0.666867  0.666422  0.372638  1
  Sr  Sr2  1  0.666915  0.666113  0.125856  1
  Sr  Sr3  1  0.332880  0.334705  0.872236  1
  Sr  Sr4  1  0.333484  0.332590  0.627888  1
  Sr  Sr5  1  0.999922  0.000168  0.748755  1
  Ca  Ca6  1  0.000130  0.999523  0.501266  1
  Ca  Ca7  1  0.999893  0.000485  0.998423  1
  Ta  Ta8  1  0.666016  0.667949  0.849372  1
  Ta  Ta9  1  0.666853  0.666110  0.651331  1
  Ta  Ta10  1  0.333450  0.333058  0.349897  1
  Ta  Ta11  1  0.333704  0.332851  0.149936  1
  O  O12  1  0.588329  0.961236  0.749885  1
  O  O13  1  0.912640  0.739700  0.596077  1
  O  O14  1  0.912512  0.741203  0.904082  1
  O  O15  1  0.346738  0.911620  0.596336  1
  O  O16  1  0.347006  0.914830  0.904318  1
  O  O17  1  0.960509  0.450910  0.750324  1
  O  O18  1  0.450548  0.588755  0.750441  1
  O  O19  1  0.258111  0.650931  0.093312  1
  O  O20  1  0.258494  0.651298  0.406217  1
  O  O21  1  0.741165  0.345534  0.596751  1
  O  O22  1  0.738148  0.350177  0.905249  1
  O  O23  1  0.526969  0.436690  0.249779  1
  O  O24  1  0.036432  0.526273  0.249890  1
  O  O25  1  0.651916  0.089842  0.093552  1
  O  O26  1  0.651517  0.090131  0.406416  1
  O  O27  1  0.090825  0.257312  0.093620  1
  O  O28  1  0.090440  0.258284  0.406542  1
  O  O29  1  0.437327  0.035752  0.249975  1
