# generated using pymatgen
data_Rb4TbDy3(Bi2Se5)4
_symmetry_space_group_name_H-M   'P 1'
_cell_length_a   4.17608700
_cell_length_b   12.43647400
_cell_length_c   22.36593101
_cell_angle_alpha   90.00316082
_cell_angle_beta   90.00000000
_cell_angle_gamma   90.00000000
_symmetry_Int_Tables_number   1
_chemical_formula_structural   Rb4TbDy3(Bi2Se5)4
_chemical_formula_sum   'Rb4 Tb1 Dy3 Bi8 Se20'
_cell_volume   1161.59246013
_cell_formula_units_Z   1
loop_
 _symmetry_equiv_pos_site_id
 _symmetry_equiv_pos_as_xyz
  1  'x, y, z'
loop_
 _atom_site_type_symbol
 _atom_site_label
 _atom_site_symmetry_multiplicity
 _atom_site_fract_x
 _atom_site_fract_y
 _atom_site_fract_z
 _atom_site_occupancy
  Rb  Rb0  1  0.250000  0.489504  0.210777  1
  Rb  Rb1  1  0.750000  0.510499  0.789233  1
  Rb  Rb2  1  0.750000  0.989503  0.289234  1
  Rb  Rb3  1  0.250000  0.010493  0.710765  1
  Tb  Tb4  1  0.250000  0.363737  0.024044  1
  Dy  Dy5  1  0.750000  0.636249  0.975945  1
  Dy  Dy6  1  0.750000  0.863799  0.475976  1
  Dy  Dy7  1  0.250000  0.136199  0.524024  1
  Bi  Bi8  1  0.250000  0.802179  0.125792  1
  Bi  Bi9  1  0.750000  0.197785  0.874181  1
  Bi  Bi10  1  0.750000  0.302189  0.374199  1
  Bi  Bi11  1  0.250000  0.697808  0.625801  1
  Bi  Bi12  1  0.250000  0.596010  0.423756  1
  Bi  Bi13  1  0.750000  0.403988  0.576244  1
  Bi  Bi14  1  0.750000  0.095981  0.076272  1
  Bi  Bi15  1  0.250000  0.904005  0.923765  1
  Se  Se16  1  0.250000  0.811873  0.390401  1
  Se  Se17  1  0.750000  0.188125  0.609599  1
  Se  Se18  1  0.750000  0.311706  0.109863  1
  Se  Se19  1  0.250000  0.688111  0.890405  1
  Se  Se20  1  0.250000  0.247789  0.295819  1
  Se  Se21  1  0.750000  0.752211  0.704182  1
  Se  Se22  1  0.750000  0.747784  0.204181  1
  Se  Se23  1  0.250000  0.252200  0.795818  1
  Se  Se24  1  0.250000  0.355548  0.481118  1
  Se  Se25  1  0.750000  0.644450  0.518883  1
  Se  Se26  1  0.750000  0.855550  0.018884  1
  Se  Se27  1  0.250000  0.144096  0.981036  1
  Se  Se28  1  0.250000  0.025998  0.158710  1
  Se  Se29  1  0.750000  0.974030  0.841278  1
  Se  Se30  1  0.750000  0.525982  0.341286  1
  Se  Se31  1  0.250000  0.474017  0.658714  1
  Se  Se32  1  0.250000  0.583200  0.059901  1
  Se  Se33  1  0.750000  0.417406  0.939913  1
  Se  Se34  1  0.750000  0.082807  0.440154  1
  Se  Se35  1  0.250000  0.917190  0.559846  1
