# generated using pymatgen
data_Tb5VOsO12
_symmetry_space_group_name_H-M   'P 1'
_cell_length_a   6.83578535
_cell_length_b   6.83578612
_cell_length_c   7.45053660
_cell_angle_alpha   74.08494415
_cell_angle_beta   74.08495190
_cell_angle_gamma   50.31850654
_symmetry_Int_Tables_number   1
_chemical_formula_structural   Tb5VOsO12
_chemical_formula_sum   'Tb5 V1 Os1 O12'
_cell_volume   255.34547951
_cell_formula_units_Z   1
loop_
 _symmetry_equiv_pos_site_id
 _symmetry_equiv_pos_as_xyz
  1  'x, y, z'
loop_
 _atom_site_type_symbol
 _atom_site_label
 _atom_site_symmetry_multiplicity
 _atom_site_fract_x
 _atom_site_fract_y
 _atom_site_fract_z
 _atom_site_occupancy
  Tb  Tb0  1  0.696112  0.694482  0.640797  1
  Tb  Tb1  1  0.305518  0.303888  0.359203  1
  Tb  Tb2  1  0.686669  0.691396  0.171710  1
  Tb  Tb3  1  0.308604  0.313331  0.828290  1
  Tb  Tb4  1  0.999124  0.000876  0.500000  1
  V  V5  1  0.776113  0.223887  0.000000  1
  Os  Os6  1  0.233926  0.766074  0.000000  1
  O  O7  1  0.999364  0.000533  0.193803  1
  O  O8  1  0.999467  0.000636  0.806197  1
  O  O9  1  0.585817  0.099198  0.079825  1
  O  O10  1  0.422938  0.909140  0.917517  1
  O  O11  1  0.900802  0.414183  0.920175  1
  O  O12  1  0.090860  0.577062  0.082483  1
  O  O13  1  0.496825  0.502627  0.178150  1
  O  O14  1  0.497373  0.503175  0.821850  1
  O  O15  1  0.405955  0.903213  0.423861  1
  O  O16  1  0.595394  0.097647  0.575084  1
  O  O17  1  0.096787  0.594045  0.576139  1
  O  O18  1  0.902353  0.404606  0.424916  1
