# generated using pymatgen
data_LiMg3Nb2(SbPt)6
_symmetry_space_group_name_H-M   'P 1'
_cell_length_a   7.74348181
_cell_length_b   7.74573891
_cell_length_c   7.74244035
_cell_angle_alpha   120.05495288
_cell_angle_beta   99.58085534
_cell_angle_gamma   99.67585899
_symmetry_Int_Tables_number   1
_chemical_formula_structural   LiMg3Nb2(SbPt)6
_chemical_formula_sum   'Li1 Mg3 Nb2 Sb6 Pt6'
_cell_volume   378.74968916
_cell_formula_units_Z   1
loop_
 _symmetry_equiv_pos_site_id
 _symmetry_equiv_pos_as_xyz
  1  'x, y, z'
loop_
 _atom_site_type_symbol
 _atom_site_label
 _atom_site_symmetry_multiplicity
 _atom_site_fract_x
 _atom_site_fract_y
 _atom_site_fract_z
 _atom_site_occupancy
  Li  Li0  1  0.999808  0.501718  0.999202  1
  Mg  Mg1  1  0.499458  0.330171  0.164722  1
  Mg  Mg2  1  0.999554  0.164272  0.330797  1
  Mg  Mg3  1  0.499696  0.999481  0.501968  1
  Nb  Nb4  1  0.999840  0.832986  0.667553  1
  Nb  Nb5  1  0.500149  0.668341  0.833172  1
  Sb  Sb6  1  0.244242  0.913768  0.093023  1
  Sb  Sb7  1  0.752027  0.746782  0.253028  1
  Sb  Sb8  1  0.250730  0.575621  0.401428  1
  Sb  Sb9  1  0.756804  0.408658  0.582083  1
  Sb  Sb10  1  0.245698  0.259413  0.753002  1
  Sb  Sb11  1  0.750600  0.099278  0.920352  1
  Pt  Pt12  1  0.122824  0.193463  0.029636  1
  Pt  Pt13  1  0.621281  0.029330  0.196948  1
  Pt  Pt14  1  0.123756  0.877553  0.389706  1
  Pt  Pt15  1  0.631932  0.709442  0.555721  1
  Pt  Pt16  1  0.134132  0.555944  0.705880  1
  Pt  Pt17  1  0.617557  0.383757  0.871756  1
