# generated using pymatgen
data_Gd3Er(ScIr)4
_symmetry_space_group_name_H-M   'P 1'
_cell_length_a   4.26866000
_cell_length_b   7.13237876
_cell_length_c   8.66306400
_cell_angle_alpha   89.95974566
_cell_angle_beta   90.00000000
_cell_angle_gamma   90.00000000
_symmetry_Int_Tables_number   1
_chemical_formula_structural   Gd3Er(ScIr)4
_chemical_formula_sum   'Gd3 Er1 Sc4 Ir4'
_cell_volume   263.75298183
_cell_formula_units_Z   1
loop_
 _symmetry_equiv_pos_site_id
 _symmetry_equiv_pos_as_xyz
  1  'x, y, z'
loop_
 _atom_site_type_symbol
 _atom_site_label
 _atom_site_symmetry_multiplicity
 _atom_site_fract_x
 _atom_site_fract_y
 _atom_site_fract_z
 _atom_site_occupancy
  Gd  Gd0  1  0.250000  0.980196  0.323194  1
  Gd  Gd1  1  0.250000  0.481303  0.174857  1
  Gd  Gd2  1  0.750000  0.017785  0.677866  1
  Er  Er3  1  0.750000  0.521917  0.825283  1
  Sc  Sc4  1  0.250000  0.359505  0.567778  1
  Sc  Sc5  1  0.250000  0.858033  0.934755  1
  Sc  Sc6  1  0.750000  0.638817  0.435167  1
  Sc  Sc7  1  0.750000  0.143619  0.064091  1
  Ir  Ir8  1  0.250000  0.240760  0.891471  1
  Ir  Ir9  1  0.250000  0.735608  0.608014  1
  Ir  Ir10  1  0.750000  0.761473  0.104239  1
  Ir  Ir11  1  0.750000  0.260987  0.393284  1
