# generated using pymatgen
data_La7Pr(HgRh)2
_symmetry_space_group_name_H-M   'P 1'
_cell_length_a   10.08728175
_cell_length_b   10.08728084
_cell_length_c   10.07845700
_cell_angle_alpha   60.02892899
_cell_angle_beta   60.02893197
_cell_angle_gamma   59.94213315
_symmetry_Int_Tables_number   1
_chemical_formula_structural   La7Pr(HgRh)2
_chemical_formula_sum   'La14 Pr2 Hg4 Rh4'
_cell_volume   725.14796064
_cell_formula_units_Z   2
loop_
 _symmetry_equiv_pos_site_id
 _symmetry_equiv_pos_as_xyz
  1  'x, y, z'
loop_
 _atom_site_type_symbol
 _atom_site_label
 _atom_site_symmetry_multiplicity
 _atom_site_fract_x
 _atom_site_fract_y
 _atom_site_fract_z
 _atom_site_occupancy
  La  La0  1  0.349274  0.349274  0.348987  1
  La  La1  1  0.349274  0.349274  0.952463  1
  La  La2  1  0.348987  0.952463  0.349274  1
  La  La3  1  0.952463  0.348987  0.349274  1
  La  La4  1  0.809536  0.190464  0.190464  1
  La  La5  1  0.190464  0.809537  0.809536  1
  La  La6  1  0.190464  0.809536  0.190463  1
  La  La7  1  0.809536  0.190464  0.809536  1
  La  La8  1  0.190100  0.190100  0.809900  1
  La  La9  1  0.809901  0.809901  0.190099  1
  La  La10  1  0.937718  0.562282  0.562282  1
  La  La11  1  0.562282  0.937718  0.937718  1
  La  La12  1  0.562282  0.937718  0.562282  1
  La  La13  1  0.937718  0.562282  0.937718  1
  Pr  Pr14  1  0.561473  0.561473  0.938527  1
  Pr  Pr15  1  0.938527  0.938527  0.561473  1
  Hg  Hg16  1  0.583181  0.583181  0.583916  1
  Hg  Hg17  1  0.583181  0.583181  0.249724  1
  Hg  Hg18  1  0.583916  0.249724  0.583181  1
  Hg  Hg19  1  0.249724  0.583916  0.583181  1
  Rh  Rh20  1  0.141581  0.141581  0.141486  1
  Rh  Rh21  1  0.141581  0.141581  0.575352  1
  Rh  Rh22  1  0.141486  0.575352  0.141581  1
  Rh  Rh23  1  0.575352  0.141486  0.141581  1
