# generated using pymatgen
data_Er20(OsPd3)3
_symmetry_space_group_name_H-M   'P 1'
_cell_length_a   10.78903076
_cell_length_b   10.78879252
_cell_length_c   6.38166400
_cell_angle_alpha   90.03990442
_cell_angle_beta   90.04098158
_cell_angle_gamma   89.89854283
_symmetry_Int_Tables_number   1
_chemical_formula_structural   Er20(OsPd3)3
_chemical_formula_sum   'Er20 Os3 Pd9'
_cell_volume   742.82807623
_cell_formula_units_Z   1
loop_
 _symmetry_equiv_pos_site_id
 _symmetry_equiv_pos_as_xyz
  1  'x, y, z'
loop_
 _atom_site_type_symbol
 _atom_site_label
 _atom_site_symmetry_multiplicity
 _atom_site_fract_x
 _atom_site_fract_y
 _atom_site_fract_z
 _atom_site_occupancy
  Er  Er0  1  0.296743  0.085652  0.370254  1
  Er  Er1  1  0.296980  0.915327  0.871314  1
  Er  Er2  1  0.702696  0.084372  0.870929  1
  Er  Er3  1  0.702922  0.914041  0.370157  1
  Er  Er4  1  0.584577  0.796973  0.871141  1
  Er  Er5  1  0.585587  0.202880  0.369960  1
  Er  Er6  1  0.414231  0.796774  0.370191  1
  Er  Er7  1  0.415131  0.202571  0.870874  1
  Er  Er8  1  0.208483  0.411570  0.638048  1
  Er  Er9  1  0.206802  0.588471  0.122626  1
  Er  Er10  1  0.793516  0.411914  0.123178  1
  Er  Er11  1  0.792063  0.588675  0.638353  1
  Er  Er12  1  0.911841  0.707045  0.122709  1
  Er  Er13  1  0.911882  0.291868  0.638369  1
  Er  Er14  1  0.088397  0.708272  0.637696  1
  Er  Er15  1  0.088679  0.293549  0.122924  1
  Er  Er16  1  0.999586  0.000028  0.497139  1
  Er  Er17  1  0.999938  0.000625  0.998359  1
  Er  Er18  1  0.500033  0.499643  0.997628  1
  Er  Er19  1  0.500480  0.499887  0.497569  1
  Os  Os20  1  0.499718  0.999727  0.124427  1
  Os  Os21  1  0.499525  0.999559  0.623019  1
  Os  Os22  1  0.000380  0.500459  0.877093  1
  Pd  Pd23  1  0.846816  0.846799  0.749708  1
  Pd  Pd24  1  0.152867  0.153594  0.749342  1
  Pd  Pd25  1  0.151951  0.844110  0.249641  1
  Pd  Pd26  1  0.654326  0.346058  0.749687  1
  Pd  Pd27  1  0.655913  0.651761  0.249470  1
  Pd  Pd28  1  0.344365  0.348066  0.249578  1
  Pd  Pd29  1  0.346127  0.653572  0.749430  1
  Pd  Pd30  1  0.000072  0.499761  0.379466  1
  Pd  Pd31  1  0.847375  0.156394  0.249717  1
