# generated using pymatgen
data_Ce5Th(PaH12)2
_symmetry_space_group_name_H-M   'P 1'
_cell_length_a   6.82273200
_cell_length_b   6.81837200
_cell_length_c   6.82273200
_cell_angle_alpha   90.00000000
_cell_angle_beta   90.00000000
_cell_angle_gamma   90.00000000
_symmetry_Int_Tables_number   1
_chemical_formula_structural   Ce5Th(PaH12)2
_chemical_formula_sum   'Ce5 Th1 Pa2 H24'
_cell_volume   317.39297979
_cell_formula_units_Z   1
loop_
 _symmetry_equiv_pos_site_id
 _symmetry_equiv_pos_as_xyz
  1  'x, y, z'
loop_
 _atom_site_type_symbol
 _atom_site_label
 _atom_site_symmetry_multiplicity
 _atom_site_fract_x
 _atom_site_fract_y
 _atom_site_fract_z
 _atom_site_occupancy
  Ce  Ce0  1  0.248714  0.999450  0.500000  1
  Ce  Ce1  1  0.751286  0.999450  0.500000  1
  Ce  Ce2  1  0.000000  0.500550  0.251286  1
  Ce  Ce3  1  0.000000  0.500550  0.748714  1
  Ce  Ce4  1  0.500000  0.750000  0.000000  1
  Th  Th5  1  0.500000  0.250000  0.000000  1
  Pa  Pa6  1  0.000000  0.999454  0.000000  1
  Pa  Pa7  1  0.500000  0.500546  0.500000  1
  H  H8  1  0.000000  0.152024  0.295617  1
  H  H9  1  0.500000  0.204278  0.654230  1
  H  H10  1  0.500000  0.796352  0.347787  1
  H  H11  1  0.796154  0.652318  0.500000  1
  H  H12  1  0.203846  0.652318  0.500000  1
  H  H13  1  0.348574  0.497649  0.798269  1
  H  H14  1  0.651426  0.497649  0.798269  1
  H  H15  1  0.298269  0.002351  0.151426  1
  H  H16  1  0.154230  0.295722  0.000000  1
  H  H17  1  0.847787  0.703648  0.000000  1
  H  H18  1  0.298269  0.002351  0.848574  1
  H  H19  1  0.845770  0.295722  0.000000  1
  H  H20  1  0.701731  0.002351  0.151426  1
  H  H21  1  0.701731  0.002351  0.848574  1
  H  H22  1  0.152213  0.703648  0.000000  1
  H  H23  1  0.000000  0.847682  0.703846  1
  H  H24  1  0.000000  0.152024  0.704383  1
  H  H25  1  0.000000  0.847682  0.296154  1
  H  H26  1  0.651426  0.497649  0.201731  1
  H  H27  1  0.348574  0.497649  0.201731  1
  H  H28  1  0.795617  0.347976  0.500000  1
  H  H29  1  0.204383  0.347976  0.500000  1
  H  H30  1  0.500000  0.796352  0.652213  1
  H  H31  1  0.500000  0.204278  0.345770  1
