# generated using pymatgen
data_LiEr4(PtPb2)2
_symmetry_space_group_name_H-M   'P 1'
_cell_length_a   3.65249600
_cell_length_b   8.28498700
_cell_length_c   18.47260200
_cell_angle_alpha   90.00000000
_cell_angle_beta   90.00000000
_cell_angle_gamma   90.00000000
_symmetry_Int_Tables_number   1
_chemical_formula_structural   LiEr4(PtPb2)2
_chemical_formula_sum   'Li2 Er8 Pt4 Pb8'
_cell_volume   558.99722709
_cell_formula_units_Z   2
loop_
 _symmetry_equiv_pos_site_id
 _symmetry_equiv_pos_as_xyz
  1  'x, y, z'
loop_
 _atom_site_type_symbol
 _atom_site_label
 _atom_site_symmetry_multiplicity
 _atom_site_fract_x
 _atom_site_fract_y
 _atom_site_fract_z
 _atom_site_occupancy
  Li  Li0  1  0.000000  0.000000  0.000000  1
  Li  Li1  1  0.000000  0.500000  0.500000  1
  Er  Er2  1  0.000000  0.116183  0.412467  1
  Er  Er3  1  0.000000  0.883817  0.587533  1
  Er  Er4  1  0.000000  0.383817  0.912467  1
  Er  Er5  1  0.000000  0.616183  0.087533  1
  Er  Er6  1  0.000000  0.241815  0.218621  1
  Er  Er7  1  0.000000  0.758185  0.781379  1
  Er  Er8  1  0.000000  0.258185  0.718621  1
  Er  Er9  1  0.000000  0.741815  0.281379  1
  Pt  Pt10  1  0.500000  0.029983  0.301838  1
  Pt  Pt11  1  0.500000  0.970017  0.698162  1
  Pt  Pt12  1  0.500000  0.470017  0.801838  1
  Pt  Pt13  1  0.500000  0.529983  0.198162  1
  Pb  Pb14  1  0.500000  0.421729  0.354584  1
  Pb  Pb15  1  0.500000  0.578271  0.645416  1
  Pb  Pb16  1  0.500000  0.078271  0.854584  1
  Pb  Pb17  1  0.500000  0.921729  0.145416  1
  Pb  Pb18  1  0.500000  0.283990  0.060932  1
  Pb  Pb19  1  0.500000  0.716010  0.939068  1
  Pb  Pb20  1  0.500000  0.216010  0.560932  1
  Pb  Pb21  1  0.500000  0.783990  0.439068  1
