# generated using pymatgen
data_La4SmHo3(TeO6)4
_symmetry_space_group_name_H-M   'P 1'
_cell_length_a   5.47833076
_cell_length_b   9.36963970
_cell_length_c   10.24980007
_cell_angle_alpha   90.06712675
_cell_angle_beta   90.11941937
_cell_angle_gamma   90.10708537
_symmetry_Int_Tables_number   1
_chemical_formula_structural   La4SmHo3(TeO6)4
_chemical_formula_sum   'La4 Sm1 Ho3 Te4 O24'
_cell_volume   526.11966226
_cell_formula_units_Z   1
loop_
 _symmetry_equiv_pos_site_id
 _symmetry_equiv_pos_as_xyz
  1  'x, y, z'
loop_
 _atom_site_type_symbol
 _atom_site_label
 _atom_site_symmetry_multiplicity
 _atom_site_fract_x
 _atom_site_fract_y
 _atom_site_fract_z
 _atom_site_occupancy
  La  La0  1  0.531240  0.219384  0.356481  1
  La  La1  1  0.031206  0.279312  0.643689  1
  La  La2  1  0.470541  0.719782  0.143427  1
  La  La3  1  0.967538  0.779961  0.857897  1
  Sm  Sm4  1  0.977363  0.894018  0.456025  1
  Ho  Ho5  1  0.519047  0.104333  0.955503  1
  Ho  Ho6  1  0.019027  0.396901  0.043980  1
  Ho  Ho7  1  0.484128  0.600349  0.545019  1
  Te  Te8  1  0.464463  0.990519  0.643683  1
  Te  Te9  1  0.969053  0.508653  0.357937  1
  Te  Te10  1  0.532685  0.489219  0.858472  1
  Te  Te11  1  0.034033  0.011748  0.139476  1
  O  O12  1  0.305979  0.144389  0.166028  1
  O  O13  1  0.805254  0.357326  0.833105  1
  O  O14  1  0.700939  0.645113  0.334269  1
  O  O15  1  0.190056  0.860596  0.672284  1
  O  O16  1  0.728138  0.104548  0.564078  1
  O  O17  1  0.228089  0.390528  0.435501  1
  O  O18  1  0.271891  0.605797  0.936836  1
  O  O19  1  0.771629  0.894304  0.062734  1
  O  O20  1  0.672346  0.632643  0.743649  1
  O  O21  1  0.175499  0.867631  0.252476  1
  O  O22  1  0.330108  0.135746  0.757663  1
  O  O23  1  0.825430  0.367866  0.242107  1
  O  O24  1  0.662424  0.949891  0.795297  1
  O  O25  1  0.166010  0.549412  0.205779  1
  O  O26  1  0.336752  0.449305  0.705208  1
  O  O27  1  0.836749  0.053007  0.290811  1
  O  O28  1  0.260077  0.076912  0.505089  1
  O  O29  1  0.759208  0.425307  0.496181  1
  O  O30  1  0.741354  0.572889  0.997645  1
  O  O31  1  0.241513  0.928389  0.000887  1
  O  O32  1  0.112765  0.656652  0.468072  1
  O  O33  1  0.592391  0.836572  0.534807  1
  O  O34  1  0.893376  0.162960  0.031916  1
  O  O35  1  0.391699  0.338041  0.965994  1
