# generated using pymatgen
data_HoTm2In3NiRh2
_symmetry_space_group_name_H-M   'P 1'
_cell_length_a   7.55007600
_cell_length_b   7.55992345
_cell_length_c   3.72051800
_cell_angle_alpha   90.00000000
_cell_angle_beta   90.00000000
_cell_angle_gamma   119.95692017
_symmetry_Int_Tables_number   1
_chemical_formula_structural   HoTm2In3NiRh2
_chemical_formula_sum   'Ho1 Tm2 In3 Ni1 Rh2'
_cell_volume   183.98868979
_cell_formula_units_Z   1
loop_
 _symmetry_equiv_pos_site_id
 _symmetry_equiv_pos_as_xyz
  1  'x, y, z'
loop_
 _atom_site_type_symbol
 _atom_site_label
 _atom_site_symmetry_multiplicity
 _atom_site_fract_x
 _atom_site_fract_y
 _atom_site_fract_z
 _atom_site_occupancy
  Ho  Ho0  1  0.590999  0.000000  0.500000  1
  Tm  Tm1  1  0.000134  0.591282  0.500000  1
  Tm  Tm2  1  0.408852  0.408718  0.500000  1
  In  In3  1  0.251641  0.000000  0.000000  1
  In  In4  1  0.747630  0.746610  0.000000  1
  In  In5  1  0.001020  0.253390  0.000000  1
  Ni  Ni6  1  0.000466  0.000000  0.500000  1
  Rh  Rh7  1  0.332243  0.665232  0.000000  1
  Rh  Rh8  1  0.667013  0.334768  0.000000  1
