# generated using pymatgen
data_Ta8RhS20
_symmetry_space_group_name_H-M   'P 1'
_cell_length_a   10.28163447
_cell_length_b   10.28163584
_cell_length_c   18.83348819
_cell_angle_alpha   76.93199182
_cell_angle_beta   76.93199019
_cell_angle_gamma   18.79298205
_symmetry_Int_Tables_number   1
_chemical_formula_structural   Ta8RhS20
_chemical_formula_sum   'Ta8 Rh1 S20'
_cell_volume   624.30510507
_cell_formula_units_Z   1
loop_
 _symmetry_equiv_pos_site_id
 _symmetry_equiv_pos_as_xyz
  1  'x, y, z'
loop_
 _atom_site_type_symbol
 _atom_site_label
 _atom_site_symmetry_multiplicity
 _atom_site_fract_x
 _atom_site_fract_y
 _atom_site_fract_z
 _atom_site_occupancy
  Ta  Ta0  1  0.077496  0.077496  0.090654  1
  Ta  Ta1  1  0.922504  0.922504  0.909346  1
  Ta  Ta2  1  0.329017  0.329017  0.808624  1
  Ta  Ta3  1  0.670983  0.670983  0.191376  1
  Ta  Ta4  1  0.267468  0.267468  0.281223  1
  Ta  Ta5  1  0.732532  0.732532  0.718777  1
  Ta  Ta6  1  0.160130  0.160130  0.553596  1
  Ta  Ta7  1  0.839870  0.839870  0.446404  1
  Rh  Rh8  1  0.500000  0.500000  0.000000  1
  S  S9  1  0.433809  0.433809  0.403367  1
  S  S10  1  0.566191  0.566191  0.596633  1
  S  S11  1  0.396161  0.396161  0.514782  1
  S  S12  1  0.603839  0.603839  0.485218  1
  S  S13  1  0.150424  0.150424  0.691027  1
  S  S14  1  0.849576  0.849576  0.308973  1
  S  S15  1  0.384469  0.384469  0.006159  1
  S  S16  1  0.615531  0.615531  0.993841  1
  S  S17  1  0.205168  0.205168  0.819255  1
  S  S18  1  0.794832  0.794832  0.180745  1
  S  S19  1  0.253588  0.253588  0.429824  1
  S  S20  1  0.746412  0.746412  0.570176  1
  S  S21  1  0.325145  0.325145  0.678319  1
  S  S22  1  0.674855  0.674855  0.321681  1
  S  S23  1  0.486747  0.486747  0.126545  1
  S  S24  1  0.513253  0.513253  0.873455  1
  S  S25  1  0.199698  0.199698  0.092688  1
  S  S26  1  0.800302  0.800302  0.907312  1
  S  S27  1  0.078614  0.078614  0.224046  1
  S  S28  1  0.921386  0.921386  0.775954  1
