# generated using pymatgen
data_La12Tc3Ir
_symmetry_space_group_name_H-M   'P 1'
_cell_length_a   6.61770788
_cell_length_b   7.41779065
_cell_length_c   10.08724400
_cell_angle_alpha   90.00000000
_cell_angle_beta   90.00000000
_cell_angle_gamma   90.15308854
_symmetry_Int_Tables_number   1
_chemical_formula_structural   La12Tc3Ir
_chemical_formula_sum   'La12 Tc3 Ir1'
_cell_volume   495.16864952
_cell_formula_units_Z   1
loop_
 _symmetry_equiv_pos_site_id
 _symmetry_equiv_pos_as_xyz
  1  'x, y, z'
loop_
 _atom_site_type_symbol
 _atom_site_label
 _atom_site_symmetry_multiplicity
 _atom_site_fract_x
 _atom_site_fract_y
 _atom_site_fract_z
 _atom_site_occupancy
  La  La0  1  0.325556  0.668231  0.070928  1
  La  La1  1  0.172945  0.170714  0.430694  1
  La  La2  1  0.671735  0.326355  0.566565  1
  La  La3  1  0.831606  0.830122  0.930997  1
  La  La4  1  0.671735  0.326355  0.933435  1
  La  La5  1  0.831606  0.830122  0.569003  1
  La  La6  1  0.325556  0.668231  0.429072  1
  La  La7  1  0.172945  0.170714  0.069306  1
  La  La8  1  0.858756  0.549401  0.250000  1
  La  La9  1  0.642454  0.048943  0.250000  1
  La  La10  1  0.143744  0.451200  0.750000  1
  La  La11  1  0.351033  0.957962  0.750000  1
  Tc  Tc12  1  0.046952  0.881892  0.250000  1
  Tc  Tc13  1  0.452773  0.384194  0.250000  1
  Tc  Tc14  1  0.944918  0.117407  0.750000  1
  Ir  Ir15  1  0.555687  0.618157  0.750000  1
