# generated using pymatgen
data_Tb11Ho(TcRh)2
_symmetry_space_group_name_H-M   'P 1'
_cell_length_a   6.33766527
_cell_length_b   7.33153921
_cell_length_c   9.29196487
_cell_angle_alpha   90.01963729
_cell_angle_beta   89.93008887
_cell_angle_gamma   89.98050065
_symmetry_Int_Tables_number   1
_chemical_formula_structural   Tb11Ho(TcRh)2
_chemical_formula_sum   'Tb11 Ho1 Tc2 Rh2'
_cell_volume   431.74930253
_cell_formula_units_Z   1
loop_
 _symmetry_equiv_pos_site_id
 _symmetry_equiv_pos_as_xyz
  1  'x, y, z'
loop_
 _atom_site_type_symbol
 _atom_site_label
 _atom_site_symmetry_multiplicity
 _atom_site_fract_x
 _atom_site_fract_y
 _atom_site_fract_z
 _atom_site_occupancy
  Tb  Tb0  1  0.172346  0.177936  0.432045  1
  Tb  Tb1  1  0.665473  0.322871  0.560545  1
  Tb  Tb2  1  0.834445  0.822669  0.939672  1
  Tb  Tb3  1  0.665239  0.323136  0.939669  1
  Tb  Tb4  1  0.834384  0.822670  0.560585  1
  Tb  Tb5  1  0.327723  0.678078  0.431686  1
  Tb  Tb6  1  0.172590  0.178057  0.067856  1
  Tb  Tb7  1  0.870038  0.537862  0.249682  1
  Tb  Tb8  1  0.629960  0.037378  0.249797  1
  Tb  Tb9  1  0.138581  0.458838  0.750287  1
  Tb  Tb10  1  0.361588  0.958450  0.750199  1
  Ho  Ho11  1  0.327904  0.677924  0.068145  1
  Tc  Tc12  1  0.038697  0.886500  0.249686  1
  Tc  Tc13  1  0.461421  0.386987  0.249784  1
  Rh  Rh14  1  0.948902  0.115257  0.749916  1
  Rh  Rh15  1  0.550709  0.615384  0.750446  1
