# generated using pymatgen
data_Ho5Er3Cd3SnAu8
_symmetry_space_group_name_H-M   'P 1'
_cell_length_a   7.98934947
_cell_length_b   7.98951447
_cell_length_c   7.32465500
_cell_angle_alpha   89.99983698
_cell_angle_beta   90.00029795
_cell_angle_gamma   90.03932821
_symmetry_Int_Tables_number   1
_chemical_formula_structural   Ho5Er3Cd3SnAu8
_chemical_formula_sum   'Ho5 Er3 Cd3 Sn1 Au8'
_cell_volume   467.54011313
_cell_formula_units_Z   1
loop_
 _symmetry_equiv_pos_site_id
 _symmetry_equiv_pos_as_xyz
  1  'x, y, z'
loop_
 _atom_site_type_symbol
 _atom_site_label
 _atom_site_symmetry_multiplicity
 _atom_site_fract_x
 _atom_site_fract_y
 _atom_site_fract_z
 _atom_site_occupancy
  Ho  Ho0  1  0.183794  0.179661  0.999897  1
  Ho  Ho1  1  0.320603  0.683710  0.500104  1
  Ho  Ho2  1  0.679691  0.315828  0.500104  1
  Ho  Ho3  1  0.816294  0.820409  0.999895  1
  Ho  Ho4  1  0.342437  0.661624  0.999854  1
  Er  Er5  1  0.657467  0.338530  0.999977  1
  Er  Er6  1  0.838334  0.843016  0.500153  1
  Er  Er7  1  0.161230  0.157459  0.500144  1
  Cd  Cd8  1  0.000076  0.499916  0.749997  1
  Cd  Cd9  1  0.500511  0.000128  0.250123  1
  Cd  Cd10  1  0.999991  0.499978  0.249802  1
  Sn  Sn11  1  0.499785  0.000954  0.751114  1
  Au  Au12  1  0.123291  0.868152  0.771344  1
  Au  Au13  1  0.872447  0.129763  0.227502  1
  Au  Au14  1  0.369653  0.371459  0.272519  1
  Au  Au15  1  0.632473  0.623825  0.727159  1
  Au  Au16  1  0.630521  0.627819  0.272344  1
  Au  Au17  1  0.875949  0.132041  0.772762  1
  Au  Au18  1  0.367987  0.375125  0.726504  1
  Au  Au19  1  0.127466  0.870604  0.228699  1
