# generated using pymatgen
data_TaNb2CrCo2N
_symmetry_space_group_name_H-M   'P 1'
_cell_length_a   8.02281625
_cell_length_b   8.02281607
_cell_length_c   8.02413800
_cell_angle_alpha   59.99454926
_cell_angle_beta   59.99455000
_cell_angle_gamma   60.01090275
_symmetry_Int_Tables_number   1
_chemical_formula_structural   TaNb2CrCo2N
_chemical_formula_sum   'Ta4 Nb8 Cr4 Co8 N4'
_cell_volume   365.20528656
_cell_formula_units_Z   4
loop_
 _symmetry_equiv_pos_site_id
 _symmetry_equiv_pos_as_xyz
  1  'x, y, z'
loop_
 _atom_site_type_symbol
 _atom_site_label
 _atom_site_symmetry_multiplicity
 _atom_site_fract_x
 _atom_site_fract_y
 _atom_site_fract_z
 _atom_site_occupancy
  Ta  Ta0  1  0.446072  0.053928  0.446072  1
  Ta  Ta1  1  0.053928  0.446072  0.053928  1
  Ta  Ta2  1  0.053928  0.446072  0.446072  1
  Ta  Ta3  1  0.446072  0.053928  0.053928  1
  Nb  Nb4  1  0.802761  0.802761  0.197239  1
  Nb  Nb5  1  0.197239  0.197239  0.802761  1
  Nb  Nb6  1  0.803823  0.196177  0.803823  1
  Nb  Nb7  1  0.196177  0.803823  0.196177  1
  Nb  Nb8  1  0.196177  0.803823  0.803823  1
  Nb  Nb9  1  0.803823  0.196177  0.196177  1
  Nb  Nb10  1  0.446794  0.446794  0.053206  1
  Nb  Nb11  1  0.053206  0.053206  0.446794  1
  Cr  Cr12  1  0.124409  0.624734  0.625428  1
  Cr  Cr13  1  0.624734  0.124409  0.625428  1
  Cr  Cr14  1  0.625428  0.625428  0.124409  1
  Cr  Cr15  1  0.625428  0.625428  0.624734  1
  Co  Co16  1  0.727494  0.424639  0.423933  1
  Co  Co17  1  0.424639  0.727494  0.423933  1
  Co  Co18  1  0.423933  0.423933  0.727494  1
  Co  Co19  1  0.423933  0.423933  0.424639  1
  Co  Co20  1  0.523226  0.826418  0.825179  1
  Co  Co21  1  0.826418  0.523226  0.825179  1
  Co  Co22  1  0.825179  0.825179  0.523226  1
  Co  Co23  1  0.825179  0.825179  0.826418  1
  N  N24  1  0.622585  0.123973  0.126721  1
  N  N25  1  0.123973  0.622585  0.126721  1
  N  N26  1  0.126721  0.126721  0.622585  1
  N  N27  1  0.126721  0.126721  0.123973  1
