# generated using pymatgen
data_Nd2Co9Mo3P7
_symmetry_space_group_name_H-M   'P 1'
_cell_length_a   3.76716200
_cell_length_b   9.16930829
_cell_length_c   9.16930800
_cell_angle_alpha   119.99999895
_cell_angle_beta   90.00000000
_cell_angle_gamma   90.00000000
_symmetry_Int_Tables_number   1
_chemical_formula_structural   Nd2Co9Mo3P7
_chemical_formula_sum   'Nd2 Co9 Mo3 P7'
_cell_volume   274.29511229
_cell_formula_units_Z   1
loop_
 _symmetry_equiv_pos_site_id
 _symmetry_equiv_pos_as_xyz
  1  'x, y, z'
loop_
 _atom_site_type_symbol
 _atom_site_label
 _atom_site_symmetry_multiplicity
 _atom_site_fract_x
 _atom_site_fract_y
 _atom_site_fract_z
 _atom_site_occupancy
  Nd  Nd0  1  0.000000  0.666667  0.333333  1
  Nd  Nd1  1  0.500000  0.333333  0.666667  1
  Co  Co2  1  0.000000  0.570196  0.939791  1
  Co  Co3  1  0.000000  0.369596  0.429804  1
  Co  Co4  1  0.000000  0.060209  0.630404  1
  Co  Co5  1  0.000000  0.878688  0.156684  1
  Co  Co6  1  0.000000  0.277996  0.121312  1
  Co  Co7  1  0.000000  0.843316  0.722004  1
  Co  Co8  1  0.500000  0.949280  0.384017  1
  Co  Co9  1  0.500000  0.434736  0.050720  1
  Co  Co10  1  0.500000  0.615983  0.565264  1
  Mo  Mo11  1  0.500000  0.781853  0.902115  1
  Mo  Mo12  1  0.500000  0.120262  0.218147  1
  Mo  Mo13  1  0.500000  0.097885  0.879738  1
  P  P14  1  0.000000  0.000000  0.000000  1
  P  P15  1  0.500000  0.708100  0.113490  1
  P  P16  1  0.500000  0.405391  0.291900  1
  P  P17  1  0.500000  0.886510  0.594609  1
  P  P18  1  0.000000  0.590464  0.696291  1
  P  P19  1  0.000000  0.105829  0.409536  1
  P  P20  1  0.000000  0.303709  0.894171  1
