# generated using pymatgen
data_PrPa3(Pt2Pb)2
_symmetry_space_group_name_H-M   'P 1'
_cell_length_a   7.98327783
_cell_length_b   7.98327783
_cell_length_c   3.69051900
_cell_angle_alpha   90.00000000
_cell_angle_beta   90.00000000
_cell_angle_gamma   91.30645293
_symmetry_Int_Tables_number   1
_chemical_formula_structural   PrPa3(Pt2Pb)2
_chemical_formula_sum   'Pr1 Pa3 Pt4 Pb2'
_cell_volume   235.14568994
_cell_formula_units_Z   1
loop_
 _symmetry_equiv_pos_site_id
 _symmetry_equiv_pos_as_xyz
  1  'x, y, z'
loop_
 _atom_site_type_symbol
 _atom_site_label
 _atom_site_symmetry_multiplicity
 _atom_site_fract_x
 _atom_site_fract_y
 _atom_site_fract_z
 _atom_site_occupancy
  Pr  Pr0  1  0.673797  0.826202  0.499999  1
  Pa  Pa1  1  0.329038  0.170963  0.499999  1
  Pa  Pa2  1  0.827766  0.326926  0.499999  1
  Pa  Pa3  1  0.173075  0.672233  0.499999  1
  Pt  Pt4  1  0.618586  0.143682  0.000000  1
  Pt  Pt5  1  0.135894  0.364105  0.000000  1
  Pt  Pt6  1  0.890049  0.609952  0.000000  1
  Pt  Pt7  1  0.356317  0.881415  0.000000  1
  Pb  Pb8  1  0.994581  0.999103  0.000000  1
  Pb  Pb9  1  0.500898  0.505420  0.000000  1
