# generated using pymatgen
data_Tb7DyTlInRh2
_symmetry_space_group_name_H-M   'P 1'
_cell_length_a   9.70880122
_cell_length_b   9.70624231
_cell_length_c   9.70780611
_cell_angle_alpha   60.00443316
_cell_angle_beta   59.99401424
_cell_angle_gamma   60.00858786
_symmetry_Int_Tables_number   1
_chemical_formula_structural   Tb7DyTlInRh2
_chemical_formula_sum   'Tb14 Dy2 Tl2 In2 Rh4'
_cell_volume   646.91304543
_cell_formula_units_Z   2
loop_
 _symmetry_equiv_pos_site_id
 _symmetry_equiv_pos_as_xyz
  1  'x, y, z'
loop_
 _atom_site_type_symbol
 _atom_site_label
 _atom_site_symmetry_multiplicity
 _atom_site_fract_x
 _atom_site_fract_y
 _atom_site_fract_z
 _atom_site_occupancy
  Tb  Tb0  1  0.688565  0.311806  0.310907  1
  Tb  Tb1  1  0.688569  0.688719  0.310908  1
  Tb  Tb2  1  0.311715  0.688324  0.311641  1
  Tb  Tb3  1  0.938139  0.938610  0.562211  1
  Tb  Tb4  1  0.149766  0.150743  0.548748  1
  Tb  Tb5  1  0.561176  0.938895  0.561040  1
  Tb  Tb6  1  0.150308  0.151060  0.150287  1
  Tb  Tb7  1  0.311059  0.311925  0.688543  1
  Tb  Tb8  1  0.938137  0.561040  0.562214  1
  Tb  Tb9  1  0.562155  0.560860  0.938290  1
  Tb  Tb10  1  0.562155  0.938694  0.938294  1
  Tb  Tb11  1  0.937834  0.562128  0.937915  1
  Tb  Tb12  1  0.150308  0.548343  0.150290  1
  Tb  Tb13  1  0.311057  0.688476  0.688547  1
  Dy  Dy14  1  0.688975  0.310894  0.689240  1
  Dy  Dy15  1  0.548535  0.150830  0.149808  1
  Tl  Tl16  1  0.914434  0.915948  0.253669  1
  Tl  Tl17  1  0.253645  0.915873  0.914609  1
  In  In18  1  0.916214  0.249723  0.916490  1
  In  In19  1  0.916216  0.917571  0.916490  1
  Rh  Rh20  1  0.357847  0.357155  0.357179  1
  Rh  Rh21  1  0.926928  0.357471  0.358121  1
  Rh  Rh22  1  0.358421  0.357090  0.927381  1
  Rh  Rh23  1  0.357843  0.927826  0.357177  1
