# generated using pymatgen
data_Y3ScTl5
_symmetry_space_group_name_H-M   'P 1'
_cell_length_a   8.44035169
_cell_length_b   8.44035218
_cell_length_c   8.44035012
_cell_angle_alpha   66.01398386
_cell_angle_beta   66.01399062
_cell_angle_gamma   66.01397045
_symmetry_Int_Tables_number   1
_chemical_formula_structural   Y3ScTl5
_chemical_formula_sum   'Y6 Sc2 Tl10'
_cell_volume   480.50117523
_cell_formula_units_Z   2
loop_
 _symmetry_equiv_pos_site_id
 _symmetry_equiv_pos_as_xyz
  1  'x, y, z'
loop_
 _atom_site_type_symbol
 _atom_site_label
 _atom_site_symmetry_multiplicity
 _atom_site_fract_x
 _atom_site_fract_y
 _atom_site_fract_z
 _atom_site_occupancy
  Y  Y0  1  0.889819  0.187068  0.619530  1
  Y  Y1  1  0.619530  0.889819  0.187068  1
  Y  Y2  1  0.187068  0.619530  0.889819  1
  Y  Y3  1  0.110181  0.812932  0.380470  1
  Y  Y4  1  0.380470  0.110181  0.812932  1
  Y  Y5  1  0.812932  0.380470  0.110181  1
  Sc  Sc6  1  0.655650  0.655650  0.655650  1
  Sc  Sc7  1  0.344350  0.344350  0.344350  1
  Tl  Tl8  1  0.000000  0.000000  0.000000  1
  Tl  Tl9  1  0.500000  0.500000  0.500000  1
  Tl  Tl10  1  0.811097  0.811097  0.811097  1
  Tl  Tl11  1  0.188903  0.188903  0.188903  1
  Tl  Tl12  1  0.947696  0.568715  0.303429  1
  Tl  Tl13  1  0.303429  0.947696  0.568715  1
  Tl  Tl14  1  0.568715  0.303429  0.947696  1
  Tl  Tl15  1  0.052304  0.431285  0.696571  1
  Tl  Tl16  1  0.696571  0.052304  0.431285  1
  Tl  Tl17  1  0.431285  0.696571  0.052304  1
