# generated using pymatgen
data_Sc3Si2Ru3Se
_symmetry_space_group_name_H-M   'P 1'
_cell_length_a   6.79134300
_cell_length_b   6.79134263
_cell_length_c   3.60235300
_cell_angle_alpha   90.00000000
_cell_angle_beta   90.00000000
_cell_angle_gamma   119.99998720
_symmetry_Int_Tables_number   1
_chemical_formula_structural   Sc3Si2Ru3Se
_chemical_formula_sum   'Sc3 Si2 Ru3 Se1'
_cell_volume   143.88922127
_cell_formula_units_Z   1
loop_
 _symmetry_equiv_pos_site_id
 _symmetry_equiv_pos_as_xyz
  1  'x, y, z'
loop_
 _atom_site_type_symbol
 _atom_site_label
 _atom_site_symmetry_multiplicity
 _atom_site_fract_x
 _atom_site_fract_y
 _atom_site_fract_z
 _atom_site_occupancy
  Sc  Sc0  1  0.399340  0.410218  0.500000  1
  Sc  Sc1  1  0.589782  0.989123  0.500000  1
  Sc  Sc2  1  0.010877  0.600660  0.500000  1
  Si  Si3  1  0.333333  0.666667  0.000000  1
  Si  Si4  1  0.000000  0.000000  0.500000  1
  Ru  Ru5  1  0.754062  0.757709  0.000000  1
  Ru  Ru6  1  0.242291  0.996353  0.000000  1
  Ru  Ru7  1  0.003647  0.245938  0.000000  1
  Se  Se8  1  0.666667  0.333333  0.000000  1
