# generated using pymatgen
data_Dy3Ho(P3Rh4)2
_symmetry_space_group_name_H-M   'P 1'
_cell_length_a   3.94779800
_cell_length_b   11.29933700
_cell_length_c   12.93558600
_cell_angle_alpha   90.00000000
_cell_angle_beta   90.00000000
_cell_angle_gamma   90.00000000
_symmetry_Int_Tables_number   1
_chemical_formula_structural   Dy3Ho(P3Rh4)2
_chemical_formula_sum   'Dy6 Ho2 P12 Rh16'
_cell_volume   577.02415262
_cell_formula_units_Z   2
loop_
 _symmetry_equiv_pos_site_id
 _symmetry_equiv_pos_as_xyz
  1  'x, y, z'
loop_
 _atom_site_type_symbol
 _atom_site_label
 _atom_site_symmetry_multiplicity
 _atom_site_fract_x
 _atom_site_fract_y
 _atom_site_fract_z
 _atom_site_occupancy
  Dy  Dy0  1  0.000000  0.500000  0.523773  1
  Dy  Dy1  1  0.500000  0.000000  0.476227  1
  Dy  Dy2  1  0.500000  0.821024  0.203928  1
  Dy  Dy3  1  0.500000  0.178976  0.203928  1
  Dy  Dy4  1  0.000000  0.678976  0.796072  1
  Dy  Dy5  1  0.000000  0.321024  0.796072  1
  Ho  Ho6  1  0.500000  0.500000  0.160367  1
  Ho  Ho7  1  0.000000  0.000000  0.839633  1
  P  P8  1  0.500000  0.500000  0.880277  1
  P  P9  1  0.000000  0.000000  0.119723  1
  P  P10  1  0.500000  0.500000  0.366472  1
  P  P11  1  0.000000  0.000000  0.633528  1
  P  P12  1  0.500000  0.312933  0.616557  1
  P  P13  1  0.500000  0.687067  0.616557  1
  P  P14  1  0.000000  0.187067  0.383443  1
  P  P15  1  0.000000  0.812933  0.383443  1
  P  P16  1  0.500000  0.837803  0.888914  1
  P  P17  1  0.500000  0.162197  0.888914  1
  P  P18  1  0.000000  0.662197  0.111086  1
  P  P19  1  0.000000  0.337803  0.111086  1
  Rh  Rh20  1  0.500000  0.500000  0.701592  1
  Rh  Rh21  1  0.000000  0.000000  0.298408  1
  Rh  Rh22  1  0.000000  0.500000  0.982442  1
  Rh  Rh23  1  0.500000  0.000000  0.017558  1
  Rh  Rh24  1  0.500000  0.331153  0.990602  1
  Rh  Rh25  1  0.500000  0.668847  0.990602  1
  Rh  Rh26  1  0.000000  0.168847  0.009398  1
  Rh  Rh27  1  0.000000  0.831153  0.009398  1
  Rh  Rh28  1  0.500000  0.290066  0.432602  1
  Rh  Rh29  1  0.500000  0.709934  0.432602  1
  Rh  Rh30  1  0.000000  0.209934  0.567398  1
  Rh  Rh31  1  0.000000  0.790066  0.567398  1
  Rh  Rh32  1  0.500000  0.872902  0.704000  1
  Rh  Rh33  1  0.500000  0.127098  0.704000  1
  Rh  Rh34  1  0.000000  0.627098  0.296000  1
  Rh  Rh35  1  0.000000  0.372902  0.296000  1
