# generated using pymatgen
data_YHoSi4RuPt3
_symmetry_space_group_name_H-M   'P 1'
_cell_length_a   4.14241900
_cell_length_b   4.14237800
_cell_length_c   9.95466000
_cell_angle_alpha   90.00000000
_cell_angle_beta   90.00000000
_cell_angle_gamma   90.00000000
_symmetry_Int_Tables_number   1
_chemical_formula_structural   YHoSi4RuPt3
_chemical_formula_sum   'Y1 Ho1 Si4 Ru1 Pt3'
_cell_volume   170.81664317
_cell_formula_units_Z   1
loop_
 _symmetry_equiv_pos_site_id
 _symmetry_equiv_pos_as_xyz
  1  'x, y, z'
loop_
 _atom_site_type_symbol
 _atom_site_label
 _atom_site_symmetry_multiplicity
 _atom_site_fract_x
 _atom_site_fract_y
 _atom_site_fract_z
 _atom_site_occupancy
  Y  Y0  1  0.000000  0.500000  0.745986  1
  Ho  Ho1  1  0.500000  0.000000  0.253957  1
  Si  Si2  1  0.000000  0.500000  0.130124  1
  Si  Si3  1  0.500000  0.500000  0.499781  1
  Si  Si4  1  0.500000  0.000000  0.870056  1
  Si  Si5  1  0.000000  0.000000  0.499788  1
  Ru  Ru6  1  0.000000  0.000000  0.000426  1
  Pt  Pt7  1  0.500000  0.000000  0.627616  1
  Pt  Pt8  1  0.500000  0.500000  0.000350  1
  Pt  Pt9  1  0.000000  0.500000  0.371917  1
