# generated using pymatgen
data_Tm2LuAl12NiOs3
_symmetry_space_group_name_H-M   'P 1'
_cell_length_a   8.81780900
_cell_length_b   8.73288926
_cell_length_c   9.46577900
_cell_angle_alpha   90.00000000
_cell_angle_beta   90.00000000
_cell_angle_gamma   120.32220012
_symmetry_Int_Tables_number   1
_chemical_formula_structural   Tm2LuAl12NiOs3
_chemical_formula_sum   'Tm4 Lu2 Al24 Ni2 Os6'
_cell_volume   629.19669433
_cell_formula_units_Z   2
loop_
 _symmetry_equiv_pos_site_id
 _symmetry_equiv_pos_as_xyz
  1  'x, y, z'
loop_
 _atom_site_type_symbol
 _atom_site_label
 _atom_site_symmetry_multiplicity
 _atom_site_fract_x
 _atom_site_fract_y
 _atom_site_fract_z
 _atom_site_occupancy
  Tm  Tm0  1  0.613072  0.796290  0.250000  1
  Tm  Tm1  1  0.386928  0.203710  0.750000  1
  Tm  Tm2  1  0.183217  0.796290  0.250000  1
  Tm  Tm3  1  0.816783  0.203710  0.750000  1
  Lu  Lu4  1  0.196995  0.393992  0.250000  1
  Lu  Lu5  1  0.803005  0.606008  0.750000  1
  Al  Al6  1  0.335808  0.671618  0.023943  1
  Al  Al7  1  0.664192  0.328382  0.976057  1
  Al  Al8  1  0.664192  0.328382  0.523943  1
  Al  Al9  1  0.335808  0.671618  0.476057  1
  Al  Al10  1  0.165167  0.330334  0.574461  1
  Al  Al11  1  0.834833  0.669666  0.425539  1
  Al  Al12  1  0.673165  0.838604  0.576842  1
  Al  Al13  1  0.834833  0.669666  0.074461  1
  Al  Al14  1  0.326835  0.161396  0.423158  1
  Al  Al15  1  0.165167  0.330334  0.925539  1
  Al  Al16  1  0.165438  0.838604  0.576842  1
  Al  Al17  1  0.326835  0.161396  0.076842  1
  Al  Al18  1  0.834562  0.161396  0.423158  1
  Al  Al19  1  0.673165  0.838604  0.923158  1
  Al  Al20  1  0.834562  0.161396  0.076842  1
  Al  Al21  1  0.165438  0.838604  0.923158  1
  Al  Al22  1  0.555225  0.110449  0.250000  1
  Al  Al23  1  0.444775  0.889551  0.750000  1
  Al  Al24  1  0.872330  0.432761  0.250000  1
  Al  Al25  1  0.127670  0.567239  0.750000  1
  Al  Al26  1  0.560431  0.432761  0.250000  1
  Al  Al27  1  0.439569  0.567239  0.750000  1
  Al  Al28  1  0.998889  0.997777  0.250000  1
  Al  Al29  1  0.001111  0.002223  0.750000  1
  Ni  Ni30  1  0.500000  0.000000  0.000000  1
  Ni  Ni31  1  0.500000  0.000000  0.500000  1
  Os  Os32  1  0.000000  0.500000  0.000000  1
  Os  Os33  1  0.500000  0.500000  0.000000  1
  Os  Os34  1  0.000000  0.500000  0.500000  1
  Os  Os35  1  0.500000  0.500000  0.500000  1
  Os  Os36  1  0.000000  0.000000  0.000000  1
  Os  Os37  1  0.000000  0.000000  0.500000  1
