# generated using pymatgen
data_HoEr3Ga6Ir7
_symmetry_space_group_name_H-M   'P 1'
_cell_length_a   7.26672839
_cell_length_b   7.26198749
_cell_length_c   7.26672919
_cell_angle_alpha   109.45799808
_cell_angle_beta   109.48442536
_cell_angle_gamma   109.45800910
_symmetry_Int_Tables_number   1
_chemical_formula_structural   HoEr3Ga6Ir7
_chemical_formula_sum   'Ho1 Er3 Ga6 Ir7'
_cell_volume   295.24487806
_cell_formula_units_Z   1
loop_
 _symmetry_equiv_pos_site_id
 _symmetry_equiv_pos_as_xyz
  1  'x, y, z'
loop_
 _atom_site_type_symbol
 _atom_site_label
 _atom_site_symmetry_multiplicity
 _atom_site_fract_x
 _atom_site_fract_y
 _atom_site_fract_z
 _atom_site_occupancy
  Ho  Ho0  1  0.000000  0.500000  0.000000  1
  Er  Er1  1  0.000000  0.000000  0.500000  1
  Er  Er2  1  0.500000  0.000000  0.000000  1
  Er  Er3  1  0.500000  0.500000  0.500000  1
  Ga  Ga4  1  0.687350  0.687515  0.000000  1
  Ga  Ga5  1  0.312650  0.000164  0.312650  1
  Ga  Ga6  1  0.000000  0.312485  0.312650  1
  Ga  Ga7  1  0.312650  0.312485  0.000000  1
  Ga  Ga8  1  0.687350  0.999836  0.687350  1
  Ga  Ga9  1  0.000000  0.687515  0.687350  1
  Ir  Ir10  1  0.749842  0.249842  0.499684  1
  Ir  Ir11  1  0.749842  0.500000  0.250158  1
  Ir  Ir12  1  0.499684  0.249842  0.749842  1
  Ir  Ir13  1  0.250158  0.500000  0.749842  1
  Ir  Ir14  1  0.250158  0.750158  0.500316  1
  Ir  Ir15  1  0.500316  0.750158  0.250158  1
  Ir  Ir16  1  0.000000  0.000000  0.000000  1
