# generated using pymatgen
data_Y3Er7Ag3Ru
_symmetry_space_group_name_H-M   'P 1'
_cell_length_a   9.43947200
_cell_length_b   9.43947239
_cell_length_c   9.60617000
_cell_angle_alpha   90.00000000
_cell_angle_beta   90.00000000
_cell_angle_gamma   119.99999864
_symmetry_Int_Tables_number   1
_chemical_formula_structural   Y3Er7Ag3Ru
_chemical_formula_sum   'Y6 Er14 Ag6 Ru2'
_cell_volume   741.26983731
_cell_formula_units_Z   2
loop_
 _symmetry_equiv_pos_site_id
 _symmetry_equiv_pos_as_xyz
  1  'x, y, z'
loop_
 _atom_site_type_symbol
 _atom_site_label
 _atom_site_symmetry_multiplicity
 _atom_site_fract_x
 _atom_site_fract_y
 _atom_site_fract_z
 _atom_site_occupancy
  Y  Y0  1  0.541185  0.458815  0.250000  1
  Y  Y1  1  0.541185  0.082369  0.250000  1
  Y  Y2  1  0.917631  0.458815  0.250000  1
  Y  Y3  1  0.458815  0.541185  0.750000  1
  Y  Y4  1  0.458815  0.917631  0.750000  1
  Y  Y5  1  0.082369  0.541185  0.750000  1
  Er  Er6  1  0.000000  0.000000  0.500000  1
  Er  Er7  1  0.000000  0.000000  0.000000  1
  Er  Er8  1  0.208592  0.791408  0.441159  1
  Er  Er9  1  0.208592  0.417183  0.441159  1
  Er  Er10  1  0.582817  0.791408  0.441159  1
  Er  Er11  1  0.791408  0.208592  0.558841  1
  Er  Er12  1  0.791408  0.582817  0.558841  1
  Er  Er13  1  0.417183  0.208592  0.558841  1
  Er  Er14  1  0.791408  0.208592  0.941159  1
  Er  Er15  1  0.791408  0.582817  0.941159  1
  Er  Er16  1  0.417183  0.208592  0.941159  1
  Er  Er17  1  0.208592  0.791408  0.058841  1
  Er  Er18  1  0.208592  0.417183  0.058841  1
  Er  Er19  1  0.582817  0.791408  0.058841  1
  Ag  Ag20  1  0.884137  0.115863  0.250000  1
  Ag  Ag21  1  0.884137  0.768276  0.250000  1
  Ag  Ag22  1  0.231724  0.115863  0.250000  1
  Ag  Ag23  1  0.115863  0.884137  0.750000  1
  Ag  Ag24  1  0.115863  0.231724  0.750000  1
  Ag  Ag25  1  0.768276  0.884137  0.750000  1
  Ru  Ru26  1  0.333333  0.666667  0.250000  1
  Ru  Ru27  1  0.666667  0.333333  0.750000  1
