# generated using pymatgen
data_YLu3Al18(Pd2Rh)2
_symmetry_space_group_name_H-M   'P 1'
_cell_length_a   7.59012610
_cell_length_b   7.58653912
_cell_length_c   9.40591900
_cell_angle_alpha   90.00000000
_cell_angle_beta   90.00000000
_cell_angle_gamma   119.62339384
_symmetry_Int_Tables_number   1
_chemical_formula_structural   YLu3Al18(Pd2Rh)2
_chemical_formula_sum   'Y1 Lu3 Al18 Pd4 Rh2'
_cell_volume   470.82574244
_cell_formula_units_Z   1
loop_
 _symmetry_equiv_pos_site_id
 _symmetry_equiv_pos_as_xyz
  1  'x, y, z'
loop_
 _atom_site_type_symbol
 _atom_site_label
 _atom_site_symmetry_multiplicity
 _atom_site_fract_x
 _atom_site_fract_y
 _atom_site_fract_z
 _atom_site_occupancy
  Y  Y0  1  0.332533  0.005476  0.750000  1
  Lu  Lu1  1  0.993875  0.668506  0.250000  1
  Lu  Lu2  1  0.005638  0.331603  0.750000  1
  Lu  Lu3  1  0.669066  0.994344  0.250000  1
  Al  Al4  1  0.123887  0.124295  0.250000  1
  Al  Al5  1  0.874545  0.874947  0.750000  1
  Al  Al6  1  0.998557  0.331002  0.077912  1
  Al  Al7  1  0.000108  0.668060  0.924052  1
  Al  Al8  1  0.000108  0.668060  0.575948  1
  Al  Al9  1  0.330861  0.998517  0.421044  1
  Al  Al10  1  0.998557  0.331002  0.422088  1
  Al  Al11  1  0.670453  0.001427  0.575911  1
  Al  Al12  1  0.670453  0.001427  0.924089  1
  Al  Al13  1  0.330861  0.998517  0.078956  1
  Al  Al14  1  0.328842  0.329733  0.555414  1
  Al  Al15  1  0.671052  0.671126  0.442697  1
  Al  Al16  1  0.671052  0.671126  0.057303  1
  Al  Al17  1  0.328842  0.329733  0.944586  1
  Al  Al18  1  0.340642  0.548743  0.250000  1
  Al  Al19  1  0.660252  0.453093  0.750000  1
  Al  Al20  1  0.548882  0.341051  0.250000  1
  Al  Al21  1  0.451967  0.658652  0.750000  1
  Pd  Pd22  1  0.672650  0.327664  0.000254  1
  Pd  Pd23  1  0.327386  0.672228  0.000064  1
  Pd  Pd24  1  0.327386  0.672228  0.499936  1
  Pd  Pd25  1  0.672650  0.327664  0.499746  1
  Rh  Rh26  1  0.999448  0.999886  0.000113  1
  Rh  Rh27  1  0.999448  0.999886  0.499887  1
