# generated using pymatgen
data_SmUTcB6
_symmetry_space_group_name_H-M   'P 1'
_cell_length_a   3.67411800
_cell_length_b   9.35554700
_cell_length_c   11.46919100
_cell_angle_alpha   90.00000000
_cell_angle_beta   90.00000000
_cell_angle_gamma   90.00000000
_symmetry_Int_Tables_number   1
_chemical_formula_structural   SmUTcB6
_chemical_formula_sum   'Sm4 U4 Tc4 B24'
_cell_volume   394.23490220
_cell_formula_units_Z   4
loop_
 _symmetry_equiv_pos_site_id
 _symmetry_equiv_pos_as_xyz
  1  'x, y, z'
loop_
 _atom_site_type_symbol
 _atom_site_label
 _atom_site_symmetry_multiplicity
 _atom_site_fract_x
 _atom_site_fract_y
 _atom_site_fract_z
 _atom_site_occupancy
  Sm  Sm0  1  0.000000  0.337475  0.407624  1
  Sm  Sm1  1  0.000000  0.662525  0.592376  1
  Sm  Sm2  1  0.000000  0.837475  0.092376  1
  Sm  Sm3  1  0.000000  0.162525  0.907624  1
  U  U4  1  0.000000  0.957192  0.396370  1
  U  U5  1  0.000000  0.042808  0.603630  1
  U  U6  1  0.000000  0.457192  0.103630  1
  U  U7  1  0.000000  0.542808  0.896370  1
  Tc  Tc8  1  0.000000  0.647111  0.317700  1
  Tc  Tc9  1  0.000000  0.352889  0.682300  1
  Tc  Tc10  1  0.000000  0.147111  0.182300  1
  Tc  Tc11  1  0.000000  0.852889  0.817700  1
  B  B12  1  0.500000  0.554111  0.429404  1
  B  B13  1  0.500000  0.445889  0.570596  1
  B  B14  1  0.500000  0.054111  0.070596  1
  B  B15  1  0.500000  0.945889  0.929404  1
  B  B16  1  0.500000  0.744376  0.421969  1
  B  B17  1  0.500000  0.255624  0.578031  1
  B  B18  1  0.500000  0.244376  0.078031  1
  B  B19  1  0.500000  0.755624  0.921969  1
  B  B20  1  0.500000  0.802367  0.275391  1
  B  B21  1  0.500000  0.197633  0.724609  1
  B  B22  1  0.500000  0.302367  0.224609  1
  B  B23  1  0.500000  0.697633  0.775391  1
  B  B24  1  0.500000  0.644186  0.188482  1
  B  B25  1  0.500000  0.355814  0.811518  1
  B  B26  1  0.500000  0.144186  0.311518  1
  B  B27  1  0.500000  0.855814  0.688482  1
  B  B28  1  0.500000  0.991284  0.220406  1
  B  B29  1  0.500000  0.008716  0.779594  1
  B  B30  1  0.500000  0.491284  0.279594  1
  B  B31  1  0.500000  0.508716  0.720406  1
  B  B32  1  0.500000  0.638064  0.038051  1
  B  B33  1  0.500000  0.361936  0.961949  1
  B  B34  1  0.500000  0.138064  0.461949  1
  B  B35  1  0.500000  0.861936  0.538051  1
