# generated using pymatgen
data_CuSi4Pd8Pt13
_symmetry_space_group_name_H-M   'P 1'
_cell_length_a   3.90776700
_cell_length_b   6.24576539
_cell_length_c   16.20015663
_cell_angle_alpha   89.83592823
_cell_angle_beta   90.00000000
_cell_angle_gamma   90.00000000
_symmetry_Int_Tables_number   1
_chemical_formula_structural   CuSi4Pd8Pt13
_chemical_formula_sum   'Cu1 Si4 Pd8 Pt13'
_cell_volume   395.39553514
_cell_formula_units_Z   1
loop_
 _symmetry_equiv_pos_site_id
 _symmetry_equiv_pos_as_xyz
  1  'x, y, z'
loop_
 _atom_site_type_symbol
 _atom_site_label
 _atom_site_symmetry_multiplicity
 _atom_site_fract_x
 _atom_site_fract_y
 _atom_site_fract_z
 _atom_site_occupancy
  Cu  Cu0  1  0.500000  0.500000  0.000000  1
  Si  Si1  1  0.500000  0.821339  0.297477  1
  Si  Si2  1  0.500000  0.178661  0.702523  1
  Si  Si3  1  0.500000  0.327172  0.198954  1
  Si  Si4  1  0.500000  0.672828  0.801046  1
  Pd  Pd5  1  0.000000  0.303383  0.457382  1
  Pd  Pd6  1  0.000000  0.696617  0.542618  1
  Pd  Pd7  1  0.000000  0.805948  0.041656  1
  Pd  Pd8  1  0.000000  0.194052  0.958344  1
  Pd  Pd9  1  0.000000  0.513687  0.282089  1
  Pd  Pd10  1  0.000000  0.486313  0.717911  1
  Pd  Pd11  1  0.000000  0.008372  0.210824  1
  Pd  Pd12  1  0.000000  0.991628  0.789176  1
  Pt  Pt13  1  0.000000  0.897860  0.382120  1
  Pt  Pt14  1  0.000000  0.102140  0.617880  1
  Pt  Pt15  1  0.000000  0.402087  0.111588  1
  Pt  Pt16  1  0.000000  0.597913  0.888412  1
  Pt  Pt17  1  0.500000  0.594613  0.418011  1
  Pt  Pt18  1  0.500000  0.405387  0.581989  1
  Pt  Pt19  1  0.500000  0.102364  0.079680  1
  Pt  Pt20  1  0.500000  0.897636  0.920320  1
  Pt  Pt21  1  0.500000  0.000000  0.500000  1
  Pt  Pt22  1  0.500000  0.202767  0.333838  1
  Pt  Pt23  1  0.500000  0.797233  0.666162  1
  Pt  Pt24  1  0.500000  0.702645  0.160761  1
  Pt  Pt25  1  0.500000  0.297355  0.839239  1
