# generated using pymatgen
data_Er3Ga2Ag3Ge
_symmetry_space_group_name_H-M   'P 1'
_cell_length_a   7.23740400
_cell_length_b   7.23740338
_cell_length_c   4.10653600
_cell_angle_alpha   90.00000000
_cell_angle_beta   90.00000000
_cell_angle_gamma   120.00000286
_symmetry_Int_Tables_number   1
_chemical_formula_structural   Er3Ga2Ag3Ge
_chemical_formula_sum   'Er3 Ga2 Ag3 Ge1'
_cell_volume   186.28241019
_cell_formula_units_Z   1
loop_
 _symmetry_equiv_pos_site_id
 _symmetry_equiv_pos_as_xyz
  1  'x, y, z'
loop_
 _atom_site_type_symbol
 _atom_site_label
 _atom_site_symmetry_multiplicity
 _atom_site_fract_x
 _atom_site_fract_y
 _atom_site_fract_z
 _atom_site_occupancy
  Er  Er0  1  0.578596  0.997581  0.000000  1
  Er  Er1  1  0.418985  0.421404  0.000000  1
  Er  Er2  1  0.002419  0.581015  0.000000  1
  Ga  Ga3  1  0.000000  0.000000  0.000000  1
  Ga  Ga4  1  0.666667  0.333333  0.500000  1
  Ag  Ag5  1  0.751955  0.747869  0.500000  1
  Ag  Ag6  1  0.252131  0.004086  0.500000  1
  Ag  Ag7  1  0.995914  0.248045  0.500000  1
  Ge  Ge8  1  0.333333  0.666667  0.500000  1
