# generated using pymatgen
data_Sr3CaSnO6
_symmetry_space_group_name_H-M   'P 1'
_cell_length_a   6.97921358
_cell_length_b   6.97921285
_cell_length_c   6.97921271
_cell_angle_alpha   91.58381361
_cell_angle_beta   91.58381515
_cell_angle_gamma   91.58380783
_symmetry_Int_Tables_number   1
_chemical_formula_structural   Sr3CaSnO6
_chemical_formula_sum   'Sr6 Ca2 Sn2 O12'
_cell_volume   339.55642420
_cell_formula_units_Z   2
loop_
 _symmetry_equiv_pos_site_id
 _symmetry_equiv_pos_as_xyz
  1  'x, y, z'
loop_
 _atom_site_type_symbol
 _atom_site_label
 _atom_site_symmetry_multiplicity
 _atom_site_fract_x
 _atom_site_fract_y
 _atom_site_fract_z
 _atom_site_occupancy
  Sr  Sr0  1  0.392399  0.107601  0.750000  1
  Sr  Sr1  1  0.107601  0.750000  0.392399  1
  Sr  Sr2  1  0.750000  0.392399  0.107601  1
  Sr  Sr3  1  0.607601  0.892399  0.250000  1
  Sr  Sr4  1  0.250000  0.607601  0.892399  1
  Sr  Sr5  1  0.892399  0.250000  0.607601  1
  Ca  Ca6  1  0.750000  0.750000  0.750000  1
  Ca  Ca7  1  0.250000  0.250000  0.250000  1
  Sn  Sn8  1  0.500000  0.500000  0.500000  1
  Sn  Sn9  1  0.000000  0.000000  0.000000  1
  O  O10  1  0.951289  0.083210  0.288491  1
  O  O11  1  0.288491  0.951289  0.083210  1
  O  O12  1  0.083210  0.288491  0.951289  1
  O  O13  1  0.548711  0.211509  0.416790  1
  O  O14  1  0.416790  0.548711  0.211509  1
  O  O15  1  0.211509  0.416790  0.548711  1
  O  O16  1  0.048711  0.916790  0.711509  1
  O  O17  1  0.711509  0.048711  0.916790  1
  O  O18  1  0.916790  0.711509  0.048711  1
  O  O19  1  0.451289  0.788491  0.583210  1
  O  O20  1  0.788491  0.583210  0.451289  1
  O  O21  1  0.583210  0.451289  0.788491  1
