# generated using pymatgen
data_ScZn2GeRh4
_symmetry_space_group_name_H-M   'P 1'
_cell_length_a   6.13146800
_cell_length_b   6.13171900
_cell_length_c   6.18985200
_cell_angle_alpha   90.00000000
_cell_angle_beta   90.00000000
_cell_angle_gamma   90.00000000
_symmetry_Int_Tables_number   1
_chemical_formula_structural   ScZn2GeRh4
_chemical_formula_sum   'Sc2 Zn4 Ge2 Rh8'
_cell_volume   232.71639211
_cell_formula_units_Z   2
loop_
 _symmetry_equiv_pos_site_id
 _symmetry_equiv_pos_as_xyz
  1  'x, y, z'
loop_
 _atom_site_type_symbol
 _atom_site_label
 _atom_site_symmetry_multiplicity
 _atom_site_fract_x
 _atom_site_fract_y
 _atom_site_fract_z
 _atom_site_occupancy
  Sc  Sc0  1  0.749997  0.250000  0.499998  1
  Sc  Sc1  1  0.250001  0.750000  0.500001  1
  Zn  Zn2  1  0.249954  0.250000  0.000000  1
  Zn  Zn3  1  0.750046  0.750000  0.000000  1
  Zn  Zn4  1  0.250083  0.250000  0.499996  1
  Zn  Zn5  1  0.749918  0.750000  0.500004  1
  Ge  Ge6  1  0.750020  0.250000  0.000000  1
  Ge  Ge7  1  0.249978  0.750000  0.000000  1
  Rh  Rh8  1  0.499999  0.000000  0.236172  1
  Rh  Rh9  1  0.499999  0.499996  0.236172  1
  Rh  Rh10  1  0.000000  0.000000  0.236253  1
  Rh  Rh11  1  0.000000  0.500004  0.236253  1
  Rh  Rh12  1  0.000000  0.000000  0.763747  1
  Rh  Rh13  1  0.000000  0.499996  0.763747  1
  Rh  Rh14  1  0.500001  0.000000  0.763828  1
  Rh  Rh15  1  0.500001  0.500004  0.763828  1
