# generated using pymatgen
data_KGa3Cl8
_symmetry_space_group_name_H-M   'P 1'
_cell_length_a   7.32976200
_cell_length_b   10.06112378
_cell_length_c   9.89668281
_cell_angle_alpha   91.47962310
_cell_angle_beta   90.00000000
_cell_angle_gamma   90.00000000
_symmetry_Int_Tables_number   1
_chemical_formula_structural   KGa3Cl8
_chemical_formula_sum   'K2 Ga6 Cl16'
_cell_volume   729.59388591
_cell_formula_units_Z   2
loop_
 _symmetry_equiv_pos_site_id
 _symmetry_equiv_pos_as_xyz
  1  'x, y, z'
loop_
 _atom_site_type_symbol
 _atom_site_label
 _atom_site_symmetry_multiplicity
 _atom_site_fract_x
 _atom_site_fract_y
 _atom_site_fract_z
 _atom_site_occupancy
  K  K0  1  0.815844  0.750000  0.250000  1
  K  K1  1  0.184156  0.250000  0.750000  1
  Ga  Ga2  1  0.749470  0.997348  0.818757  1
  Ga  Ga3  1  0.250530  0.497348  0.318757  1
  Ga  Ga4  1  0.250530  0.002652  0.181243  1
  Ga  Ga5  1  0.666326  0.250000  0.250000  1
  Ga  Ga6  1  0.749470  0.502652  0.681243  1
  Ga  Ga7  1  0.333674  0.750000  0.750000  1
  Cl  Cl8  1  0.333921  0.325230  0.438853  1
  Cl  Cl9  1  0.490487  0.534979  0.189093  1
  Cl  Cl10  1  0.666079  0.674770  0.561147  1
  Cl  Cl11  1  0.333921  0.174770  0.061147  1
  Cl  Cl12  1  0.010187  0.045697  0.309534  1
  Cl  Cl13  1  0.666079  0.825230  0.938853  1
  Cl  Cl14  1  0.823172  0.328078  0.553330  1
  Cl  Cl15  1  0.989813  0.545697  0.809534  1
  Cl  Cl16  1  0.176828  0.671922  0.446670  1
  Cl  Cl17  1  0.010187  0.454303  0.190466  1
  Cl  Cl18  1  0.490487  0.965021  0.310907  1
  Cl  Cl19  1  0.823172  0.171922  0.946670  1
  Cl  Cl20  1  0.176828  0.828078  0.053330  1
  Cl  Cl21  1  0.989813  0.954303  0.690466  1
  Cl  Cl22  1  0.509513  0.465021  0.810907  1
  Cl  Cl23  1  0.509513  0.034979  0.689093  1
