# generated using pymatgen
data_CaNd3MgMn3O12
_symmetry_space_group_name_H-M   'P 1'
_cell_length_a   5.44857860
_cell_length_b   5.57254691
_cell_length_c   7.73376694
_cell_angle_alpha   89.76172138
_cell_angle_beta   89.91253039
_cell_angle_gamma   90.04263246
_symmetry_Int_Tables_number   1
_chemical_formula_structural   CaNd3MgMn3O12
_chemical_formula_sum   'Ca1 Nd3 Mg1 Mn3 O12'
_cell_volume   234.81381762
_cell_formula_units_Z   1
loop_
 _symmetry_equiv_pos_site_id
 _symmetry_equiv_pos_as_xyz
  1  'x, y, z'
loop_
 _atom_site_type_symbol
 _atom_site_label
 _atom_site_symmetry_multiplicity
 _atom_site_fract_x
 _atom_site_fract_y
 _atom_site_fract_z
 _atom_site_occupancy
  Ca  Ca0  1  0.493855  0.544217  0.254554  1
  Nd  Nd1  1  0.985979  0.949509  0.745319  1
  Nd  Nd2  1  0.507376  0.453797  0.744856  1
  Nd  Nd3  1  0.015934  0.051248  0.255266  1
  Mg  Mg4  1  0.000705  0.501722  0.495481  1
  Mn  Mn5  1  0.000226  0.500104  0.002979  1
  Mn  Mn6  1  0.499410  0.998708  0.002886  1
  Mn  Mn7  1  0.499488  0.999256  0.497809  1
  O  O8  1  0.585515  0.970794  0.251093  1
  O  O9  1  0.078299  0.517337  0.759586  1
  O  O10  1  0.417663  0.021727  0.750062  1
  O  O11  1  0.919059  0.476164  0.239039  1
  O  O12  1  0.208324  0.797370  0.040997  1
  O  O13  1  0.709479  0.717399  0.950920  1
  O  O14  1  0.784165  0.208458  0.953249  1
  O  O15  1  0.294106  0.285069  0.045745  1
  O  O16  1  0.302676  0.279971  0.457962  1
  O  O17  1  0.780801  0.200726  0.540807  1
  O  O18  1  0.702068  0.721881  0.546541  1
  O  O19  1  0.214870  0.804542  0.464849  1
