# generated using pymatgen
data_Cs5Ho(MoH9)3
_symmetry_space_group_name_H-M   'P 1'
_cell_length_a   9.70521100
_cell_length_b   9.41436858
_cell_length_c   5.37400000
_cell_angle_alpha   90.00000000
_cell_angle_beta   90.00000000
_cell_angle_gamma   119.01354581
_symmetry_Int_Tables_number   1
_chemical_formula_structural   Cs5Ho(MoH9)3
_chemical_formula_sum   'Cs5 Ho1 Mo3 H27'
_cell_volume   429.39419607
_cell_formula_units_Z   1
loop_
 _symmetry_equiv_pos_site_id
 _symmetry_equiv_pos_as_xyz
  1  'x, y, z'
loop_
 _atom_site_type_symbol
 _atom_site_label
 _atom_site_symmetry_multiplicity
 _atom_site_fract_x
 _atom_site_fract_y
 _atom_site_fract_z
 _atom_site_occupancy
  Cs  Cs0  1  0.718028  0.736044  0.500000  1
  Cs  Cs1  1  0.281972  0.018016  0.500000  1
  Cs  Cs2  1  0.000000  0.638970  0.000000  1
  Cs  Cs3  1  0.428919  0.394436  0.000000  1
  Cs  Cs4  1  0.571081  0.965517  0.000000  1
  Ho  Ho5  1  0.000000  0.257148  0.500000  1
  Mo  Mo6  1  0.725207  0.338490  0.500000  1
  Mo  Mo7  1  0.274793  0.613283  0.500000  1
  Mo  Mo8  1  0.000000  0.051938  0.000000  1
  H  H9  1  0.847611  0.324127  0.735640  1
  H  H10  1  0.723449  0.457629  0.745034  1
  H  H11  1  0.579759  0.212289  0.702608  1
  H  H12  1  0.152389  0.476516  0.264360  1
  H  H13  1  0.579759  0.212289  0.297392  1
  H  H14  1  0.847611  0.324127  0.264360  1
  H  H15  1  0.723449  0.457629  0.254966  1
  H  H16  1  0.276551  0.734181  0.745034  1
  H  H17  1  0.420241  0.632531  0.702608  1
  H  H18  1  0.171298  0.039747  0.000000  1
  H  H19  1  0.828702  0.868450  0.000000  1
  H  H20  1  0.000000  0.238441  0.000000  1
  H  H21  1  0.871272  0.047102  0.238353  1
  H  H22  1  0.128728  0.175830  0.761647  1
  H  H23  1  0.000000  0.920191  0.774801  1
  H  H24  1  0.000000  0.920191  0.225199  1
  H  H25  1  0.128728  0.175830  0.238353  1
  H  H26  1  0.871272  0.047102  0.761647  1
  H  H27  1  0.054055  0.586293  0.500000  1
  H  H28  1  0.433233  0.805865  0.500000  1
  H  H29  1  0.286553  0.434125  0.500000  1
  H  H30  1  0.566767  0.372634  0.500000  1
  H  H31  1  0.945945  0.532238  0.500000  1
  H  H32  1  0.713447  0.147572  0.500000  1
  H  H33  1  0.152389  0.476516  0.735640  1
  H  H34  1  0.276551  0.734181  0.254966  1
  H  H35  1  0.420241  0.632531  0.297392  1
