# generated using pymatgen
data_MgIn5CoRh
_symmetry_space_group_name_H-M   'P 1'
_cell_length_a   6.96637003
_cell_length_b   7.03626326
_cell_length_c   7.06346500
_cell_angle_alpha   90.00000000
_cell_angle_beta   90.00000000
_cell_angle_gamma   90.37552518
_symmetry_Int_Tables_number   1
_chemical_formula_structural   MgIn5CoRh
_chemical_formula_sum   'Mg2 In10 Co2 Rh2'
_cell_volume   346.22393552
_cell_formula_units_Z   2
loop_
 _symmetry_equiv_pos_site_id
 _symmetry_equiv_pos_as_xyz
  1  'x, y, z'
loop_
 _atom_site_type_symbol
 _atom_site_label
 _atom_site_symmetry_multiplicity
 _atom_site_fract_x
 _atom_site_fract_y
 _atom_site_fract_z
 _atom_site_occupancy
  Mg  Mg0  1  0.500000  0.500000  0.000000  1
  Mg  Mg1  1  0.500000  0.500000  0.500000  1
  In  In2  1  0.000000  0.000000  0.000000  1
  In  In3  1  0.830318  0.345919  0.246275  1
  In  In4  1  0.169682  0.654082  0.246275  1
  In  In5  1  0.354370  0.163439  0.265083  1
  In  In6  1  0.645632  0.836561  0.265083  1
  In  In7  1  0.000000  0.000000  0.500000  1
  In  In8  1  0.354369  0.163439  0.734917  1
  In  In9  1  0.645631  0.836561  0.734917  1
  In  In10  1  0.830318  0.345919  0.753725  1
  In  In11  1  0.169682  0.654082  0.753725  1
  Co  Co12  1  0.652575  0.143811  0.500000  1
  Co  Co13  1  0.347425  0.856188  0.500000  1
  Rh  Rh14  1  0.149027  0.348267  0.000000  1
  Rh  Rh15  1  0.850972  0.651733  0.000000  1
