# generated using pymatgen
data_Ho6Re16O
_symmetry_space_group_name_H-M   'P 1'
_cell_length_a   8.11093325
_cell_length_b   8.11093294
_cell_length_c   8.11093300
_cell_angle_alpha   109.47122577
_cell_angle_beta   109.47122500
_cell_angle_gamma   109.47121351
_symmetry_Int_Tables_number   1
_chemical_formula_structural   Ho6Re16O
_chemical_formula_sum   'Ho6 Re16 O1'
_cell_volume   410.76227336
_cell_formula_units_Z   1
loop_
 _symmetry_equiv_pos_site_id
 _symmetry_equiv_pos_as_xyz
  1  'x, y, z'
loop_
 _atom_site_type_symbol
 _atom_site_label
 _atom_site_symmetry_multiplicity
 _atom_site_fract_x
 _atom_site_fract_y
 _atom_site_fract_z
 _atom_site_occupancy
  Ho  Ho0  1  0.738492  0.738492  0.000000  1
  Ho  Ho1  1  0.261507  0.000000  0.261508  1
  Ho  Ho2  1  0.738492  0.000000  0.738492  1
  Ho  Ho3  1  0.000000  0.738492  0.738493  1
  Ho  Ho4  1  0.000000  0.261507  0.261508  1
  Ho  Ho5  1  0.261507  0.261507  0.000000  1
  Re  Re6  1  0.000000  0.500000  0.000000  1
  Re  Re7  1  0.500000  0.000000  0.000000  1
  Re  Re8  1  0.000000  0.000000  0.500000  1
  Re  Re9  1  0.500000  0.500000  0.500000  1
  Re  Re10  1  0.340069  0.340069  0.680139  1
  Re  Re11  1  0.659931  0.659931  0.319861  1
  Re  Re12  1  0.000000  0.340069  0.659931  1
  Re  Re13  1  0.319861  0.659931  0.659931  1
  Re  Re14  1  0.659931  0.319861  0.659931  1
  Re  Re15  1  0.340069  0.000000  0.659931  1
  Re  Re16  1  0.659931  0.340069  0.000000  1
  Re  Re17  1  0.340069  0.659931  0.000000  1
  Re  Re18  1  0.340069  0.680139  0.340069  1
  Re  Re19  1  0.000000  0.659931  0.340069  1
  Re  Re20  1  0.659931  0.000000  0.340069  1
  Re  Re21  1  0.680139  0.340069  0.340069  1
  O  O22  1  0.000000  0.000000  0.000000  1
