# generated using pymatgen
data_Nd5ZnIrO12
_symmetry_space_group_name_H-M   'P 1'
_cell_length_a   7.07206710
_cell_length_b   7.07206605
_cell_length_c   7.56549701
_cell_angle_alpha   74.48121558
_cell_angle_beta   74.48121517
_cell_angle_gamma   51.62548292
_symmetry_Int_Tables_number   1
_chemical_formula_structural   Nd5ZnIrO12
_chemical_formula_sum   'Nd5 Zn1 Ir1 O12'
_cell_volume   283.23533180
_cell_formula_units_Z   1
loop_
 _symmetry_equiv_pos_site_id
 _symmetry_equiv_pos_as_xyz
  1  'x, y, z'
loop_
 _atom_site_type_symbol
 _atom_site_label
 _atom_site_symmetry_multiplicity
 _atom_site_fract_x
 _atom_site_fract_y
 _atom_site_fract_z
 _atom_site_occupancy
  Nd  Nd0  1  0.311660  0.297444  0.357356  1
  Nd  Nd1  1  0.702556  0.688340  0.642644  1
  Nd  Nd2  1  0.692713  0.695419  0.165009  1
  Nd  Nd3  1  0.304581  0.307287  0.834991  1
  Nd  Nd4  1  0.005579  0.994421  0.500000  1
  Zn  Zn5  1  0.754648  0.245352  0.000000  1
  Ir  Ir6  1  0.241345  0.758655  0.000000  1
  O  O7  1  0.098691  0.594636  0.575503  1
  O  O8  1  0.022727  0.976033  0.178386  1
  O  O9  1  0.405364  0.901309  0.424497  1
  O  O10  1  0.470422  0.530729  0.178905  1
  O  O11  1  0.098988  0.580157  0.080444  1
  O  O12  1  0.906966  0.399932  0.422421  1
  O  O13  1  0.023967  0.977273  0.821614  1
  O  O14  1  0.600068  0.093033  0.577579  1
  O  O15  1  0.469271  0.529578  0.821095  1
  O  O16  1  0.574854  0.104242  0.078857  1
  O  O17  1  0.419843  0.901012  0.919556  1
  O  O18  1  0.895758  0.425146  0.921143  1
