# generated using pymatgen
data_CsP2PdO7
_symmetry_space_group_name_H-M   'P 1'
_cell_length_a   5.73356245
_cell_length_b   5.73356216
_cell_length_c   6.33905343
_cell_angle_alpha   90.32896362
_cell_angle_beta   90.32873586
_cell_angle_gamma   100.56295121
_symmetry_Int_Tables_number   1
_chemical_formula_structural   CsP2PdO7
_chemical_formula_sum   'Cs1 P2 Pd1 O7'
_cell_volume   204.84877986
_cell_formula_units_Z   1
loop_
 _symmetry_equiv_pos_site_id
 _symmetry_equiv_pos_as_xyz
  1  'x, y, z'
loop_
 _atom_site_type_symbol
 _atom_site_label
 _atom_site_symmetry_multiplicity
 _atom_site_fract_x
 _atom_site_fract_y
 _atom_site_fract_z
 _atom_site_occupancy
  Cs  Cs0  1  0.171057  0.828943  0.000000  1
  P  P1  1  0.659383  0.952040  0.425957  1
  P  P2  1  0.047960  0.340617  0.574045  1
  Pd  Pd3  1  0.530262  0.469740  0.499999  1
  O  O4  1  0.683673  0.778781  0.247735  1
  O  O5  1  0.192329  0.459222  0.382647  1
  O  O6  1  0.528127  0.149574  0.354510  1
  O  O7  1  0.925127  0.074872  0.500000  1
  O  O8  1  0.850424  0.471871  0.645491  1
  O  O9  1  0.540777  0.807668  0.617352  1
  O  O10  1  0.221221  0.316329  0.752264  1
