# generated using pymatgen
data_Ho3ErTm(In2Pt)2
_symmetry_space_group_name_H-M   'P 1'
_cell_length_a   3.60196300
_cell_length_b   8.14320200
_cell_length_c   18.17899201
_cell_angle_alpha   90.00388658
_cell_angle_beta   90.00000000
_cell_angle_gamma   90.00000000
_symmetry_Int_Tables_number   1
_chemical_formula_structural   Ho3ErTm(In2Pt)2
_chemical_formula_sum   'Ho6 Er2 Tm2 In8 Pt4'
_cell_volume   533.21732694
_cell_formula_units_Z   2
loop_
 _symmetry_equiv_pos_site_id
 _symmetry_equiv_pos_as_xyz
  1  'x, y, z'
loop_
 _atom_site_type_symbol
 _atom_site_label
 _atom_site_symmetry_multiplicity
 _atom_site_fract_x
 _atom_site_fract_y
 _atom_site_fract_z
 _atom_site_occupancy
  Ho  Ho0  1  0.000000  0.242885  0.220126  1
  Ho  Ho1  1  0.000000  0.757115  0.779874  1
  Ho  Ho2  1  0.000000  0.257043  0.720067  1
  Ho  Ho3  1  0.000000  0.742957  0.279933  1
  Ho  Ho4  1  0.000000  0.000000  0.000000  1
  Ho  Ho5  1  0.000000  0.500000  0.500000  1
  Er  Er6  1  0.000000  0.383157  0.914515  1
  Er  Er7  1  0.000000  0.616843  0.085485  1
  Tm  Tm8  1  0.000000  0.116766  0.414375  1
  Tm  Tm9  1  0.000000  0.883234  0.585625  1
  In  In10  1  0.500000  0.422705  0.351146  1
  In  In11  1  0.500000  0.577295  0.648854  1
  In  In12  1  0.500000  0.077035  0.851069  1
  In  In13  1  0.500000  0.922965  0.148931  1
  In  In14  1  0.500000  0.293019  0.066351  1
  In  In15  1  0.500000  0.706981  0.933649  1
  In  In16  1  0.500000  0.206673  0.566254  1
  In  In17  1  0.500000  0.793327  0.433746  1
  Pt  Pt18  1  0.500000  0.025053  0.303895  1
  Pt  Pt19  1  0.500000  0.974947  0.696105  1
  Pt  Pt20  1  0.500000  0.475127  0.803587  1
  Pt  Pt21  1  0.500000  0.524873  0.196413  1
