# generated using pymatgen
data_Ho4Lu8Co4BiOs
_symmetry_space_group_name_H-M   'P 1'
_cell_length_a   8.18930354
_cell_length_b   8.18930284
_cell_length_c   8.18930304
_cell_angle_alpha   110.69656269
_cell_angle_beta   111.39143896
_cell_angle_gamma   106.37026217
_symmetry_Int_Tables_number   1
_chemical_formula_structural   Ho4Lu8Co4BiOs
_chemical_formula_sum   'Ho4 Lu8 Co4 Bi1 Os1'
_cell_volume   421.84557701
_cell_formula_units_Z   1
loop_
 _symmetry_equiv_pos_site_id
 _symmetry_equiv_pos_as_xyz
  1  'x, y, z'
loop_
 _atom_site_type_symbol
 _atom_site_label
 _atom_site_symmetry_multiplicity
 _atom_site_fract_x
 _atom_site_fract_y
 _atom_site_fract_z
 _atom_site_occupancy
  Ho  Ho0  1  0.279748  0.182792  0.462539  1
  Ho  Ho1  1  0.720252  0.817208  0.537461  1
  Ho  Ho2  1  0.279748  0.817208  0.096956  1
  Ho  Ho3  1  0.720252  0.182792  0.903044  1
  Lu  Lu4  1  0.621666  0.311369  0.310297  1
  Lu  Lu5  1  0.378334  0.688631  0.689703  1
  Lu  Lu6  1  0.001073  0.311369  0.689703  1
  Lu  Lu7  1  0.998927  0.688631  0.310297  1
  Lu  Lu8  1  0.215664  0.412900  0.197236  1
  Lu  Lu9  1  0.784336  0.587100  0.802764  1
  Lu  Lu10  1  0.215664  0.018427  0.802764  1
  Lu  Lu11  1  0.784336  0.981573  0.197236  1
  Co  Co12  1  0.000000  0.375234  0.375234  1
  Co  Co13  1  0.000000  0.624766  0.624766  1
  Co  Co14  1  0.388285  0.888285  0.500000  1
  Co  Co15  1  0.611715  0.111715  0.500000  1
  Bi  Bi16  1  0.500000  0.500000  0.000000  1
  Os  Os17  1  0.000000  0.000000  0.000000  1
