# generated using pymatgen
data_Sc12Si12TcIr3
_symmetry_space_group_name_H-M   'P 1'
_cell_length_a   4.03572400
_cell_length_b   10.26224258
_cell_length_c   11.67970638
_cell_angle_alpha   90.11959087
_cell_angle_beta   90.00000000
_cell_angle_gamma   90.00000000
_symmetry_Int_Tables_number   1
_chemical_formula_structural   Sc12Si12TcIr3
_chemical_formula_sum   'Sc12 Si12 Tc1 Ir3'
_cell_volume   483.72074437
_cell_formula_units_Z   1
loop_
 _symmetry_equiv_pos_site_id
 _symmetry_equiv_pos_as_xyz
  1  'x, y, z'
loop_
 _atom_site_type_symbol
 _atom_site_label
 _atom_site_symmetry_multiplicity
 _atom_site_fract_x
 _atom_site_fract_y
 _atom_site_fract_z
 _atom_site_occupancy
  Sc  Sc0  1  0.250000  0.876409  0.019192  1
  Sc  Sc1  1  0.250000  0.622336  0.520761  1
  Sc  Sc2  1  0.750000  0.121560  0.981336  1
  Sc  Sc3  1  0.750000  0.376804  0.481731  1
  Sc  Sc4  1  0.250000  0.920519  0.601893  1
  Sc  Sc5  1  0.250000  0.580329  0.103275  1
  Sc  Sc6  1  0.750000  0.079175  0.396384  1
  Sc  Sc7  1  0.750000  0.419731  0.896497  1
  Sc  Sc8  1  0.250000  0.660980  0.797934  1
  Sc  Sc9  1  0.250000  0.841971  0.299313  1
  Sc  Sc10  1  0.750000  0.342166  0.200864  1
  Sc  Sc11  1  0.750000  0.157250  0.701150  1
  Si  Si12  1  0.250000  0.013892  0.822166  1
  Si  Si13  1  0.250000  0.485740  0.322513  1
  Si  Si14  1  0.750000  0.985571  0.178175  1
  Si  Si15  1  0.750000  0.516092  0.678969  1
  Si  Si16  1  0.250000  0.249560  0.842657  1
  Si  Si17  1  0.250000  0.249405  0.341562  1
  Si  Si18  1  0.750000  0.750758  0.157888  1
  Si  Si19  1  0.750000  0.752153  0.657467  1
  Si  Si20  1  0.250000  0.191827  0.544152  1
  Si  Si21  1  0.250000  0.305589  0.045756  1
  Si  Si22  1  0.750000  0.806309  0.454407  1
  Si  Si23  1  0.750000  0.692636  0.954754  1
  Tc  Tc24  1  0.250000  0.391082  0.676174  1
  Ir  Ir25  1  0.250000  0.109936  0.175817  1
  Ir  Ir26  1  0.750000  0.610952  0.322798  1
  Ir  Ir27  1  0.750000  0.889266  0.824413  1
