# generated using pymatgen
data_Tm3Be2(PPd5)4
_symmetry_space_group_name_H-M   'P 1'
_cell_length_a   8.65345771
_cell_length_b   8.58052973
_cell_length_c   8.58052900
_cell_angle_alpha   60.56310599
_cell_angle_beta   59.71844505
_cell_angle_gamma   59.71845221
_symmetry_Int_Tables_number   1
_chemical_formula_structural   Tm3Be2(PPd5)4
_chemical_formula_sum   'Tm3 Be2 P4 Pd20'
_cell_volume   450.44271179
_cell_formula_units_Z   1
loop_
 _symmetry_equiv_pos_site_id
 _symmetry_equiv_pos_as_xyz
  1  'x, y, z'
loop_
 _atom_site_type_symbol
 _atom_site_label
 _atom_site_symmetry_multiplicity
 _atom_site_fract_x
 _atom_site_fract_y
 _atom_site_fract_z
 _atom_site_occupancy
  Tm  Tm0  1  0.250000  0.250000  0.250000  1
  Tm  Tm1  1  0.750000  0.750000  0.750000  1
  Tm  Tm2  1  0.000000  0.000000  0.000000  1
  Be  Be3  1  0.733454  0.266546  0.266546  1
  Be  Be4  1  0.266546  0.733454  0.733454  1
  P  P5  1  0.266351  0.733649  0.266351  1
  P  P6  1  0.733649  0.266351  0.733649  1
  P  P7  1  0.266351  0.266351  0.733649  1
  P  P8  1  0.733649  0.733649  0.266351  1
  Pd  Pd9  1  0.387186  0.381941  0.381941  1
  Pd  Pd10  1  0.612814  0.618059  0.618059  1
  Pd  Pd11  1  0.381941  0.387186  0.848934  1
  Pd  Pd12  1  0.381941  0.848934  0.387186  1
  Pd  Pd13  1  0.618059  0.612814  0.151066  1
  Pd  Pd14  1  0.618059  0.151066  0.612814  1
  Pd  Pd15  1  0.848934  0.381941  0.381941  1
  Pd  Pd16  1  0.151066  0.618059  0.618059  1
  Pd  Pd17  1  0.343849  0.000000  0.000000  1
  Pd  Pd18  1  0.656151  0.000000  0.000000  1
  Pd  Pd19  1  0.000000  0.343849  0.656151  1
  Pd  Pd20  1  0.000000  0.656151  0.343849  1
  Pd  Pd21  1  0.997179  0.343022  0.002821  1
  Pd  Pd22  1  0.656978  0.002821  0.343022  1
  Pd  Pd23  1  0.002821  0.656978  0.997179  1
  Pd  Pd24  1  0.343022  0.997179  0.656978  1
  Pd  Pd25  1  0.997179  0.002821  0.343022  1
  Pd  Pd26  1  0.002821  0.997179  0.656978  1
  Pd  Pd27  1  0.656978  0.343022  0.002821  1
  Pd  Pd28  1  0.343022  0.656978  0.997179  1
