# generated using pymatgen
data_K5(IrN)3
_symmetry_space_group_name_H-M   'P 1'
_cell_length_a   9.26796600
_cell_length_b   9.26796600
_cell_length_c   3.71540900
_cell_angle_alpha   90.00000000
_cell_angle_beta   90.00000000
_cell_angle_gamma   119.99999999
_symmetry_Int_Tables_number   1
_chemical_formula_structural   K5(IrN)3
_chemical_formula_sum   'K5 Ir3 N3'
_cell_volume   276.37968938
_cell_formula_units_Z   1
loop_
 _symmetry_equiv_pos_site_id
 _symmetry_equiv_pos_as_xyz
  1  'x, y, z'
loop_
 _atom_site_type_symbol
 _atom_site_label
 _atom_site_symmetry_multiplicity
 _atom_site_fract_x
 _atom_site_fract_y
 _atom_site_fract_z
 _atom_site_occupancy
  K  K0  1  0.736254  0.000000  0.500000  1
  K  K1  1  0.263747  0.263747  0.500000  1
  K  K2  1  0.666666  0.333333  0.500000  1
  K  K3  1  0.333334  0.666667  0.500000  1
  K  K4  1  0.000000  0.736254  0.500000  1
  Ir  Ir5  1  0.364313  0.000000  0.000000  1
  Ir  Ir6  1  0.000000  0.364313  0.000000  1
  Ir  Ir7  1  0.635687  0.635687  0.000000  1
  N  N8  1  0.364736  0.000000  0.500000  1
  N  N9  1  0.000000  0.364736  0.500000  1
  N  N10  1  0.635265  0.635264  0.500000  1
