# generated using pymatgen
data_Dy2Zr2ScGa4
_symmetry_space_group_name_H-M   'P 1'
_cell_length_a   7.21350300
_cell_length_b   7.57696200
_cell_length_c   14.43792000
_cell_angle_alpha   90.00000000
_cell_angle_beta   90.00000000
_cell_angle_gamma   90.00000000
_symmetry_Int_Tables_number   1
_chemical_formula_structural   Dy2Zr2ScGa4
_chemical_formula_sum   'Dy8 Zr8 Sc4 Ga16'
_cell_volume   789.12528103
_cell_formula_units_Z   4
loop_
 _symmetry_equiv_pos_site_id
 _symmetry_equiv_pos_as_xyz
  1  'x, y, z'
loop_
 _atom_site_type_symbol
 _atom_site_label
 _atom_site_symmetry_multiplicity
 _atom_site_fract_x
 _atom_site_fract_y
 _atom_site_fract_z
 _atom_site_occupancy
  Dy  Dy0  1  0.010189  0.175544  0.093831  1
  Dy  Dy1  1  0.989811  0.824456  0.906169  1
  Dy  Dy2  1  0.489811  0.675544  0.906169  1
  Dy  Dy3  1  0.989811  0.824456  0.593831  1
  Dy  Dy4  1  0.510189  0.324456  0.093831  1
  Dy  Dy5  1  0.010189  0.175544  0.406169  1
  Dy  Dy6  1  0.510189  0.324456  0.406169  1
  Dy  Dy7  1  0.489811  0.675544  0.593831  1
  Zr  Zr8  1  0.328205  0.175339  0.623543  1
  Zr  Zr9  1  0.671795  0.824661  0.376457  1
  Zr  Zr10  1  0.171795  0.675339  0.376457  1
  Zr  Zr11  1  0.671795  0.824661  0.123543  1
  Zr  Zr12  1  0.828205  0.324661  0.623543  1
  Zr  Zr13  1  0.328205  0.175339  0.876457  1
  Zr  Zr14  1  0.828205  0.324661  0.876457  1
  Zr  Zr15  1  0.171795  0.675339  0.123543  1
  Sc  Sc16  1  0.160787  0.505292  0.750000  1
  Sc  Sc17  1  0.839213  0.494708  0.250000  1
  Sc  Sc18  1  0.339213  0.005292  0.250000  1
  Sc  Sc19  1  0.660787  0.994708  0.750000  1
  Ga  Ga20  1  0.030952  0.119898  0.750000  1
  Ga  Ga21  1  0.969048  0.880102  0.250000  1
  Ga  Ga22  1  0.469048  0.619898  0.250000  1
  Ga  Ga23  1  0.530952  0.380102  0.750000  1
  Ga  Ga24  1  0.285625  0.872975  0.750000  1
  Ga  Ga25  1  0.714375  0.127025  0.250000  1
  Ga  Ga26  1  0.214375  0.372975  0.250000  1
  Ga  Ga27  1  0.785625  0.627025  0.750000  1
  Ga  Ga28  1  0.161296  0.461996  0.539910  1
  Ga  Ga29  1  0.838704  0.538004  0.460090  1
  Ga  Ga30  1  0.338704  0.961996  0.460090  1
  Ga  Ga31  1  0.838704  0.538004  0.039910  1
  Ga  Ga32  1  0.661296  0.038004  0.539910  1
  Ga  Ga33  1  0.161296  0.461996  0.960090  1
  Ga  Ga34  1  0.661296  0.038004  0.960090  1
  Ga  Ga35  1  0.338704  0.961996  0.039910  1
