# generated using pymatgen
data_CePu7(Si3Pt)4
_symmetry_space_group_name_H-M   'P 1'
_cell_length_a   8.35870800
_cell_length_b   8.37667661
_cell_length_c   8.04065600
_cell_angle_alpha   90.00000000
_cell_angle_beta   90.00000000
_cell_angle_gamma   119.92905888
_symmetry_Int_Tables_number   1
_chemical_formula_structural   CePu7(Si3Pt)4
_chemical_formula_sum   'Ce1 Pu7 Si12 Pt4'
_cell_volume   487.91371845
_cell_formula_units_Z   1
loop_
 _symmetry_equiv_pos_site_id
 _symmetry_equiv_pos_as_xyz
  1  'x, y, z'
loop_
 _atom_site_type_symbol
 _atom_site_label
 _atom_site_symmetry_multiplicity
 _atom_site_fract_x
 _atom_site_fract_y
 _atom_site_fract_z
 _atom_site_occupancy
  Ce  Ce0  1  0.504631  0.009260  0.250000  1
  Pu  Pu1  1  0.495645  0.991291  0.750000  1
  Pu  Pu2  1  0.993583  0.496220  0.250000  1
  Pu  Pu3  1  0.006673  0.503763  0.750000  1
  Pu  Pu4  1  0.502638  0.496220  0.250000  1
  Pu  Pu5  1  0.497089  0.503763  0.750000  1
  Pu  Pu6  1  0.000462  0.000925  0.250000  1
  Pu  Pu7  1  0.999412  0.998825  0.750000  1
  Si  Si8  1  0.165457  0.330912  0.999072  1
  Si  Si9  1  0.834602  0.669205  0.000734  1
  Si  Si10  1  0.672199  0.835479  0.998931  1
  Si  Si11  1  0.834602  0.669205  0.499266  1
  Si  Si12  1  0.327534  0.164367  0.996777  1
  Si  Si13  1  0.165457  0.330912  0.500928  1
  Si  Si14  1  0.163281  0.835479  0.998931  1
  Si  Si15  1  0.327534  0.164367  0.503223  1
  Si  Si16  1  0.836832  0.164367  0.996777  1
  Si  Si17  1  0.672199  0.835479  0.501069  1
  Si  Si18  1  0.836832  0.164367  0.503223  1
  Si  Si19  1  0.163281  0.835479  0.501069  1
  Pt  Pt20  1  0.334546  0.669094  0.012001  1
  Pt  Pt21  1  0.665483  0.330963  0.989207  1
  Pt  Pt22  1  0.665483  0.330963  0.510793  1
  Pt  Pt23  1  0.334546  0.669094  0.487999  1
