# generated using pymatgen
data_ErLu3TcB12Rh
_symmetry_space_group_name_H-M   'P 1'
_cell_length_a   3.62164600
_cell_length_b   9.04577712
_cell_length_c   11.43009800
_cell_angle_alpha   90.33284695
_cell_angle_beta   90.00000000
_cell_angle_gamma   90.00000000
_symmetry_Int_Tables_number   1
_chemical_formula_structural   ErLu3TcB12Rh
_chemical_formula_sum   'Er2 Lu6 Tc2 B24 Rh2'
_cell_volume   374.45057907
_cell_formula_units_Z   2
loop_
 _symmetry_equiv_pos_site_id
 _symmetry_equiv_pos_as_xyz
  1  'x, y, z'
loop_
 _atom_site_type_symbol
 _atom_site_label
 _atom_site_symmetry_multiplicity
 _atom_site_fract_x
 _atom_site_fract_y
 _atom_site_fract_z
 _atom_site_occupancy
  Er  Er0  1  0.500000  0.317917  0.411072  1
  Er  Er1  1  0.500000  0.682083  0.588928  1
  Lu  Lu2  1  0.500000  0.173943  0.917597  1
  Lu  Lu3  1  0.500000  0.826057  0.082403  1
  Lu  Lu4  1  0.500000  0.441806  0.126248  1
  Lu  Lu5  1  0.500000  0.558194  0.873752  1
  Lu  Lu6  1  0.500000  0.053719  0.628588  1
  Lu  Lu7  1  0.500000  0.946281  0.371412  1
  Tc  Tc8  1  0.500000  0.138917  0.179569  1
  Tc  Tc9  1  0.500000  0.861083  0.820431  1
  B  B10  1  0.000000  0.104783  0.471913  1
  B  B11  1  0.000000  0.895217  0.528087  1
  B  B12  1  0.000000  0.394998  0.970854  1
  B  B13  1  0.000000  0.605002  0.029146  1
  B  B14  1  0.000000  0.131473  0.315395  1
  B  B15  1  0.000000  0.868527  0.684605  1
  B  B16  1  0.000000  0.367667  0.817710  1
  B  B17  1  0.000000  0.632333  0.182290  1
  B  B18  1  0.000000  0.052855  0.066632  1
  B  B19  1  0.000000  0.947145  0.933368  1
  B  B20  1  0.000000  0.445319  0.565763  1
  B  B21  1  0.000000  0.554681  0.434237  1
  B  B22  1  0.000000  0.482954  0.287082  1
  B  B23  1  0.000000  0.517046  0.712918  1
  B  B24  1  0.000000  0.018066  0.787139  1
  B  B25  1  0.000000  0.981934  0.212861  1
  B  B26  1  0.000000  0.249248  0.080306  1
  B  B27  1  0.000000  0.750752  0.919694  1
  B  B28  1  0.000000  0.249436  0.578954  1
  B  B29  1  0.000000  0.750564  0.421046  1
  B  B30  1  0.000000  0.293634  0.234778  1
  B  B31  1  0.000000  0.706366  0.765222  1
  B  B32  1  0.000000  0.207299  0.735905  1
  B  B33  1  0.000000  0.792701  0.264095  1
  Rh  Rh34  1  0.500000  0.361092  0.679594  1
  Rh  Rh35  1  0.500000  0.638908  0.320406  1
