# generated using pymatgen
data_MnV(GaBr4)4
_symmetry_space_group_name_H-M   'P 1'
_cell_length_a   10.44732568
_cell_length_b   10.44732677
_cell_length_c   12.59688500
_cell_angle_alpha   55.11772434
_cell_angle_beta   55.11772014
_cell_angle_gamma   49.96292670
_symmetry_Int_Tables_number   1
_chemical_formula_structural   MnV(GaBr4)4
_chemical_formula_sum   'Mn1 V1 Ga4 Br16'
_cell_volume   816.71206491
_cell_formula_units_Z   1
loop_
 _symmetry_equiv_pos_site_id
 _symmetry_equiv_pos_as_xyz
  1  'x, y, z'
loop_
 _atom_site_type_symbol
 _atom_site_label
 _atom_site_symmetry_multiplicity
 _atom_site_fract_x
 _atom_site_fract_y
 _atom_site_fract_z
 _atom_site_occupancy
  Mn  Mn0  1  0.997551  0.002449  0.750000  1
  V  V1  1  0.004573  0.995427  0.250000  1
  Ga  Ga2  1  0.675668  0.159301  0.033193  1
  Ga  Ga3  1  0.327167  0.841229  0.969612  1
  Ga  Ga4  1  0.840699  0.324332  0.466807  1
  Ga  Ga5  1  0.158771  0.672833  0.530388  1
  Br  Br6  1  0.871424  0.833409  0.509084  1
  Br  Br7  1  0.127738  0.171269  0.486030  1
  Br  Br8  1  0.692242  0.620244  0.440166  1
  Br  Br9  1  0.619932  0.693818  0.950720  1
  Br  Br10  1  0.828731  0.872262  0.013970  1
  Br  Br11  1  0.859468  0.303917  0.277014  1
  Br  Br12  1  0.148157  0.719510  0.184830  1
  Br  Br13  1  0.280490  0.851843  0.315170  1
  Br  Br14  1  0.144562  0.687556  0.720733  1
  Br  Br15  1  0.306182  0.380068  0.549280  1
  Br  Br16  1  0.696083  0.140532  0.222986  1
  Br  Br17  1  0.166591  0.128576  0.990916  1
  Br  Br18  1  0.379756  0.307758  0.059834  1
  Br  Br19  1  0.312444  0.855438  0.779267  1
  Br  Br20  1  0.713548  0.151773  0.681838  1
  Br  Br21  1  0.848227  0.286452  0.818162  1
