# generated using pymatgen
data_Tm(TaRe6)4
_symmetry_space_group_name_H-M   'P 1'
_cell_length_a   8.43903969
_cell_length_b   8.43903982
_cell_length_c   8.43904000
_cell_angle_alpha   109.47121866
_cell_angle_beta   109.47121899
_cell_angle_gamma   109.47122535
_symmetry_Int_Tables_number   1
_chemical_formula_structural   Tm(TaRe6)4
_chemical_formula_sum   'Tm1 Ta4 Re24'
_cell_volume   462.65495141
_cell_formula_units_Z   1
loop_
 _symmetry_equiv_pos_site_id
 _symmetry_equiv_pos_as_xyz
  1  'x, y, z'
loop_
 _atom_site_type_symbol
 _atom_site_label
 _atom_site_symmetry_multiplicity
 _atom_site_fract_x
 _atom_site_fract_y
 _atom_site_fract_z
 _atom_site_occupancy
  Tm  Tm0  1  0.000000  0.000000  0.000000  1
  Ta  Ta1  1  0.629697  0.000000  0.000000  1
  Ta  Ta2  1  0.000000  0.629697  0.000000  1
  Ta  Ta3  1  0.000000  0.000000  0.629697  1
  Ta  Ta4  1  0.370303  0.370303  0.370303  1
  Re  Re5  1  0.399760  0.681958  0.000000  1
  Re  Re6  1  0.717801  0.318042  0.318042  1
  Re  Re7  1  0.399760  0.000000  0.681958  1
  Re  Re8  1  0.681958  0.399760  0.000000  1
  Re  Re9  1  0.000000  0.399760  0.681958  1
  Re  Re10  1  0.318042  0.717801  0.318042  1
  Re  Re11  1  0.318042  0.318042  0.717801  1
  Re  Re12  1  0.000000  0.681958  0.399760  1
  Re  Re13  1  0.681958  0.000000  0.399760  1
  Re  Re14  1  0.600240  0.600240  0.282199  1
  Re  Re15  1  0.282199  0.600240  0.600240  1
  Re  Re16  1  0.600240  0.282199  0.600240  1
  Re  Re17  1  0.377414  0.195178  0.000000  1
  Re  Re18  1  0.182236  0.804822  0.804822  1
  Re  Re19  1  0.377414  0.000000  0.195178  1
  Re  Re20  1  0.195178  0.377414  0.000000  1
  Re  Re21  1  0.000000  0.377414  0.195178  1
  Re  Re22  1  0.804822  0.182236  0.804822  1
  Re  Re23  1  0.804822  0.804822  0.182236  1
  Re  Re24  1  0.000000  0.195178  0.377414  1
  Re  Re25  1  0.195178  0.000000  0.377414  1
  Re  Re26  1  0.622586  0.622586  0.817764  1
  Re  Re27  1  0.817764  0.622586  0.622586  1
  Re  Re28  1  0.622586  0.817764  0.622586  1
