# generated using pymatgen
data_Tb3Sm5Sc12Si15P
_symmetry_space_group_name_H-M   'P 1'
_cell_length_a   7.14859878
_cell_length_b   7.41963210
_cell_length_c   14.05702201
_cell_angle_alpha   89.95747710
_cell_angle_beta   90.06173658
_cell_angle_gamma   90.25414799
_symmetry_Int_Tables_number   1
_chemical_formula_structural   Tb3Sm5Sc12Si15P
_chemical_formula_sum   'Tb3 Sm5 Sc12 Si15 P1'
_cell_volume   745.57609608
_cell_formula_units_Z   1
loop_
 _symmetry_equiv_pos_site_id
 _symmetry_equiv_pos_as_xyz
  1  'x, y, z'
loop_
 _atom_site_type_symbol
 _atom_site_label
 _atom_site_symmetry_multiplicity
 _atom_site_fract_x
 _atom_site_fract_y
 _atom_site_fract_z
 _atom_site_occupancy
  Tb  Tb0  1  0.010864  0.174945  0.402655  1
  Tb  Tb1  1  0.511546  0.324903  0.403076  1
  Tb  Tb2  1  0.490125  0.673668  0.595683  1
  Sm  Sm3  1  0.010144  0.173453  0.097582  1
  Sm  Sm4  1  0.991778  0.829075  0.899274  1
  Sm  Sm5  1  0.490597  0.672267  0.904147  1
  Sm  Sm6  1  0.991232  0.828675  0.598985  1
  Sm  Sm7  1  0.511465  0.326529  0.097219  1
  Sc  Sc8  1  0.159803  0.500933  0.749537  1
  Sc  Sc9  1  0.838799  0.498781  0.250690  1
  Sc  Sc10  1  0.339417  0.001168  0.250821  1
  Sc  Sc11  1  0.662082  0.000231  0.749402  1
  Sc  Sc12  1  0.326529  0.172428  0.627364  1
  Sc  Sc13  1  0.668343  0.823875  0.375679  1
  Sc  Sc14  1  0.168663  0.676129  0.375772  1
  Sc  Sc15  1  0.668946  0.824657  0.125762  1
  Sc  Sc16  1  0.831811  0.323928  0.625877  1
  Sc  Sc17  1  0.326412  0.171319  0.871715  1
  Sc  Sc18  1  0.831827  0.324154  0.873014  1
  Sc  Sc19  1  0.168389  0.676601  0.125643  1
  Si  Si20  1  0.965279  0.880348  0.251125  1
  Si  Si21  1  0.465653  0.618418  0.250920  1
  Si  Si22  1  0.531605  0.379181  0.749087  1
  Si  Si23  1  0.300523  0.864481  0.748869  1
  Si  Si24  1  0.713177  0.123531  0.251821  1
  Si  Si25  1  0.213683  0.376620  0.251773  1
  Si  Si26  1  0.786732  0.624604  0.748826  1
  Si  Si27  1  0.156601  0.461757  0.539773  1
  Si  Si28  1  0.843020  0.534597  0.460612  1
  Si  Si29  1  0.342601  0.965631  0.460459  1
  Si  Si30  1  0.845362  0.537768  0.038699  1
  Si  Si31  1  0.655306  0.037652  0.540090  1
  Si  Si32  1  0.154294  0.462432  0.959775  1
  Si  Si33  1  0.656302  0.037774  0.959566  1
  Si  Si34  1  0.343611  0.964179  0.039235  1
  P  P35  1  0.027480  0.133305  0.749472  1
