# generated using pymatgen
data_Y2Si2Pt3
_symmetry_space_group_name_H-M   'P 1'
_cell_length_a   4.19732900
_cell_length_b   6.70765800
_cell_length_c   8.93171100
_cell_angle_alpha   90.00000000
_cell_angle_beta   90.00000000
_cell_angle_gamma   90.00000000
_symmetry_Int_Tables_number   1
_chemical_formula_structural   Y2Si2Pt3
_chemical_formula_sum   'Y4 Si4 Pt6'
_cell_volume   251.46560161
_cell_formula_units_Z   2
loop_
 _symmetry_equiv_pos_site_id
 _symmetry_equiv_pos_as_xyz
  1  'x, y, z'
loop_
 _atom_site_type_symbol
 _atom_site_label
 _atom_site_symmetry_multiplicity
 _atom_site_fract_x
 _atom_site_fract_y
 _atom_site_fract_z
 _atom_site_occupancy
  Y  Y0  1  0.000000  0.887874  0.329467  1
  Y  Y1  1  0.000000  0.112126  0.670533  1
  Y  Y2  1  0.000000  0.387874  0.170533  1
  Y  Y3  1  0.000000  0.612126  0.829467  1
  Si  Si4  1  0.500000  0.574682  0.357650  1
  Si  Si5  1  0.500000  0.425318  0.642350  1
  Si  Si6  1  0.500000  0.074682  0.142350  1
  Si  Si7  1  0.500000  0.925318  0.857650  1
  Pt  Pt8  1  0.500000  0.695943  0.091258  1
  Pt  Pt9  1  0.500000  0.304057  0.908742  1
  Pt  Pt10  1  0.500000  0.195943  0.408742  1
  Pt  Pt11  1  0.500000  0.804057  0.591258  1
  Pt  Pt12  1  0.000000  0.500000  0.500000  1
  Pt  Pt13  1  0.000000  0.000000  0.000000  1
