# generated using pymatgen
data_TbEr11InCo4Ir
_symmetry_space_group_name_H-M   'P 1'
_cell_length_a   8.23698478
_cell_length_b   8.23698382
_cell_length_c   8.23541655
_cell_angle_alpha   111.19616958
_cell_angle_beta   110.73699353
_cell_angle_gamma   106.52867053
_symmetry_Int_Tables_number   1
_chemical_formula_structural   TbEr11InCo4Ir
_chemical_formula_sum   'Tb1 Er11 In1 Co4 Ir1'
_cell_volume   429.23231885
_cell_formula_units_Z   1
loop_
 _symmetry_equiv_pos_site_id
 _symmetry_equiv_pos_as_xyz
  1  'x, y, z'
loop_
 _atom_site_type_symbol
 _atom_site_label
 _atom_site_symmetry_multiplicity
 _atom_site_fract_x
 _atom_site_fract_y
 _atom_site_fract_z
 _atom_site_occupancy
  Tb  Tb0  1  0.184549  0.287475  0.472024  1
  Er  Er1  1  0.816475  0.713922  0.530396  1
  Er  Er2  1  0.183777  0.714211  0.897987  1
  Er  Er3  1  0.814865  0.286945  0.101809  1
  Er  Er4  1  0.315113  0.620850  0.305323  1
  Er  Er5  1  0.685911  0.379735  0.694992  1
  Er  Er6  1  0.315257  0.009081  0.694992  1
  Er  Er7  1  0.684474  0.990212  0.305323  1
  Er  Er8  1  0.411838  0.216472  0.194029  1
  Er  Er9  1  0.590568  0.784601  0.806661  1
  Er  Er10  1  0.022060  0.216093  0.806661  1
  Er  Er11  1  0.977557  0.782191  0.194029  1
  In  In12  1  0.499699  0.500517  0.000216  1
  Co  Co13  1  0.110621  0.612763  0.498993  1
  Co  Co14  1  0.886230  0.388372  0.498993  1
  Co  Co15  1  0.378086  0.998883  0.376969  1
  Co  Co16  1  0.622246  0.000477  0.622723  1
  Ir  Ir17  1  0.000678  0.997200  0.997878  1
