# generated using pymatgen
data_TbY4(FeB3)2
_symmetry_space_group_name_H-M   'P 1'
_cell_length_a   5.42436748
_cell_length_b   5.42436634
_cell_length_c   8.29975665
_cell_angle_alpha   70.92662676
_cell_angle_beta   70.92663014
_cell_angle_gamma   59.99999351
_symmetry_Int_Tables_number   1
_chemical_formula_structural   TbY4(FeB3)2
_chemical_formula_sum   'Tb1 Y4 Fe2 B6'
_cell_volume   195.85820135
_cell_formula_units_Z   1
loop_
 _symmetry_equiv_pos_site_id
 _symmetry_equiv_pos_as_xyz
  1  'x, y, z'
loop_
 _atom_site_type_symbol
 _atom_site_label
 _atom_site_symmetry_multiplicity
 _atom_site_fract_x
 _atom_site_fract_y
 _atom_site_fract_z
 _atom_site_occupancy
  Tb  Tb0  1  0.000000  0.000000  0.000000  1
  Y  Y1  1  0.748820  0.748820  0.753541  1
  Y  Y2  1  0.251180  0.251180  0.246459  1
  Y  Y3  1  0.583475  0.583475  0.249577  1
  Y  Y4  1  0.416525  0.416525  0.750423  1
  Fe  Fe5  1  0.881572  0.881572  0.355283  1
  Fe  Fe6  1  0.118428  0.118428  0.644717  1
  B  B7  1  0.500000  0.168072  0.500000  1
  B  B8  1  0.831928  0.500000  0.500000  1
  B  B9  1  0.168072  0.831928  0.500000  1
  B  B10  1  0.168072  0.500000  0.500000  1
  B  B11  1  0.831928  0.168072  0.500000  1
  B  B12  1  0.500000  0.831928  0.500000  1
