# generated using pymatgen
data_La20Ge8Os3Pt
_symmetry_space_group_name_H-M   'P 1'
_cell_length_a   8.17624518
_cell_length_b   9.03190000
_cell_length_c   12.58658900
_cell_angle_alpha   90.00000000
_cell_angle_beta   89.83925267
_cell_angle_gamma   90.00000000
_symmetry_Int_Tables_number   1
_chemical_formula_structural   La20Ge8Os3Pt
_chemical_formula_sum   'La20 Ge8 Os3 Pt1'
_cell_volume   929.47854265
_cell_formula_units_Z   1
loop_
 _symmetry_equiv_pos_site_id
 _symmetry_equiv_pos_as_xyz
  1  'x, y, z'
loop_
 _atom_site_type_symbol
 _atom_site_label
 _atom_site_symmetry_multiplicity
 _atom_site_fract_x
 _atom_site_fract_y
 _atom_site_fract_z
 _atom_site_occupancy
  La  La0  1  0.678238  0.466970  0.072498  1
  La  La1  1  0.180448  0.531627  0.424138  1
  La  La2  1  0.322269  0.966192  0.927578  1
  La  La3  1  0.817816  0.040363  0.575002  1
  La  La4  1  0.322269  0.533808  0.927578  1
  La  La5  1  0.817816  0.459637  0.575002  1
  La  La6  1  0.678238  0.033030  0.072498  1
  La  La7  1  0.180448  0.968373  0.424138  1
  La  La8  1  0.955000  0.750000  0.998390  1
  La  La9  1  0.454915  0.250000  0.500553  1
  La  La10  1  0.046678  0.250000  0.000088  1
  La  La11  1  0.540839  0.750000  0.500934  1
  La  La12  1  0.355583  0.750000  0.202283  1
  La  La13  1  0.857314  0.250000  0.298334  1
  La  La14  1  0.641274  0.250000  0.799060  1
  La  La15  1  0.151517  0.750000  0.706697  1
  La  La16  1  0.828122  0.750000  0.280281  1
  La  La17  1  0.331008  0.250000  0.213519  1
  La  La18  1  0.167599  0.250000  0.713731  1
  La  La19  1  0.668421  0.750000  0.787459  1
  Ge  Ge20  1  0.560505  0.495142  0.329290  1
  Ge  Ge21  1  0.058986  0.505684  0.171076  1
  Ge  Ge22  1  0.440317  0.994293  0.671691  1
  Ge  Ge23  1  0.940083  0.005384  0.827988  1
  Ge  Ge24  1  0.440317  0.505707  0.671691  1
  Ge  Ge25  1  0.940083  0.494616  0.827988  1
  Ge  Ge26  1  0.560505  0.004858  0.329290  1
  Ge  Ge27  1  0.058986  0.994316  0.171076  1
  Os  Os28  1  0.583347  0.750000  0.017886  1
  Os  Os29  1  0.080204  0.250000  0.483190  1
  Os  Os30  1  0.417930  0.250000  0.982452  1
  Pt  Pt31  1  0.922925  0.750000  0.516625  1
