# generated using pymatgen
data_DyErRuC2
_symmetry_space_group_name_H-M   'P 1'
_cell_length_a   5.09194700
_cell_length_b   6.45190800
_cell_length_c   9.72174800
_cell_angle_alpha   90.00000000
_cell_angle_beta   90.00000000
_cell_angle_gamma   90.00000000
_symmetry_Int_Tables_number   1
_chemical_formula_structural   DyErRuC2
_chemical_formula_sum   'Dy4 Er4 Ru4 C8'
_cell_volume   319.38638589
_cell_formula_units_Z   4
loop_
 _symmetry_equiv_pos_site_id
 _symmetry_equiv_pos_as_xyz
  1  'x, y, z'
loop_
 _atom_site_type_symbol
 _atom_site_label
 _atom_site_symmetry_multiplicity
 _atom_site_fract_x
 _atom_site_fract_y
 _atom_site_fract_z
 _atom_site_occupancy
  Dy  Dy0  1  0.250000  0.472119  0.215515  1
  Dy  Dy1  1  0.250000  0.972119  0.284485  1
  Dy  Dy2  1  0.750000  0.527881  0.784485  1
  Dy  Dy3  1  0.750000  0.027881  0.715515  1
  Er  Er4  1  0.250000  0.824404  0.944433  1
  Er  Er5  1  0.250000  0.324404  0.555567  1
  Er  Er6  1  0.750000  0.175596  0.055567  1
  Er  Er7  1  0.750000  0.675596  0.444433  1
  Ru  Ru8  1  0.250000  0.280293  0.865888  1
  Ru  Ru9  1  0.250000  0.780293  0.634112  1
  Ru  Ru10  1  0.750000  0.719707  0.134112  1
  Ru  Ru11  1  0.750000  0.219707  0.365888  1
  C  C12  1  0.250000  0.045411  0.742225  1
  C  C13  1  0.250000  0.545411  0.757775  1
  C  C14  1  0.750000  0.954589  0.257775  1
  C  C15  1  0.750000  0.454589  0.242225  1
  C  C16  1  0.250000  0.671383  0.446195  1
  C  C17  1  0.250000  0.171383  0.053805  1
  C  C18  1  0.750000  0.328617  0.553805  1
  C  C19  1  0.750000  0.828617  0.946195  1
