# generated using pymatgen
data_Zr10ZnGaSn6
_symmetry_space_group_name_H-M   'P 1'
_cell_length_a   8.73291200
_cell_length_b   8.73291231
_cell_length_c   5.88922900
_cell_angle_alpha   90.00000000
_cell_angle_beta   90.00000000
_cell_angle_gamma   119.99999882
_symmetry_Int_Tables_number   1
_chemical_formula_structural   Zr10ZnGaSn6
_chemical_formula_sum   'Zr10 Zn1 Ga1 Sn6'
_cell_volume   388.96207832
_cell_formula_units_Z   1
loop_
 _symmetry_equiv_pos_site_id
 _symmetry_equiv_pos_as_xyz
  1  'x, y, z'
loop_
 _atom_site_type_symbol
 _atom_site_label
 _atom_site_symmetry_multiplicity
 _atom_site_fract_x
 _atom_site_fract_y
 _atom_site_fract_z
 _atom_site_occupancy
  Zr  Zr0  1  0.666667  0.333333  0.000000  1
  Zr  Zr1  1  0.333333  0.666667  0.000000  1
  Zr  Zr2  1  0.333333  0.666667  0.500000  1
  Zr  Zr3  1  0.666667  0.333333  0.500000  1
  Zr  Zr4  1  0.732082  0.732082  0.751427  1
  Zr  Zr5  1  0.267918  0.000000  0.751427  1
  Zr  Zr6  1  0.000000  0.267918  0.751427  1
  Zr  Zr7  1  0.267918  0.267918  0.248573  1
  Zr  Zr8  1  0.732082  0.000000  0.248573  1
  Zr  Zr9  1  0.000000  0.732082  0.248573  1
  Zn  Zn10  1  0.000000  0.000000  0.500000  1
  Ga  Ga11  1  0.000000  0.000000  0.000000  1
  Sn  Sn12  1  0.385151  0.385151  0.750209  1
  Sn  Sn13  1  0.614849  0.000000  0.750209  1
  Sn  Sn14  1  0.000000  0.614849  0.750209  1
  Sn  Sn15  1  0.614849  0.614849  0.249791  1
  Sn  Sn16  1  0.385151  0.000000  0.249791  1
  Sn  Sn17  1  0.000000  0.385151  0.249791  1
