# generated using pymatgen
data_ErSc(Si7Ir3)2
_symmetry_space_group_name_H-M   'P 1'
_cell_length_a   8.01753241
_cell_length_b   8.01753239
_cell_length_c   8.01753226
_cell_angle_alpha   56.49891448
_cell_angle_beta   56.49891336
_cell_angle_gamma   56.49891508
_symmetry_Int_Tables_number   1
_chemical_formula_structural   ErSc(Si7Ir3)2
_chemical_formula_sum   'Er1 Sc1 Si14 Ir6'
_cell_volume   334.93386885
_cell_formula_units_Z   1
loop_
 _symmetry_equiv_pos_site_id
 _symmetry_equiv_pos_as_xyz
  1  'x, y, z'
loop_
 _atom_site_type_symbol
 _atom_site_label
 _atom_site_symmetry_multiplicity
 _atom_site_fract_x
 _atom_site_fract_y
 _atom_site_fract_z
 _atom_site_occupancy
  Er  Er0  1  0.000000  0.000000  0.000000  1
  Sc  Sc1  1  0.500000  0.500000  0.500000  1
  Si  Si2  1  0.750096  0.750096  0.750096  1
  Si  Si3  1  0.249904  0.249904  0.249904  1
  Si  Si4  1  0.849933  0.065261  0.671789  1
  Si  Si5  1  0.671789  0.849933  0.065261  1
  Si  Si6  1  0.065261  0.671789  0.849933  1
  Si  Si7  1  0.648969  0.826976  0.436177  1
  Si  Si8  1  0.436177  0.648969  0.826976  1
  Si  Si9  1  0.826976  0.436177  0.648969  1
  Si  Si10  1  0.173024  0.563823  0.351031  1
  Si  Si11  1  0.563823  0.351031  0.173024  1
  Si  Si12  1  0.351031  0.173024  0.563823  1
  Si  Si13  1  0.934739  0.328211  0.150067  1
  Si  Si14  1  0.328211  0.150067  0.934739  1
  Si  Si15  1  0.150067  0.934739  0.328211  1
  Ir  Ir16  1  0.073367  0.429136  0.748425  1
  Ir  Ir17  1  0.251575  0.926633  0.570864  1
  Ir  Ir18  1  0.570864  0.251575  0.926633  1
  Ir  Ir19  1  0.926633  0.570864  0.251575  1
  Ir  Ir20  1  0.429136  0.748425  0.073367  1
  Ir  Ir21  1  0.748425  0.073367  0.429136  1
