# generated using pymatgen
data_Y3Ho13(TmIr3)4
_symmetry_space_group_name_H-M   'P 1'
_cell_length_a   10.84336717
_cell_length_b   10.84181005
_cell_length_c   6.33991408
_cell_angle_alpha   89.99631279
_cell_angle_beta   90.01783369
_cell_angle_gamma   89.99022428
_symmetry_Int_Tables_number   1
_chemical_formula_structural   Y3Ho13(TmIr3)4
_chemical_formula_sum   'Y3 Ho13 Tm4 Ir12'
_cell_volume   745.33120051
_cell_formula_units_Z   1
loop_
 _symmetry_equiv_pos_site_id
 _symmetry_equiv_pos_as_xyz
  1  'x, y, z'
loop_
 _atom_site_type_symbol
 _atom_site_label
 _atom_site_symmetry_multiplicity
 _atom_site_fract_x
 _atom_site_fract_y
 _atom_site_fract_z
 _atom_site_occupancy
  Y  Y0  1  0.290461  0.087791  0.377008  1
  Y  Y1  1  0.290534  0.912265  0.877030  1
  Y  Y2  1  0.709520  0.087741  0.876931  1
  Ho  Ho3  1  0.709075  0.912289  0.377378  1
  Ho  Ho4  1  0.587672  0.790784  0.877264  1
  Ho  Ho5  1  0.587622  0.209148  0.377329  1
  Ho  Ho6  1  0.412471  0.790763  0.377298  1
  Ho  Ho7  1  0.412362  0.209203  0.877319  1
  Ho  Ho8  1  0.209039  0.412434  0.622635  1
  Ho  Ho9  1  0.209049  0.587577  0.122632  1
  Ho  Ho10  1  0.790944  0.412432  0.122670  1
  Ho  Ho11  1  0.790954  0.587589  0.622630  1
  Ho  Ho12  1  0.912449  0.709101  0.122619  1
  Ho  Ho13  1  0.912551  0.291063  0.622543  1
  Ho  Ho14  1  0.087487  0.708965  0.622564  1
  Ho  Ho15  1  0.087471  0.291029  0.122555  1
  Tm  Tm16  1  0.999880  0.999942  0.500087  1
  Tm  Tm17  1  0.999991  0.999977  0.000129  1
  Tm  Tm18  1  0.500025  0.500014  0.000013  1
  Tm  Tm19  1  0.499997  0.500000  0.499965  1
  Ir  Ir20  1  0.847658  0.152729  0.250806  1
  Ir  Ir21  1  0.847547  0.847099  0.749806  1
  Ir  Ir22  1  0.152111  0.153015  0.750668  1
  Ir  Ir23  1  0.152134  0.846962  0.250651  1
  Ir  Ir24  1  0.652533  0.347867  0.749765  1
  Ir  Ir25  1  0.652609  0.652561  0.250012  1
  Ir  Ir26  1  0.347494  0.347890  0.249765  1
  Ir  Ir27  1  0.347503  0.652128  0.749770  1
  Ir  Ir28  1  0.500410  0.999829  0.122843  1
  Ir  Ir29  1  0.500463  0.999801  0.621886  1
  Ir  Ir30  1  0.999992  0.499993  0.877704  1
  Ir  Ir31  1  0.999992  0.500019  0.377724  1
