# generated using pymatgen
data_Ac4Yb5ErSn8
_symmetry_space_group_name_H-M   'P 1'
_cell_length_a   8.17649800
_cell_length_b   8.70190618
_cell_length_c   16.41915700
_cell_angle_alpha   90.11048427
_cell_angle_beta   90.00000000
_cell_angle_gamma   90.00000000
_symmetry_Int_Tables_number   1
_chemical_formula_structural   Ac4Yb5ErSn8
_chemical_formula_sum   'Ac8 Yb10 Er2 Sn16'
_cell_volume   1168.23921281
_cell_formula_units_Z   2
loop_
 _symmetry_equiv_pos_site_id
 _symmetry_equiv_pos_as_xyz
  1  'x, y, z'
loop_
 _atom_site_type_symbol
 _atom_site_label
 _atom_site_symmetry_multiplicity
 _atom_site_fract_x
 _atom_site_fract_y
 _atom_site_fract_z
 _atom_site_occupancy
  Ac  Ac0  1  0.496000  0.318936  0.904213  1
  Ac  Ac1  1  0.996000  0.181064  0.595787  1
  Ac  Ac2  1  0.504218  0.684231  0.404333  1
  Ac  Ac3  1  0.004218  0.815769  0.095667  1
  Ac  Ac4  1  0.505430  0.683052  0.095600  1
  Ac  Ac5  1  0.005430  0.816948  0.404400  1
  Ac  Ac6  1  0.494925  0.316848  0.595018  1
  Ac  Ac7  1  0.994925  0.183152  0.904982  1
  Yb  Yb8  1  0.667455  0.170545  0.376297  1
  Yb  Yb9  1  0.167455  0.329455  0.123703  1
  Yb  Yb10  1  0.668441  0.170869  0.123758  1
  Yb  Yb11  1  0.168441  0.329131  0.376242  1
  Yb  Yb12  1  0.331587  0.829390  0.623736  1
  Yb  Yb13  1  0.831587  0.670610  0.876264  1
  Yb  Yb14  1  0.164166  0.504331  0.750071  1
  Yb  Yb15  1  0.664166  0.995669  0.749929  1
  Yb  Yb16  1  0.837957  0.493413  0.250439  1
  Yb  Yb17  1  0.337957  0.006587  0.249561  1
  Er  Er18  1  0.331132  0.829043  0.874634  1
  Er  Er19  1  0.831132  0.670957  0.625366  1
  Sn  Sn20  1  0.330711  0.035361  0.036236  1
  Sn  Sn21  1  0.830711  0.464639  0.463764  1
  Sn  Sn22  1  0.671391  0.958559  0.540464  1
  Sn  Sn23  1  0.171391  0.541441  0.959536  1
  Sn  Sn24  1  0.661541  0.960566  0.958406  1
  Sn  Sn25  1  0.161541  0.539434  0.541594  1
  Sn  Sn26  1  0.332693  0.037467  0.461336  1
  Sn  Sn27  1  0.832693  0.462533  0.038664  1
  Sn  Sn28  1  0.535089  0.616525  0.748064  1
  Sn  Sn29  1  0.035089  0.883475  0.751936  1
  Sn  Sn30  1  0.465868  0.391161  0.249703  1
  Sn  Sn31  1  0.965868  0.108839  0.250297  1
  Sn  Sn32  1  0.289305  0.131038  0.751036  1
  Sn  Sn33  1  0.789305  0.368962  0.748964  1
  Sn  Sn34  1  0.712090  0.865380  0.249962  1
  Sn  Sn35  1  0.212090  0.634620  0.250038  1
