# generated using pymatgen
data_La17Tm3(SnSb)8
_symmetry_space_group_name_H-M   'P 1'
_cell_length_a   8.49059200
_cell_length_b   8.54511602
_cell_length_c   16.20867200
_cell_angle_alpha   90.00000000
_cell_angle_beta   90.00000000
_cell_angle_gamma   90.00389566
_symmetry_Int_Tables_number   1
_chemical_formula_structural   La17Tm3(SnSb)8
_chemical_formula_sum   'La17 Tm3 Sn8 Sb8'
_cell_volume   1175.98929592
_cell_formula_units_Z   1
loop_
 _symmetry_equiv_pos_site_id
 _symmetry_equiv_pos_as_xyz
  1  'x, y, z'
loop_
 _atom_site_type_symbol
 _atom_site_label
 _atom_site_symmetry_multiplicity
 _atom_site_fract_x
 _atom_site_fract_y
 _atom_site_fract_z
 _atom_site_occupancy
  La  La0  1  0.393994  0.837846  0.882157  1
  La  La1  1  0.892959  0.660942  0.615543  1
  La  La2  1  0.605094  0.162573  0.384103  1
  La  La3  1  0.104631  0.338549  0.114586  1
  La  La4  1  0.605094  0.162573  0.115897  1
  La  La5  1  0.104631  0.338549  0.385414  1
  La  La6  1  0.393994  0.837846  0.617843  1
  La  La7  1  0.892959  0.660942  0.884457  1
  La  La8  1  0.555844  0.328954  0.893617  1
  La  La9  1  0.056623  0.169306  0.608637  1
  La  La10  1  0.445127  0.672855  0.393682  1
  La  La11  1  0.945306  0.828311  0.106620  1
  La  La12  1  0.445127  0.672855  0.106318  1
  La  La13  1  0.945306  0.828311  0.393380  1
  La  La14  1  0.555844  0.328954  0.606383  1
  La  La15  1  0.056623  0.169306  0.891363  1
  La  La16  1  0.276988  0.996143  0.250000  1
  Tm  Tm17  1  0.224948  0.495354  0.750000  1
  Tm  Tm18  1  0.725697  0.003799  0.750000  1
  Tm  Tm19  1  0.775131  0.503818  0.250000  1
  Sn  Sn20  1  0.590853  0.626881  0.750000  1
  Sn  Sn21  1  0.088320  0.869251  0.750000  1
  Sn  Sn22  1  0.410352  0.377848  0.250000  1
  Sn  Sn23  1  0.903691  0.131065  0.250000  1
  Sn  Sn24  1  0.364556  0.143819  0.750000  1
  Sn  Sn25  1  0.861474  0.357796  0.750000  1
  Sn  Sn26  1  0.645770  0.856589  0.250000  1
  Sn  Sn27  1  0.136300  0.633712  0.250000  1
  Sb  Sb28  1  0.264736  0.015894  0.047013  1
  Sb  Sb29  1  0.765190  0.486673  0.446186  1
  Sb  Sb30  1  0.734339  0.986158  0.553304  1
  Sb  Sb31  1  0.234117  0.513900  0.946214  1
  Sb  Sb32  1  0.734339  0.986158  0.946696  1
  Sb  Sb33  1  0.234117  0.513900  0.553786  1
  Sb  Sb34  1  0.264736  0.015894  0.452987  1
  Sb  Sb35  1  0.765190  0.486673  0.053814  1
