# generated using pymatgen
data_Tc5MoPdPt
_symmetry_space_group_name_H-M   'P 1'
_cell_length_a   5.58461645
_cell_length_b   5.58461725
_cell_length_c   4.39817500
_cell_angle_alpha   90.00000000
_cell_angle_beta   90.00000000
_cell_angle_gamma   119.82587083
_symmetry_Int_Tables_number   1
_chemical_formula_structural   Tc5MoPdPt
_chemical_formula_sum   'Tc5 Mo1 Pd1 Pt1'
_cell_volume   119.00063023
_cell_formula_units_Z   1
loop_
 _symmetry_equiv_pos_site_id
 _symmetry_equiv_pos_as_xyz
  1  'x, y, z'
loop_
 _atom_site_type_symbol
 _atom_site_label
 _atom_site_symmetry_multiplicity
 _atom_site_fract_x
 _atom_site_fract_y
 _atom_site_fract_z
 _atom_site_occupancy
  Tc  Tc0  1  0.843330  0.156670  0.750000  1
  Tc  Tc1  1  0.313742  0.159238  0.750000  1
  Tc  Tc2  1  0.840762  0.686258  0.750000  1
  Tc  Tc3  1  0.684707  0.842518  0.250000  1
  Tc  Tc4  1  0.157482  0.315293  0.250000  1
  Mo  Mo5  1  0.158379  0.841621  0.250000  1
  Pd  Pd6  1  0.334503  0.665497  0.750000  1
  Pt  Pt7  1  0.667093  0.332907  0.250000  1
