# generated using pymatgen
data_Y8Hf11NbSi16
_symmetry_space_group_name_H-M   'P 1'
_cell_length_a   7.26999391
_cell_length_b   7.26999391
_cell_length_c   13.35980020
_cell_angle_alpha   89.96560391
_cell_angle_beta   89.96560391
_cell_angle_gamma   89.95409512
_symmetry_Int_Tables_number   1
_chemical_formula_structural   Y8Hf11NbSi16
_chemical_formula_sum   'Y8 Hf11 Nb1 Si16'
_cell_volume   706.10252039
_cell_formula_units_Z   1
loop_
 _symmetry_equiv_pos_site_id
 _symmetry_equiv_pos_as_xyz
  1  'x, y, z'
loop_
 _atom_site_type_symbol
 _atom_site_label
 _atom_site_symmetry_multiplicity
 _atom_site_fract_x
 _atom_site_fract_y
 _atom_site_fract_z
 _atom_site_occupancy
  Y  Y0  1  0.497090  0.154879  0.536961  1
  Y  Y1  1  0.504754  0.844956  0.034033  1
  Y  Y2  1  0.655342  0.005072  0.284887  1
  Y  Y3  1  0.346957  0.997563  0.784876  1
  Y  Y4  1  0.845121  0.502910  0.963039  1
  Y  Y5  1  0.155044  0.495246  0.465967  1
  Y  Y6  1  0.002437  0.653043  0.715124  1
  Y  Y7  1  0.994928  0.344658  0.215113  1
  Hf  Hf8  1  0.324791  0.675209  0.250000  1
  Hf  Hf9  1  0.823787  0.824225  0.500587  1
  Hf  Hf10  1  0.175775  0.176213  0.999413  1
  Hf  Hf11  1  0.496347  0.353121  0.124001  1
  Hf  Hf12  1  0.504844  0.645594  0.626710  1
  Hf  Hf13  1  0.850692  0.006269  0.873248  1
  Hf  Hf14  1  0.147820  0.995928  0.374613  1
  Hf  Hf15  1  0.646879  0.503653  0.375999  1
  Hf  Hf16  1  0.354406  0.495156  0.873290  1
  Hf  Hf17  1  0.004072  0.852180  0.125387  1
  Hf  Hf18  1  0.993731  0.149308  0.626752  1
  Nb  Nb19  1  0.675827  0.324173  0.750000  1
  Si  Si20  1  0.796019  0.139270  0.066479  1
  Si  Si21  1  0.204076  0.861450  0.567291  1
  Si  Si22  1  0.639603  0.703121  0.816536  1
  Si  Si23  1  0.360791  0.295910  0.316850  1
  Si  Si24  1  0.860730  0.203981  0.433521  1
  Si  Si25  1  0.138550  0.795924  0.932709  1
  Si  Si26  1  0.704090  0.639209  0.183150  1
  Si  Si27  1  0.296879  0.360397  0.683464  1
  Si  Si28  1  0.551601  0.205737  0.934456  1
  Si  Si29  1  0.450041  0.795102  0.436219  1
  Si  Si30  1  0.704538  0.950997  0.686045  1
  Si  Si31  1  0.294705  0.050432  0.185613  1
  Si  Si32  1  0.794263  0.448399  0.565544  1
  Si  Si33  1  0.204898  0.549959  0.063781  1
  Si  Si34  1  0.949568  0.705295  0.314387  1
  Si  Si35  1  0.049003  0.295462  0.813955  1
