# generated using pymatgen
data_Pm4Ni3RuO12
_symmetry_space_group_name_H-M   'P 1'
_cell_length_a   5.41421031
_cell_length_b   5.72201769
_cell_length_c   7.79740995
_cell_angle_alpha   90.23818335
_cell_angle_beta   90.00061038
_cell_angle_gamma   90.62847667
_symmetry_Int_Tables_number   1
_chemical_formula_structural   Pm4Ni3RuO12
_chemical_formula_sum   'Pm4 Ni3 Ru1 O12'
_cell_volume   241.54875563
_cell_formula_units_Z   1
loop_
 _symmetry_equiv_pos_site_id
 _symmetry_equiv_pos_as_xyz
  1  'x, y, z'
loop_
 _atom_site_type_symbol
 _atom_site_label
 _atom_site_symmetry_multiplicity
 _atom_site_fract_x
 _atom_site_fract_y
 _atom_site_fract_z
 _atom_site_occupancy
  Pm  Pm0  1  0.979788  0.074128  0.263328  1
  Pm  Pm1  1  0.514659  0.562327  0.264406  1
  Pm  Pm2  1  0.485341  0.437674  0.735593  1
  Pm  Pm3  1  0.020213  0.925872  0.736671  1
  Ni  Ni4  1  0.000000  0.500000  0.000000  1
  Ni  Ni5  1  0.499999  0.000000  0.500000  1
  Ni  Ni6  1  0.000000  0.500000  0.500000  1
  Ru  Ru7  1  0.499999  0.000000  0.000000  1
  O  O8  1  0.687571  0.288314  0.061305  1
  O  O9  1  0.791780  0.808065  0.055393  1
  O  O10  1  0.099154  0.471118  0.247579  1
  O  O11  1  0.395428  0.966450  0.240403  1
  O  O12  1  0.694200  0.297626  0.453287  1
  O  O13  1  0.797557  0.804950  0.453424  1
  O  O14  1  0.202441  0.195050  0.546576  1
  O  O15  1  0.305801  0.702375  0.546713  1
  O  O16  1  0.604573  0.033551  0.759596  1
  O  O17  1  0.900846  0.528884  0.752420  1
  O  O18  1  0.208218  0.191935  0.944607  1
  O  O19  1  0.312430  0.711687  0.938695  1
