# generated using pymatgen
data_Sm4Ga18Ru2Pt3Rh
_symmetry_space_group_name_H-M   'P 1'
_cell_length_a   7.66070085
_cell_length_b   7.66070135
_cell_length_c   9.59755554
_cell_angle_alpha   89.88788039
_cell_angle_beta   89.88787463
_cell_angle_gamma   119.74062120
_symmetry_Int_Tables_number   1
_chemical_formula_structural   Sm4Ga18Ru2Pt3Rh
_chemical_formula_sum   'Sm4 Ga18 Ru2 Pt3 Rh1'
_cell_volume   489.05103345
_cell_formula_units_Z   1
loop_
 _symmetry_equiv_pos_site_id
 _symmetry_equiv_pos_as_xyz
  1  'x, y, z'
loop_
 _atom_site_type_symbol
 _atom_site_label
 _atom_site_symmetry_multiplicity
 _atom_site_fract_x
 _atom_site_fract_y
 _atom_site_fract_z
 _atom_site_occupancy
  Sm  Sm0  1  0.998422  0.668275  0.250015  1
  Sm  Sm1  1  0.003993  0.333518  0.750617  1
  Sm  Sm2  1  0.666482  0.996007  0.249383  1
  Sm  Sm3  1  0.331725  0.001578  0.749985  1
  Ga  Ga4  1  0.122983  0.124637  0.249672  1
  Ga  Ga5  1  0.875363  0.877017  0.750328  1
  Ga  Ga6  1  0.000781  0.329006  0.079824  1
  Ga  Ga7  1  0.998428  0.671461  0.919674  1
  Ga  Ga8  1  0.994032  0.664392  0.578294  1
  Ga  Ga9  1  0.335608  0.005968  0.421706  1
  Ga  Ga10  1  0.994207  0.329860  0.422010  1
  Ga  Ga11  1  0.670140  0.005793  0.577990  1
  Ga  Ga12  1  0.670994  0.999219  0.920176  1
  Ga  Ga13  1  0.328539  0.001572  0.080326  1
  Ga  Ga14  1  0.333684  0.328469  0.561788  1
  Ga  Ga15  1  0.671531  0.666316  0.438212  1
  Ga  Ga16  1  0.672700  0.672575  0.064865  1
  Ga  Ga17  1  0.327425  0.327300  0.935135  1
  Ga  Ga18  1  0.340195  0.540785  0.250520  1
  Ga  Ga19  1  0.658859  0.453610  0.745608  1
  Ga  Ga20  1  0.546390  0.341141  0.254392  1
  Ga  Ga21  1  0.459215  0.659805  0.749480  1
  Ru  Ru22  1  0.671120  0.328880  0.500000  1
  Ru  Ru23  1  0.999944  0.000056  0.000000  1
  Pt  Pt24  1  0.670680  0.329320  0.000000  1
  Pt  Pt25  1  0.328729  0.671271  0.000000  1
  Pt  Pt26  1  0.328196  0.671804  0.500000  1
  Rh  Rh27  1  0.999636  0.000364  0.500000  1
