# generated using pymatgen
data_Be4NbRu
_symmetry_space_group_name_H-M   'P 1'
_cell_length_a   4.45611853
_cell_length_b   4.45611778
_cell_length_c   4.45611800
_cell_angle_alpha   59.99999833
_cell_angle_beta   60.00000392
_cell_angle_gamma   60.00000560
_symmetry_Int_Tables_number   1
_chemical_formula_structural   Be4NbRu
_chemical_formula_sum   'Be4 Nb1 Ru1'
_cell_volume   62.56840808
_cell_formula_units_Z   1
loop_
 _symmetry_equiv_pos_site_id
 _symmetry_equiv_pos_as_xyz
  1  'x, y, z'
loop_
 _atom_site_type_symbol
 _atom_site_label
 _atom_site_symmetry_multiplicity
 _atom_site_fract_x
 _atom_site_fract_y
 _atom_site_fract_z
 _atom_site_occupancy
  Be  Be0  1  0.624423  0.624423  0.126731  1
  Be  Be1  1  0.624423  0.126731  0.624423  1
  Be  Be2  1  0.126731  0.624423  0.624423  1
  Be  Be3  1  0.624423  0.624423  0.624423  1
  Nb  Nb4  1  0.250000  0.250000  0.250000  1
  Ru  Ru5  1  0.000000  0.000000  0.000000  1
