# generated using pymatgen
data_GdY3C5
_symmetry_space_group_name_H-M   'P 1'
_cell_length_a   3.71157600
_cell_length_b   6.63436967
_cell_length_c   11.97979101
_cell_angle_alpha   89.00719178
_cell_angle_beta   90.00000000
_cell_angle_gamma   90.00000000
_symmetry_Int_Tables_number   1
_chemical_formula_structural   GdY3C5
_chemical_formula_sum   'Gd2 Y6 C10'
_cell_volume   294.94569715
_cell_formula_units_Z   2
loop_
 _symmetry_equiv_pos_site_id
 _symmetry_equiv_pos_as_xyz
  1  'x, y, z'
loop_
 _atom_site_type_symbol
 _atom_site_label
 _atom_site_symmetry_multiplicity
 _atom_site_fract_x
 _atom_site_fract_y
 _atom_site_fract_z
 _atom_site_occupancy
  Gd  Gd0  1  0.500000  0.104625  0.802374  1
  Gd  Gd1  1  0.500000  0.895375  0.197626  1
  Y  Y2  1  0.000000  0.256762  0.543391  1
  Y  Y3  1  0.000000  0.743238  0.456609  1
  Y  Y4  1  0.000000  0.755463  0.957495  1
  Y  Y5  1  0.000000  0.244537  0.042505  1
  Y  Y6  1  0.500000  0.610779  0.695293  1
  Y  Y7  1  0.500000  0.389221  0.304707  1
  C  C8  1  0.500000  0.500000  0.500000  1
  C  C9  1  0.500000  0.000000  0.000000  1
  C  C10  1  0.000000  0.359869  0.738198  1
  C  C11  1  0.000000  0.640131  0.261802  1
  C  C12  1  0.000000  0.862537  0.764028  1
  C  C13  1  0.000000  0.137463  0.235972  1
  C  C14  1  0.000000  0.423417  0.842702  1
  C  C15  1  0.000000  0.576583  0.157298  1
  C  C16  1  0.000000  0.111198  0.346851  1
  C  C17  1  0.000000  0.888802  0.653149  1
