# generated using pymatgen
data_LaNd2In3IrPt2
_symmetry_space_group_name_H-M   'P 1'
_cell_length_a   7.84172500
_cell_length_b   7.82161555
_cell_length_c   4.00010000
_cell_angle_alpha   90.00000000
_cell_angle_beta   90.00000000
_cell_angle_gamma   120.08508058
_symmetry_Int_Tables_number   1
_chemical_formula_structural   LaNd2In3IrPt2
_chemical_formula_sum   'La1 Nd2 In3 Ir1 Pt2'
_cell_volume   212.29344381
_cell_formula_units_Z   1
loop_
 _symmetry_equiv_pos_site_id
 _symmetry_equiv_pos_as_xyz
  1  'x, y, z'
loop_
 _atom_site_type_symbol
 _atom_site_label
 _atom_site_symmetry_multiplicity
 _atom_site_fract_x
 _atom_site_fract_y
 _atom_site_fract_z
 _atom_site_occupancy
  La  La0  1  0.591233  0.000000  0.500000  1
  Nd  Nd1  1  0.407375  0.406522  0.500000  1
  Nd  Nd2  1  0.000853  0.593478  0.500000  1
  In  In3  1  0.749380  0.746184  0.000000  1
  In  In4  1  0.247995  0.000000  0.000000  1
  In  In5  1  0.003197  0.253816  0.000000  1
  Ir  Ir6  1  0.999721  0.000000  0.500000  1
  Pt  Pt7  1  0.666453  0.332659  0.000000  1
  Pt  Pt8  1  0.333793  0.667341  0.000000  1
