# generated using pymatgen
data_Cs2Cu3RhF12
_symmetry_space_group_name_H-M   'P 1'
_cell_length_a   7.82002688
_cell_length_b   7.82002744
_cell_length_c   7.82002726
_cell_angle_alpha   54.85211004
_cell_angle_beta   54.85210290
_cell_angle_gamma   54.85210335
_symmetry_Int_Tables_number   1
_chemical_formula_structural   Cs2Cu3RhF12
_chemical_formula_sum   'Cs2 Cu3 Rh1 F12'
_cell_volume   297.62367669
_cell_formula_units_Z   1
loop_
 _symmetry_equiv_pos_site_id
 _symmetry_equiv_pos_as_xyz
  1  'x, y, z'
loop_
 _atom_site_type_symbol
 _atom_site_label
 _atom_site_symmetry_multiplicity
 _atom_site_fract_x
 _atom_site_fract_y
 _atom_site_fract_z
 _atom_site_occupancy
  Cs  Cs0  1  0.886382  0.886382  0.886382  1
  Cs  Cs1  1  0.113618  0.113618  0.113618  1
  Cu  Cu2  1  0.500000  0.500000  0.000000  1
  Cu  Cu3  1  0.000000  0.500000  0.500000  1
  Cu  Cu4  1  0.500000  0.000000  0.500000  1
  Rh  Rh5  1  0.500000  0.500000  0.500000  1
  F  F6  1  0.817374  0.423345  0.817374  1
  F  F7  1  0.817374  0.817374  0.423345  1
  F  F8  1  0.423345  0.817374  0.817374  1
  F  F9  1  0.182626  0.576655  0.182626  1
  F  F10  1  0.182626  0.182626  0.576655  1
  F  F11  1  0.576655  0.182626  0.182626  1
  F  F12  1  0.423663  0.818347  0.423663  1
  F  F13  1  0.423663  0.423663  0.818347  1
  F  F14  1  0.818347  0.423663  0.423663  1
  F  F15  1  0.576337  0.181653  0.576337  1
  F  F16  1  0.576337  0.576337  0.181653  1
  F  F17  1  0.181653  0.576337  0.576337  1
