# generated using pymatgen
data_CeCd3(IO6)2
_symmetry_space_group_name_H-M   'P 1'
_cell_length_a   5.03374410
_cell_length_b   5.02728706
_cell_length_c   10.01916100
_cell_angle_alpha   90.00000000
_cell_angle_beta   90.00000000
_cell_angle_gamma   90.10427190
_symmetry_Int_Tables_number   1
_chemical_formula_structural   CeCd3(IO6)2
_chemical_formula_sum   'Ce1 Cd3 I2 O12'
_cell_volume   253.54523591
_cell_formula_units_Z   1
loop_
 _symmetry_equiv_pos_site_id
 _symmetry_equiv_pos_as_xyz
  1  'x, y, z'
loop_
 _atom_site_type_symbol
 _atom_site_label
 _atom_site_symmetry_multiplicity
 _atom_site_fract_x
 _atom_site_fract_y
 _atom_site_fract_z
 _atom_site_occupancy
  Ce  Ce0  1  0.000000  0.000000  0.335473  1
  Cd  Cd1  1  0.500000  0.500000  0.158031  1
  Cd  Cd2  1  0.000000  0.000000  0.670244  1
  Cd  Cd3  1  0.500000  0.500000  0.837773  1
  I  I4  1  0.500000  0.500000  0.503775  1
  I  I5  1  0.000000  0.000000  0.994731  1
  O  O6  1  0.681718  0.682201  0.638466  1
  O  O7  1  0.318282  0.317799  0.638466  1
  O  O8  1  0.816708  0.183624  0.858447  1
  O  O9  1  0.183292  0.816376  0.858447  1
  O  O10  1  0.318054  0.317844  0.359749  1
  O  O11  1  0.681946  0.682156  0.359749  1
  O  O12  1  0.176204  0.823450  0.148257  1
  O  O13  1  0.823796  0.176550  0.148257  1
  O  O14  1  0.734741  0.734415  0.002328  1
  O  O15  1  0.265259  0.265585  0.002328  1
  O  O16  1  0.771235  0.228654  0.492740  1
  O  O17  1  0.228765  0.771346  0.492740  1
