# generated using pymatgen
data_TbDy2In3HgPt2
_symmetry_space_group_name_H-M   'P 1'
_cell_length_a   7.72069001
_cell_length_b   7.72459803
_cell_length_c   4.01863200
_cell_angle_alpha   90.00000000
_cell_angle_beta   90.00000000
_cell_angle_gamma   119.98779843
_symmetry_Int_Tables_number   1
_chemical_formula_structural   TbDy2In3HgPt2
_chemical_formula_sum   'Tb1 Dy2 In3 Hg1 Pt2'
_cell_volume   207.58418261
_cell_formula_units_Z   1
loop_
 _symmetry_equiv_pos_site_id
 _symmetry_equiv_pos_as_xyz
  1  'x, y, z'
loop_
 _atom_site_type_symbol
 _atom_site_label
 _atom_site_symmetry_multiplicity
 _atom_site_fract_x
 _atom_site_fract_y
 _atom_site_fract_z
 _atom_site_occupancy
  Tb  Tb0  1  0.607153  0.019104  0.500000  1
  Dy  Dy1  1  0.411888  0.392640  0.500000  1
  Dy  Dy2  1  0.980692  0.588104  0.500000  1
  In  In3  1  0.748409  0.744482  0.000000  1
  In  In4  1  0.996442  0.251763  0.000000  1
  In  In5  1  0.255316  0.003788  0.000000  1
  Hg  Hg6  1  0.333091  0.666324  0.000000  1
  Pt  Pt7  1  0.666783  0.333813  0.000000  1
  Pt  Pt8  1  0.000225  0.999984  0.500000  1
