# generated using pymatgen
data_SrBe2Au5
_symmetry_space_group_name_H-M   'P 1'
_cell_length_a   8.79707100
_cell_length_b   6.72263100
_cell_length_c   9.97151500
_cell_angle_alpha   90.00000000
_cell_angle_beta   90.00000000
_cell_angle_gamma   90.00000000
_symmetry_Int_Tables_number   1
_chemical_formula_structural   SrBe2Au5
_chemical_formula_sum   'Sr4 Be8 Au20'
_cell_volume   589.71003456
_cell_formula_units_Z   4
loop_
 _symmetry_equiv_pos_site_id
 _symmetry_equiv_pos_as_xyz
  1  'x, y, z'
loop_
 _atom_site_type_symbol
 _atom_site_label
 _atom_site_symmetry_multiplicity
 _atom_site_fract_x
 _atom_site_fract_y
 _atom_site_fract_z
 _atom_site_occupancy
  Sr  Sr0  1  0.743787  0.750000  0.128493  1
  Sr  Sr1  1  0.243788  0.750000  0.371506  1
  Sr  Sr2  1  0.756212  0.250000  0.628494  1
  Sr  Sr3  1  0.256212  0.250000  0.871506  1
  Be  Be4  1  0.161491  0.750000  0.016443  1
  Be  Be5  1  0.557281  0.250000  0.105000  1
  Be  Be6  1  0.057281  0.250000  0.395001  1
  Be  Be7  1  0.661490  0.750000  0.483557  1
  Be  Be8  1  0.338511  0.250000  0.516443  1
  Be  Be9  1  0.942718  0.750000  0.604999  1
  Be  Be10  1  0.442719  0.750000  0.895001  1
  Be  Be11  1  0.838511  0.250000  0.983557  1
  Au  Au12  1  0.390274  0.541864  0.099107  1
  Au  Au13  1  0.390274  0.958136  0.099107  1
  Au  Au14  1  0.060206  0.026907  0.133581  1
  Au  Au15  1  0.060206  0.473092  0.133581  1
  Au  Au16  1  0.789954  0.250000  0.213757  1
  Au  Au17  1  0.289953  0.250000  0.286242  1
  Au  Au18  1  0.560206  0.026907  0.366420  1
  Au  Au19  1  0.560206  0.473092  0.366420  1
  Au  Au20  1  0.890273  0.541864  0.400893  1
  Au  Au21  1  0.890273  0.958136  0.400893  1
  Au  Au22  1  0.109727  0.041864  0.599107  1
  Au  Au23  1  0.109727  0.458136  0.599107  1
  Au  Au24  1  0.439793  0.526906  0.633580  1
  Au  Au25  1  0.439793  0.973093  0.633580  1
  Au  Au26  1  0.710046  0.750000  0.713758  1
  Au  Au27  1  0.210046  0.750000  0.786242  1
  Au  Au28  1  0.939794  0.526906  0.866420  1
  Au  Au29  1  0.939794  0.973093  0.866420  1
  Au  Au30  1  0.609728  0.041864  0.900892  1
  Au  Au31  1  0.609728  0.458136  0.900892  1
