# generated using pymatgen
data_Hf9Ti(ZnSb3)2
_symmetry_space_group_name_H-M   'P 1'
_cell_length_a   8.56752100
_cell_length_b   8.56752089
_cell_length_c   5.75400700
_cell_angle_alpha   90.00000000
_cell_angle_beta   90.00000000
_cell_angle_gamma   119.99999655
_symmetry_Int_Tables_number   1
_chemical_formula_structural   Hf9Ti(ZnSb3)2
_chemical_formula_sum   'Hf9 Ti1 Zn2 Sb6'
_cell_volume   365.77277953
_cell_formula_units_Z   1
loop_
 _symmetry_equiv_pos_site_id
 _symmetry_equiv_pos_as_xyz
  1  'x, y, z'
loop_
 _atom_site_type_symbol
 _atom_site_label
 _atom_site_symmetry_multiplicity
 _atom_site_fract_x
 _atom_site_fract_y
 _atom_site_fract_z
 _atom_site_occupancy
  Hf  Hf0  1  0.731079  0.729928  0.247738  1
  Hf  Hf1  1  0.731079  0.001151  0.752262  1
  Hf  Hf2  1  0.998849  0.268921  0.247738  1
  Hf  Hf3  1  0.998849  0.729928  0.752262  1
  Hf  Hf4  1  0.270072  0.268921  0.752262  1
  Hf  Hf5  1  0.270072  0.001151  0.247738  1
  Hf  Hf6  1  0.666667  0.333333  0.000000  1
  Hf  Hf7  1  0.666667  0.333333  0.500000  1
  Hf  Hf8  1  0.333333  0.666667  0.000000  1
  Ti  Ti9  1  0.333333  0.666667  0.500000  1
  Zn  Zn10  1  0.000000  0.000000  0.000000  1
  Zn  Zn11  1  0.000000  0.000000  0.500000  1
  Sb  Sb12  1  0.384921  0.996170  0.746584  1
  Sb  Sb13  1  0.384921  0.388751  0.253416  1
  Sb  Sb14  1  0.003830  0.615079  0.253416  1
  Sb  Sb15  1  0.003830  0.388751  0.746584  1
  Sb  Sb16  1  0.611249  0.615079  0.746584  1
  Sb  Sb17  1  0.611249  0.996170  0.253416  1
