# generated using pymatgen
data_Np2PaO6
_symmetry_space_group_name_H-M   'P 1'
_cell_length_a   6.66105447
_cell_length_b   6.66105387
_cell_length_c   6.66105417
_cell_angle_alpha   146.40754164
_cell_angle_beta   131.74867995
_cell_angle_gamma   60.07548663
_symmetry_Int_Tables_number   1
_chemical_formula_structural   Np2PaO6
_chemical_formula_sum   'Np2 Pa1 O6'
_cell_volume   120.87917565
_cell_formula_units_Z   1
loop_
 _symmetry_equiv_pos_site_id
 _symmetry_equiv_pos_as_xyz
  1  'x, y, z'
loop_
 _atom_site_type_symbol
 _atom_site_label
 _atom_site_symmetry_multiplicity
 _atom_site_fract_x
 _atom_site_fract_y
 _atom_site_fract_z
 _atom_site_occupancy
  Np  Np0  1  0.167946  0.667946  0.500000  1
  Np  Np1  1  0.832054  0.332054  0.500000  1
  Pa  Pa2  1  0.500000  0.000000  0.500000  1
  O  O3  1  0.416848  0.163110  0.253739  1
  O  O4  1  0.257979  0.500000  0.757979  1
  O  O5  1  0.909370  0.163110  0.746261  1
  O  O6  1  0.090630  0.836890  0.253739  1
  O  O7  1  0.742021  0.500000  0.242021  1
  O  O8  1  0.583152  0.836890  0.746261  1
