# generated using pymatgen
data_SrLuTc4N7
_symmetry_space_group_name_H-M   'P 1'
_cell_length_a   6.39558800
_cell_length_b   6.39558641
_cell_length_c   10.32223300
_cell_angle_alpha   90.00000000
_cell_angle_beta   90.00000000
_cell_angle_gamma   119.99998753
_symmetry_Int_Tables_number   1
_chemical_formula_structural   SrLuTc4N7
_chemical_formula_sum   'Sr2 Lu2 Tc8 N14'
_cell_volume   365.64967719
_cell_formula_units_Z   2
loop_
 _symmetry_equiv_pos_site_id
 _symmetry_equiv_pos_as_xyz
  1  'x, y, z'
loop_
 _atom_site_type_symbol
 _atom_site_label
 _atom_site_symmetry_multiplicity
 _atom_site_fract_x
 _atom_site_fract_y
 _atom_site_fract_z
 _atom_site_occupancy
  Sr  Sr0  1  0.666667  0.333333  0.550085  1
  Sr  Sr1  1  0.333333  0.666667  0.050085  1
  Lu  Lu2  1  0.666667  0.333333  0.940920  1
  Lu  Lu3  1  0.333333  0.666667  0.440920  1
  Tc  Tc4  1  0.162925  0.325851  0.762221  1
  Tc  Tc5  1  0.837075  0.162925  0.262221  1
  Tc  Tc6  1  0.325851  0.162925  0.262221  1
  Tc  Tc7  1  0.674149  0.837075  0.762221  1
  Tc  Tc8  1  0.162925  0.837075  0.762221  1
  Tc  Tc9  1  0.837075  0.674149  0.262221  1
  Tc  Tc10  1  0.000000  0.000000  0.067780  1
  Tc  Tc11  1  0.000000  0.000000  0.567780  1
  N  N12  1  0.000000  0.000000  0.847308  1
  N  N13  1  0.000000  0.000000  0.347308  1
  N  N14  1  0.828893  0.657785  0.072835  1
  N  N15  1  0.171107  0.828893  0.572835  1
  N  N16  1  0.657785  0.828893  0.572835  1
  N  N17  1  0.342215  0.171107  0.072835  1
  N  N18  1  0.828893  0.171107  0.072835  1
  N  N19  1  0.171107  0.342215  0.572835  1
  N  N20  1  0.491224  0.508776  0.820520  1
  N  N21  1  0.982450  0.491224  0.320520  1
  N  N22  1  0.508776  0.017550  0.320520  1
  N  N23  1  0.491224  0.982450  0.820520  1
  N  N24  1  0.508776  0.491224  0.320520  1
  N  N25  1  0.017550  0.508776  0.820520  1
