# generated using pymatgen
data_Yb5LuAl17Si7Os8
_symmetry_space_group_name_H-M   'P 1'
_cell_length_a   8.68637800
_cell_length_b   8.67047822
_cell_length_c   9.57983100
_cell_angle_alpha   90.00000000
_cell_angle_beta   90.00000000
_cell_angle_gamma   120.25818333
_symmetry_Int_Tables_number   1
_chemical_formula_structural   Yb5LuAl17Si7Os8
_chemical_formula_sum   'Yb5 Lu1 Al17 Si7 Os8'
_cell_volume   623.21011596
_cell_formula_units_Z   1
loop_
 _symmetry_equiv_pos_site_id
 _symmetry_equiv_pos_as_xyz
  1  'x, y, z'
loop_
 _atom_site_type_symbol
 _atom_site_label
 _atom_site_symmetry_multiplicity
 _atom_site_fract_x
 _atom_site_fract_y
 _atom_site_fract_z
 _atom_site_occupancy
  Yb  Yb0  1  0.193167  0.388932  0.250000  1
  Yb  Yb1  1  0.805887  0.612731  0.750000  1
  Yb  Yb2  1  0.609499  0.806746  0.250000  1
  Yb  Yb3  1  0.390347  0.192064  0.750000  1
  Yb  Yb4  1  0.800525  0.191862  0.750000  1
  Lu  Lu5  1  0.198724  0.803134  0.250000  1
  Al  Al6  1  0.165335  0.332825  0.575896  1
  Al  Al7  1  0.833407  0.669025  0.422148  1
  Al  Al8  1  0.668318  0.834314  0.575266  1
  Al  Al9  1  0.833407  0.669025  0.077852  1
  Al  Al10  1  0.332068  0.166681  0.423147  1
  Al  Al11  1  0.165335  0.332825  0.924104  1
  Al  Al12  1  0.165270  0.833107  0.575697  1
  Al  Al13  1  0.332068  0.166681  0.076853  1
  Al  Al14  1  0.834207  0.165173  0.424150  1
  Al  Al15  1  0.668318  0.834314  0.924734  1
  Al  Al16  1  0.834207  0.165173  0.075850  1
  Al  Al17  1  0.165270  0.833107  0.924303  1
  Al  Al18  1  0.125646  0.566066  0.750000  1
  Al  Al19  1  0.564191  0.434605  0.250000  1
  Al  Al20  1  0.438754  0.567358  0.750000  1
  Al  Al21  1  0.000971  0.997888  0.250000  1
  Al  Al22  1  0.000197  0.002045  0.750000  1
  Si  Si23  1  0.333158  0.664689  0.038404  1
  Si  Si24  1  0.666637  0.335732  0.964528  1
  Si  Si25  1  0.666637  0.335732  0.535472  1
  Si  Si26  1  0.333158  0.664689  0.461596  1
  Si  Si27  1  0.566034  0.125239  0.250000  1
  Si  Si28  1  0.435266  0.871890  0.750000  1
  Si  Si29  1  0.873705  0.432507  0.250000  1
  Os  Os30  1  0.499107  0.999759  0.003548  1
  Os  Os31  1  0.999466  0.501234  0.009279  1
  Os  Os32  1  0.499107  0.999759  0.496452  1
  Os  Os33  1  0.500628  0.500470  0.000800  1
  Os  Os34  1  0.999466  0.501234  0.490721  1
  Os  Os35  1  0.500628  0.500470  0.499200  1
  Os  Os36  1  0.000942  0.000455  0.999869  1
  Os  Os37  1  0.000942  0.000455  0.500131  1
