# generated using pymatgen
data_Rb2MgVCl6
_symmetry_space_group_name_H-M   'P 1'
_cell_length_a   7.23829000
_cell_length_b   7.23828948
_cell_length_c   6.14887700
_cell_angle_alpha   90.00000000
_cell_angle_beta   90.00000000
_cell_angle_gamma   119.99999322
_symmetry_Int_Tables_number   1
_chemical_formula_structural   Rb2MgVCl6
_chemical_formula_sum   'Rb2 Mg1 V1 Cl6'
_cell_volume   278.99626801
_cell_formula_units_Z   1
loop_
 _symmetry_equiv_pos_site_id
 _symmetry_equiv_pos_as_xyz
  1  'x, y, z'
loop_
 _atom_site_type_symbol
 _atom_site_label
 _atom_site_symmetry_multiplicity
 _atom_site_fract_x
 _atom_site_fract_y
 _atom_site_fract_z
 _atom_site_occupancy
  Rb  Rb0  1  0.333333  0.666667  0.245268  1
  Rb  Rb1  1  0.666667  0.333333  0.754732  1
  Mg  Mg2  1  0.000000  0.000000  0.000000  1
  V  V3  1  0.000000  0.000000  0.500000  1
  Cl  Cl4  1  0.842618  0.157382  0.254141  1
  Cl  Cl5  1  0.157382  0.842618  0.745859  1
  Cl  Cl6  1  0.842618  0.685237  0.254141  1
  Cl  Cl7  1  0.157382  0.314763  0.745859  1
  Cl  Cl8  1  0.314763  0.157382  0.254141  1
  Cl  Cl9  1  0.685237  0.842618  0.745859  1
