# generated using pymatgen
data_YbDy2Mg3CdPb2
_symmetry_space_group_name_H-M   'P 1'
_cell_length_a   7.60995102
_cell_length_b   7.60995226
_cell_length_c   4.70964000
_cell_angle_alpha   90.00000000
_cell_angle_beta   90.00000000
_cell_angle_gamma   120.44183363
_symmetry_Int_Tables_number   1
_chemical_formula_structural   YbDy2Mg3CdPb2
_chemical_formula_sum   'Yb1 Dy2 Mg3 Cd1 Pb2'
_cell_volume   235.14259055
_cell_formula_units_Z   1
loop_
 _symmetry_equiv_pos_site_id
 _symmetry_equiv_pos_as_xyz
  1  'x, y, z'
loop_
 _atom_site_type_symbol
 _atom_site_label
 _atom_site_symmetry_multiplicity
 _atom_site_fract_x
 _atom_site_fract_y
 _atom_site_fract_z
 _atom_site_occupancy
  Yb  Yb0  1  0.424945  0.424945  0.500000  1
  Dy  Dy1  1  0.576225  0.002402  0.500000  1
  Dy  Dy2  1  0.002402  0.576225  0.500000  1
  Mg  Mg3  1  0.764079  0.764079  0.000000  1
  Mg  Mg4  1  0.234919  0.997967  0.000000  1
  Mg  Mg5  1  0.997967  0.234919  0.000000  1
  Cd  Cd6  1  0.995575  0.995575  0.500000  1
  Pb  Pb7  1  0.670262  0.333625  0.000000  1
  Pb  Pb8  1  0.333625  0.670262  0.000000  1
