# generated using pymatgen
data_Zr6Co20Si12Ge
_symmetry_space_group_name_H-M   'P 1'
_cell_length_a   12.72247900
_cell_length_b   12.72247874
_cell_length_c   3.61374500
_cell_angle_alpha   90.00000000
_cell_angle_beta   90.00000000
_cell_angle_gamma   119.99999808
_symmetry_Int_Tables_number   1
_chemical_formula_structural   Zr6Co20Si12Ge
_chemical_formula_sum   'Zr6 Co20 Si12 Ge1'
_cell_volume   506.56084816
_cell_formula_units_Z   1
loop_
 _symmetry_equiv_pos_site_id
 _symmetry_equiv_pos_as_xyz
  1  'x, y, z'
loop_
 _atom_site_type_symbol
 _atom_site_label
 _atom_site_symmetry_multiplicity
 _atom_site_fract_x
 _atom_site_fract_y
 _atom_site_fract_z
 _atom_site_occupancy
  Zr  Zr0  1  0.809199  0.279025  0.500000  1
  Zr  Zr1  1  0.720975  0.530175  0.500000  1
  Zr  Zr2  1  0.469825  0.190801  0.500000  1
  Zr  Zr3  1  0.191627  0.717766  0.000000  1
  Zr  Zr4  1  0.282234  0.473861  0.000000  1
  Zr  Zr5  1  0.526139  0.808373  0.000000  1
  Co  Co6  1  0.416627  0.980702  0.000000  1
  Co  Co7  1  0.019298  0.435925  0.000000  1
  Co  Co8  1  0.584846  0.021324  0.500000  1
  Co  Co9  1  0.564075  0.583373  0.000000  1
  Co  Co10  1  0.978676  0.563522  0.500000  1
  Co  Co11  1  0.920094  0.094872  0.500000  1
  Co  Co12  1  0.174778  0.079906  0.500000  1
  Co  Co13  1  0.905128  0.825222  0.500000  1
  Co  Co14  1  0.093571  0.890016  0.000000  1
  Co  Co15  1  0.796444  0.906429  0.000000  1
  Co  Co16  1  0.109984  0.203556  0.000000  1
  Co  Co17  1  0.333333  0.666667  0.500000  1
  Co  Co18  1  0.666667  0.333333  0.000000  1
  Co  Co19  1  0.677020  0.750137  0.500000  1
  Co  Co20  1  0.249863  0.926882  0.500000  1
  Co  Co21  1  0.924555  0.677549  0.000000  1
  Co  Co22  1  0.322451  0.247007  0.000000  1
  Co  Co23  1  0.752993  0.075445  0.000000  1
  Co  Co24  1  0.436478  0.415154  0.500000  1
  Co  Co25  1  0.073118  0.322980  0.500000  1
  Si  Si26  1  0.232293  0.283299  0.500000  1
  Si  Si27  1  0.716701  0.948993  0.500000  1
  Si  Si28  1  0.051007  0.767707  0.500000  1
  Si  Si29  1  0.769646  0.718238  0.000000  1
  Si  Si30  1  0.281762  0.051409  0.000000  1
  Si  Si31  1  0.476459  0.612009  0.500000  1
  Si  Si32  1  0.387991  0.864450  0.500000  1
  Si  Si33  1  0.862998  0.475612  0.000000  1
  Si  Si34  1  0.524388  0.387387  0.000000  1
  Si  Si35  1  0.612613  0.137002  0.000000  1
  Si  Si36  1  0.948591  0.230354  0.000000  1
  Si  Si37  1  0.135550  0.523541  0.500000  1
  Ge  Ge38  1  0.000000  0.000000  0.000000  1
