# generated using pymatgen
data_Nd2Al16PdPt8
_symmetry_space_group_name_H-M   'P 1'
_cell_length_a   11.17759851
_cell_length_b   11.17759927
_cell_length_c   11.17759919
_cell_angle_alpha   158.50409982
_cell_angle_beta   115.16298200
_cell_angle_gamma   69.16742140
_symmetry_Int_Tables_number   1
_chemical_formula_structural   Nd2Al16PdPt8
_chemical_formula_sum   'Nd2 Al16 Pd1 Pt8'
_cell_volume   459.79143887
_cell_formula_units_Z   1
loop_
 _symmetry_equiv_pos_site_id
 _symmetry_equiv_pos_as_xyz
  1  'x, y, z'
loop_
 _atom_site_type_symbol
 _atom_site_label
 _atom_site_symmetry_multiplicity
 _atom_site_fract_x
 _atom_site_fract_y
 _atom_site_fract_z
 _atom_site_occupancy
  Nd  Nd0  1  0.228673  0.228593  0.000080  1
  Nd  Nd1  1  0.771487  0.771407  0.000080  1
  Al  Al2  1  0.273358  0.392167  0.881192  1
  Al  Al3  1  0.093196  0.920746  0.172450  1
  Al  Al4  1  0.511799  0.204144  0.307656  1
  Al  Al5  1  0.251703  0.079254  0.172450  1
  Al  Al6  1  0.913646  0.413780  0.499866  1
  Al  Al7  1  0.726812  0.607697  0.119114  1
  Al  Al8  1  0.896403  0.203997  0.692406  1
  Al  Al9  1  0.488410  0.796003  0.692406  1
  Al  Al10  1  0.385797  0.000000  0.385797  1
  Al  Al11  1  0.613961  0.000000  0.613961  1
  Al  Al12  1  0.489025  0.607833  0.881192  1
  Al  Al13  1  0.103512  0.795856  0.307656  1
  Al  Al14  1  0.907049  0.079649  0.827399  1
  Al  Al15  1  0.747751  0.920351  0.827399  1
  Al  Al16  1  0.511417  0.392303  0.119114  1
  Al  Al17  1  0.086087  0.586220  0.499866  1
  Pd  Pd18  1  0.749744  0.500000  0.249744  1
  Pt  Pt19  1  0.025863  0.339813  0.686050  1
  Pt  Pt20  1  0.624570  0.124965  0.499605  1
  Pt  Pt21  1  0.252229  0.500000  0.752229  1
  Pt  Pt22  1  0.374640  0.875035  0.499605  1
  Pt  Pt23  1  0.999295  0.000000  0.999295  1
  Pt  Pt24  1  0.653854  0.340185  0.313669  1
  Pt  Pt25  1  0.346237  0.660187  0.686050  1
  Pt  Pt26  1  0.973484  0.659815  0.313669  1
