# generated using pymatgen
data_Ce5Tm5(RhPb3)2
_symmetry_space_group_name_H-M   'P 1'
_cell_length_a   9.46695055
_cell_length_b   9.43035389
_cell_length_c   6.37120600
_cell_angle_alpha   90.00000000
_cell_angle_beta   90.00000000
_cell_angle_gamma   119.87220226
_symmetry_Int_Tables_number   1
_chemical_formula_structural   Ce5Tm5(RhPb3)2
_chemical_formula_sum   'Ce5 Tm5 Rh2 Pb6'
_cell_volume   493.22855584
_cell_formula_units_Z   1
loop_
 _symmetry_equiv_pos_site_id
 _symmetry_equiv_pos_as_xyz
  1  'x, y, z'
loop_
 _atom_site_type_symbol
 _atom_site_label
 _atom_site_symmetry_multiplicity
 _atom_site_fract_x
 _atom_site_fract_y
 _atom_site_fract_z
 _atom_site_occupancy
  Ce  Ce0  1  0.331218  0.665404  0.498353  1
  Ce  Ce1  1  0.668782  0.334185  0.498353  1
  Ce  Ce2  1  0.000000  0.765202  0.750000  1
  Ce  Ce3  1  0.331218  0.665404  0.001647  1
  Ce  Ce4  1  0.668782  0.334185  0.001647  1
  Tm  Tm5  1  0.243728  0.242944  0.750000  1
  Tm  Tm6  1  0.757308  0.758567  0.250000  1
  Tm  Tm7  1  0.242692  0.001259  0.250000  1
  Tm  Tm8  1  0.756272  0.999216  0.750000  1
  Tm  Tm9  1  0.000000  0.239849  0.250000  1
  Rh  Rh10  1  0.000000  0.000134  0.999947  1
  Rh  Rh11  1  0.000000  0.000134  0.500053  1
  Pb  Pb12  1  0.392191  0.391745  0.250000  1
  Pb  Pb13  1  0.601146  0.603491  0.750000  1
  Pb  Pb14  1  0.000000  0.389446  0.750000  1
  Pb  Pb15  1  0.607809  0.999553  0.250000  1
  Pb  Pb16  1  0.398854  0.002345  0.750000  1
  Pb  Pb17  1  0.000000  0.606937  0.250000  1
