# generated using pymatgen
data_Ta5Mn2NbB14
_symmetry_space_group_name_H-M   'P 1'
_cell_length_a   3.20037300
_cell_length_b   7.33057266
_cell_length_c   8.78975000
_cell_angle_alpha   90.00000000
_cell_angle_beta   90.00000000
_cell_angle_gamma   77.39141338
_symmetry_Int_Tables_number   1
_chemical_formula_structural   Ta5Mn2NbB14
_chemical_formula_sum   'Ta5 Mn2 Nb1 B14'
_cell_volume   201.23950821
_cell_formula_units_Z   1
loop_
 _symmetry_equiv_pos_site_id
 _symmetry_equiv_pos_as_xyz
  1  'x, y, z'
loop_
 _atom_site_type_symbol
 _atom_site_label
 _atom_site_symmetry_multiplicity
 _atom_site_fract_x
 _atom_site_fract_y
 _atom_site_fract_z
 _atom_site_occupancy
  Ta  Ta0  1  0.106455  0.787091  0.054446  1
  Ta  Ta1  1  0.750573  0.498858  0.250000  1
  Ta  Ta2  1  0.106455  0.787091  0.445553  1
  Ta  Ta3  1  0.893625  0.212754  0.553786  1
  Ta  Ta4  1  0.893625  0.212754  0.946215  1
  Mn  Mn5  1  0.950323  0.099356  0.250000  1
  Mn  Mn6  1  0.049303  0.901396  0.750000  1
  Nb  Nb7  1  0.249683  0.500634  0.750000  1
  B  B8  1  0.272881  0.454239  0.033536  1
  B  B9  1  0.485443  0.029117  0.094696  1
  B  B10  1  0.368189  0.263625  0.151636  1
  B  B11  1  0.567155  0.865695  0.250000  1
  B  B12  1  0.368189  0.263625  0.348365  1
  B  B13  1  0.485443  0.029117  0.405304  1
  B  B14  1  0.272881  0.454239  0.466464  1
  B  B15  1  0.726877  0.546249  0.531958  1
  B  B16  1  0.514631  0.970741  0.594484  1
  B  B17  1  0.631687  0.736628  0.651427  1
  B  B18  1  0.433416  0.133169  0.750000  1
  B  B19  1  0.631687  0.736628  0.848572  1
  B  B20  1  0.514631  0.970741  0.905516  1
  B  B21  1  0.726877  0.546249  0.968042  1
