# generated using pymatgen
data_KSb12(OsPd)2
_symmetry_space_group_name_H-M   'P 1'
_cell_length_a   8.22872942
_cell_length_b   8.22873084
_cell_length_c   8.26510729
_cell_angle_alpha   109.38735796
_cell_angle_beta   109.45289964
_cell_angle_gamma   109.39479395
_symmetry_Int_Tables_number   1
_chemical_formula_structural   KSb12(OsPd)2
_chemical_formula_sum   'K1 Sb12 Os2 Pd2'
_cell_volume   431.76332253
_cell_formula_units_Z   1
loop_
 _symmetry_equiv_pos_site_id
 _symmetry_equiv_pos_as_xyz
  1  'x, y, z'
loop_
 _atom_site_type_symbol
 _atom_site_label
 _atom_site_symmetry_multiplicity
 _atom_site_fract_x
 _atom_site_fract_y
 _atom_site_fract_z
 _atom_site_occupancy
  K  K0  1  0.000000  0.000000  0.000000  1
  Sb  Sb1  1  0.338603  0.187533  0.839786  1
  Sb  Sb2  1  0.661397  0.812467  0.160214  1
  Sb  Sb3  1  0.652253  0.501183  0.839786  1
  Sb  Sb4  1  0.347747  0.498817  0.160214  1
  Sb  Sb5  1  0.187335  0.848220  0.347984  1
  Sb  Sb6  1  0.812665  0.151780  0.652016  1
  Sb  Sb7  1  0.500238  0.839351  0.652016  1
  Sb  Sb8  1  0.499762  0.160649  0.347984  1
  Sb  Sb9  1  0.845696  0.348397  0.194092  1
  Sb  Sb10  1  0.154304  0.651603  0.805908  1
  Sb  Sb11  1  0.843017  0.661551  0.504569  1
  Sb  Sb12  1  0.156983  0.338449  0.495431  1
  Os  Os13  1  0.000000  0.000000  0.500000  1
  Os  Os14  1  0.500000  0.500000  0.500000  1
  Pd  Pd15  1  0.500000  0.000000  0.000000  1
  Pd  Pd16  1  0.000000  0.500000  0.000000  1
