# generated using pymatgen
data_Nd3Pa3(Ni3As4)2
_symmetry_space_group_name_H-M   'P 1'
_cell_length_a   7.86895645
_cell_length_b   7.85158439
_cell_length_c   7.86895611
_cell_angle_alpha   109.49286098
_cell_angle_beta   109.59847625
_cell_angle_gamma   109.41173915
_symmetry_Int_Tables_number   1
_chemical_formula_structural   Nd3Pa3(Ni3As4)2
_chemical_formula_sum   'Nd3 Pa3 Ni6 As8'
_cell_volume   373.84247123
_cell_formula_units_Z   1
loop_
 _symmetry_equiv_pos_site_id
 _symmetry_equiv_pos_as_xyz
  1  'x, y, z'
loop_
 _atom_site_type_symbol
 _atom_site_label
 _atom_site_symmetry_multiplicity
 _atom_site_fract_x
 _atom_site_fract_y
 _atom_site_fract_z
 _atom_site_occupancy
  Nd  Nd0  1  0.629154  0.750000  0.379154  1
  Nd  Nd1  1  0.249850  0.127455  0.876053  1
  Nd  Nd2  1  0.748598  0.372545  0.622393  1
  Pa  Pa3  1  0.127601  0.878067  0.250110  1
  Pa  Pa4  1  0.372043  0.621933  0.749534  1
  Pa  Pa5  1  0.871200  0.250000  0.121200  1
  Ni  Ni6  1  0.642467  0.366100  0.240541  1
  Ni  Ni7  1  0.874441  0.133900  0.776367  1
  Ni  Ni8  1  0.366688  0.250000  0.616688  1
  Ni  Ni9  1  0.132001  0.750000  0.882001  1
  Ni  Ni10  1  0.235625  0.617087  0.371229  1
  Ni  Ni11  1  0.754142  0.882913  0.118537  1
  As  As12  1  0.336698  0.339499  0.339264  1
  As  As13  1  0.160048  0.502177  0.000603  1
  As  As14  1  0.999766  0.160501  0.497199  1
  As  As15  1  0.840093  0.838221  0.842138  1
  As  As16  1  0.498425  0.997823  0.157872  1
  As  As17  1  0.661252  0.503713  0.999704  1
  As  As18  1  0.495991  0.996287  0.657539  1
  As  As19  1  0.003917  0.661779  0.501872  1
