# generated using pymatgen
data_CsRb5Gd2Br12
_symmetry_space_group_name_H-M   'P 1'
_cell_length_a   10.03281600
_cell_length_b   10.01447698
_cell_length_c   8.34056400
_cell_angle_alpha   90.00000000
_cell_angle_beta   90.00000000
_cell_angle_gamma   89.83020315
_symmetry_Int_Tables_number   1
_chemical_formula_structural   CsRb5Gd2Br12
_chemical_formula_sum   'Cs1 Rb5 Gd2 Br12'
_cell_volume   838.00118345
_cell_formula_units_Z   1
loop_
 _symmetry_equiv_pos_site_id
 _symmetry_equiv_pos_as_xyz
  1  'x, y, z'
loop_
 _atom_site_type_symbol
 _atom_site_label
 _atom_site_symmetry_multiplicity
 _atom_site_fract_x
 _atom_site_fract_y
 _atom_site_fract_z
 _atom_site_occupancy
  Cs  Cs0  1  0.000000  0.000000  0.000000  1
  Rb  Rb1  1  0.000000  0.000000  0.500000  1
  Rb  Rb2  1  0.233693  0.569736  0.500000  1
  Rb  Rb3  1  0.766307  0.430264  0.500000  1
  Rb  Rb4  1  0.431236  0.235641  0.000000  1
  Rb  Rb5  1  0.568764  0.764359  0.000000  1
  Gd  Gd6  1  0.500000  0.000000  0.500000  1
  Gd  Gd7  1  0.000000  0.500000  0.000000  1
  Br  Br8  1  0.694633  0.048247  0.742722  1
  Br  Br9  1  0.305367  0.951753  0.742722  1
  Br  Br10  1  0.952093  0.692425  0.246298  1
  Br  Br11  1  0.047907  0.307575  0.246298  1
  Br  Br12  1  0.305367  0.951753  0.257278  1
  Br  Br13  1  0.694633  0.048247  0.257278  1
  Br  Br14  1  0.047907  0.307575  0.753702  1
  Br  Br15  1  0.952093  0.692425  0.753702  1
  Br  Br16  1  0.556117  0.721155  0.500000  1
  Br  Br17  1  0.443883  0.278845  0.500000  1
  Br  Br18  1  0.277587  0.556882  0.000000  1
  Br  Br19  1  0.722413  0.443118  0.000000  1
