# generated using pymatgen
data_CaPrB2(Ru2C)2
_symmetry_space_group_name_H-M   'P 1'
_cell_length_a   6.74318145
_cell_length_b   5.91471523
_cell_length_c   5.53482618
_cell_angle_alpha   72.07805590
_cell_angle_beta   56.57196775
_cell_angle_gamma   51.34996888
_symmetry_Int_Tables_number   1
_chemical_formula_structural   CaPrB2(Ru2C)2
_chemical_formula_sum   'Ca1 Pr1 B2 Ru4 C2'
_cell_volume   143.65839033
_cell_formula_units_Z   1
loop_
 _symmetry_equiv_pos_site_id
 _symmetry_equiv_pos_as_xyz
  1  'x, y, z'
loop_
 _atom_site_type_symbol
 _atom_site_label
 _atom_site_symmetry_multiplicity
 _atom_site_fract_x
 _atom_site_fract_y
 _atom_site_fract_z
 _atom_site_occupancy
  Ca  Ca0  1  0.000000  0.000000  0.000000  1
  Pr  Pr1  1  0.250000  0.250000  0.250000  1
  B  B2  1  0.929592  0.570408  0.929592  1
  B  B3  1  0.570408  0.929592  0.570408  1
  Ru  Ru4  1  0.608294  0.608294  0.891706  1
  Ru  Ru5  1  0.630604  0.630604  0.369395  1
  Ru  Ru6  1  0.369395  0.369396  0.630604  1
  Ru  Ru7  1  0.891707  0.891706  0.608293  1
  C  C8  1  0.682364  0.317636  0.682364  1
  C  C9  1  0.317636  0.682364  0.317636  1
