# generated using pymatgen
data_Ti6CoAsSe
_symmetry_space_group_name_H-M   'P 1'
_cell_length_a   6.99626800
_cell_length_b   6.99626866
_cell_length_c   3.33209100
_cell_angle_alpha   90.00000000
_cell_angle_beta   90.00000000
_cell_angle_gamma   120.00000635
_symmetry_Int_Tables_number   1
_chemical_formula_structural   Ti6CoAsSe
_chemical_formula_sum   'Ti6 Co1 As1 Se1'
_cell_volume   141.24737086
_cell_formula_units_Z   1
loop_
 _symmetry_equiv_pos_site_id
 _symmetry_equiv_pos_as_xyz
  1  'x, y, z'
loop_
 _atom_site_type_symbol
 _atom_site_label
 _atom_site_symmetry_multiplicity
 _atom_site_fract_x
 _atom_site_fract_y
 _atom_site_fract_z
 _atom_site_occupancy
  Ti  Ti0  1  0.248795  0.001760  0.000000  1
  Ti  Ti1  1  0.752964  0.751205  0.000000  1
  Ti  Ti2  1  0.998240  0.247036  0.000000  1
  Ti  Ti3  1  0.996668  0.588075  0.500000  1
  Ti  Ti4  1  0.411925  0.408593  0.500000  1
  Ti  Ti5  1  0.591407  0.003332  0.500000  1
  Co  Co6  1  0.000000  0.000000  0.500000  1
  As  As7  1  0.666667  0.333333  0.000000  1
  Se  Se8  1  0.333333  0.666667  0.000000  1
