# generated using pymatgen
data_YbDy5HoPtI12
_symmetry_space_group_name_H-M   'P 1'
_cell_length_a   9.78954286
_cell_length_b   9.78467510
_cell_length_c   9.78764522
_cell_angle_alpha   106.99054736
_cell_angle_beta   107.00508158
_cell_angle_gamma   106.98834332
_symmetry_Int_Tables_number   1
_chemical_formula_structural   YbDy5HoPtI12
_chemical_formula_sum   'Yb1 Dy5 Ho1 Pt1 I12'
_cell_volume   780.90106285
_cell_formula_units_Z   1
loop_
 _symmetry_equiv_pos_site_id
 _symmetry_equiv_pos_as_xyz
  1  'x, y, z'
loop_
 _atom_site_type_symbol
 _atom_site_label
 _atom_site_symmetry_multiplicity
 _atom_site_fract_x
 _atom_site_fract_y
 _atom_site_fract_z
 _atom_site_occupancy
  Yb  Yb0  1  0.999986  0.000021  0.999989  1
  Dy  Dy1  1  0.401153  0.472786  0.197646  1
  Dy  Dy2  1  0.197674  0.401376  0.472695  1
  Dy  Dy3  1  0.472597  0.197536  0.401108  1
  Dy  Dy4  1  0.598856  0.527578  0.802462  1
  Dy  Dy5  1  0.802395  0.599043  0.527456  1
  Ho  Ho6  1  0.527395  0.801220  0.598379  1
  Pt  Pt7  1  0.500026  0.500452  0.500135  1
  I  I8  1  0.039511  0.347405  0.117214  1
  I  I9  1  0.117219  0.039517  0.347402  1
  I  I10  1  0.347381  0.117207  0.039509  1
  I  I11  1  0.960498  0.652614  0.882811  1
  I  I12  1  0.882370  0.960488  0.652605  1
  I  I13  1  0.652444  0.882852  0.960019  1
  I  I14  1  0.723767  0.573739  0.178268  1
  I  I15  1  0.178679  0.723995  0.573812  1
  I  I16  1  0.573675  0.177828  0.723620  1
  I  I17  1  0.276230  0.426270  0.821733  1
  I  I18  1  0.821688  0.276241  0.426264  1
  I  I19  1  0.426455  0.821833  0.276873  1
