# generated using pymatgen
data_Tb16Y4Co3Bi8Os
_symmetry_space_group_name_H-M   'P 1'
_cell_length_a   8.04347768
_cell_length_b   8.91655200
_cell_length_c   12.50753229
_cell_angle_alpha   90.00000000
_cell_angle_beta   90.27718924
_cell_angle_gamma   90.00000000
_symmetry_Int_Tables_number   1
_chemical_formula_structural   Tb16Y4Co3Bi8Os
_chemical_formula_sum   'Tb16 Y4 Co3 Bi8 Os1'
_cell_volume   897.03080668
_cell_formula_units_Z   1
loop_
 _symmetry_equiv_pos_site_id
 _symmetry_equiv_pos_as_xyz
  1  'x, y, z'
loop_
 _atom_site_type_symbol
 _atom_site_label
 _atom_site_symmetry_multiplicity
 _atom_site_fract_x
 _atom_site_fract_y
 _atom_site_fract_z
 _atom_site_occupancy
  Tb  Tb0  1  0.378884  0.750000  0.695264  1
  Tb  Tb1  1  0.618468  0.250000  0.309342  1
  Tb  Tb2  1  0.881285  0.250000  0.810564  1
  Tb  Tb3  1  0.118216  0.750000  0.187863  1
  Tb  Tb4  1  0.945080  0.750000  0.503891  1
  Tb  Tb5  1  0.050372  0.250000  0.496416  1
  Tb  Tb6  1  0.452915  0.250000  0.997474  1
  Tb  Tb7  1  0.546310  0.750000  0.002241  1
  Tb  Tb8  1  0.677606  0.041148  0.564553  1
  Tb  Tb9  1  0.324085  0.964561  0.437094  1
  Tb  Tb10  1  0.176030  0.966508  0.937067  1
  Tb  Tb11  1  0.324085  0.535439  0.437094  1
  Tb  Tb12  1  0.822933  0.035175  0.062684  1
  Tb  Tb13  1  0.677606  0.458852  0.564553  1
  Tb  Tb14  1  0.822933  0.464825  0.062684  1
  Tb  Tb15  1  0.176030  0.533492  0.937067  1
  Y  Y16  1  0.846849  0.750000  0.799559  1
  Y  Y17  1  0.152129  0.250000  0.198860  1
  Y  Y18  1  0.348141  0.250000  0.699678  1
  Y  Y19  1  0.653977  0.750000  0.294154  1
  Co  Co20  1  0.433960  0.250000  0.489820  1
  Co  Co21  1  0.059154  0.250000  0.991285  1
  Co  Co22  1  0.938826  0.750000  0.008005  1
  Bi  Bi23  1  0.572507  0.491204  0.827256  1
  Bi  Bi24  1  0.427085  0.507612  0.173361  1
  Bi  Bi25  1  0.072137  0.507586  0.674544  1
  Bi  Bi26  1  0.427085  0.992388  0.173361  1
  Bi  Bi27  1  0.929826  0.492038  0.325620  1
  Bi  Bi28  1  0.572507  0.008796  0.827256  1
  Bi  Bi29  1  0.929826  0.007962  0.325620  1
  Bi  Bi30  1  0.072137  0.992414  0.674544  1
  Os  Os31  1  0.571013  0.750000  0.511222  1
