# generated using pymatgen
data_TmLu5(ReB7)2
_symmetry_space_group_name_H-M   'P 1'
_cell_length_a   7.92436204
_cell_length_b   7.92436176
_cell_length_c   9.23967300
_cell_angle_alpha   90.00000000
_cell_angle_beta   90.00000000
_cell_angle_gamma   154.60522433
_symmetry_Int_Tables_number   1
_chemical_formula_structural   TmLu5(ReB7)2
_chemical_formula_sum   'Tm1 Lu5 Re2 B14'
_cell_volume   248.82465906
_cell_formula_units_Z   1
loop_
 _symmetry_equiv_pos_site_id
 _symmetry_equiv_pos_as_xyz
  1  'x, y, z'
loop_
 _atom_site_type_symbol
 _atom_site_label
 _atom_site_symmetry_multiplicity
 _atom_site_fract_x
 _atom_site_fract_y
 _atom_site_fract_z
 _atom_site_occupancy
  Tm  Tm0  1  0.243671  0.756329  0.250000  1
  Lu  Lu1  1  0.894463  0.105537  0.058832  1
  Lu  Lu2  1  0.105655  0.894345  0.559303  1
  Lu  Lu3  1  0.105655  0.894345  0.940697  1
  Lu  Lu4  1  0.894463  0.105537  0.441168  1
  Lu  Lu5  1  0.756882  0.243118  0.750000  1
  Re  Re6  1  0.051701  0.948299  0.250000  1
  Re  Re7  1  0.948055  0.051944  0.750000  1
  B  B8  1  0.452546  0.547454  0.250000  1
  B  B9  1  0.547380  0.452620  0.750000  1
  B  B10  1  0.727662  0.272338  0.033043  1
  B  B11  1  0.272279  0.727721  0.534322  1
  B  B12  1  0.272279  0.727721  0.965678  1
  B  B13  1  0.727662  0.272338  0.466957  1
  B  B14  1  0.632333  0.367667  0.349951  1
  B  B15  1  0.367508  0.632492  0.849711  1
  B  B16  1  0.367508  0.632492  0.650289  1
  B  B17  1  0.632333  0.367667  0.150049  1
  B  B18  1  0.519377  0.480623  0.405752  1
  B  B19  1  0.480606  0.519394  0.905752  1
  B  B20  1  0.480606  0.519394  0.594248  1
  B  B21  1  0.519377  0.480623  0.094248  1
