# generated using pymatgen
data_AcAl2SiIr
_symmetry_space_group_name_H-M   'P 1'
_cell_length_a   6.26570138
_cell_length_b   6.26570138
_cell_length_c   6.26570003
_cell_angle_alpha   139.70549463
_cell_angle_beta   139.70549385
_cell_angle_gamma   58.30074758
_symmetry_Int_Tables_number   1
_chemical_formula_structural   AcAl2SiIr
_chemical_formula_sum   'Ac1 Al2 Si1 Ir1'
_cell_volume   101.94517250
_cell_formula_units_Z   1
loop_
 _symmetry_equiv_pos_site_id
 _symmetry_equiv_pos_as_xyz
  1  'x, y, z'
loop_
 _atom_site_type_symbol
 _atom_site_label
 _atom_site_symmetry_multiplicity
 _atom_site_fract_x
 _atom_site_fract_y
 _atom_site_fract_z
 _atom_site_occupancy
  Ac  Ac0  1  0.017209  0.017209  0.000000  1
  Al  Al1  1  0.755605  0.255605  0.500000  1
  Al  Al2  1  0.255605  0.755605  0.500000  1
  Si  Si3  1  0.598483  0.598483  0.000000  1
  Ir  Ir4  1  0.373098  0.373098  0.000000  1
