# generated using pymatgen
data_Zr2Cr7P4Ir
_symmetry_space_group_name_H-M   'P 1'
_cell_length_a   6.94578920
_cell_length_b   7.02646397
_cell_length_c   3.81182800
_cell_angle_alpha   90.00000000
_cell_angle_beta   90.00000000
_cell_angle_gamma   90.45995654
_symmetry_Int_Tables_number   1
_chemical_formula_structural   Zr2Cr7P4Ir
_chemical_formula_sum   'Zr2 Cr7 P4 Ir1'
_cell_volume   186.02774616
_cell_formula_units_Z   1
loop_
 _symmetry_equiv_pos_site_id
 _symmetry_equiv_pos_as_xyz
  1  'x, y, z'
loop_
 _atom_site_type_symbol
 _atom_site_label
 _atom_site_symmetry_multiplicity
 _atom_site_fract_x
 _atom_site_fract_y
 _atom_site_fract_z
 _atom_site_occupancy
  Zr  Zr0  1  0.495589  0.503263  0.000000  1
  Zr  Zr1  1  0.003048  0.002981  0.500000  1
  Cr  Cr2  1  0.581922  0.159610  0.500000  1
  Cr  Cr3  1  0.404494  0.841573  0.500000  1
  Cr  Cr4  1  0.092787  0.340708  0.000000  1
  Cr  Cr5  1  0.923757  0.632992  0.000000  1
  Cr  Cr6  1  0.153496  0.594502  0.500000  1
  Cr  Cr7  1  0.840989  0.406801  0.500000  1
  Cr  Cr8  1  0.343854  0.094773  0.000000  1
  P  P9  1  0.713556  0.703503  0.500000  1
  P  P10  1  0.284010  0.293249  0.500000  1
  P  P11  1  0.211377  0.793808  0.000000  1
  P  P12  1  0.783016  0.223159  0.000000  1
  Ir  Ir13  1  0.668106  0.909076  0.000000  1
