# generated using pymatgen
data_Tb12Pr4Cd4IrPt3
_symmetry_space_group_name_H-M   'P 1'
_cell_length_a   9.79539928
_cell_length_b   9.76863314
_cell_length_c   9.76863301
_cell_angle_alpha   60.31955222
_cell_angle_beta   60.20470793
_cell_angle_gamma   60.20470964
_symmetry_Int_Tables_number   1
_chemical_formula_structural   Tb12Pr4Cd4IrPt3
_chemical_formula_sum   'Tb12 Pr4 Cd4 Ir1 Pt3'
_cell_volume   664.59329604
_cell_formula_units_Z   1
loop_
 _symmetry_equiv_pos_site_id
 _symmetry_equiv_pos_as_xyz
  1  'x, y, z'
loop_
 _atom_site_type_symbol
 _atom_site_label
 _atom_site_symmetry_multiplicity
 _atom_site_fract_x
 _atom_site_fract_y
 _atom_site_fract_z
 _atom_site_occupancy
  Tb  Tb0  1  0.352592  0.346521  0.346521  1
  Tb  Tb1  1  0.353047  0.350460  0.949342  1
  Tb  Tb2  1  0.353047  0.949342  0.350460  1
  Tb  Tb3  1  0.941493  0.353336  0.353336  1
  Tb  Tb4  1  0.808659  0.187801  0.187801  1
  Tb  Tb5  1  0.189652  0.810951  0.810951  1
  Tb  Tb6  1  0.190553  0.811724  0.188914  1
  Tb  Tb7  1  0.808593  0.186634  0.814828  1
  Tb  Tb8  1  0.190553  0.188914  0.811724  1
  Tb  Tb9  1  0.808593  0.814828  0.186634  1
  Tb  Tb10  1  0.945117  0.556635  0.556635  1
  Tb  Tb11  1  0.558194  0.943720  0.943720  1
  Pr  Pr12  1  0.564953  0.936896  0.563695  1
  Pr  Pr13  1  0.937972  0.561452  0.935378  1
  Pr  Pr14  1  0.564953  0.563695  0.936896  1
  Pr  Pr15  1  0.937972  0.935378  0.561452  1
  Cd  Cd16  1  0.583387  0.578448  0.578448  1
  Cd  Cd17  1  0.577775  0.584085  0.259126  1
  Cd  Cd18  1  0.577775  0.259126  0.584085  1
  Cd  Cd19  1  0.259947  0.578464  0.578464  1
  Ir  Ir20  1  0.572822  0.139732  0.139732  1
  Pt  Pt21  1  0.143188  0.143888  0.143888  1
  Pt  Pt22  1  0.139581  0.145658  0.572309  1
  Pt  Pt23  1  0.139581  0.572309  0.145658  1
