# generated using pymatgen
data_CeSm5Th2(AlRu)8
_symmetry_space_group_name_H-M   'P 1'
_cell_length_a   4.06512500
_cell_length_b   7.22171986
_cell_length_c   16.27496945
_cell_angle_alpha   91.25049862
_cell_angle_beta   90.00000000
_cell_angle_gamma   90.00000000
_symmetry_Int_Tables_number   1
_chemical_formula_structural   CeSm5Th2(AlRu)8
_chemical_formula_sum   'Ce1 Sm5 Th2 Al8 Ru8'
_cell_volume   477.67364380
_cell_formula_units_Z   1
loop_
 _symmetry_equiv_pos_site_id
 _symmetry_equiv_pos_as_xyz
  1  'x, y, z'
loop_
 _atom_site_type_symbol
 _atom_site_label
 _atom_site_symmetry_multiplicity
 _atom_site_fract_x
 _atom_site_fract_y
 _atom_site_fract_z
 _atom_site_occupancy
  Ce  Ce0  1  0.250000  0.538445  0.719433  1
  Sm  Sm1  1  0.750000  0.961007  0.218627  1
  Sm  Sm2  1  0.250000  0.163608  0.562587  1
  Sm  Sm3  1  0.750000  0.837974  0.440720  1
  Sm  Sm4  1  0.250000  0.665547  0.935838  1
  Sm  Sm5  1  0.250000  0.040191  0.780065  1
  Th  Th6  1  0.750000  0.467455  0.281793  1
  Th  Th7  1  0.750000  0.331919  0.060442  1
  Al  Al8  1  0.750000  0.502418  0.563769  1
  Al  Al9  1  0.750000  0.364630  0.850691  1
  Al  Al10  1  0.750000  0.991790  0.933577  1
  Al  Al11  1  0.750000  0.867850  0.651715  1
  Al  Al12  1  0.250000  0.499156  0.439681  1
  Al  Al13  1  0.250000  0.993169  0.063668  1
  Al  Al14  1  0.250000  0.640637  0.148995  1
  Al  Al15  1  0.250000  0.129558  0.349658  1
  Ru  Ru16  1  0.750000  0.730281  0.805639  1
  Ru  Ru17  1  0.250000  0.230677  0.938229  1
  Ru  Ru18  1  0.750000  0.267959  0.431828  1
  Ru  Ru19  1  0.250000  0.741811  0.316632  1
  Ru  Ru20  1  0.750000  0.764114  0.064842  1
  Ru  Ru21  1  0.750000  0.267781  0.687091  1
  Ru  Ru22  1  0.250000  0.270331  0.184552  1
  Ru  Ru23  1  0.250000  0.731694  0.569926  1
