# generated using pymatgen
data_Nb12Al9Cr(NiC2)2
_symmetry_space_group_name_H-M   'P 1'
_cell_length_a   8.29111953
_cell_length_b   8.30011593
_cell_length_c   8.33336612
_cell_angle_alpha   60.25343084
_cell_angle_beta   60.16755546
_cell_angle_gamma   60.03585430
_symmetry_Int_Tables_number   1
_chemical_formula_structural   Nb12Al9Cr(NiC2)2
_chemical_formula_sum   'Nb12 Al9 Cr1 Ni2 C4'
_cell_volume   406.90689314
_cell_formula_units_Z   1
loop_
 _symmetry_equiv_pos_site_id
 _symmetry_equiv_pos_as_xyz
  1  'x, y, z'
loop_
 _atom_site_type_symbol
 _atom_site_label
 _atom_site_symmetry_multiplicity
 _atom_site_fract_x
 _atom_site_fract_y
 _atom_site_fract_z
 _atom_site_occupancy
  Nb  Nb0  1  0.809476  0.810760  0.180105  1
  Nb  Nb1  1  0.190529  0.183396  0.814542  1
  Nb  Nb2  1  0.811533  0.183396  0.814542  1
  Nb  Nb3  1  0.199659  0.810760  0.180105  1
  Nb  Nb4  1  0.184771  0.814874  0.815584  1
  Nb  Nb5  1  0.807236  0.198024  0.187505  1
  Nb  Nb6  1  0.440524  0.439240  0.069895  1
  Nb  Nb7  1  0.059471  0.066604  0.435458  1
  Nb  Nb8  1  0.438467  0.066604  0.435458  1
  Nb  Nb9  1  0.050341  0.439240  0.069895  1
  Nb  Nb10  1  0.065229  0.435126  0.434416  1
  Nb  Nb11  1  0.442764  0.051976  0.062495  1
  Al  Al12  1  0.625000  0.125000  0.625000  1
  Al  Al13  1  0.746363  0.429245  0.418346  1
  Al  Al14  1  0.413598  0.751419  0.421387  1
  Al  Al15  1  0.406162  0.428616  0.759060  1
  Al  Al16  1  0.406047  0.429245  0.418346  1
  Al  Al17  1  0.503637  0.820755  0.831654  1
  Al  Al18  1  0.836402  0.498581  0.828613  1
  Al  Al19  1  0.843838  0.821384  0.490940  1
  Al  Al20  1  0.843953  0.820755  0.831654  1
  Cr  Cr21  1  0.625000  0.625000  0.125000  1
  Ni  Ni22  1  0.125000  0.625000  0.625000  1
  Ni  Ni23  1  0.625000  0.625000  0.625000  1
  C  C24  1  0.625000  0.125000  0.125000  1
  C  C25  1  0.125000  0.625000  0.125000  1
  C  C26  1  0.125000  0.125000  0.625000  1
  C  C27  1  0.125000  0.125000  0.125000  1
