# generated using pymatgen
data_Tb7Sm2Er(In2Pd)4
_symmetry_space_group_name_H-M   'P 1'
_cell_length_a   3.64232400
_cell_length_b   8.21057828
_cell_length_c   18.40885463
_cell_angle_alpha   89.97007336
_cell_angle_beta   90.00000000
_cell_angle_gamma   90.00000000
_symmetry_Int_Tables_number   1
_chemical_formula_structural   Tb7Sm2Er(In2Pd)4
_chemical_formula_sum   'Tb7 Sm2 Er1 In8 Pd4'
_cell_volume   550.52751608
_cell_formula_units_Z   1
loop_
 _symmetry_equiv_pos_site_id
 _symmetry_equiv_pos_as_xyz
  1  'x, y, z'
loop_
 _atom_site_type_symbol
 _atom_site_label
 _atom_site_symmetry_multiplicity
 _atom_site_fract_x
 _atom_site_fract_y
 _atom_site_fract_z
 _atom_site_occupancy
  Tb  Tb0  1  0.000000  0.739186  0.282035  1
  Tb  Tb1  1  0.000000  0.260875  0.718161  1
  Tb  Tb2  1  0.000000  0.760924  0.781803  1
  Tb  Tb3  1  0.000000  0.238959  0.218303  1
  Tb  Tb4  1  0.000000  0.620132  0.083863  1
  Tb  Tb5  1  0.000000  0.379810  0.916268  1
  Tb  Tb6  1  0.000000  0.879891  0.583601  1
  Sm  Sm7  1  0.000000  0.500065  0.499911  1
  Sm  Sm8  1  0.000000  0.999913  0.000026  1
  Er  Er9  1  0.000000  0.119463  0.415382  1
  In  In10  1  0.500000  0.703647  0.932230  1
  In  In11  1  0.500000  0.296346  0.067693  1
  In  In12  1  0.500000  0.798294  0.432393  1
  In  In13  1  0.500000  0.203105  0.566978  1
  In  In14  1  0.500000  0.581046  0.652127  1
  In  In15  1  0.500000  0.417306  0.348244  1
  In  In16  1  0.500000  0.919227  0.152301  1
  In  In17  1  0.500000  0.080874  0.847804  1
  Pd  Pd18  1  0.500000  0.523617  0.195958  1
  Pd  Pd19  1  0.500000  0.476305  0.804074  1
  Pd  Pd20  1  0.500000  0.976459  0.695811  1
  Pd  Pd21  1  0.500000  0.024554  0.305033  1
