# generated using pymatgen
data_Lu3(In2Ni)2
_symmetry_space_group_name_H-M   'P 1'
_cell_length_a   7.74885800
_cell_length_b   7.74885874
_cell_length_c   3.62599100
_cell_angle_alpha   90.00000000
_cell_angle_beta   90.00000000
_cell_angle_gamma   120.00000767
_symmetry_Int_Tables_number   1
_chemical_formula_structural   Lu3(In2Ni)2
_chemical_formula_sum   'Lu3 In4 Ni2'
_cell_volume   188.55270454
_cell_formula_units_Z   1
loop_
 _symmetry_equiv_pos_site_id
 _symmetry_equiv_pos_as_xyz
  1  'x, y, z'
loop_
 _atom_site_type_symbol
 _atom_site_label
 _atom_site_symmetry_multiplicity
 _atom_site_fract_x
 _atom_site_fract_y
 _atom_site_fract_z
 _atom_site_occupancy
  Lu  Lu0  1  0.048296  0.293712  0.500000  1
  Lu  Lu1  1  0.706288  0.754583  0.500000  1
  Lu  Lu2  1  0.245417  0.951704  0.500000  1
  In  In3  1  0.666228  0.081084  0.000000  1
  In  In4  1  0.918916  0.585145  0.000000  1
  In  In5  1  0.414855  0.333772  0.000000  1
  In  In6  1  0.333333  0.666667  0.000000  1
  Ni  Ni7  1  0.666667  0.333333  0.500000  1
  Ni  Ni8  1  0.000000  0.000000  0.000000  1
