# generated using pymatgen
data_CePu3ZnSi7
_symmetry_space_group_name_H-M   'P 1'
_cell_length_a   4.05776000
_cell_length_b   4.12978100
_cell_length_c   13.90926900
_cell_angle_alpha   90.00000000
_cell_angle_beta   90.00000000
_cell_angle_gamma   90.00000000
_symmetry_Int_Tables_number   1
_chemical_formula_structural   CePu3ZnSi7
_chemical_formula_sum   'Ce1 Pu3 Zn1 Si7'
_cell_volume   233.08680284
_cell_formula_units_Z   1
loop_
 _symmetry_equiv_pos_site_id
 _symmetry_equiv_pos_as_xyz
  1  'x, y, z'
loop_
 _atom_site_type_symbol
 _atom_site_label
 _atom_site_symmetry_multiplicity
 _atom_site_fract_x
 _atom_site_fract_y
 _atom_site_fract_z
 _atom_site_occupancy
  Ce  Ce0  1  0.250000  0.000000  0.382630  1
  Pu  Pu1  1  0.750000  0.500000  0.875292  1
  Pu  Pu2  1  0.250000  0.500000  0.115744  1
  Pu  Pu3  1  0.750000  0.000000  0.626318  1
  Zn  Zn4  1  0.750000  0.500000  0.289028  1
  Si  Si5  1  0.250000  0.000000  0.790973  1
  Si  Si6  1  0.750000  0.000000  0.206644  1
  Si  Si7  1  0.250000  0.500000  0.711618  1
  Si  Si8  1  0.750000  0.500000  0.460236  1
  Si  Si9  1  0.250000  0.000000  0.956070  1
  Si  Si10  1  0.750000  0.000000  0.040076  1
  Si  Si11  1  0.250000  0.500000  0.545372  1
