# generated using pymatgen
data_Zr5TiIn4CBr18
_symmetry_space_group_name_H-M   'P 1'
_cell_length_a   10.32929494
_cell_length_b   10.57314954
_cell_length_c   10.63925785
_cell_angle_alpha   118.41673894
_cell_angle_beta   100.11289665
_cell_angle_gamma   103.85417102
_symmetry_Int_Tables_number   1
_chemical_formula_structural   Zr5TiIn4CBr18
_chemical_formula_sum   'Zr5 Ti1 In4 C1 Br18'
_cell_volume   933.43641851
_cell_formula_units_Z   1
loop_
 _symmetry_equiv_pos_site_id
 _symmetry_equiv_pos_as_xyz
  1  'x, y, z'
loop_
 _atom_site_type_symbol
 _atom_site_label
 _atom_site_symmetry_multiplicity
 _atom_site_fract_x
 _atom_site_fract_y
 _atom_site_fract_z
 _atom_site_occupancy
  Zr  Zr0  1  0.363919  0.624361  0.130135  1
  Zr  Zr1  1  0.641700  0.731866  0.041676  1
  Zr  Zr2  1  0.647813  0.554329  0.224342  1
  Zr  Zr3  1  0.356214  0.267221  0.955322  1
  Zr  Zr4  1  0.634104  0.375127  0.867229  1
  Ti  Ti5  1  0.360376  0.448555  0.788610  1
  In  In6  1  0.176135  0.716435  0.554615  1
  In  In7  1  0.854646  0.963604  0.775625  1
  In  In8  1  0.145855  0.042370  0.228639  1
  In  In9  1  0.831397  0.280231  0.444197  1
  C  C10  1  0.499558  0.499827  0.999579  1
  Br  Br11  1  0.823476  0.420349  0.108478  1
  Br  Br12  1  0.515569  0.704851  0.410278  1
  Br  Br13  1  0.170905  0.978526  0.896137  1
  Br  Br14  1  0.183642  0.571976  0.884851  1
  Br  Br15  1  0.832366  0.834050  0.311271  1
  Br  Br16  1  0.503912  0.295150  0.209889  1
  Br  Br17  1  0.796118  0.222543  0.705791  1
  Br  Br18  1  0.174981  0.179718  0.692444  1
  Br  Br19  1  0.508008  0.910027  0.196304  1
  Br  Br20  1  0.819870  0.626290  0.901278  1
  Br  Br21  1  0.199968  0.776325  0.288384  1
  Br  Br22  1  0.161367  0.376773  0.499603  1
  Br  Br23  1  0.487875  0.691933  0.787903  1
  Br  Br24  1  0.823896  0.019514  0.096036  1
  Br  Br25  1  0.477322  0.302432  0.597844  1
  Br  Br26  1  0.179695  0.373326  0.098239  1
  Br  Br27  1  0.838553  0.623054  0.503544  1
  Br  Br28  1  0.490760  0.089236  0.801758  1
