# generated using pymatgen
data_Ca3Si4(PPd10)2
_symmetry_space_group_name_H-M   'P 1'
_cell_length_a   8.70020557
_cell_length_b   8.70343991
_cell_length_c   8.70020500
_cell_angle_alpha   59.98769201
_cell_angle_beta   59.99269030
_cell_angle_gamma   59.98769988
_symmetry_Int_Tables_number   1
_chemical_formula_structural   Ca3Si4(PPd10)2
_chemical_formula_sum   'Ca3 Si4 P2 Pd20'
_cell_volume   465.72564790
_cell_formula_units_Z   1
loop_
 _symmetry_equiv_pos_site_id
 _symmetry_equiv_pos_as_xyz
  1  'x, y, z'
loop_
 _atom_site_type_symbol
 _atom_site_label
 _atom_site_symmetry_multiplicity
 _atom_site_fract_x
 _atom_site_fract_y
 _atom_site_fract_z
 _atom_site_occupancy
  Ca  Ca0  1  0.998590  0.000000  0.001410  1
  Ca  Ca1  1  0.751601  0.749975  0.748451  1
  Ca  Ca2  1  0.251549  0.250025  0.248399  1
  Si  Si3  1  0.733331  0.267783  0.266669  1
  Si  Si4  1  0.733331  0.732217  0.266669  1
  Si  Si5  1  0.734964  0.266531  0.731975  1
  Si  Si6  1  0.268025  0.733469  0.265036  1
  P  P7  1  0.266419  0.735301  0.733581  1
  P  P8  1  0.266419  0.264699  0.733581  1
  Pd  Pd9  1  0.344110  0.002850  0.999676  1
  Pd  Pd10  1  0.999337  0.655154  0.346377  1
  Pd  Pd11  1  0.344249  0.000000  0.655751  1
  Pd  Pd12  1  0.001514  0.655191  0.998486  1
  Pd  Pd13  1  0.653623  0.344846  0.000663  1
  Pd  Pd14  1  0.615889  0.615857  0.152396  1
  Pd  Pd15  1  0.383865  0.845646  0.386367  1
  Pd  Pd16  1  0.156362  0.613965  0.615705  1
  Pd  Pd17  1  0.654559  0.000000  0.345441  1
  Pd  Pd18  1  0.000324  0.346637  0.655890  1
  Pd  Pd19  1  0.653623  0.000867  0.000663  1
  Pd  Pd20  1  0.999337  0.999133  0.346377  1
  Pd  Pd21  1  0.613633  0.154354  0.616135  1
  Pd  Pd22  1  0.344110  0.653363  0.999676  1
  Pd  Pd23  1  0.383865  0.384124  0.386367  1
  Pd  Pd24  1  0.613633  0.615876  0.616135  1
  Pd  Pd25  1  0.384295  0.386035  0.843638  1
  Pd  Pd26  1  0.000324  0.997150  0.655890  1
  Pd  Pd27  1  0.847604  0.384143  0.384111  1
  Pd  Pd28  1  0.001514  0.344809  0.998486  1
