# generated using pymatgen
data_Dy5Sc5(Hg2Pt)4
_symmetry_space_group_name_H-M   'P 1'
_cell_length_a   3.60003900
_cell_length_b   7.88255124
_cell_length_c   17.45083974
_cell_angle_alpha   90.48779098
_cell_angle_beta   90.00000000
_cell_angle_gamma   90.00000000
_symmetry_Int_Tables_number   1
_chemical_formula_structural   Dy5Sc5(Hg2Pt)4
_chemical_formula_sum   'Dy5 Sc5 Hg8 Pt4'
_cell_volume   495.19311635
_cell_formula_units_Z   1
loop_
 _symmetry_equiv_pos_site_id
 _symmetry_equiv_pos_as_xyz
  1  'x, y, z'
loop_
 _atom_site_type_symbol
 _atom_site_label
 _atom_site_symmetry_multiplicity
 _atom_site_fract_x
 _atom_site_fract_y
 _atom_site_fract_z
 _atom_site_occupancy
  Dy  Dy0  1  0.000000  0.234268  0.210108  1
  Dy  Dy1  1  0.000000  0.765732  0.789892  1
  Dy  Dy2  1  0.000000  0.264219  0.714980  1
  Dy  Dy3  1  0.000000  0.735781  0.285020  1
  Dy  Dy4  1  0.000000  0.500000  0.500000  1
  Sc  Sc5  1  0.000000  0.110638  0.412904  1
  Sc  Sc6  1  0.000000  0.889362  0.587096  1
  Sc  Sc7  1  0.000000  0.389655  0.916181  1
  Sc  Sc8  1  0.000000  0.610345  0.083819  1
  Sc  Sc9  1  0.000000  0.000000  0.000000  1
  Hg  Hg10  1  0.500000  0.412516  0.353990  1
  Hg  Hg11  1  0.500000  0.587484  0.646010  1
  Hg  Hg12  1  0.500000  0.085830  0.861504  1
  Hg  Hg13  1  0.500000  0.914170  0.138496  1
  Hg  Hg14  1  0.500000  0.287404  0.052602  1
  Hg  Hg15  1  0.500000  0.712596  0.947398  1
  Hg  Hg16  1  0.500000  0.200115  0.555977  1
  Hg  Hg17  1  0.500000  0.799885  0.444023  1
  Pt  Pt18  1  0.500000  0.028029  0.304687  1
  Pt  Pt19  1  0.500000  0.971971  0.695313  1
  Pt  Pt20  1  0.500000  0.471296  0.808951  1
  Pt  Pt21  1  0.500000  0.528704  0.191049  1
