# generated using pymatgen
data_Hf16Tc3Ni4Ir
_symmetry_space_group_name_H-M   'P 1'
_cell_length_a   8.61541557
_cell_length_b   8.63990331
_cell_length_c   8.63990500
_cell_angle_alpha   60.00000501
_cell_angle_beta   59.90593731
_cell_angle_gamma   59.90593934
_symmetry_Int_Tables_number   1
_chemical_formula_structural   Hf16Tc3Ni4Ir
_chemical_formula_sum   'Hf16 Tc3 Ni4 Ir1'
_cell_volume   454.10907249
_cell_formula_units_Z   1
loop_
 _symmetry_equiv_pos_site_id
 _symmetry_equiv_pos_as_xyz
  1  'x, y, z'
loop_
 _atom_site_type_symbol
 _atom_site_label
 _atom_site_symmetry_multiplicity
 _atom_site_fract_x
 _atom_site_fract_y
 _atom_site_fract_z
 _atom_site_occupancy
  Hf  Hf0  1  0.683492  0.105503  0.105503  1
  Hf  Hf1  1  0.106087  0.680967  0.106473  1
  Hf  Hf2  1  0.106087  0.106473  0.680967  1
  Hf  Hf3  1  0.106087  0.106473  0.106473  1
  Hf  Hf4  1  0.315640  0.315761  0.684300  1
  Hf  Hf5  1  0.679886  0.687999  0.316057  1
  Hf  Hf6  1  0.315640  0.684300  0.315761  1
  Hf  Hf7  1  0.679886  0.316057  0.687999  1
  Hf  Hf8  1  0.679886  0.316057  0.316057  1
  Hf  Hf9  1  0.315640  0.684300  0.684300  1
  Hf  Hf10  1  0.950712  0.950140  0.549574  1
  Hf  Hf11  1  0.550039  0.548899  0.950531  1
  Hf  Hf12  1  0.950712  0.549574  0.950140  1
  Hf  Hf13  1  0.550039  0.950531  0.548899  1
  Hf  Hf14  1  0.550039  0.950531  0.950531  1
  Hf  Hf15  1  0.950712  0.549574  0.549574  1
  Tc  Tc16  1  0.335715  0.997032  0.333626  1
  Tc  Tc17  1  0.335715  0.333626  0.997032  1
  Tc  Tc18  1  0.335715  0.333626  0.333626  1
  Ni  Ni19  1  0.319278  0.893574  0.893574  1
  Ni  Ni20  1  0.894543  0.320354  0.892551  1
  Ni  Ni21  1  0.894543  0.892551  0.320354  1
  Ni  Ni22  1  0.894543  0.892551  0.892551  1
  Ir  Ir23  1  0.999363  0.333545  0.333545  1
