# generated using pymatgen
data_YbAl2ZnSi
_symmetry_space_group_name_H-M   'P 1'
_cell_length_a   4.19605284
_cell_length_b   4.19605418
_cell_length_c   6.10205561
_cell_angle_alpha   69.89004991
_cell_angle_beta   69.89004375
_cell_angle_gamma   89.99998737
_symmetry_Int_Tables_number   1
_chemical_formula_structural   YbAl2ZnSi
_chemical_formula_sum   'Yb1 Al2 Zn1 Si1'
_cell_volume   93.88217273
_cell_formula_units_Z   1
loop_
 _symmetry_equiv_pos_site_id
 _symmetry_equiv_pos_as_xyz
  1  'x, y, z'
loop_
 _atom_site_type_symbol
 _atom_site_label
 _atom_site_symmetry_multiplicity
 _atom_site_fract_x
 _atom_site_fract_y
 _atom_site_fract_z
 _atom_site_occupancy
  Yb  Yb0  1  0.001838  0.001838  0.996324  1
  Al  Al1  1  0.751001  0.251001  0.497999  1
  Al  Al2  1  0.251001  0.751001  0.497999  1
  Zn  Zn3  1  0.386320  0.386320  0.227358  1
  Si  Si4  1  0.609840  0.609840  0.780320  1
