# generated using pymatgen
data_NdDy2Er2(MnB3)2
_symmetry_space_group_name_H-M   'P 1'
_cell_length_a   5.42500376
_cell_length_b   5.42500450
_cell_length_c   8.28437617
_cell_angle_alpha   70.88751329
_cell_angle_beta   70.88751240
_cell_angle_gamma   60.00000101
_symmetry_Int_Tables_number   1
_chemical_formula_structural   NdDy2Er2(MnB3)2
_chemical_formula_sum   'Nd1 Dy2 Er2 Mn2 B6'
_cell_volume   195.47703523
_cell_formula_units_Z   1
loop_
 _symmetry_equiv_pos_site_id
 _symmetry_equiv_pos_as_xyz
  1  'x, y, z'
loop_
 _atom_site_type_symbol
 _atom_site_label
 _atom_site_symmetry_multiplicity
 _atom_site_fract_x
 _atom_site_fract_y
 _atom_site_fract_z
 _atom_site_occupancy
  Nd  Nd0  1  0.000000  0.000000  0.000000  1
  Dy  Dy1  1  0.250506  0.250506  0.248481  1
  Dy  Dy2  1  0.749494  0.749494  0.751519  1
  Er  Er3  1  0.418287  0.418287  0.745138  1
  Er  Er4  1  0.581713  0.581713  0.254862  1
  Mn  Mn5  1  0.114727  0.114727  0.655819  1
  Mn  Mn6  1  0.885273  0.885273  0.344181  1
  B  B7  1  0.166137  0.833863  0.500000  1
  B  B8  1  0.833863  0.500000  0.500000  1
  B  B9  1  0.500000  0.166137  0.500000  1
  B  B10  1  0.166137  0.500000  0.500000  1
  B  B11  1  0.500000  0.833863  0.500000  1
  B  B12  1  0.833863  0.166137  0.500000  1
