# generated using pymatgen
data_Tm8B24Ru3W
_symmetry_space_group_name_H-M   'P 1'
_cell_length_a   3.60338300
_cell_length_b   9.10347833
_cell_length_c   11.48587320
_cell_angle_alpha   89.85480522
_cell_angle_beta   90.00000000
_cell_angle_gamma   90.00000000
_symmetry_Int_Tables_number   1
_chemical_formula_structural   Tm8B24Ru3W
_chemical_formula_sum   'Tm8 B24 Ru3 W1'
_cell_volume   376.77355315
_cell_formula_units_Z   1
loop_
 _symmetry_equiv_pos_site_id
 _symmetry_equiv_pos_as_xyz
  1  'x, y, z'
loop_
 _atom_site_type_symbol
 _atom_site_label
 _atom_site_symmetry_multiplicity
 _atom_site_fract_x
 _atom_site_fract_y
 _atom_site_fract_z
 _atom_site_occupancy
  Tm  Tm0  1  0.000000  0.321394  0.413688  1
  Tm  Tm1  1  0.000000  0.677564  0.585422  1
  Tm  Tm2  1  0.000000  0.820471  0.087256  1
  Tm  Tm3  1  0.000000  0.177288  0.914947  1
  Tm  Tm4  1  0.000000  0.946633  0.373477  1
  Tm  Tm5  1  0.000000  0.057476  0.628792  1
  Tm  Tm6  1  0.000000  0.442635  0.125532  1
  Tm  Tm7  1  0.000000  0.556706  0.871067  1
  B  B8  1  0.500000  0.549696  0.436984  1
  B  B9  1  0.500000  0.445883  0.568265  1
  B  B10  1  0.500000  0.053785  0.066328  1
  B  B11  1  0.500000  0.946398  0.933368  1
  B  B12  1  0.500000  0.752460  0.423182  1
  B  B13  1  0.500000  0.251442  0.580673  1
  B  B14  1  0.500000  0.248401  0.079675  1
  B  B15  1  0.500000  0.751226  0.919443  1
  B  B16  1  0.500000  0.796583  0.263658  1
  B  B17  1  0.500000  0.208272  0.734481  1
  B  B18  1  0.500000  0.290834  0.232660  1
  B  B19  1  0.500000  0.708886  0.765588  1
  B  B20  1  0.500000  0.632021  0.181363  1
  B  B21  1  0.500000  0.367813  0.815275  1
  B  B22  1  0.500000  0.131852  0.314536  1
  B  B23  1  0.500000  0.868991  0.685144  1
  B  B24  1  0.500000  0.983772  0.212410  1
  B  B25  1  0.500000  0.017393  0.788092  1
  B  B26  1  0.500000  0.476157  0.286394  1
  B  B27  1  0.500000  0.516777  0.712979  1
  B  B28  1  0.500000  0.606171  0.027381  1
  B  B29  1  0.500000  0.392616  0.969429  1
  B  B30  1  0.500000  0.107787  0.471247  1
  B  B31  1  0.500000  0.896026  0.530852  1
  Ru  Ru32  1  0.000000  0.361030  0.680313  1
  Ru  Ru33  1  0.000000  0.137808  0.177940  1
  Ru  Ru34  1  0.000000  0.862010  0.820800  1
  W  W35  1  0.000000  0.637745  0.321358  1
