# generated using pymatgen
data_Y6Er10Cd4Ir3Pt
_symmetry_space_group_name_H-M   'P 1'
_cell_length_a   9.60529638
_cell_length_b   9.60529655
_cell_length_c   9.60529693
_cell_angle_alpha   60.09477469
_cell_angle_beta   60.09477392
_cell_angle_gamma   60.09477632
_symmetry_Int_Tables_number   1
_chemical_formula_structural   Y6Er10Cd4Ir3Pt
_chemical_formula_sum   'Y6 Er10 Cd4 Ir3 Pt1'
_cell_volume   627.98459647
_cell_formula_units_Z   1
loop_
 _symmetry_equiv_pos_site_id
 _symmetry_equiv_pos_as_xyz
  1  'x, y, z'
loop_
 _atom_site_type_symbol
 _atom_site_label
 _atom_site_symmetry_multiplicity
 _atom_site_fract_x
 _atom_site_fract_y
 _atom_site_fract_z
 _atom_site_occupancy
  Y  Y0  1  0.940004  0.561354  0.561354  1
  Y  Y1  1  0.562149  0.938614  0.938614  1
  Y  Y2  1  0.561354  0.940004  0.561354  1
  Y  Y3  1  0.938614  0.562149  0.938614  1
  Y  Y4  1  0.561354  0.561354  0.940004  1
  Y  Y5  1  0.938614  0.938614  0.562149  1
  Er  Er6  1  0.347795  0.347795  0.347795  1
  Er  Er7  1  0.351740  0.351740  0.950772  1
  Er  Er8  1  0.351740  0.950772  0.351740  1
  Er  Er9  1  0.950772  0.351740  0.351740  1
  Er  Er10  1  0.806470  0.190069  0.190069  1
  Er  Er11  1  0.187178  0.810749  0.810749  1
  Er  Er12  1  0.190069  0.806470  0.190069  1
  Er  Er13  1  0.810749  0.187178  0.810749  1
  Er  Er14  1  0.190069  0.190069  0.806470  1
  Er  Er15  1  0.810749  0.810749  0.187178  1
  Cd  Cd16  1  0.580271  0.580271  0.580271  1
  Cd  Cd17  1  0.580798  0.580798  0.257300  1
  Cd  Cd18  1  0.580798  0.257300  0.580798  1
  Cd  Cd19  1  0.257300  0.580798  0.580798  1
  Ir  Ir20  1  0.141952  0.141952  0.574846  1
  Ir  Ir21  1  0.141952  0.574846  0.141952  1
  Ir  Ir22  1  0.574846  0.141952  0.141952  1
  Pt  Pt23  1  0.142664  0.142664  0.142664  1
