# generated using pymatgen
data_TbYb3MnFe3B16
_symmetry_space_group_name_H-M   'P 1'
_cell_length_a   3.35439800
_cell_length_b   5.90671012
_cell_length_c   11.42223001
_cell_angle_alpha   90.01411746
_cell_angle_beta   90.00000000
_cell_angle_gamma   90.00000000
_symmetry_Int_Tables_number   1
_chemical_formula_structural   TbYb3MnFe3B16
_chemical_formula_sum   'Tb1 Yb3 Mn1 Fe3 B16'
_cell_volume   226.31385196
_cell_formula_units_Z   1
loop_
 _symmetry_equiv_pos_site_id
 _symmetry_equiv_pos_as_xyz
  1  'x, y, z'
loop_
 _atom_site_type_symbol
 _atom_site_label
 _atom_site_symmetry_multiplicity
 _atom_site_fract_x
 _atom_site_fract_y
 _atom_site_fract_z
 _atom_site_occupancy
  Tb  Tb0  1  0.500000  0.873215  0.348693  1
  Yb  Yb1  1  0.500000  0.374393  0.148719  1
  Yb  Yb2  1  0.500000  0.626471  0.849219  1
  Yb  Yb3  1  0.500000  0.125900  0.652476  1
  Mn  Mn4  1  0.500000  0.371763  0.415544  1
  Fe  Fe5  1  0.500000  0.627667  0.583666  1
  Fe  Fe6  1  0.500000  0.127608  0.916942  1
  Fe  Fe7  1  0.500000  0.873204  0.082994  1
  B  B8  1  0.000000  0.112636  0.045874  1
  B  B9  1  0.000000  0.887763  0.953713  1
  B  B10  1  0.000000  0.388177  0.548211  1
  B  B11  1  0.000000  0.612428  0.454963  1
  B  B12  1  0.000000  0.138209  0.469123  1
  B  B13  1  0.000000  0.860740  0.533565  1
  B  B14  1  0.000000  0.361061  0.967520  1
  B  B15  1  0.000000  0.639112  0.031704  1
  B  B16  1  0.000000  0.024740  0.188810  1
  B  B17  1  0.000000  0.975641  0.810160  1
  B  B18  1  0.000000  0.476097  0.691030  1
  B  B19  1  0.000000  0.525267  0.308786  1
  B  B20  1  0.000000  0.219484  0.315722  1
  B  B21  1  0.000000  0.778776  0.683472  1
  B  B22  1  0.000000  0.279120  0.817963  1
  B  B23  1  0.000000  0.720529  0.181133  1
