# generated using pymatgen
data_Tb3YSn6Ir7
_symmetry_space_group_name_H-M   'P 1'
_cell_length_a   7.61775892
_cell_length_b   7.61775934
_cell_length_c   7.61795600
_cell_angle_alpha   109.47173828
_cell_angle_beta   109.47173938
_cell_angle_gamma   109.47069703
_symmetry_Int_Tables_number   1
_chemical_formula_structural   Tb3YSn6Ir7
_chemical_formula_sum   'Tb3 Y1 Sn6 Ir7'
_cell_volume   340.30497129
_cell_formula_units_Z   1
loop_
 _symmetry_equiv_pos_site_id
 _symmetry_equiv_pos_as_xyz
  1  'x, y, z'
loop_
 _atom_site_type_symbol
 _atom_site_label
 _atom_site_symmetry_multiplicity
 _atom_site_fract_x
 _atom_site_fract_y
 _atom_site_fract_z
 _atom_site_occupancy
  Tb  Tb0  1  0.000000  0.500000  0.000000  1
  Tb  Tb1  1  0.500000  0.000000  0.000000  1
  Tb  Tb2  1  0.500000  0.500000  0.500000  1
  Y  Y3  1  0.000000  0.000000  0.500000  1
  Sn  Sn4  1  0.685447  0.685447  0.000050  1
  Sn  Sn5  1  0.314553  0.000000  0.314603  1
  Sn  Sn6  1  0.000000  0.314553  0.314603  1
  Sn  Sn7  1  0.314553  0.314553  0.999950  1
  Sn  Sn8  1  0.685447  0.000000  0.685397  1
  Sn  Sn9  1  0.000000  0.685447  0.685397  1
  Ir  Ir10  1  0.750027  0.249973  0.500000  1
  Ir  Ir11  1  0.750027  0.500055  0.250027  1
  Ir  Ir12  1  0.499945  0.249973  0.749973  1
  Ir  Ir13  1  0.249973  0.499945  0.749973  1
  Ir  Ir14  1  0.249973  0.750027  0.500000  1
  Ir  Ir15  1  0.500055  0.750027  0.250027  1
  Ir  Ir16  1  0.000000  0.000000  0.000000  1
