# generated using pymatgen
data_Pr7ZnAu2
_symmetry_space_group_name_H-M   'P 1'
_cell_length_a   3.88161900
_cell_length_b   12.46189000
_cell_length_c   12.46189000
_cell_angle_alpha   90.00000000
_cell_angle_beta   90.00000000
_cell_angle_gamma   90.00000000
_symmetry_Int_Tables_number   1
_chemical_formula_structural   Pr7ZnAu2
_chemical_formula_sum   'Pr14 Zn2 Au4'
_cell_volume   602.81039380
_cell_formula_units_Z   2
loop_
 _symmetry_equiv_pos_site_id
 _symmetry_equiv_pos_as_xyz
  1  'x, y, z'
loop_
 _atom_site_type_symbol
 _atom_site_label
 _atom_site_symmetry_multiplicity
 _atom_site_fract_x
 _atom_site_fract_y
 _atom_site_fract_z
 _atom_site_occupancy
  Pr  Pr0  1  0.500000  0.000000  0.500000  1
  Pr  Pr1  1  0.500000  0.500000  0.000000  1
  Pr  Pr2  1  0.000000  0.320019  0.820019  1
  Pr  Pr3  1  0.000000  0.679981  0.179981  1
  Pr  Pr4  1  0.000000  0.179981  0.320019  1
  Pr  Pr5  1  0.000000  0.820019  0.679981  1
  Pr  Pr6  1  0.500000  0.553122  0.692883  1
  Pr  Pr7  1  0.500000  0.446878  0.307117  1
  Pr  Pr8  1  0.500000  0.946878  0.192883  1
  Pr  Pr9  1  0.500000  0.053122  0.807117  1
  Pr  Pr10  1  0.500000  0.692883  0.446878  1
  Pr  Pr11  1  0.500000  0.307117  0.553122  1
  Pr  Pr12  1  0.500000  0.192883  0.053122  1
  Pr  Pr13  1  0.500000  0.807117  0.946878  1
  Zn  Zn14  1  0.000000  0.500000  0.500000  1
  Zn  Zn15  1  0.000000  0.000000  0.000000  1
  Au  Au16  1  0.000000  0.132633  0.632633  1
  Au  Au17  1  0.000000  0.867367  0.367367  1
  Au  Au18  1  0.000000  0.367367  0.132633  1
  Au  Au19  1  0.000000  0.632633  0.867367  1
