# generated using pymatgen
data_Tb2Ho5Tm(WO6)4
_symmetry_space_group_name_H-M   'P 1'
_cell_length_a   5.38629235
_cell_length_b   7.69379880
_cell_length_c   11.44765709
_cell_angle_alpha   75.43059226
_cell_angle_beta   89.99913668
_cell_angle_gamma   89.95964172
_symmetry_Int_Tables_number   1
_chemical_formula_structural   Tb2Ho5Tm(WO6)4
_chemical_formula_sum   'Tb2 Ho5 Tm1 W4 O24'
_cell_volume   459.14772520
_cell_formula_units_Z   1
loop_
 _symmetry_equiv_pos_site_id
 _symmetry_equiv_pos_as_xyz
  1  'x, y, z'
loop_
 _atom_site_type_symbol
 _atom_site_label
 _atom_site_symmetry_multiplicity
 _atom_site_fract_x
 _atom_site_fract_y
 _atom_site_fract_z
 _atom_site_occupancy
  Tb  Tb0  1  0.684240  0.499825  0.749852  1
  Tb  Tb1  1  0.316094  0.499500  0.250541  1
  Ho  Ho2  1  0.740055  0.000250  0.749475  1
  Ho  Ho3  1  0.260065  0.000305  0.250666  1
  Ho  Ho4  1  0.185007  0.796039  0.577649  1
  Ho  Ho5  1  0.814512  0.795664  0.077856  1
  Ho  Ho6  1  0.185577  0.204343  0.922086  1
  Tm  Tm7  1  0.814940  0.205122  0.421651  1
  W  W8  1  0.254819  0.723904  0.885365  1
  W  W9  1  0.745193  0.723758  0.385375  1
  W  W10  1  0.254997  0.275871  0.614013  1
  W  W11  1  0.745530  0.275876  0.115101  1
  O  O12  1  0.041821  0.940046  0.895618  1
  O  O13  1  0.532564  0.848373  0.930751  1
  O  O14  1  0.955575  0.941760  0.395771  1
  O  O15  1  0.458895  0.791112  0.727054  1
  O  O16  1  0.466347  0.847398  0.430829  1
  O  O17  1  0.981677  0.712138  0.770842  1
  O  O18  1  0.540852  0.790588  0.227316  1
  O  O19  1  0.851080  0.635658  0.548397  1
  O  O20  1  0.359591  0.489599  0.886314  1
  O  O21  1  0.018763  0.712703  0.271225  1
  O  O22  1  0.359012  0.510010  0.613100  1
  O  O23  1  0.850951  0.364325  0.951858  1
  O  O24  1  0.149101  0.635371  0.048482  1
  O  O25  1  0.642447  0.488730  0.386454  1
  O  O26  1  0.982233  0.287816  0.729043  1
  O  O27  1  0.640372  0.510121  0.113745  1
  O  O28  1  0.146533  0.363589  0.451229  1
  O  O29  1  0.459065  0.208584  0.772392  1
  O  O30  1  0.017762  0.287491  0.230271  1
  O  O31  1  0.534505  0.153103  0.567711  1
  O  O32  1  0.542742  0.208457  0.274105  1
  O  O33  1  0.041472  0.060467  0.603547  1
  O  O34  1  0.467157  0.152034  0.069896  1
  O  O35  1  0.958453  0.060071  0.104420  1
