# generated using pymatgen
data_Ti2CrP2Pd
_symmetry_space_group_name_H-M   'P 1'
_cell_length_a   3.60853800
_cell_length_b   6.22243431
_cell_length_c   7.39041699
_cell_angle_alpha   90.42477984
_cell_angle_beta   90.00000000
_cell_angle_gamma   90.00000000
_symmetry_Int_Tables_number   1
_chemical_formula_structural   Ti2CrP2Pd
_chemical_formula_sum   'Ti4 Cr2 P4 Pd2'
_cell_volume   165.93905449
_cell_formula_units_Z   2
loop_
 _symmetry_equiv_pos_site_id
 _symmetry_equiv_pos_as_xyz
  1  'x, y, z'
loop_
 _atom_site_type_symbol
 _atom_site_label
 _atom_site_symmetry_multiplicity
 _atom_site_fract_x
 _atom_site_fract_y
 _atom_site_fract_z
 _atom_site_occupancy
  Ti  Ti0  1  0.250000  0.537414  0.163795  1
  Ti  Ti1  1  0.750000  0.462586  0.836205  1
  Ti  Ti2  1  0.750000  0.973012  0.677537  1
  Ti  Ti3  1  0.250000  0.026988  0.322463  1
  Cr  Cr4  1  0.750000  0.858654  0.057539  1
  Cr  Cr5  1  0.250000  0.141346  0.942461  1
  P  P6  1  0.250000  0.766951  0.878460  1
  P  P7  1  0.750000  0.233049  0.121540  1
  P  P8  1  0.750000  0.750605  0.357353  1
  P  P9  1  0.250000  0.249395  0.642647  1
  Pd  Pd10  1  0.250000  0.650022  0.566434  1
  Pd  Pd11  1  0.750000  0.349978  0.433566  1
