# generated using pymatgen
data_CaPr2(ErSi2)2
_symmetry_space_group_name_H-M   'P 1'
_cell_length_a   7.45913800
_cell_length_b   7.84648100
_cell_length_c   14.87932100
_cell_angle_alpha   90.00000000
_cell_angle_beta   90.00000000
_cell_angle_gamma   90.00000000
_symmetry_Int_Tables_number   1
_chemical_formula_structural   CaPr2(ErSi2)2
_chemical_formula_sum   'Ca4 Pr8 Er8 Si16'
_cell_volume   870.85667025
_cell_formula_units_Z   4
loop_
 _symmetry_equiv_pos_site_id
 _symmetry_equiv_pos_as_xyz
  1  'x, y, z'
loop_
 _atom_site_type_symbol
 _atom_site_label
 _atom_site_symmetry_multiplicity
 _atom_site_fract_x
 _atom_site_fract_y
 _atom_site_fract_z
 _atom_site_occupancy
  Ca  Ca0  1  0.657428  0.990131  0.750000  1
  Ca  Ca1  1  0.842572  0.490131  0.250000  1
  Ca  Ca2  1  0.342572  0.009869  0.250000  1
  Ca  Ca3  1  0.157428  0.509869  0.750000  1
  Pr  Pr4  1  0.020355  0.179630  0.402089  1
  Pr  Pr5  1  0.520355  0.320370  0.402089  1
  Pr  Pr6  1  0.479645  0.679630  0.902089  1
  Pr  Pr7  1  0.479645  0.679630  0.597911  1
  Pr  Pr8  1  0.979645  0.820370  0.597911  1
  Pr  Pr9  1  0.979645  0.820370  0.902089  1
  Pr  Pr10  1  0.520355  0.320370  0.097911  1
  Pr  Pr11  1  0.020355  0.179630  0.097911  1
  Er  Er12  1  0.324824  0.180338  0.622953  1
  Er  Er13  1  0.675176  0.819662  0.377047  1
  Er  Er14  1  0.175176  0.680338  0.377047  1
  Er  Er15  1  0.824824  0.319662  0.877047  1
  Er  Er16  1  0.824824  0.319662  0.622953  1
  Er  Er17  1  0.324824  0.180338  0.877047  1
  Er  Er18  1  0.175176  0.680338  0.122953  1
  Er  Er19  1  0.675176  0.819662  0.122953  1
  Si  Si20  1  0.271238  0.888695  0.750000  1
  Si  Si21  1  0.464554  0.609646  0.250000  1
  Si  Si22  1  0.035446  0.109646  0.750000  1
  Si  Si23  1  0.535446  0.390354  0.750000  1
  Si  Si24  1  0.150070  0.466021  0.535013  1
  Si  Si25  1  0.964554  0.890354  0.250000  1
  Si  Si26  1  0.728762  0.111305  0.250000  1
  Si  Si27  1  0.849930  0.533979  0.035013  1
  Si  Si28  1  0.349930  0.966021  0.035013  1
  Si  Si29  1  0.150070  0.466021  0.964987  1
  Si  Si30  1  0.650070  0.033979  0.535013  1
  Si  Si31  1  0.349930  0.966021  0.464987  1
  Si  Si32  1  0.849930  0.533979  0.464987  1
  Si  Si33  1  0.771238  0.611305  0.750000  1
  Si  Si34  1  0.228762  0.388695  0.250000  1
  Si  Si35  1  0.650070  0.033979  0.964987  1
