# generated using pymatgen
data_Hf2Zr8Sb7
_symmetry_space_group_name_H-M   'P 1'
_cell_length_a   5.89117800
_cell_length_b   8.65336696
_cell_length_c   8.65323200
_cell_angle_alpha   120.00007437
_cell_angle_beta   89.99851348
_cell_angle_gamma   89.99881600
_symmetry_Int_Tables_number   1
_chemical_formula_structural   Hf2Zr8Sb7
_chemical_formula_sum   'Hf2 Zr8 Sb7'
_cell_volume   382.02863781
_cell_formula_units_Z   1
loop_
 _symmetry_equiv_pos_site_id
 _symmetry_equiv_pos_as_xyz
  1  'x, y, z'
loop_
 _atom_site_type_symbol
 _atom_site_label
 _atom_site_symmetry_multiplicity
 _atom_site_fract_x
 _atom_site_fract_y
 _atom_site_fract_z
 _atom_site_occupancy
  Hf  Hf0  1  0.499997  0.333327  0.666669  1
  Hf  Hf1  1  0.500003  0.666671  0.333332  1
  Zr  Zr2  1  0.000000  0.666673  0.333335  1
  Zr  Zr3  1  0.999999  0.333330  0.666666  1
  Zr  Zr4  1  0.773321  0.267670  0.999996  1
  Zr  Zr5  1  0.773324  0.732333  0.732332  1
  Zr  Zr6  1  0.773320  0.999999  0.267670  1
  Zr  Zr7  1  0.226679  0.732328  0.000002  1
  Zr  Zr8  1  0.226673  0.267671  0.267669  1
  Zr  Zr9  1  0.226678  0.999999  0.732330  1
  Sb  Sb10  1  0.745830  0.611628  0.000004  1
  Sb  Sb11  1  0.745812  0.388367  0.388374  1
  Sb  Sb12  1  0.745832  0.000000  0.611625  1
  Sb  Sb13  1  0.254169  0.388374  0.999998  1
  Sb  Sb14  1  0.254189  0.611628  0.611623  1
  Sb  Sb15  1  0.254169  0.000002  0.388368  1
  Sb  Sb16  1  0.499999  0.000002  0.000005  1
