# generated using pymatgen
data_Sr4SnHgPt4
_symmetry_space_group_name_H-M   'P 1'
_cell_length_a   6.00073591
_cell_length_b   6.00073607
_cell_length_c   8.47590594
_cell_angle_alpha   78.15474972
_cell_angle_beta   78.15475179
_cell_angle_gamma   59.90445718
_symmetry_Int_Tables_number   1
_chemical_formula_structural   Sr4SnHgPt4
_chemical_formula_sum   'Sr4 Sn1 Hg1 Pt4'
_cell_volume   256.54512896
_cell_formula_units_Z   1
loop_
 _symmetry_equiv_pos_site_id
 _symmetry_equiv_pos_as_xyz
  1  'x, y, z'
loop_
 _atom_site_type_symbol
 _atom_site_label
 _atom_site_symmetry_multiplicity
 _atom_site_fract_x
 _atom_site_fract_y
 _atom_site_fract_z
 _atom_site_occupancy
  Sr  Sr0  1  0.507140  0.787336  0.351149  1
  Sr  Sr1  1  0.212664  0.492860  0.148851  1
  Sr  Sr2  1  0.495413  0.206339  0.647191  1
  Sr  Sr3  1  0.793661  0.504587  0.852809  1
  Sn  Sn4  1  0.861815  0.138185  0.250000  1
  Hg  Hg5  1  0.151531  0.848469  0.750000  1
  Pt  Pt6  1  0.268928  0.004622  0.003645  1
  Pt  Pt7  1  0.995378  0.731072  0.496355  1
  Pt  Pt8  1  0.717969  0.004497  0.007827  1
  Pt  Pt9  1  0.995503  0.282031  0.492173  1
