# generated using pymatgen
data_Nb10GaPt4
_symmetry_space_group_name_H-M   'P 1'
_cell_length_a   9.99786000
_cell_length_b   9.99786000
_cell_length_c   5.19964700
_cell_angle_alpha   90.00000000
_cell_angle_beta   90.00000000
_cell_angle_gamma   90.00000000
_symmetry_Int_Tables_number   1
_chemical_formula_structural   Nb10GaPt4
_chemical_formula_sum   'Nb20 Ga2 Pt8'
_cell_volume   519.74217892
_cell_formula_units_Z   2
loop_
 _symmetry_equiv_pos_site_id
 _symmetry_equiv_pos_as_xyz
  1  'x, y, z'
loop_
 _atom_site_type_symbol
 _atom_site_label
 _atom_site_symmetry_multiplicity
 _atom_site_fract_x
 _atom_site_fract_y
 _atom_site_fract_z
 _atom_site_occupancy
  Nb  Nb0  1  0.396543  0.396543  0.000000  1
  Nb  Nb1  1  0.896543  0.103457  0.500000  1
  Nb  Nb2  1  0.103457  0.896543  0.500000  1
  Nb  Nb3  1  0.603457  0.603457  0.000000  1
  Nb  Nb4  1  0.127620  0.463828  0.000000  1
  Nb  Nb5  1  0.963828  0.372380  0.500000  1
  Nb  Nb6  1  0.036172  0.627620  0.500000  1
  Nb  Nb7  1  0.872380  0.536172  0.000000  1
  Nb  Nb8  1  0.372380  0.963828  0.500000  1
  Nb  Nb9  1  0.627620  0.036172  0.500000  1
  Nb  Nb10  1  0.463828  0.127620  0.000000  1
  Nb  Nb11  1  0.536172  0.872380  0.000000  1
  Nb  Nb12  1  0.181684  0.181684  0.252114  1
  Nb  Nb13  1  0.681684  0.318316  0.752114  1
  Nb  Nb14  1  0.318316  0.681684  0.752114  1
  Nb  Nb15  1  0.818316  0.818316  0.252114  1
  Nb  Nb16  1  0.318316  0.681684  0.247886  1
  Nb  Nb17  1  0.681684  0.318316  0.247886  1
  Nb  Nb18  1  0.181684  0.181684  0.747886  1
  Nb  Nb19  1  0.818316  0.818316  0.747886  1
  Ga  Ga20  1  0.000000  0.000000  0.000000  1
  Ga  Ga21  1  0.500000  0.500000  0.500000  1
  Pt  Pt22  1  0.263957  0.935946  0.000000  1
  Pt  Pt23  1  0.435946  0.236043  0.500000  1
  Pt  Pt24  1  0.564054  0.763957  0.500000  1
  Pt  Pt25  1  0.736043  0.064054  0.000000  1
  Pt  Pt26  1  0.236043  0.435946  0.500000  1
  Pt  Pt27  1  0.763957  0.564054  0.500000  1
  Pt  Pt28  1  0.935946  0.263957  0.000000  1
  Pt  Pt29  1  0.064054  0.736043  0.000000  1
