# generated using pymatgen
data_Li2CaLa(NiAs2)2
_symmetry_space_group_name_H-M   'P 1'
_cell_length_a   4.28634100
_cell_length_b   4.28634100
_cell_length_c   10.09503500
_cell_angle_alpha   90.00000000
_cell_angle_beta   90.00000000
_cell_angle_gamma   90.00000000
_symmetry_Int_Tables_number   1
_chemical_formula_structural   Li2CaLa(NiAs2)2
_chemical_formula_sum   'Li2 Ca1 La1 Ni2 As4'
_cell_volume   185.47324305
_cell_formula_units_Z   1
loop_
 _symmetry_equiv_pos_site_id
 _symmetry_equiv_pos_as_xyz
  1  'x, y, z'
loop_
 _atom_site_type_symbol
 _atom_site_label
 _atom_site_symmetry_multiplicity
 _atom_site_fract_x
 _atom_site_fract_y
 _atom_site_fract_z
 _atom_site_occupancy
  Li  Li0  1  0.000000  0.000000  0.505812  1
  Li  Li1  1  0.500000  0.500000  0.505812  1
  Ca  Ca2  1  0.000000  0.500000  0.762700  1
  La  La3  1  0.500000  0.000000  0.231684  1
  Ni  Ni4  1  0.000000  0.500000  0.106705  1
  Ni  Ni5  1  0.500000  0.000000  0.893082  1
  As  As6  1  0.000000  0.500000  0.345370  1
  As  As7  1  0.000000  0.000000  0.997052  1
  As  As8  1  0.500000  0.000000  0.654731  1
  As  As9  1  0.500000  0.500000  0.997052  1
