# generated using pymatgen
data_La3Yb12Pr5Sn16
_symmetry_space_group_name_H-M   'P 1'
_cell_length_a   7.99621203
_cell_length_b   8.53889103
_cell_length_c   16.16054911
_cell_angle_alpha   90.00853067
_cell_angle_beta   90.01000738
_cell_angle_gamma   90.00231453
_symmetry_Int_Tables_number   1
_chemical_formula_structural   La3Yb12Pr5Sn16
_chemical_formula_sum   'La3 Yb12 Pr5 Sn16'
_cell_volume   1103.42259819
_cell_formula_units_Z   1
loop_
 _symmetry_equiv_pos_site_id
 _symmetry_equiv_pos_as_xyz
  1  'x, y, z'
loop_
 _atom_site_type_symbol
 _atom_site_label
 _atom_site_symmetry_multiplicity
 _atom_site_fract_x
 _atom_site_fract_y
 _atom_site_fract_z
 _atom_site_occupancy
  La  La0  1  0.493950  0.315919  0.904370  1
  La  La1  1  0.994276  0.184227  0.595826  1
  La  La2  1  0.505607  0.684457  0.404159  1
  Yb  Yb3  1  0.333947  0.827042  0.876427  1
  Yb  Yb4  1  0.833958  0.672829  0.623690  1
  Yb  Yb5  1  0.666020  0.172828  0.376276  1
  Yb  Yb6  1  0.165855  0.327079  0.123641  1
  Yb  Yb7  1  0.666045  0.172807  0.123637  1
  Yb  Yb8  1  0.166087  0.326999  0.376196  1
  Yb  Yb9  1  0.334041  0.827056  0.623724  1
  Yb  Yb10  1  0.834165  0.673097  0.876370  1
  Yb  Yb11  1  0.161828  0.504221  0.750000  1
  Yb  Yb12  1  0.661965  0.995899  0.749999  1
  Yb  Yb13  1  0.838269  0.496013  0.249846  1
  Yb  Yb14  1  0.337926  0.004002  0.249845  1
  Pr  Pr15  1  0.006032  0.815025  0.096023  1
  Pr  Pr16  1  0.506168  0.685308  0.096342  1
  Pr  Pr17  1  0.006013  0.814827  0.403764  1
  Pr  Pr18  1  0.493968  0.314899  0.596351  1
  Pr  Pr19  1  0.994047  0.184505  0.904063  1
  Sn  Sn20  1  0.330444  0.034542  0.038777  1
  Sn  Sn21  1  0.831465  0.465251  0.461360  1
  Sn  Sn22  1  0.668739  0.965375  0.538563  1
  Sn  Sn23  1  0.168470  0.535100  0.961638  1
  Sn  Sn24  1  0.669753  0.964111  0.961535  1
  Sn  Sn25  1  0.169298  0.535591  0.538604  1
  Sn  Sn26  1  0.330825  0.035576  0.461330  1
  Sn  Sn27  1  0.830903  0.465194  0.038726  1
  Sn  Sn28  1  0.534841  0.602621  0.749733  1
  Sn  Sn29  1  0.034842  0.897326  0.750183  1
  Sn  Sn30  1  0.465005  0.397618  0.249628  1
  Sn  Sn31  1  0.965274  0.102334  0.249927  1
  Sn  Sn32  1  0.289126  0.140596  0.750131  1
  Sn  Sn33  1  0.789065  0.359294  0.749880  1
  Sn  Sn34  1  0.711378  0.859102  0.249736  1
  Sn  Sn35  1  0.210408  0.641332  0.249699  1
