# generated using pymatgen
data_Cd2Bi2RuRh3O14
_symmetry_space_group_name_H-M   'P 1'
_cell_length_a   7.27386810
_cell_length_b   7.24979460
_cell_length_c   7.12637400
_cell_angle_alpha   60.56156992
_cell_angle_beta   60.66852971
_cell_angle_gamma   61.09812437
_symmetry_Int_Tables_number   1
_chemical_formula_structural   Cd2Bi2RuRh3O14
_chemical_formula_sum   'Cd2 Bi2 Ru1 Rh3 O14'
_cell_volume   270.37178050
_cell_formula_units_Z   1
loop_
 _symmetry_equiv_pos_site_id
 _symmetry_equiv_pos_as_xyz
  1  'x, y, z'
loop_
 _atom_site_type_symbol
 _atom_site_label
 _atom_site_symmetry_multiplicity
 _atom_site_fract_x
 _atom_site_fract_y
 _atom_site_fract_z
 _atom_site_occupancy
  Cd  Cd0  1  0.125000  0.125000  0.125000  1
  Cd  Cd1  1  0.125000  0.125000  0.625000  1
  Bi  Bi2  1  0.125000  0.625000  0.125000  1
  Bi  Bi3  1  0.625000  0.125000  0.125000  1
  Ru  Ru4  1  0.125000  0.625000  0.625000  1
  Rh  Rh5  1  0.625000  0.625000  0.625000  1
  Rh  Rh6  1  0.625000  0.625000  0.125000  1
  Rh  Rh7  1  0.625000  0.125000  0.625000  1
  O  O8  1  0.247707  0.247771  0.252261  1
  O  O9  1  0.296108  0.696052  0.296818  1
  O  O10  1  0.945746  0.935258  0.559498  1
  O  O11  1  0.539313  0.958898  0.539467  1
  O  O12  1  0.711631  0.707811  0.290279  1
  O  O13  1  0.953892  0.553948  0.538978  1
  O  O14  1  0.710687  0.291102  0.710533  1
  O  O15  1  0.304254  0.314742  0.690502  1
  O  O16  1  0.710687  0.291102  0.287678  1
  O  O17  1  0.296108  0.696052  0.711022  1
  O  O18  1  0.953892  0.553948  0.953182  1
  O  O19  1  0.538369  0.542189  0.959721  1
  O  O20  1  0.002293  0.002229  0.997739  1
  O  O21  1  0.539313  0.958898  0.962322  1
