# generated using pymatgen
data_Tb3Dy2Y(Cu3Sb4)2
_symmetry_space_group_name_H-M   'P 1'
_cell_length_a   8.31789903
_cell_length_b   8.31789972
_cell_length_c   8.31790030
_cell_angle_alpha   109.49676092
_cell_angle_beta   109.44958541
_cell_angle_gamma   109.46730635
_symmetry_Int_Tables_number   1
_chemical_formula_structural   Tb3Dy2Y(Cu3Sb4)2
_chemical_formula_sum   'Tb3 Dy2 Y1 Cu6 Sb8'
_cell_volume   443.01572052
_cell_formula_units_Z   1
loop_
 _symmetry_equiv_pos_site_id
 _symmetry_equiv_pos_as_xyz
  1  'x, y, z'
loop_
 _atom_site_type_symbol
 _atom_site_label
 _atom_site_symmetry_multiplicity
 _atom_site_fract_x
 _atom_site_fract_y
 _atom_site_fract_z
 _atom_site_occupancy
  Tb  Tb0  1  0.250025  0.124998  0.874979  1
  Tb  Tb1  1  0.750019  0.375047  0.625021  1
  Tb  Tb2  1  0.124984  0.874984  0.250000  1
  Dy  Dy3  1  0.875018  0.249980  0.125043  1
  Dy  Dy4  1  0.624937  0.749975  0.374957  1
  Y  Y5  1  0.375015  0.625015  0.750000  1
  Cu  Cu6  1  0.374855  0.250161  0.625090  1
  Cu  Cu7  1  0.125071  0.749765  0.874910  1
  Cu  Cu8  1  0.250236  0.625053  0.375212  1
  Cu  Cu9  1  0.749840  0.875024  0.124788  1
  Cu  Cu10  1  0.625094  0.375094  0.250000  1
  Cu  Cu11  1  0.874906  0.124906  0.750000  1
  Sb  Sb12  1  0.660339  0.500205  0.000112  1
  Sb  Sb13  1  0.500104  0.000004  0.660334  1
  Sb  Sb14  1  0.000094  0.660226  0.499888  1
  Sb  Sb15  1  0.839670  0.839769  0.839666  1
  Sb  Sb16  1  0.499925  0.999802  0.160142  1
  Sb  Sb17  1  0.160344  0.499999  0.000135  1
  Sb  Sb18  1  0.999864  0.160208  0.499865  1
  Sb  Sb19  1  0.339660  0.339783  0.339858  1
