# generated using pymatgen
data_TbDyAl8GeIr3
_symmetry_space_group_name_H-M   'P 1'
_cell_length_a   7.56527680
_cell_length_b   7.56542276
_cell_length_c   9.45783500
_cell_angle_alpha   90.00000000
_cell_angle_beta   90.00000000
_cell_angle_gamma   119.71693002
_symmetry_Int_Tables_number   1
_chemical_formula_structural   TbDyAl8GeIr3
_chemical_formula_sum   'Tb2 Dy2 Al16 Ge2 Ir6'
_cell_volume   470.12366940
_cell_formula_units_Z   2
loop_
 _symmetry_equiv_pos_site_id
 _symmetry_equiv_pos_as_xyz
  1  'x, y, z'
loop_
 _atom_site_type_symbol
 _atom_site_label
 _atom_site_symmetry_multiplicity
 _atom_site_fract_x
 _atom_site_fract_y
 _atom_site_fract_z
 _atom_site_occupancy
  Tb  Tb0  1  0.995419  0.675397  0.750000  1
  Tb  Tb1  1  0.004581  0.324603  0.250000  1
  Dy  Dy2  1  0.675421  0.995447  0.750000  1
  Dy  Dy3  1  0.324579  0.004553  0.250000  1
  Al  Al4  1  0.000506  0.337209  0.574045  1
  Al  Al5  1  0.999494  0.662791  0.425955  1
  Al  Al6  1  0.999494  0.662791  0.074045  1
  Al  Al7  1  0.337465  0.000625  0.926080  1
  Al  Al8  1  0.000506  0.337209  0.925955  1
  Al  Al9  1  0.662535  0.999375  0.073920  1
  Al  Al10  1  0.662535  0.999375  0.426080  1
  Al  Al11  1  0.337465  0.000625  0.573920  1
  Al  Al12  1  0.335831  0.335708  0.058590  1
  Al  Al13  1  0.664169  0.664292  0.941410  1
  Al  Al14  1  0.664169  0.664292  0.558590  1
  Al  Al15  1  0.335831  0.335708  0.441410  1
  Al  Al16  1  0.336025  0.552621  0.750000  1
  Al  Al17  1  0.663975  0.447379  0.250000  1
  Al  Al18  1  0.552509  0.335810  0.750000  1
  Al  Al19  1  0.447491  0.664190  0.250000  1
  Ge  Ge20  1  0.134215  0.134286  0.750000  1
  Ge  Ge21  1  0.865785  0.865714  0.250000  1
  Ir  Ir22  1  0.670921  0.328867  0.499996  1
  Ir  Ir23  1  0.329079  0.671133  0.500004  1
  Ir  Ir24  1  0.329079  0.671133  0.999996  1
  Ir  Ir25  1  0.670921  0.328867  0.000004  1
  Ir  Ir26  1  0.000000  0.000000  0.500000  1
  Ir  Ir27  1  0.000000  0.000000  0.000000  1
