# generated using pymatgen
data_Er8ReTc(B12Ru)2
_symmetry_space_group_name_H-M   'P 1'
_cell_length_a   3.64418900
_cell_length_b   9.10788297
_cell_length_c   11.48831098
_cell_angle_alpha   89.83008930
_cell_angle_beta   90.00000000
_cell_angle_gamma   90.00000000
_symmetry_Int_Tables_number   1
_chemical_formula_structural   Er8ReTc(B12Ru)2
_chemical_formula_sum   'Er8 Re1 Tc1 B24 Ru2'
_cell_volume   381.30509429
_cell_formula_units_Z   1
loop_
 _symmetry_equiv_pos_site_id
 _symmetry_equiv_pos_as_xyz
  1  'x, y, z'
loop_
 _atom_site_type_symbol
 _atom_site_label
 _atom_site_symmetry_multiplicity
 _atom_site_fract_x
 _atom_site_fract_y
 _atom_site_fract_z
 _atom_site_occupancy
  Er  Er0  1  0.000000  0.324879  0.415296  1
  Er  Er1  1  0.000000  0.675641  0.584379  1
  Er  Er2  1  0.000000  0.820889  0.087781  1
  Er  Er3  1  0.000000  0.179142  0.912416  1
  Er  Er4  1  0.000000  0.941966  0.370785  1
  Er  Er5  1  0.000000  0.057195  0.628937  1
  Er  Er6  1  0.000000  0.442902  0.129763  1
  Er  Er7  1  0.000000  0.557411  0.870940  1
  Re  Re8  1  0.000000  0.362025  0.679667  1
  Tc  Tc9  1  0.000000  0.638324  0.320114  1
  B  B10  1  0.500000  0.552844  0.433051  1
  B  B11  1  0.500000  0.447552  0.566418  1
  B  B12  1  0.500000  0.053259  0.066834  1
  B  B13  1  0.500000  0.946480  0.933378  1
  B  B14  1  0.500000  0.748617  0.419387  1
  B  B15  1  0.500000  0.251092  0.580378  1
  B  B16  1  0.500000  0.248410  0.080742  1
  B  B17  1  0.500000  0.751402  0.919326  1
  B  B18  1  0.500000  0.791649  0.265134  1
  B  B19  1  0.500000  0.208063  0.734785  1
  B  B20  1  0.500000  0.290705  0.234196  1
  B  B21  1  0.500000  0.709362  0.765904  1
  B  B22  1  0.500000  0.631054  0.184873  1
  B  B23  1  0.500000  0.369107  0.815312  1
  B  B24  1  0.500000  0.130658  0.314245  1
  B  B25  1  0.500000  0.869307  0.685704  1
  B  B26  1  0.500000  0.982372  0.211945  1
  B  B27  1  0.500000  0.017414  0.788107  1
  B  B28  1  0.500000  0.481920  0.287483  1
  B  B29  1  0.500000  0.518598  0.712483  1
  B  B30  1  0.500000  0.603794  0.028672  1
  B  B31  1  0.500000  0.396211  0.971544  1
  B  B32  1  0.500000  0.103449  0.471006  1
  B  B33  1  0.500000  0.896301  0.528890  1
  Ru  Ru34  1  0.000000  0.137422  0.178489  1
  Ru  Ru35  1  0.000000  0.862583  0.821637  1
