# generated using pymatgen
data_La7Tb(SiBr6)2
_symmetry_space_group_name_H-M   'P 1'
_cell_length_a   4.28883100
_cell_length_b   13.95922560
_cell_length_c   14.73446143
_cell_angle_alpha   90.59742817
_cell_angle_beta   90.00000000
_cell_angle_gamma   90.00000000
_symmetry_Int_Tables_number   1
_chemical_formula_structural   La7Tb(SiBr6)2
_chemical_formula_sum   'La7 Tb1 Si2 Br12'
_cell_volume   882.08597314
_cell_formula_units_Z   1
loop_
 _symmetry_equiv_pos_site_id
 _symmetry_equiv_pos_as_xyz
  1  'x, y, z'
loop_
 _atom_site_type_symbol
 _atom_site_label
 _atom_site_symmetry_multiplicity
 _atom_site_fract_x
 _atom_site_fract_y
 _atom_site_fract_z
 _atom_site_occupancy
  La  La0  1  0.500000  0.119684  0.339440  1
  La  La1  1  0.500000  0.880920  0.661033  1
  La  La2  1  0.500000  0.618597  0.159713  1
  La  La3  1  0.000000  0.123698  0.582515  1
  La  La4  1  0.000000  0.879551  0.419928  1
  La  La5  1  0.000000  0.618865  0.918533  1
  La  La6  1  0.000000  0.378281  0.077534  1
  Tb  Tb7  1  0.500000  0.383213  0.842848  1
  Si  Si8  1  0.500000  0.001438  0.500989  1
  Si  Si9  1  0.500000  0.498260  0.997585  1
  Br  Br10  1  0.500000  0.242610  0.161361  1
  Br  Br11  1  0.500000  0.756654  0.837696  1
  Br  Br12  1  0.500000  0.742176  0.337150  1
  Br  Br13  1  0.500000  0.260670  0.669594  1
  Br  Br14  1  0.000000  0.254749  0.411951  1
  Br  Br15  1  0.000000  0.745552  0.588563  1
  Br  Br16  1  0.000000  0.753284  0.088604  1
  Br  Br17  1  0.000000  0.254137  0.901370  1
  Br  Br18  1  0.000000  0.001358  0.244278  1
  Br  Br19  1  0.000000  0.998779  0.756334  1
  Br  Br20  1  0.000000  0.501583  0.254440  1
  Br  Br21  1  0.000000  0.485943  0.748543  1
