# generated using pymatgen
data_ErLu3Ga4PtRh3
_symmetry_space_group_name_H-M   'P 1'
_cell_length_a   4.28012900
_cell_length_b   6.76411004
_cell_length_c   7.75486926
_cell_angle_alpha   90.06444350
_cell_angle_beta   90.00000000
_cell_angle_gamma   90.00000000
_symmetry_Int_Tables_number   1
_chemical_formula_structural   ErLu3Ga4PtRh3
_chemical_formula_sum   'Er1 Lu3 Ga4 Pt1 Rh3'
_cell_volume   224.51312168
_cell_formula_units_Z   1
loop_
 _symmetry_equiv_pos_site_id
 _symmetry_equiv_pos_as_xyz
  1  'x, y, z'
loop_
 _atom_site_type_symbol
 _atom_site_label
 _atom_site_symmetry_multiplicity
 _atom_site_fract_x
 _atom_site_fract_y
 _atom_site_fract_z
 _atom_site_occupancy
  Er  Er0  1  0.750000  0.529701  0.813447  1
  Lu  Lu1  1  0.250000  0.972577  0.314348  1
  Lu  Lu2  1  0.250000  0.473807  0.189385  1
  Lu  Lu3  1  0.750000  0.027337  0.684065  1
  Ga  Ga4  1  0.250000  0.350851  0.564389  1
  Ga  Ga5  1  0.250000  0.845350  0.932549  1
  Ga  Ga6  1  0.750000  0.651804  0.432203  1
  Ga  Ga7  1  0.750000  0.147885  0.070724  1
  Pt  Pt8  1  0.250000  0.234831  0.886188  1
  Rh  Rh9  1  0.250000  0.739353  0.611719  1
  Rh  Rh10  1  0.750000  0.762900  0.113567  1
  Rh  Rh11  1  0.750000  0.263604  0.387414  1
