# generated using pymatgen
data_TbYTm2(B6Rh)2
_symmetry_space_group_name_H-M   'P 1'
_cell_length_a   3.64544100
_cell_length_b   9.14798506
_cell_length_c   11.49505207
_cell_angle_alpha   90.01258355
_cell_angle_beta   90.00000000
_cell_angle_gamma   90.00000000
_symmetry_Int_Tables_number   1
_chemical_formula_structural   TbYTm2(B6Rh)2
_chemical_formula_sum   'Tb2 Y2 Tm4 B24 Rh4'
_cell_volume   383.34204254
_cell_formula_units_Z   2
loop_
 _symmetry_equiv_pos_site_id
 _symmetry_equiv_pos_as_xyz
  1  'x, y, z'
loop_
 _atom_site_type_symbol
 _atom_site_label
 _atom_site_symmetry_multiplicity
 _atom_site_fract_x
 _atom_site_fract_y
 _atom_site_fract_z
 _atom_site_occupancy
  Tb  Tb0  1  0.500000  0.322065  0.413714  1
  Tb  Tb1  1  0.500000  0.677935  0.586286  1
  Y  Y2  1  0.500000  0.178126  0.913752  1
  Y  Y3  1  0.500000  0.821874  0.086248  1
  Tm  Tm4  1  0.500000  0.444347  0.126896  1
  Tm  Tm5  1  0.500000  0.555653  0.873104  1
  Tm  Tm6  1  0.500000  0.055688  0.626952  1
  Tm  Tm7  1  0.500000  0.944312  0.373048  1
  B  B8  1  0.000000  0.107148  0.471043  1
  B  B9  1  0.000000  0.892852  0.528957  1
  B  B10  1  0.000000  0.392580  0.970946  1
  B  B11  1  0.000000  0.607420  0.029054  1
  B  B12  1  0.000000  0.132367  0.316396  1
  B  B13  1  0.000000  0.867633  0.683604  1
  B  B14  1  0.000000  0.367559  0.816453  1
  B  B15  1  0.000000  0.632441  0.183547  1
  B  B16  1  0.000000  0.054348  0.065688  1
  B  B17  1  0.000000  0.945652  0.934312  1
  B  B18  1  0.000000  0.445640  0.565884  1
  B  B19  1  0.000000  0.554360  0.434116  1
  B  B20  1  0.000000  0.483114  0.286043  1
  B  B21  1  0.000000  0.516886  0.713957  1
  B  B22  1  0.000000  0.016985  0.786122  1
  B  B23  1  0.000000  0.983015  0.213878  1
  B  B24  1  0.000000  0.250406  0.079948  1
  B  B25  1  0.000000  0.749594  0.920052  1
  B  B26  1  0.000000  0.249537  0.580067  1
  B  B27  1  0.000000  0.750463  0.419933  1
  B  B28  1  0.000000  0.294425  0.235452  1
  B  B29  1  0.000000  0.705575  0.764548  1
  B  B30  1  0.000000  0.205485  0.735658  1
  B  B31  1  0.000000  0.794515  0.264342  1
  Rh  Rh32  1  0.500000  0.140076  0.179656  1
  Rh  Rh33  1  0.500000  0.859924  0.820344  1
  Rh  Rh34  1  0.500000  0.359824  0.679774  1
  Rh  Rh35  1  0.500000  0.640176  0.320226  1
