# generated using pymatgen
data_Tm6Fe13Co4NiP12
_symmetry_space_group_name_H-M   'P 1'
_cell_length_a   3.68316800
_cell_length_b   10.47172513
_cell_length_c   12.08561875
_cell_angle_alpha   89.93811061
_cell_angle_beta   90.00000000
_cell_angle_gamma   90.00000000
_symmetry_Int_Tables_number   1
_chemical_formula_structural   Tm6Fe13Co4NiP12
_chemical_formula_sum   'Tm6 Fe13 Co4 Ni1 P12'
_cell_volume   466.13144304
_cell_formula_units_Z   1
loop_
 _symmetry_equiv_pos_site_id
 _symmetry_equiv_pos_as_xyz
  1  'x, y, z'
loop_
 _atom_site_type_symbol
 _atom_site_label
 _atom_site_symmetry_multiplicity
 _atom_site_fract_x
 _atom_site_fract_y
 _atom_site_fract_z
 _atom_site_occupancy
  Tm  Tm0  1  0.000000  0.499212  0.522256  1
  Tm  Tm1  1  0.500000  0.001100  0.475164  1
  Tm  Tm2  1  0.500000  0.820994  0.207549  1
  Tm  Tm3  1  0.500000  0.179766  0.204682  1
  Tm  Tm4  1  0.000000  0.682343  0.793580  1
  Tm  Tm5  1  0.000000  0.317556  0.796563  1
  Fe  Fe6  1  0.500000  0.502714  0.155704  1
  Fe  Fe7  1  0.000000  0.998817  0.845308  1
  Fe  Fe8  1  0.000000  0.503693  0.989096  1
  Fe  Fe9  1  0.500000  0.996022  0.011715  1
  Fe  Fe10  1  0.500000  0.333546  0.994956  1
  Fe  Fe11  1  0.500000  0.673983  0.996221  1
  Fe  Fe12  1  0.000000  0.166326  0.005435  1
  Fe  Fe13  1  0.000000  0.827604  0.003403  1
  Fe  Fe14  1  0.500000  0.298438  0.428888  1
  Fe  Fe15  1  0.500000  0.700074  0.428549  1
  Fe  Fe16  1  0.000000  0.201324  0.571261  1
  Fe  Fe17  1  0.000000  0.797794  0.569161  1
  Fe  Fe18  1  0.500000  0.881652  0.707263  1
  Co  Co19  1  0.000000  0.999381  0.300073  1
  Co  Co20  1  0.500000  0.119956  0.712690  1
  Co  Co21  1  0.000000  0.618722  0.290919  1
  Co  Co22  1  0.000000  0.380004  0.287703  1
  Ni  Ni23  1  0.500000  0.500003  0.700815  1
  P  P24  1  0.500000  0.501341  0.885407  1
  P  P25  1  0.000000  0.999282  0.116645  1
  P  P26  1  0.500000  0.498818  0.344434  1
  P  P27  1  0.000000  0.998325  0.656525  1
  P  P28  1  0.500000  0.306787  0.614721  1
  P  P29  1  0.500000  0.693475  0.613714  1
  P  P30  1  0.000000  0.191537  0.385016  1
  P  P31  1  0.000000  0.808060  0.385656  1
  P  P32  1  0.500000  0.851049  0.886533  1
  P  P33  1  0.500000  0.153442  0.896078  1
  P  P34  1  0.000000  0.651213  0.111745  1
  P  P35  1  0.000000  0.345647  0.104571  1
