# generated using pymatgen
data_Ac4Ge5Rh9
_symmetry_space_group_name_H-M   'P 1'
_cell_length_a   12.22407639
_cell_length_b   12.22407639
_cell_length_c   12.22407600
_cell_angle_alpha   27.51701989
_cell_angle_beta   27.51701996
_cell_angle_gamma   27.51702057
_symmetry_Int_Tables_number   1
_chemical_formula_structural   Ac4Ge5Rh9
_chemical_formula_sum   'Ac4 Ge5 Rh9'
_cell_volume   344.14816103
_cell_formula_units_Z   1
loop_
 _symmetry_equiv_pos_site_id
 _symmetry_equiv_pos_as_xyz
  1  'x, y, z'
loop_
 _atom_site_type_symbol
 _atom_site_label
 _atom_site_symmetry_multiplicity
 _atom_site_fract_x
 _atom_site_fract_y
 _atom_site_fract_z
 _atom_site_occupancy
  Ac  Ac0  1  0.949274  0.949274  0.949274  1
  Ac  Ac1  1  0.852481  0.852481  0.852481  1
  Ac  Ac2  1  0.147519  0.147519  0.147519  1
  Ac  Ac3  1  0.050726  0.050726  0.050726  1
  Ge  Ge4  1  0.278330  0.278330  0.278330  1
  Ge  Ge5  1  0.500000  0.500000  0.500000  1
  Ge  Ge6  1  0.387448  0.387448  0.387448  1
  Ge  Ge7  1  0.721670  0.721670  0.721670  1
  Ge  Ge8  1  0.612552  0.612552  0.612552  1
  Rh  Rh9  1  0.607141  0.607141  0.108237  1
  Rh  Rh10  1  0.891763  0.392859  0.392859  1
  Rh  Rh11  1  0.500000  0.000000  0.500000  1
  Rh  Rh12  1  0.392859  0.891763  0.392859  1
  Rh  Rh13  1  0.500000  0.500000  0.000000  1
  Rh  Rh14  1  0.108237  0.607141  0.607141  1
  Rh  Rh15  1  0.000000  0.500000  0.500000  1
  Rh  Rh16  1  0.392859  0.392859  0.891763  1
  Rh  Rh17  1  0.607141  0.108237  0.607141  1
