# generated using pymatgen
data_YbTm6CoBr12
_symmetry_space_group_name_H-M   'P 1'
_cell_length_a   9.09953206
_cell_length_b   9.09953191
_cell_length_c   9.09953226
_cell_angle_alpha   106.97936686
_cell_angle_beta   106.97935645
_cell_angle_gamma   106.97935696
_symmetry_Int_Tables_number   1
_chemical_formula_structural   YbTm6CoBr12
_chemical_formula_sum   'Yb1 Tm6 Co1 Br12'
_cell_volume   627.83729551
_cell_formula_units_Z   1
loop_
 _symmetry_equiv_pos_site_id
 _symmetry_equiv_pos_as_xyz
  1  'x, y, z'
loop_
 _atom_site_type_symbol
 _atom_site_label
 _atom_site_symmetry_multiplicity
 _atom_site_fract_x
 _atom_site_fract_y
 _atom_site_fract_z
 _atom_site_occupancy
  Yb  Yb0  1  0.500000  0.500000  0.500000  1
  Tm  Tm1  1  0.978930  0.902302  0.698513  1
  Tm  Tm2  1  0.021070  0.097698  0.301487  1
  Tm  Tm3  1  0.097698  0.301487  0.021070  1
  Tm  Tm4  1  0.301487  0.021070  0.097698  1
  Tm  Tm5  1  0.902302  0.698513  0.978930  1
  Tm  Tm6  1  0.698513  0.978930  0.902302  1
  Co  Co7  1  0.000000  0.000000  0.000000  1
  Br  Br8  1  0.546121  0.624289  0.846604  1
  Br  Br9  1  0.453879  0.375711  0.153396  1
  Br  Br10  1  0.323439  0.928561  0.780721  1
  Br  Br11  1  0.375711  0.153396  0.453879  1
  Br  Br12  1  0.928561  0.780721  0.323439  1
  Br  Br13  1  0.676561  0.071439  0.219279  1
  Br  Br14  1  0.071439  0.219279  0.676561  1
  Br  Br15  1  0.780721  0.323439  0.928561  1
  Br  Br16  1  0.219279  0.676561  0.071439  1
  Br  Br17  1  0.846604  0.546121  0.624289  1
  Br  Br18  1  0.153396  0.453879  0.375711  1
  Br  Br19  1  0.624289  0.846604  0.546121  1
