# generated using pymatgen
data_TbSm3(Si3Ni5)4
_symmetry_space_group_name_H-M   'P 1'
_cell_length_a   3.82036400
_cell_length_b   6.59632964
_cell_length_c   18.85256980
_cell_angle_alpha   89.99149201
_cell_angle_beta   90.00000000
_cell_angle_gamma   90.00000000
_symmetry_Int_Tables_number   1
_chemical_formula_structural   TbSm3(Si3Ni5)4
_chemical_formula_sum   'Tb1 Sm3 Si12 Ni20'
_cell_volume   475.09192325
_cell_formula_units_Z   1
loop_
 _symmetry_equiv_pos_site_id
 _symmetry_equiv_pos_as_xyz
  1  'x, y, z'
loop_
 _atom_site_type_symbol
 _atom_site_label
 _atom_site_symmetry_multiplicity
 _atom_site_fract_x
 _atom_site_fract_y
 _atom_site_fract_z
 _atom_site_occupancy
  Tb  Tb0  1  0.250000  0.623656  0.856130  1
  Sm  Sm1  1  0.250000  0.875898  0.356409  1
  Sm  Sm2  1  0.750000  0.124144  0.644062  1
  Sm  Sm3  1  0.750000  0.375359  0.143117  1
  Si  Si4  1  0.250000  0.074181  0.085197  1
  Si  Si5  1  0.750000  0.921624  0.913191  1
  Si  Si6  1  0.750000  0.573506  0.413656  1
  Si  Si7  1  0.250000  0.426708  0.586937  1
  Si  Si8  1  0.250000  0.658815  0.072786  1
  Si  Si9  1  0.750000  0.343919  0.926362  1
  Si  Si10  1  0.750000  0.158601  0.427463  1
  Si  Si11  1  0.250000  0.841023  0.573291  1
  Si  Si12  1  0.250000  0.380147  0.263558  1
  Si  Si13  1  0.750000  0.620152  0.737498  1
  Si  Si14  1  0.750000  0.880708  0.235924  1
  Si  Si15  1  0.250000  0.119775  0.764216  1
  Ni  Ni16  1  0.250000  0.070914  0.206721  1
  Ni  Ni17  1  0.750000  0.928841  0.793324  1
  Ni  Ni18  1  0.750000  0.571013  0.292522  1
  Ni  Ni19  1  0.250000  0.429971  0.708165  1
  Ni  Ni20  1  0.250000  0.611841  0.483865  1
  Ni  Ni21  1  0.750000  0.388406  0.516666  1
  Ni  Ni22  1  0.750000  0.111832  0.014748  1
  Ni  Ni23  1  0.250000  0.885238  0.982716  1
  Ni  Ni24  1  0.250000  0.687712  0.198860  1
  Ni  Ni25  1  0.750000  0.314003  0.801481  1
  Ni  Ni26  1  0.750000  0.187705  0.300964  1
  Ni  Ni27  1  0.250000  0.812201  0.699963  1
  Ni  Ni28  1  0.250000  0.353917  0.384587  1
  Ni  Ni29  1  0.750000  0.645637  0.616354  1
  Ni  Ni30  1  0.750000  0.854818  0.114891  1
  Ni  Ni31  1  0.250000  0.146775  0.884884  1
  Ni  Ni32  1  0.250000  0.365439  0.004845  1
  Ni  Ni33  1  0.750000  0.635729  0.993907  1
  Ni  Ni34  1  0.750000  0.863488  0.494794  1
  Ni  Ni35  1  0.250000  0.136309  0.505951  1
