# generated using pymatgen
data_Ac6Zn3CuSb12
_symmetry_space_group_name_H-M   'P 1'
_cell_length_a   4.44330100
_cell_length_b   10.71282480
_cell_length_c   13.84381300
_cell_angle_alpha   90.20233864
_cell_angle_beta   90.00000000
_cell_angle_gamma   90.00000000
_symmetry_Int_Tables_number   1
_chemical_formula_structural   Ac6Zn3CuSb12
_chemical_formula_sum   'Ac6 Zn3 Cu1 Sb12'
_cell_volume   658.96561418
_cell_formula_units_Z   1
loop_
 _symmetry_equiv_pos_site_id
 _symmetry_equiv_pos_as_xyz
  1  'x, y, z'
loop_
 _atom_site_type_symbol
 _atom_site_label
 _atom_site_symmetry_multiplicity
 _atom_site_fract_x
 _atom_site_fract_y
 _atom_site_fract_z
 _atom_site_occupancy
  Ac  Ac0  1  0.750000  0.239449  0.750992  1
  Ac  Ac1  1  0.750000  0.255143  0.406550  1
  Ac  Ac2  1  0.250000  0.747514  0.913346  1
  Ac  Ac3  1  0.250000  0.743444  0.592374  1
  Ac  Ac4  1  0.250000  0.766525  0.245939  1
  Ac  Ac5  1  0.750000  0.247798  0.091262  1
  Zn  Zn6  1  0.250000  0.997719  0.413431  1
  Zn  Zn7  1  0.750000  0.001036  0.587379  1
  Zn  Zn8  1  0.750000  0.002044  0.915812  1
  Cu  Cu9  1  0.250000  0.999821  0.082673  1
  Sb  Sb10  1  0.750000  0.508998  0.249126  1
  Sb  Sb11  1  0.750000  0.492456  0.917562  1
  Sb  Sb12  1  0.750000  0.863352  0.750949  1
  Sb  Sb13  1  0.750000  0.845378  0.424147  1
  Sb  Sb14  1  0.250000  0.151665  0.922153  1
  Sb  Sb15  1  0.250000  0.153444  0.576320  1
  Sb  Sb16  1  0.250000  0.128245  0.248445  1
  Sb  Sb17  1  0.250000  0.505208  0.083873  1
  Sb  Sb18  1  0.250000  0.492674  0.750834  1
  Sb  Sb19  1  0.250000  0.508360  0.415283  1
  Sb  Sb20  1  0.750000  0.491469  0.583542  1
  Sb  Sb21  1  0.750000  0.858262  0.078006  1
