# generated using pymatgen
data_Ti8Al15Fe6Pd
_symmetry_space_group_name_H-M   'P 1'
_cell_length_a   8.49786945
_cell_length_b   8.46278577
_cell_length_c   8.47804577
_cell_angle_alpha   120.19505902
_cell_angle_beta   119.82482650
_cell_angle_gamma   89.96197946
_symmetry_Int_Tables_number   1
_chemical_formula_structural   Ti8Al15Fe6Pd
_chemical_formula_sum   'Ti8 Al15 Fe6 Pd1'
_cell_volume   431.13478695
_cell_formula_units_Z   1
loop_
 _symmetry_equiv_pos_site_id
 _symmetry_equiv_pos_as_xyz
  1  'x, y, z'
loop_
 _atom_site_type_symbol
 _atom_site_label
 _atom_site_symmetry_multiplicity
 _atom_site_fract_x
 _atom_site_fract_y
 _atom_site_fract_z
 _atom_site_occupancy
  Ti  Ti0  1  0.791373  0.283488  0.066781  1
  Ti  Ti1  1  0.222433  0.286500  0.493097  1
  Ti  Ti2  1  0.219060  0.707842  0.498309  1
  Ti  Ti3  1  0.216527  0.722286  0.933200  1
  Ti  Ti4  1  0.783104  0.718703  0.508646  1
  Ti  Ti5  1  0.773419  0.284824  0.500743  1
  Ti  Ti6  1  0.393576  0.125177  0.750214  1
  Ti  Ti7  1  0.380983  0.640020  0.260640  1
  Al  Al8  1  0.996487  0.496427  0.500505  1
  Al  Al9  1  0.159609  0.339824  0.179659  1
  Al  Al10  1  0.160834  0.970837  0.819949  1
  Al  Al11  1  0.157781  0.353087  0.816094  1
  Al  Al12  1  0.530396  0.343475  0.186301  1
  Al  Al13  1  0.843495  0.657632  0.817738  1
  Al  Al14  1  0.839075  0.034609  0.181280  1
  Al  Al15  1  0.837566  0.647558  0.180341  1
  Al  Al16  1  0.473469  0.657571  0.816719  1
  Al  Al17  1  0.380543  0.119210  0.258765  1
  Al  Al18  1  0.857731  0.122919  0.744321  1
  Al  Al19  1  0.611445  0.874846  0.252374  1
  Al  Al20  1  0.619165  0.361917  0.742286  1
  Al  Al21  1  0.618805  0.877933  0.740220  1
  Al  Al22  1  0.141434  0.877477  0.255423  1
  Fe  Fe23  1  0.497528  0.000082  0.996207  1
  Fe  Fe24  1  0.497551  0.497061  0.998964  1
  Fe  Fe25  1  0.498781  0.499182  0.498071  1
  Fe  Fe26  1  0.001764  0.500600  0.004024  1
  Fe  Fe27  1  0.000154  0.000019  0.999297  1
  Fe  Fe28  1  0.498854  0.999279  0.501430  1
  Pd  Pd29  1  0.997054  0.999614  0.498400  1
