# generated using pymatgen
data_TaTi3(MnP)4
_symmetry_space_group_name_H-M   'P 1'
_cell_length_a   3.50378900
_cell_length_b   6.13010190
_cell_length_c   7.21251312
_cell_angle_alpha   89.90343902
_cell_angle_beta   90.00000000
_cell_angle_gamma   90.00000000
_symmetry_Int_Tables_number   1
_chemical_formula_structural   TaTi3(MnP)4
_chemical_formula_sum   'Ta1 Ti3 Mn4 P4'
_cell_volume   154.91434600
_cell_formula_units_Z   1
loop_
 _symmetry_equiv_pos_site_id
 _symmetry_equiv_pos_as_xyz
  1  'x, y, z'
loop_
 _atom_site_type_symbol
 _atom_site_label
 _atom_site_symmetry_multiplicity
 _atom_site_fract_x
 _atom_site_fract_y
 _atom_site_fract_z
 _atom_site_occupancy
  Ta  Ta0  1  0.750000  0.467580  0.671118  1
  Ti  Ti1  1  0.750000  0.966353  0.828260  1
  Ti  Ti2  1  0.250000  0.532701  0.326546  1
  Ti  Ti3  1  0.250000  0.031145  0.172722  1
  Mn  Mn4  1  0.750000  0.358923  0.061125  1
  Mn  Mn5  1  0.250000  0.642598  0.939732  1
  Mn  Mn6  1  0.750000  0.856775  0.438781  1
  Mn  Mn7  1  0.250000  0.143043  0.560076  1
  P  P8  1  0.250000  0.772305  0.631835  1
  P  P9  1  0.750000  0.231831  0.364394  1
  P  P10  1  0.250000  0.262677  0.872062  1
  P  P11  1  0.750000  0.734069  0.133350  1
