# generated using pymatgen
data_Ti2SiPdRh4
_symmetry_space_group_name_H-M   'P 1'
_cell_length_a   3.99239400
_cell_length_b   5.41672967
_cell_length_c   10.53639444
_cell_angle_alpha   91.29372700
_cell_angle_beta   90.00000000
_cell_angle_gamma   90.00000000
_symmetry_Int_Tables_number   1
_chemical_formula_structural   Ti2SiPdRh4
_chemical_formula_sum   'Ti4 Si2 Pd2 Rh8'
_cell_volume   227.79902220
_cell_formula_units_Z   2
loop_
 _symmetry_equiv_pos_site_id
 _symmetry_equiv_pos_as_xyz
  1  'x, y, z'
loop_
 _atom_site_type_symbol
 _atom_site_label
 _atom_site_symmetry_multiplicity
 _atom_site_fract_x
 _atom_site_fract_y
 _atom_site_fract_z
 _atom_site_occupancy
  Ti  Ti0  1  0.500000  0.338100  0.140266  1
  Ti  Ti1  1  0.500000  0.661900  0.859734  1
  Ti  Ti2  1  0.500000  0.821240  0.361598  1
  Ti  Ti3  1  0.500000  0.178760  0.638402  1
  Si  Si4  1  0.000000  0.000000  0.000000  1
  Si  Si5  1  0.000000  0.500000  0.500000  1
  Pd  Pd6  1  0.000000  0.077475  0.240029  1
  Pd  Pd7  1  0.000000  0.922525  0.759971  1
  Rh  Rh8  1  0.000000  0.000000  0.500000  1
  Rh  Rh9  1  0.000000  0.500000  0.000000  1
  Rh  Rh10  1  0.000000  0.579022  0.261331  1
  Rh  Rh11  1  0.000000  0.420978  0.738669  1
  Rh  Rh12  1  0.500000  0.314781  0.394185  1
  Rh  Rh13  1  0.500000  0.685219  0.605815  1
  Rh  Rh14  1  0.500000  0.817967  0.104406  1
  Rh  Rh15  1  0.500000  0.182033  0.895594  1
