# generated using pymatgen
data_DyY4Ir3
_symmetry_space_group_name_H-M   'P 1'
_cell_length_a   10.93799900
_cell_length_b   10.93799900
_cell_length_c   6.38221900
_cell_angle_alpha   90.00000000
_cell_angle_beta   90.00000000
_cell_angle_gamma   90.00000000
_symmetry_Int_Tables_number   1
_chemical_formula_structural   DyY4Ir3
_chemical_formula_sum   'Dy4 Y16 Ir12'
_cell_volume   763.56754592
_cell_formula_units_Z   4
loop_
 _symmetry_equiv_pos_site_id
 _symmetry_equiv_pos_as_xyz
  1  'x, y, z'
loop_
 _atom_site_type_symbol
 _atom_site_label
 _atom_site_symmetry_multiplicity
 _atom_site_fract_x
 _atom_site_fract_y
 _atom_site_fract_z
 _atom_site_occupancy
  Dy  Dy0  1  0.000000  0.000000  0.500000  1
  Dy  Dy1  1  0.000000  0.000000  0.000000  1
  Dy  Dy2  1  0.500000  0.500000  0.000000  1
  Dy  Dy3  1  0.500000  0.500000  0.500000  1
  Y  Y4  1  0.291381  0.088426  0.378223  1
  Y  Y5  1  0.291381  0.911574  0.878223  1
  Y  Y6  1  0.708619  0.088426  0.878223  1
  Y  Y7  1  0.708619  0.911574  0.378223  1
  Y  Y8  1  0.588426  0.791381  0.878223  1
  Y  Y9  1  0.588426  0.208619  0.378223  1
  Y  Y10  1  0.411574  0.791381  0.378223  1
  Y  Y11  1  0.411574  0.208619  0.878223  1
  Y  Y12  1  0.208619  0.411574  0.621777  1
  Y  Y13  1  0.208619  0.588426  0.121777  1
  Y  Y14  1  0.791381  0.411574  0.121777  1
  Y  Y15  1  0.791381  0.588426  0.621777  1
  Y  Y16  1  0.911574  0.708619  0.121777  1
  Y  Y17  1  0.911574  0.291381  0.621777  1
  Y  Y18  1  0.088426  0.708619  0.621777  1
  Y  Y19  1  0.088426  0.291381  0.121777  1
  Ir  Ir20  1  0.846965  0.153035  0.250000  1
  Ir  Ir21  1  0.846965  0.846965  0.750000  1
  Ir  Ir22  1  0.153035  0.153035  0.750000  1
  Ir  Ir23  1  0.153035  0.846965  0.250000  1
  Ir  Ir24  1  0.653035  0.346965  0.750000  1
  Ir  Ir25  1  0.653035  0.653035  0.250000  1
  Ir  Ir26  1  0.346965  0.346965  0.250000  1
  Ir  Ir27  1  0.346965  0.653035  0.750000  1
  Ir  Ir28  1  0.500000  0.000000  0.124079  1
  Ir  Ir29  1  0.500000  0.000000  0.624079  1
  Ir  Ir30  1  0.000000  0.500000  0.875921  1
  Ir  Ir31  1  0.000000  0.500000  0.375921  1
