# generated using pymatgen
data_LaCe(SiRh2)2
_symmetry_space_group_name_H-M   'P 1'
_cell_length_a   9.33339566
_cell_length_b   9.33339626
_cell_length_c   4.11984000
_cell_angle_alpha   90.00000000
_cell_angle_beta   90.00000000
_cell_angle_gamma   155.01738714
_symmetry_Int_Tables_number   1
_chemical_formula_structural   LaCe(SiRh2)2
_chemical_formula_sum   'La1 Ce1 Si2 Rh4'
_cell_volume   151.57418756
_cell_formula_units_Z   1
loop_
 _symmetry_equiv_pos_site_id
 _symmetry_equiv_pos_as_xyz
  1  'x, y, z'
loop_
 _atom_site_type_symbol
 _atom_site_label
 _atom_site_symmetry_multiplicity
 _atom_site_fract_x
 _atom_site_fract_y
 _atom_site_fract_z
 _atom_site_occupancy
  La  La0  1  0.098216  0.901784  0.750000  1
  Ce  Ce1  1  0.901168  0.098832  0.250000  1
  Si  Si2  1  0.320504  0.679496  0.750000  1
  Si  Si3  1  0.680413  0.319587  0.250000  1
  Rh  Rh4  1  0.547633  0.452367  0.250000  1
  Rh  Rh5  1  0.449791  0.550209  0.750000  1
  Rh  Rh6  1  0.251062  0.748938  0.250000  1
  Rh  Rh7  1  0.751213  0.248787  0.750000  1
