# generated using pymatgen
data_NdDy2Co8TcP6
_symmetry_space_group_name_H-M   'P 1'
_cell_length_a   3.74291700
_cell_length_b   10.59823700
_cell_length_c   12.31338800
_cell_angle_alpha   90.00000000
_cell_angle_beta   90.00000000
_cell_angle_gamma   90.00000000
_symmetry_Int_Tables_number   1
_chemical_formula_structural   NdDy2Co8TcP6
_chemical_formula_sum   'Nd2 Dy4 Co16 Tc2 P12'
_cell_volume   488.45143317
_cell_formula_units_Z   2
loop_
 _symmetry_equiv_pos_site_id
 _symmetry_equiv_pos_as_xyz
  1  'x, y, z'
loop_
 _atom_site_type_symbol
 _atom_site_label
 _atom_site_symmetry_multiplicity
 _atom_site_fract_x
 _atom_site_fract_y
 _atom_site_fract_z
 _atom_site_occupancy
  Nd  Nd0  1  0.000000  0.500000  0.523972  1
  Nd  Nd1  1  0.500000  0.000000  0.476028  1
  Dy  Dy2  1  0.500000  0.817311  0.204842  1
  Dy  Dy3  1  0.500000  0.182689  0.204842  1
  Dy  Dy4  1  0.000000  0.682689  0.795158  1
  Dy  Dy5  1  0.000000  0.317311  0.795158  1
  Co  Co6  1  0.500000  0.500000  0.705836  1
  Co  Co7  1  0.000000  0.000000  0.294164  1
  Co  Co8  1  0.000000  0.500000  0.987317  1
  Co  Co9  1  0.500000  0.000000  0.012683  1
  Co  Co10  1  0.500000  0.332114  0.990193  1
  Co  Co11  1  0.500000  0.667886  0.990193  1
  Co  Co12  1  0.000000  0.167886  0.009807  1
  Co  Co13  1  0.000000  0.832114  0.009807  1
  Co  Co14  1  0.500000  0.295964  0.429474  1
  Co  Co15  1  0.500000  0.704036  0.429474  1
  Co  Co16  1  0.000000  0.204036  0.570526  1
  Co  Co17  1  0.000000  0.795964  0.570526  1
  Co  Co18  1  0.500000  0.879676  0.710659  1
  Co  Co19  1  0.500000  0.120324  0.710659  1
  Co  Co20  1  0.000000  0.620324  0.289341  1
  Co  Co21  1  0.000000  0.379676  0.289341  1
  Tc  Tc22  1  0.500000  0.500000  0.154450  1
  Tc  Tc23  1  0.000000  0.000000  0.845550  1
  P  P24  1  0.500000  0.500000  0.882626  1
  P  P25  1  0.000000  0.000000  0.117374  1
  P  P26  1  0.500000  0.500000  0.344251  1
  P  P27  1  0.000000  0.000000  0.655749  1
  P  P28  1  0.500000  0.308091  0.617546  1
  P  P29  1  0.500000  0.691909  0.617546  1
  P  P30  1  0.000000  0.191909  0.382454  1
  P  P31  1  0.000000  0.808091  0.382454  1
  P  P32  1  0.500000  0.846231  0.893886  1
  P  P33  1  0.500000  0.153769  0.893886  1
  P  P34  1  0.000000  0.653769  0.106114  1
  P  P35  1  0.000000  0.346231  0.106114  1
