# generated using pymatgen
data_Ta4AlV3Ga3Cu
_symmetry_space_group_name_H-M   'P 1'
_cell_length_a   4.97138982
_cell_length_b   4.98816535
_cell_length_c   8.36963300
_cell_angle_alpha   90.00000000
_cell_angle_beta   90.00000000
_cell_angle_gamma   61.05254952
_symmetry_Int_Tables_number   1
_chemical_formula_structural   Ta4AlV3Ga3Cu
_chemical_formula_sum   'Ta4 Al1 V3 Ga3 Cu1'
_cell_volume   181.62050809
_cell_formula_units_Z   1
loop_
 _symmetry_equiv_pos_site_id
 _symmetry_equiv_pos_as_xyz
  1  'x, y, z'
loop_
 _atom_site_type_symbol
 _atom_site_label
 _atom_site_symmetry_multiplicity
 _atom_site_fract_x
 _atom_site_fract_y
 _atom_site_fract_z
 _atom_site_occupancy
  Ta  Ta0  1  0.334475  0.334821  0.557614  1
  Ta  Ta1  1  0.663205  0.664581  0.435180  1
  Ta  Ta2  1  0.663205  0.664581  0.064820  1
  Ta  Ta3  1  0.334475  0.334821  0.942386  1
  Al  Al4  1  0.351076  0.834690  0.750000  1
  V  V5  1  0.171576  0.649776  0.250000  1
  V  V6  1  0.650150  0.171465  0.250000  1
  V  V7  1  0.171310  0.170709  0.250000  1
  Ga  Ga8  1  0.994894  0.992975  0.499399  1
  Ga  Ga9  1  0.994894  0.992975  0.000601  1
  Ga  Ga10  1  0.834773  0.351707  0.750000  1
  Cu  Cu11  1  0.835966  0.836901  0.750000  1
