# generated using pymatgen
data_Nd3Th2P12Ru19
_symmetry_space_group_name_H-M   'P 1'
_cell_length_a   12.63752200
_cell_length_b   12.63752292
_cell_length_c   4.02732300
_cell_angle_alpha   90.00000000
_cell_angle_beta   90.00000000
_cell_angle_gamma   120.00000806
_symmetry_Int_Tables_number   1
_chemical_formula_structural   Nd3Th2P12Ru19
_chemical_formula_sum   'Nd3 Th2 P12 Ru19'
_cell_volume   557.02019328
_cell_formula_units_Z   1
loop_
 _symmetry_equiv_pos_site_id
 _symmetry_equiv_pos_as_xyz
  1  'x, y, z'
loop_
 _atom_site_type_symbol
 _atom_site_label
 _atom_site_symmetry_multiplicity
 _atom_site_fract_x
 _atom_site_fract_y
 _atom_site_fract_z
 _atom_site_occupancy
  Nd  Nd0  1  0.000000  0.184946  0.500000  1
  Nd  Nd1  1  0.815054  0.815054  0.500000  1
  Nd  Nd2  1  0.184946  0.000000  0.500000  1
  Th  Th3  1  0.666667  0.333333  0.000000  1
  Th  Th4  1  0.333333  0.666667  0.000000  1
  P  P5  1  0.000000  0.813330  0.000000  1
  P  P6  1  0.186670  0.186670  0.000000  1
  P  P7  1  0.813330  0.000000  0.000000  1
  P  P8  1  0.695265  0.169856  0.500000  1
  P  P9  1  0.830144  0.525409  0.500000  1
  P  P10  1  0.474591  0.304735  0.500000  1
  P  P11  1  0.169856  0.695265  0.500000  1
  P  P12  1  0.525409  0.830144  0.500000  1
  P  P13  1  0.304735  0.474591  0.500000  1
  P  P14  1  0.000000  0.373494  0.000000  1
  P  P15  1  0.626506  0.626506  0.000000  1
  P  P16  1  0.373494  0.000000  0.000000  1
  Ru  Ru17  1  0.000000  0.553703  0.000000  1
  Ru  Ru18  1  0.446297  0.446297  0.000000  1
  Ru  Ru19  1  0.553703  0.000000  0.000000  1
  Ru  Ru20  1  0.000000  0.716032  0.500000  1
  Ru  Ru21  1  0.283968  0.283968  0.500000  1
  Ru  Ru22  1  0.716032  0.000000  0.500000  1
  Ru  Ru23  1  0.806102  0.184413  0.000000  1
  Ru  Ru24  1  0.815587  0.621689  0.000000  1
  Ru  Ru25  1  0.378311  0.193898  0.000000  1
  Ru  Ru26  1  0.184413  0.806102  0.000000  1
  Ru  Ru27  1  0.621689  0.815587  0.000000  1
  Ru  Ru28  1  0.193898  0.378311  0.000000  1
  Ru  Ru29  1  0.873621  0.366928  0.500000  1
  Ru  Ru30  1  0.633072  0.506693  0.500000  1
  Ru  Ru31  1  0.493307  0.126379  0.500000  1
  Ru  Ru32  1  0.366928  0.873621  0.500000  1
  Ru  Ru33  1  0.506693  0.633072  0.500000  1
  Ru  Ru34  1  0.126379  0.493307  0.500000  1
  Ru  Ru35  1  0.000000  0.000000  0.000000  1
