# generated using pymatgen
data_Ho12GaNi4Bi
_symmetry_space_group_name_H-M   'P 1'
_cell_length_a   8.36082897
_cell_length_b   8.36082867
_cell_length_c   8.36082893
_cell_angle_alpha   112.35510831
_cell_angle_beta   109.94310101
_cell_angle_gamma   106.17471921
_symmetry_Int_Tables_number   1
_chemical_formula_structural   Ho12GaNi4Bi
_chemical_formula_sum   'Ho12 Ga1 Ni4 Bi1'
_cell_volume   448.59008660
_cell_formula_units_Z   1
loop_
 _symmetry_equiv_pos_site_id
 _symmetry_equiv_pos_as_xyz
  1  'x, y, z'
loop_
 _atom_site_type_symbol
 _atom_site_label
 _atom_site_symmetry_multiplicity
 _atom_site_fract_x
 _atom_site_fract_y
 _atom_site_fract_z
 _atom_site_occupancy
  Ho  Ho0  1  0.426819  0.226241  0.200578  1
  Ho  Ho1  1  0.573181  0.773759  0.799422  1
  Ho  Ho2  1  0.025663  0.226241  0.799422  1
  Ho  Ho3  1  0.974337  0.773759  0.200578  1
  Ho  Ho4  1  0.178900  0.284899  0.463798  1
  Ho  Ho5  1  0.821100  0.715101  0.536202  1
  Ho  Ho6  1  0.178900  0.715101  0.894000  1
  Ho  Ho7  1  0.821100  0.284899  0.106000  1
  Ho  Ho8  1  0.321653  0.633051  0.311399  1
  Ho  Ho9  1  0.678347  0.366949  0.688601  1
  Ho  Ho10  1  0.321653  0.010253  0.688601  1
  Ho  Ho11  1  0.678347  0.989747  0.311399  1
  Ga  Ga12  1  0.000000  0.000000  0.000000  1
  Ni  Ni13  1  0.351262  0.000000  0.351262  1
  Ni  Ni14  1  0.648738  0.000000  0.648738  1
  Ni  Ni15  1  0.121555  0.621555  0.500000  1
  Ni  Ni16  1  0.878445  0.378445  0.500000  1
  Bi  Bi17  1  0.500000  0.500000  0.000000  1
