# generated using pymatgen
data_TbU3(TcB4)4
_symmetry_space_group_name_H-M   'P 1'
_cell_length_a   3.61009300
_cell_length_b   5.93895850
_cell_length_c   11.49709600
_cell_angle_alpha   90.02320568
_cell_angle_beta   90.00000222
_cell_angle_gamma   89.99999347
_symmetry_Int_Tables_number   1
_chemical_formula_structural   TbU3(TcB4)4
_chemical_formula_sum   'Tb1 U3 Tc4 B16'
_cell_volume   246.49993111
_cell_formula_units_Z   1
loop_
 _symmetry_equiv_pos_site_id
 _symmetry_equiv_pos_as_xyz
  1  'x, y, z'
loop_
 _atom_site_type_symbol
 _atom_site_label
 _atom_site_symmetry_multiplicity
 _atom_site_fract_x
 _atom_site_fract_y
 _atom_site_fract_z
 _atom_site_occupancy
  Tb  Tb0  1  0.000000  0.627550  0.350404  1
  U  U1  1  0.000000  0.372207  0.650312  1
  U  U2  1  0.000000  0.127176  0.150083  1
  U  U3  1  0.000000  0.871709  0.849849  1
  Tc  Tc4  1  0.000000  0.640162  0.090164  1
  Tc  Tc5  1  0.000000  0.359712  0.904991  1
  Tc  Tc6  1  0.000000  0.137907  0.409948  1
  Tc  Tc7  1  0.999999  0.862577  0.595765  1
  B  B8  1  0.500000  0.791422  0.185400  1
  B  B9  1  0.500000  0.209963  0.811598  1
  B  B10  1  0.500000  0.284838  0.311776  1
  B  B11  1  0.500000  0.709563  0.688220  1
  B  B12  1  0.500000  0.868982  0.031952  1
  B  B13  1  0.500000  0.133255  0.967703  1
  B  B14  1  0.500000  0.363699  0.469428  1
  B  B15  1  0.500000  0.634253  0.533320  1
  B  B16  1  0.500001  0.886805  0.453603  1
  B  B17  1  0.500000  0.114549  0.547220  1
  B  B18  1  0.500000  0.385931  0.046803  1
  B  B19  1  0.500000  0.615247  0.953148  1
  B  B20  1  0.500000  0.976612  0.307346  1
  B  B21  1  0.500000  0.026944  0.692895  1
  B  B22  1  0.500000  0.471892  0.190993  1
  B  B23  1  0.500000  0.527046  0.807079  1
