# generated using pymatgen
data_Er16Cd4IrPt3
_symmetry_space_group_name_H-M   'P 1'
_cell_length_a   9.60827036
_cell_length_b   9.59184389
_cell_length_c   9.59184400
_cell_angle_alpha   59.99999962
_cell_angle_beta   60.05653723
_cell_angle_gamma   60.05654664
_symmetry_Int_Tables_number   1
_chemical_formula_structural   Er16Cd4IrPt3
_chemical_formula_sum   'Er16 Cd4 Ir1 Pt3'
_cell_volume   625.61198200
_cell_formula_units_Z   1
loop_
 _symmetry_equiv_pos_site_id
 _symmetry_equiv_pos_as_xyz
  1  'x, y, z'
loop_
 _atom_site_type_symbol
 _atom_site_label
 _atom_site_symmetry_multiplicity
 _atom_site_fract_x
 _atom_site_fract_y
 _atom_site_fract_z
 _atom_site_occupancy
  Er  Er0  1  0.603055  0.599061  0.599061  1
  Er  Er1  1  0.603055  0.599061  0.198822  1
  Er  Er2  1  0.603055  0.198822  0.599061  1
  Er  Er3  1  0.195598  0.601467  0.601467  1
  Er  Er4  1  0.057499  0.439287  0.439287  1
  Er  Er5  1  0.440058  0.060044  0.060044  1
  Er  Er6  1  0.440058  0.060044  0.439854  1
  Er  Er7  1  0.057499  0.439287  0.063927  1
  Er  Er8  1  0.440058  0.439854  0.060044  1
  Er  Er9  1  0.057499  0.063927  0.439287  1
  Er  Er10  1  0.184255  0.815578  0.815578  1
  Er  Er11  1  0.816068  0.185412  0.185412  1
  Er  Er12  1  0.816068  0.185412  0.813108  1
  Er  Er13  1  0.184255  0.815578  0.184590  1
  Er  Er14  1  0.816068  0.813108  0.185412  1
  Er  Er15  1  0.184255  0.184590  0.815578  1
  Cd  Cd16  1  0.832029  0.831615  0.831615  1
  Cd  Cd17  1  0.832029  0.831615  0.504740  1
  Cd  Cd18  1  0.832029  0.504740  0.831615  1
  Cd  Cd19  1  0.504831  0.831723  0.831723  1
  Ir  Ir20  1  0.823256  0.392248  0.392248  1
  Pt  Pt21  1  0.392475  0.392565  0.392565  1
  Pt  Pt22  1  0.392475  0.392565  0.822395  1
  Pt  Pt23  1  0.392475  0.822395  0.392565  1
