# generated using pymatgen
data_Dy9HoGa2(SiB8)2
_symmetry_space_group_name_H-M   'P 1'
_cell_length_a   7.24356901
_cell_length_b   7.24089801
_cell_length_c   8.14412900
_cell_angle_alpha   90.00000000
_cell_angle_beta   90.00000000
_cell_angle_gamma   89.65612469
_symmetry_Int_Tables_number   1
_chemical_formula_structural   Dy9HoGa2(SiB8)2
_chemical_formula_sum   'Dy9 Ho1 Ga2 Si2 B16'
_cell_volume   427.15142029
_cell_formula_units_Z   1
loop_
 _symmetry_equiv_pos_site_id
 _symmetry_equiv_pos_as_xyz
  1  'x, y, z'
loop_
 _atom_site_type_symbol
 _atom_site_label
 _atom_site_symmetry_multiplicity
 _atom_site_fract_x
 _atom_site_fract_y
 _atom_site_fract_z
 _atom_site_occupancy
  Dy  Dy0  1  0.679342  0.179369  0.223495  1
  Dy  Dy1  1  0.320658  0.820631  0.776505  1
  Dy  Dy2  1  0.320658  0.820631  0.223495  1
  Dy  Dy3  1  0.815375  0.684482  0.218715  1
  Dy  Dy4  1  0.815375  0.684482  0.781285  1
  Dy  Dy5  1  0.679342  0.179369  0.776505  1
  Dy  Dy6  1  0.184625  0.315518  0.781285  1
  Dy  Dy7  1  0.184625  0.315518  0.218715  1
  Dy  Dy8  1  0.000000  0.000000  0.500000  1
  Ho  Ho9  1  0.500000  0.500000  0.500000  1
  Ga  Ga10  1  0.117497  0.616418  0.500000  1
  Ga  Ga11  1  0.882503  0.383582  0.500000  1
  Si  Si12  1  0.384554  0.116090  0.500000  1
  Si  Si13  1  0.615446  0.883910  0.500000  1
  B  B14  1  0.171644  0.039324  0.000000  1
  B  B15  1  0.828356  0.960676  0.000000  1
  B  B16  1  0.959540  0.171989  0.000000  1
  B  B17  1  0.328059  0.540582  0.000000  1
  B  B18  1  0.040460  0.828011  0.000000  1
  B  B19  1  0.671941  0.459418  0.000000  1
  B  B20  1  0.539153  0.671633  0.000000  1
  B  B21  1  0.460847  0.328367  0.000000  1
  B  B22  1  0.090728  0.590754  0.000000  1
  B  B23  1  0.909272  0.409246  0.000000  1
  B  B24  1  0.408439  0.091548  0.000000  1
  B  B25  1  0.591561  0.908452  0.000000  1
  B  B26  1  0.000000  0.000000  0.161801  1
  B  B27  1  0.000000  0.000000  0.838199  1
  B  B28  1  0.500000  0.500000  0.838015  1
  B  B29  1  0.500000  0.500000  0.161985  1
