# generated using pymatgen
data_YbPr19Si15Ge
_symmetry_space_group_name_H-M   'P 1'
_cell_length_a   7.93701799
_cell_length_b   7.92702538
_cell_length_c   15.26752700
_cell_angle_alpha   90.29143035
_cell_angle_beta   89.82506644
_cell_angle_gamma   90.16579388
_symmetry_Int_Tables_number   1
_chemical_formula_structural   YbPr19Si15Ge
_chemical_formula_sum   'Yb1 Pr19 Si15 Ge1'
_cell_volume   960.56524490
_cell_formula_units_Z   1
loop_
 _symmetry_equiv_pos_site_id
 _symmetry_equiv_pos_as_xyz
  1  'x, y, z'
loop_
 _atom_site_type_symbol
 _atom_site_label
 _atom_site_symmetry_multiplicity
 _atom_site_fract_x
 _atom_site_fract_y
 _atom_site_fract_z
 _atom_site_occupancy
  Yb  Yb0  1  0.310276  0.309780  0.000429  1
  Pr  Pr1  1  0.192819  0.810953  0.250928  1
  Pr  Pr2  1  0.806848  0.192020  0.749176  1
  Pr  Pr3  1  0.691602  0.691923  0.498753  1
  Pr  Pr4  1  0.377061  0.012731  0.448006  1
  Pr  Pr5  1  0.489360  0.874334  0.699749  1
  Pr  Pr6  1  0.511255  0.121174  0.197124  1
  Pr  Pr7  1  0.875841  0.487859  0.299832  1
  Pr  Pr8  1  0.119965  0.512799  0.804087  1
  Pr  Pr9  1  0.622422  0.990483  0.948104  1
  Pr  Pr10  1  0.010996  0.378780  0.550501  1
  Pr  Pr11  1  0.991172  0.622119  0.052795  1
  Pr  Pr12  1  0.127629  0.984492  0.877118  1
  Pr  Pr13  1  0.515111  0.626445  0.126589  1
  Pr  Pr14  1  0.480623  0.375217  0.626500  1
  Pr  Pr15  1  0.627118  0.514925  0.874830  1
  Pr  Pr16  1  0.373972  0.480282  0.373066  1
  Pr  Pr17  1  0.872151  0.019268  0.376066  1
  Pr  Pr18  1  0.984441  0.125725  0.123351  1
  Pr  Pr19  1  0.016541  0.869296  0.623759  1
  Si  Si20  1  0.334709  0.700822  0.950333  1
  Si  Si21  1  0.666352  0.303358  0.450872  1
  Si  Si22  1  0.702619  0.334761  0.050767  1
  Si  Si23  1  0.303361  0.668095  0.548297  1
  Si  Si24  1  0.805220  0.830596  0.201607  1
  Si  Si25  1  0.168313  0.195595  0.297278  1
  Si  Si26  1  0.832063  0.804585  0.799573  1
  Si  Si27  1  0.288151  0.918517  0.059960  1
  Si  Si28  1  0.579058  0.787719  0.308763  1
  Si  Si29  1  0.424414  0.210117  0.810667  1
  Si  Si30  1  0.787077  0.578486  0.691601  1
  Si  Si31  1  0.210764  0.421128  0.190368  1
  Si  Si32  1  0.709744  0.078389  0.559957  1
  Si  Si33  1  0.919202  0.287370  0.940349  1
  Si  Si34  1  0.079100  0.711775  0.439452  1
  Ge  Ge35  1  0.192651  0.168079  0.699396  1
