# generated using pymatgen
data_NdTh2(AlPt)3
_symmetry_space_group_name_H-M   'P 1'
_cell_length_a   7.33325783
_cell_length_b   7.33325683
_cell_length_c   4.16587400
_cell_angle_alpha   90.00000000
_cell_angle_beta   90.00000000
_cell_angle_gamma   120.08091487
_symmetry_Int_Tables_number   1
_chemical_formula_structural   NdTh2(AlPt)3
_chemical_formula_sum   'Nd1 Th2 Al3 Pt3'
_cell_volume   193.85451988
_cell_formula_units_Z   1
loop_
 _symmetry_equiv_pos_site_id
 _symmetry_equiv_pos_as_xyz
  1  'x, y, z'
loop_
 _atom_site_type_symbol
 _atom_site_label
 _atom_site_symmetry_multiplicity
 _atom_site_fract_x
 _atom_site_fract_y
 _atom_site_fract_z
 _atom_site_occupancy
  Nd  Nd0  1  0.417668  0.417668  0.500000  1
  Th  Th1  1  0.580280  0.000499  0.500000  1
  Th  Th2  1  0.000499  0.580280  0.500000  1
  Al  Al3  1  0.764144  0.764144  0.000000  1
  Al  Al4  1  0.232421  0.003813  0.000000  1
  Al  Al5  1  0.003813  0.232421  0.000000  1
  Pt  Pt6  1  0.677394  0.331632  0.000000  1
  Pt  Pt7  1  0.331632  0.677394  0.000000  1
  Pt  Pt8  1  0.992149  0.992149  0.500000  1
