# generated using pymatgen
data_Tb9Er(InSb)4
_symmetry_space_group_name_H-M   'P 1'
_cell_length_a   8.84719056
_cell_length_b   8.84719039
_cell_length_c   8.14086632
_cell_angle_alpha   90.03010220
_cell_angle_beta   90.03009852
_cell_angle_gamma   125.11272417
_symmetry_Int_Tables_number   1
_chemical_formula_structural   Tb9Er(InSb)4
_chemical_formula_sum   'Tb9 Er1 In4 Sb4'
_cell_volume   521.25001543
_cell_formula_units_Z   1
loop_
 _symmetry_equiv_pos_site_id
 _symmetry_equiv_pos_as_xyz
  1  'x, y, z'
loop_
 _atom_site_type_symbol
 _atom_site_label
 _atom_site_symmetry_multiplicity
 _atom_site_fract_x
 _atom_site_fract_y
 _atom_site_fract_z
 _atom_site_occupancy
  Tb  Tb0  1  0.033298  0.308912  0.332277  1
  Tb  Tb1  1  0.966702  0.691088  0.667723  1
  Tb  Tb2  1  0.466387  0.190525  0.832631  1
  Tb  Tb3  1  0.809475  0.533613  0.167369  1
  Tb  Tb4  1  0.533613  0.809475  0.167369  1
  Tb  Tb5  1  0.190525  0.466387  0.832631  1
  Tb  Tb6  1  0.691088  0.966702  0.667723  1
  Tb  Tb7  1  0.308912  0.033298  0.332277  1
  Tb  Tb8  1  0.500000  0.500000  0.500000  1
  Er  Er9  1  0.000000  0.000000  0.000000  1
  In  In10  1  0.371188  0.371188  0.127039  1
  In  In11  1  0.628812  0.628812  0.872961  1
  In  In12  1  0.127641  0.127641  0.628170  1
  In  In13  1  0.872359  0.872359  0.371830  1
  Sb  Sb14  1  0.797000  0.203000  0.000000  1
  Sb  Sb15  1  0.203000  0.797000  0.000000  1
  Sb  Sb16  1  0.703566  0.296434  0.500000  1
  Sb  Sb17  1  0.296434  0.703566  0.500000  1
