# generated using pymatgen
data_TaBe3CoRu
_symmetry_space_group_name_H-M   'P 1'
_cell_length_a   4.45142784
_cell_length_b   4.45142767
_cell_length_c   4.45142844
_cell_angle_alpha   61.72223351
_cell_angle_beta   61.72223072
_cell_angle_gamma   61.72223026
_symmetry_Int_Tables_number   1
_chemical_formula_structural   TaBe3CoRu
_chemical_formula_sum   'Ta1 Be3 Co1 Ru1'
_cell_volume   64.77851419
_cell_formula_units_Z   1
loop_
 _symmetry_equiv_pos_site_id
 _symmetry_equiv_pos_as_xyz
  1  'x, y, z'
loop_
 _atom_site_type_symbol
 _atom_site_label
 _atom_site_symmetry_multiplicity
 _atom_site_fract_x
 _atom_site_fract_y
 _atom_site_fract_z
 _atom_site_occupancy
  Ta  Ta0  1  0.246977  0.246977  0.246977  1
  Be  Be1  1  0.119979  0.626521  0.626521  1
  Be  Be2  1  0.626521  0.119979  0.626521  1
  Be  Be3  1  0.626521  0.626521  0.119979  1
  Co  Co4  1  0.623085  0.623085  0.623085  1
  Ru  Ru5  1  0.006919  0.006919  0.006919  1
