# generated using pymatgen
data_Gd4Te3N2
_symmetry_space_group_name_H-M   'P 1'
_cell_length_a   7.20811200
_cell_length_b   11.43960800
_cell_length_c   11.10364600
_cell_angle_alpha   90.00000000
_cell_angle_beta   90.00000000
_cell_angle_gamma   90.00000000
_symmetry_Int_Tables_number   1
_chemical_formula_structural   Gd4Te3N2
_chemical_formula_sum   'Gd16 Te12 N8'
_cell_volume   915.58417205
_cell_formula_units_Z   4
loop_
 _symmetry_equiv_pos_site_id
 _symmetry_equiv_pos_as_xyz
  1  'x, y, z'
loop_
 _atom_site_type_symbol
 _atom_site_label
 _atom_site_symmetry_multiplicity
 _atom_site_fract_x
 _atom_site_fract_y
 _atom_site_fract_z
 _atom_site_occupancy
  Gd  Gd0  1  0.231834  0.250000  0.030398  1
  Gd  Gd1  1  0.645697  0.048767  0.108567  1
  Gd  Gd2  1  0.645697  0.451234  0.108567  1
  Gd  Gd3  1  0.409661  0.750000  0.157588  1
  Gd  Gd4  1  0.909660  0.750000  0.342413  1
  Gd  Gd5  1  0.145697  0.048767  0.391432  1
  Gd  Gd6  1  0.145697  0.451234  0.391432  1
  Gd  Gd7  1  0.731833  0.250000  0.469602  1
  Gd  Gd8  1  0.268167  0.750000  0.530398  1
  Gd  Gd9  1  0.854302  0.548766  0.608568  1
  Gd  Gd10  1  0.854302  0.951233  0.608568  1
  Gd  Gd11  1  0.090339  0.250000  0.657587  1
  Gd  Gd12  1  0.590340  0.250000  0.842413  1
  Gd  Gd13  1  0.354303  0.548766  0.891432  1
  Gd  Gd14  1  0.354303  0.951233  0.891432  1
  Gd  Gd15  1  0.768167  0.750000  0.969602  1
  Te  Te16  1  0.066222  0.578880  0.136029  1
  Te  Te17  1  0.066222  0.921120  0.136029  1
  Te  Te18  1  0.914426  0.250000  0.222040  1
  Te  Te19  1  0.414426  0.250000  0.277960  1
  Te  Te20  1  0.566222  0.578880  0.363971  1
  Te  Te21  1  0.566222  0.921120  0.363971  1
  Te  Te22  1  0.433778  0.078881  0.636029  1
  Te  Te23  1  0.433778  0.421119  0.636029  1
  Te  Te24  1  0.585573  0.750000  0.722040  1
  Te  Te25  1  0.085573  0.750000  0.777961  1
  Te  Te26  1  0.933777  0.078881  0.863971  1
  Te  Te27  1  0.933777  0.421119  0.863971  1
  N  N28  1  0.552581  0.622050  0.032362  1
  N  N29  1  0.552581  0.877950  0.032362  1
  N  N30  1  0.052581  0.622050  0.467637  1
  N  N31  1  0.052581  0.877950  0.467637  1
  N  N32  1  0.947420  0.122050  0.532362  1
  N  N33  1  0.947420  0.377950  0.532362  1
  N  N34  1  0.447419  0.122050  0.967638  1
  N  N35  1  0.447419  0.377950  0.967638  1
