# generated using pymatgen
data_Gd6TeO12
_symmetry_space_group_name_H-M   'P 1'
_cell_length_a   6.59426203
_cell_length_b   6.59426220
_cell_length_c   6.59426308
_cell_angle_alpha   98.66633219
_cell_angle_beta   98.66633533
_cell_angle_gamma   98.66632160
_symmetry_Int_Tables_number   1
_chemical_formula_structural   Gd6TeO12
_chemical_formula_sum   'Gd6 Te1 O12'
_cell_volume   275.79093941
_cell_formula_units_Z   1
loop_
 _symmetry_equiv_pos_site_id
 _symmetry_equiv_pos_as_xyz
  1  'x, y, z'
loop_
 _atom_site_type_symbol
 _atom_site_label
 _atom_site_symmetry_multiplicity
 _atom_site_fract_x
 _atom_site_fract_y
 _atom_site_fract_z
 _atom_site_occupancy
  Gd  Gd0  1  0.855926  0.390628  0.686311  1
  Gd  Gd1  1  0.609372  0.313689  0.144074  1
  Gd  Gd2  1  0.313689  0.144074  0.609372  1
  Gd  Gd3  1  0.686311  0.855926  0.390628  1
  Gd  Gd4  1  0.390628  0.686311  0.855926  1
  Gd  Gd5  1  0.144074  0.609372  0.313689  1
  Te  Te6  1  0.000000  0.000000  0.000000  1
  O  O7  1  0.929404  0.033477  0.705969  1
  O  O8  1  0.966523  0.294031  0.070596  1
  O  O9  1  0.592947  0.177513  0.433857  1
  O  O10  1  0.822487  0.566143  0.407053  1
  O  O11  1  0.294031  0.070596  0.966523  1
  O  O12  1  0.566143  0.407053  0.822487  1
  O  O13  1  0.433857  0.592947  0.177513  1
  O  O14  1  0.705969  0.929404  0.033477  1
  O  O15  1  0.177513  0.433857  0.592947  1
  O  O16  1  0.407053  0.822487  0.566143  1
  O  O17  1  0.033477  0.705969  0.929404  1
  O  O18  1  0.070596  0.966523  0.294031  1
