# generated using pymatgen
data_Zr6Zn20SiPd3
_symmetry_space_group_name_H-M   'P 1'
_cell_length_a   8.80607212
_cell_length_b   8.80607162
_cell_length_c   8.81780400
_cell_angle_alpha   59.95592538
_cell_angle_beta   59.95592727
_cell_angle_gamma   60.08815514
_symmetry_Int_Tables_number   1
_chemical_formula_structural   Zr6Zn20SiPd3
_chemical_formula_sum   'Zr6 Zn20 Si1 Pd3'
_cell_volume   483.51324607
_cell_formula_units_Z   1
loop_
 _symmetry_equiv_pos_site_id
 _symmetry_equiv_pos_as_xyz
  1  'x, y, z'
loop_
 _atom_site_type_symbol
 _atom_site_label
 _atom_site_symmetry_multiplicity
 _atom_site_fract_x
 _atom_site_fract_y
 _atom_site_fract_z
 _atom_site_occupancy
  Zr  Zr0  1  0.708314  0.291686  0.291686  1
  Zr  Zr1  1  0.291686  0.708314  0.708314  1
  Zr  Zr2  1  0.291686  0.708314  0.291686  1
  Zr  Zr3  1  0.708314  0.291686  0.708314  1
  Zr  Zr4  1  0.288097  0.288097  0.711903  1
  Zr  Zr5  1  0.711903  0.711903  0.288097  1
  Zn  Zn6  1  0.120033  0.120033  0.126672  1
  Zn  Zn7  1  0.879967  0.879967  0.873328  1
  Zn  Zn8  1  0.120033  0.120033  0.633262  1
  Zn  Zn9  1  0.126672  0.633262  0.120033  1
  Zn  Zn10  1  0.879967  0.879967  0.366738  1
  Zn  Zn11  1  0.873328  0.366738  0.879967  1
  Zn  Zn12  1  0.633262  0.126672  0.120033  1
  Zn  Zn13  1  0.366738  0.873328  0.879967  1
  Zn  Zn14  1  0.500000  0.000000  0.000000  1
  Zn  Zn15  1  0.000000  0.500000  0.500000  1
  Zn  Zn16  1  0.000000  0.500000  0.000000  1
  Zn  Zn17  1  0.500000  0.000000  0.500000  1
  Zn  Zn18  1  0.336678  0.336678  0.337298  1
  Zn  Zn19  1  0.663322  0.663322  0.662702  1
  Zn  Zn20  1  0.336678  0.336678  0.989348  1
  Zn  Zn21  1  0.337298  0.989348  0.336678  1
  Zn  Zn22  1  0.663322  0.663322  0.010652  1
  Zn  Zn23  1  0.662702  0.010652  0.663322  1
  Zn  Zn24  1  0.989348  0.337298  0.336678  1
  Zn  Zn25  1  0.010652  0.662702  0.663322  1
  Si  Si26  1  0.500000  0.500000  0.500000  1
  Pd  Pd27  1  0.000000  0.000000  0.500000  1
  Pd  Pd28  1  0.500000  0.500000  0.000000  1
  Pd  Pd29  1  0.000000  0.000000  0.000000  1
