# generated using pymatgen
data_TiV2Si2B4W7
_symmetry_space_group_name_H-M   'P 1'
_cell_length_a   6.96865283
_cell_length_b   6.96865366
_cell_length_c   6.97345091
_cell_angle_alpha   129.12857640
_cell_angle_beta   129.12857790
_cell_angle_gamma   74.69464127
_symmetry_Int_Tables_number   1
_chemical_formula_structural   TiV2Si2B4W7
_chemical_formula_sum   'Ti1 V2 Si2 B4 W7'
_cell_volume   198.64516750
_cell_formula_units_Z   1
loop_
 _symmetry_equiv_pos_site_id
 _symmetry_equiv_pos_as_xyz
  1  'x, y, z'
loop_
 _atom_site_type_symbol
 _atom_site_label
 _atom_site_symmetry_multiplicity
 _atom_site_fract_x
 _atom_site_fract_y
 _atom_site_fract_z
 _atom_site_occupancy
  Ti  Ti0  1  0.305544  0.805544  0.831046  1
  V  V1  1  0.001718  0.000063  0.000806  1
  V  V2  1  0.500063  0.501718  0.000806  1
  Si  Si3  1  0.249466  0.248023  0.999289  1
  Si  Si4  1  0.748023  0.749466  0.999289  1
  B  B5  1  0.624665  0.124665  0.750793  1
  B  B6  1  0.123926  0.378480  0.500911  1
  B  B7  1  0.878480  0.623926  0.500911  1
  B  B8  1  0.373954  0.873954  0.249267  1
  W  W9  1  0.528199  0.694502  0.499787  1
  W  W10  1  0.029540  0.529540  0.833548  1
  W  W11  1  0.696124  0.196124  0.167547  1
  W  W12  1  0.970671  0.470671  0.165659  1
  W  W13  1  0.194502  0.028199  0.499787  1
  W  W14  1  0.471095  0.304027  0.500276  1
  W  W15  1  0.804027  0.971095  0.500276  1
