# generated using pymatgen
data_Si8Mo2Pt5Rh
_symmetry_space_group_name_H-M   'P 1'
_cell_length_a   3.50990500
_cell_length_b   5.53387200
_cell_length_c   24.61704400
_cell_angle_alpha   90.00000000
_cell_angle_beta   90.00000000
_cell_angle_gamma   90.00000000
_symmetry_Int_Tables_number   1
_chemical_formula_structural   Si8Mo2Pt5Rh
_chemical_formula_sum   'Si16 Mo4 Pt10 Rh2'
_cell_volume   478.14583089
_cell_formula_units_Z   2
loop_
 _symmetry_equiv_pos_site_id
 _symmetry_equiv_pos_as_xyz
  1  'x, y, z'
loop_
 _atom_site_type_symbol
 _atom_site_label
 _atom_site_symmetry_multiplicity
 _atom_site_fract_x
 _atom_site_fract_y
 _atom_site_fract_z
 _atom_site_occupancy
  Si  Si0  1  0.250000  0.176057  0.521108  1
  Si  Si1  1  0.750000  0.323943  0.021108  1
  Si  Si2  1  0.250000  0.672137  0.982578  1
  Si  Si3  1  0.750000  0.827863  0.482578  1
  Si  Si4  1  0.750000  0.319123  0.644122  1
  Si  Si5  1  0.250000  0.180877  0.144122  1
  Si  Si6  1  0.750000  0.819850  0.854133  1
  Si  Si7  1  0.250000  0.680150  0.354133  1
  Si  Si8  1  0.250000  0.668322  0.608916  1
  Si  Si9  1  0.750000  0.831678  0.108916  1
  Si  Si10  1  0.250000  0.161703  0.890483  1
  Si  Si11  1  0.750000  0.338297  0.390483  1
  Si  Si12  1  0.750000  0.829182  0.725934  1
  Si  Si13  1  0.250000  0.670818  0.225934  1
  Si  Si14  1  0.750000  0.331170  0.773517  1
  Si  Si15  1  0.250000  0.168830  0.273517  1
  Mo  Mo16  1  0.250000  0.503066  0.709840  1
  Mo  Mo17  1  0.750000  0.996934  0.209840  1
  Mo  Mo18  1  0.250000  0.004734  0.789671  1
  Mo  Mo19  1  0.750000  0.495266  0.289671  1
  Pt  Pt20  1  0.750000  0.501971  0.925319  1
  Pt  Pt21  1  0.250000  0.998029  0.425319  1
  Pt  Pt22  1  0.250000  0.004928  0.670153  1
  Pt  Pt23  1  0.750000  0.495072  0.170153  1
  Pt  Pt24  1  0.250000  0.503873  0.829986  1
  Pt  Pt25  1  0.750000  0.996127  0.329986  1
  Pt  Pt26  1  0.750000  0.500699  0.549133  1
  Pt  Pt27  1  0.250000  0.999301  0.049133  1
  Pt  Pt28  1  0.750000  0.003357  0.951378  1
  Pt  Pt29  1  0.250000  0.496643  0.451378  1
  Rh  Rh30  1  0.750000  0.000015  0.573730  1
  Rh  Rh31  1  0.250000  0.499985  0.073730  1
