# generated using pymatgen
data_Er10TlIn7CoPt3
_symmetry_space_group_name_H-M   'P 1'
_cell_length_a   3.60371000
_cell_length_b   8.05287100
_cell_length_c   18.05738403
_cell_angle_alpha   89.99828539
_cell_angle_beta   90.00000000
_cell_angle_gamma   90.00000000
_symmetry_Int_Tables_number   1
_chemical_formula_structural   Er10TlIn7CoPt3
_chemical_formula_sum   'Er10 Tl1 In7 Co1 Pt3'
_cell_volume   524.02910814
_cell_formula_units_Z   1
loop_
 _symmetry_equiv_pos_site_id
 _symmetry_equiv_pos_as_xyz
  1  'x, y, z'
loop_
 _atom_site_type_symbol
 _atom_site_label
 _atom_site_symmetry_multiplicity
 _atom_site_fract_x
 _atom_site_fract_y
 _atom_site_fract_z
 _atom_site_occupancy
  Er  Er0  1  0.000000  0.111353  0.408542  1
  Er  Er1  1  0.000000  0.883730  0.584079  1
  Er  Er2  1  0.000000  0.383040  0.915335  1
  Er  Er3  1  0.000000  0.618195  0.087041  1
  Er  Er4  1  0.000000  0.234061  0.223631  1
  Er  Er5  1  0.000000  0.757830  0.778942  1
  Er  Er6  1  0.000000  0.256678  0.720953  1
  Er  Er7  1  0.000000  0.756245  0.279424  1
  Er  Er8  1  0.000000  0.999857  0.001056  1
  Er  Er9  1  0.000000  0.501423  0.499232  1
  Tl  Tl10  1  0.500000  0.421255  0.352856  1
  In  In11  1  0.500000  0.575916  0.647695  1
  In  In12  1  0.500000  0.075838  0.852007  1
  In  In13  1  0.500000  0.928994  0.151808  1
  In  In14  1  0.500000  0.291778  0.067962  1
  In  In15  1  0.500000  0.708701  0.933900  1
  In  In16  1  0.500000  0.208042  0.564959  1
  In  In17  1  0.500000  0.796211  0.430107  1
  Co  Co18  1  0.500000  0.016452  0.304853  1
  Pt  Pt19  1  0.500000  0.975662  0.695599  1
  Pt  Pt20  1  0.500000  0.475876  0.804034  1
  Pt  Pt21  1  0.500000  0.522860  0.195982  1
