# generated using pymatgen
data_LaPr9Si5Hg
_symmetry_space_group_name_H-M   'P 1'
_cell_length_a   7.89998645
_cell_length_b   7.89998646
_cell_length_c   9.10157299
_cell_angle_alpha   115.72104731
_cell_angle_beta   115.72104434
_cell_angle_gamma   90.00000518
_symmetry_Int_Tables_number   1
_chemical_formula_structural   LaPr9Si5Hg
_chemical_formula_sum   'La1 Pr9 Si5 Hg1'
_cell_volume   448.45569728
_cell_formula_units_Z   1
loop_
 _symmetry_equiv_pos_site_id
 _symmetry_equiv_pos_as_xyz
  1  'x, y, z'
loop_
 _atom_site_type_symbol
 _atom_site_label
 _atom_site_symmetry_multiplicity
 _atom_site_fract_x
 _atom_site_fract_y
 _atom_site_fract_z
 _atom_site_occupancy
  La  La0  1  0.495625  0.495625  0.991250  1
  Pr  Pr1  1  0.003752  0.003752  0.007503  1
  Pr  Pr2  1  0.969491  0.824996  0.286011  1
  Pr  Pr3  1  0.316520  0.461014  0.286011  1
  Pr  Pr4  1  0.824996  0.316520  0.286011  1
  Pr  Pr5  1  0.461014  0.969491  0.286011  1
  Pr  Pr6  1  0.038879  0.183369  0.714189  1
  Pr  Pr7  1  0.675312  0.530821  0.714189  1
  Pr  Pr8  1  0.183369  0.675312  0.714189  1
  Pr  Pr9  1  0.530821  0.038879  0.714189  1
  Si  Si10  1  0.249535  0.249535  0.499069  1
  Si  Si11  1  0.614076  0.886670  0.000141  1
  Si  Si12  1  0.386066  0.113471  0.000141  1
  Si  Si13  1  0.886670  0.386066  0.000141  1
  Si  Si14  1  0.113471  0.614076  0.000141  1
  Hg  Hg15  1  0.750405  0.750405  0.500810  1
