# generated using pymatgen
data_Er4Al15(ZnPd2)3
_symmetry_space_group_name_H-M   'P 1'
_cell_length_a   7.57487771
_cell_length_b   7.58432047
_cell_length_c   9.46387900
_cell_angle_alpha   90.00000000
_cell_angle_beta   90.00000000
_cell_angle_gamma   119.10280345
_symmetry_Int_Tables_number   1
_chemical_formula_structural   Er4Al15(ZnPd2)3
_chemical_formula_sum   'Er4 Al15 Zn3 Pd6'
_cell_volume   475.05936812
_cell_formula_units_Z   1
loop_
 _symmetry_equiv_pos_site_id
 _symmetry_equiv_pos_as_xyz
  1  'x, y, z'
loop_
 _atom_site_type_symbol
 _atom_site_label
 _atom_site_symmetry_multiplicity
 _atom_site_fract_x
 _atom_site_fract_y
 _atom_site_fract_z
 _atom_site_occupancy
  Er  Er0  1  0.995755  0.674630  0.250000  1
  Er  Er1  1  0.005528  0.326183  0.750000  1
  Er  Er2  1  0.673532  0.994558  0.250000  1
  Er  Er3  1  0.325596  0.004924  0.750000  1
  Al  Al4  1  0.006046  0.336774  0.081937  1
  Al  Al5  1  0.996556  0.665846  0.920631  1
  Al  Al6  1  0.996556  0.665846  0.579369  1
  Al  Al7  1  0.333890  0.001391  0.420070  1
  Al  Al8  1  0.006046  0.336774  0.418063  1
  Al  Al9  1  0.666527  0.998119  0.579848  1
  Al  Al10  1  0.666527  0.998119  0.920152  1
  Al  Al11  1  0.333890  0.001391  0.079930  1
  Al  Al12  1  0.332121  0.332321  0.554151  1
  Al  Al13  1  0.664034  0.666334  0.443848  1
  Al  Al14  1  0.664034  0.666334  0.056152  1
  Al  Al15  1  0.332121  0.332321  0.945849  1
  Al  Al16  1  0.659514  0.450780  0.750000  1
  Al  Al17  1  0.546461  0.342336  0.250000  1
  Al  Al18  1  0.453326  0.658622  0.750000  1
  Zn  Zn19  1  0.142040  0.141053  0.250000  1
  Zn  Zn20  1  0.860436  0.859537  0.750000  1
  Zn  Zn21  1  0.343493  0.545807  0.250000  1
  Pd  Pd22  1  0.672906  0.325805  0.999920  1
  Pd  Pd23  1  0.325733  0.674736  0.994395  1
  Pd  Pd24  1  0.325733  0.674736  0.505605  1
  Pd  Pd25  1  0.672906  0.325805  0.500080  1
  Pd  Pd26  1  0.999347  0.999459  0.000804  1
  Pd  Pd27  1  0.999347  0.999459  0.499196  1
