# generated using pymatgen
data_Sr2Cd21Pd
_symmetry_space_group_name_H-M   'P 1'
_cell_length_a   9.41204239
_cell_length_b   9.40784316
_cell_length_c   9.40784189
_cell_angle_alpha   99.34336620
_cell_angle_beta   100.04557468
_cell_angle_gamma   131.51691829
_symmetry_Int_Tables_number   1
_chemical_formula_structural   Sr2Cd21Pd
_chemical_formula_sum   'Sr2 Cd21 Pd1'
_cell_volume   568.85794909
_cell_formula_units_Z   1
loop_
 _symmetry_equiv_pos_site_id
 _symmetry_equiv_pos_as_xyz
  1  'x, y, z'
loop_
 _atom_site_type_symbol
 _atom_site_label
 _atom_site_symmetry_multiplicity
 _atom_site_fract_x
 _atom_site_fract_y
 _atom_site_fract_z
 _atom_site_occupancy
  Sr  Sr0  1  0.749742  0.249422  0.500320  1
  Sr  Sr1  1  0.500258  0.500578  0.999680  1
  Cd  Cd2  1  0.986753  0.311793  0.911295  1
  Cd  Cd3  1  0.125000  0.875000  0.750000  1
  Cd  Cd4  1  0.679743  0.608661  0.681018  1
  Cd  Cd5  1  0.403330  0.320649  0.323258  1
  Cd  Cd6  1  0.679744  0.998725  0.071082  1
  Cd  Cd7  1  0.846670  0.429351  0.176742  1
  Cd  Cd8  1  0.403331  0.080073  0.082682  1
  Cd  Cd9  1  0.985735  0.994836  0.990899  1
  Cd  Cd10  1  0.846669  0.669927  0.417318  1
  Cd  Cd11  1  0.264265  0.755164  0.509101  1
  Cd  Cd12  1  0.331744  0.745181  0.173597  1
  Cd  Cd13  1  0.125000  0.875000  0.250000  1
  Cd  Cd14  1  0.263247  0.438207  0.588705  1
  Cd  Cd15  1  0.570256  0.751275  0.428918  1
  Cd  Cd16  1  0.986753  0.075458  0.674960  1
  Cd  Cd17  1  0.918256  0.004819  0.326403  1
  Cd  Cd18  1  0.331744  0.158147  0.586563  1
  Cd  Cd19  1  0.263247  0.674542  0.825040  1
  Cd  Cd20  1  0.570257  0.141339  0.818982  1
  Cd  Cd21  1  0.918256  0.591853  0.913437  1
  Cd  Cd22  1  0.125000  0.375000  0.250000  1
  Pd  Pd23  1  0.625000  0.875000  0.750000  1
