# generated using pymatgen
data_Ba4TcSbO10
_symmetry_space_group_name_H-M   'P 1'
_cell_length_a   5.87998600
_cell_length_b   7.55206682
_cell_length_c   11.65305619
_cell_angle_alpha   88.43534207
_cell_angle_beta   90.00000000
_cell_angle_gamma   90.00000000
_symmetry_Int_Tables_number   1
_chemical_formula_structural   Ba4TcSbO10
_chemical_formula_sum   'Ba8 Tc2 Sb2 O20'
_cell_volume   517.27322445
_cell_formula_units_Z   2
loop_
 _symmetry_equiv_pos_site_id
 _symmetry_equiv_pos_as_xyz
  1  'x, y, z'
loop_
 _atom_site_type_symbol
 _atom_site_label
 _atom_site_symmetry_multiplicity
 _atom_site_fract_x
 _atom_site_fract_y
 _atom_site_fract_z
 _atom_site_occupancy
  Ba  Ba0  1  0.750000  0.475732  0.273689  1
  Ba  Ba1  1  0.250000  0.524268  0.726311  1
  Ba  Ba2  1  0.750000  0.975589  0.202701  1
  Ba  Ba3  1  0.250000  0.024411  0.797299  1
  Ba  Ba4  1  0.750000  0.200831  0.598448  1
  Ba  Ba5  1  0.250000  0.799169  0.401552  1
  Ba  Ba6  1  0.750000  0.662925  0.934590  1
  Ba  Ba7  1  0.250000  0.337075  0.065410  1
  Tc  Tc8  1  0.750000  0.686879  0.559414  1
  Tc  Tc9  1  0.250000  0.313121  0.440586  1
  Sb  Sb10  1  0.750000  0.171437  0.928690  1
  Sb  Sb11  1  0.250000  0.828563  0.071310  1
  O  O12  1  0.482443  0.172953  0.399325  1
  O  O13  1  0.982443  0.827047  0.600675  1
  O  O14  1  0.000523  0.675610  0.131816  1
  O  O15  1  0.500523  0.324390  0.868184  1
  O  O16  1  0.517557  0.827047  0.600675  1
  O  O17  1  0.017557  0.172953  0.399325  1
  O  O18  1  0.999477  0.324390  0.868184  1
  O  O19  1  0.499477  0.675610  0.131816  1
  O  O20  1  0.500000  0.500000  0.500000  1
  O  O21  1  0.000000  0.500000  0.500000  1
  O  O22  1  0.000000  0.000000  0.000000  1
  O  O23  1  0.500000  0.000000  0.000000  1
  O  O24  1  0.750000  0.289342  0.082462  1
  O  O25  1  0.250000  0.710658  0.917538  1
  O  O26  1  0.750000  0.763136  0.404027  1
  O  O27  1  0.250000  0.236864  0.595973  1
  O  O28  1  0.750000  0.016064  0.794247  1
  O  O29  1  0.250000  0.983936  0.205753  1
  O  O30  1  0.750000  0.539737  0.685353  1
  O  O31  1  0.250000  0.460263  0.314647  1
