# generated using pymatgen
data_DyEr2Cd3Si2Au
_symmetry_space_group_name_H-M   'P 1'
_cell_length_a   7.23300313
_cell_length_b   7.23300388
_cell_length_c   4.31964900
_cell_angle_alpha   90.00000000
_cell_angle_beta   90.00000000
_cell_angle_gamma   120.02138779
_symmetry_Int_Tables_number   1
_chemical_formula_structural   DyEr2Cd3Si2Au
_chemical_formula_sum   'Dy1 Er2 Cd3 Si2 Au1'
_cell_volume   195.66935027
_cell_formula_units_Z   1
loop_
 _symmetry_equiv_pos_site_id
 _symmetry_equiv_pos_as_xyz
  1  'x, y, z'
loop_
 _atom_site_type_symbol
 _atom_site_label
 _atom_site_symmetry_multiplicity
 _atom_site_fract_x
 _atom_site_fract_y
 _atom_site_fract_z
 _atom_site_occupancy
  Dy  Dy0  1  0.417233  0.417233  0.000000  1
  Er  Er1  1  0.583185  0.000162  0.000000  1
  Er  Er2  1  0.000162  0.583185  0.000000  1
  Cd  Cd3  1  0.255216  0.999776  0.500000  1
  Cd  Cd4  1  0.999776  0.255216  0.500000  1
  Cd  Cd5  1  0.745086  0.745086  0.500000  1
  Si  Si6  1  0.333103  0.667038  0.500000  1
  Si  Si7  1  0.667038  0.333103  0.500000  1
  Au  Au8  1  0.999200  0.999200  0.000000  1
