# generated using pymatgen
data_Dy12Y5Er3Sn16
_symmetry_space_group_name_H-M   'P 1'
_cell_length_a   8.03653025
_cell_length_b   8.16287935
_cell_length_c   15.45814653
_cell_angle_alpha   89.99648343
_cell_angle_beta   89.90971841
_cell_angle_gamma   89.96461970
_symmetry_Int_Tables_number   1
_chemical_formula_structural   Dy12Y5Er3Sn16
_chemical_formula_sum   'Dy12 Y5 Er3 Sn16'
_cell_volume   1014.07192323
_cell_formula_units_Z   1
loop_
 _symmetry_equiv_pos_site_id
 _symmetry_equiv_pos_as_xyz
  1  'x, y, z'
loop_
 _atom_site_type_symbol
 _atom_site_label
 _atom_site_symmetry_multiplicity
 _atom_site_fract_x
 _atom_site_fract_y
 _atom_site_fract_z
 _atom_site_occupancy
  Dy  Dy0  1  0.366576  0.837540  0.877058  1
  Dy  Dy1  1  0.867229  0.662100  0.622315  1
  Dy  Dy2  1  0.632165  0.162054  0.377497  1
  Dy  Dy3  1  0.132950  0.337856  0.122791  1
  Dy  Dy4  1  0.632472  0.162651  0.122884  1
  Dy  Dy5  1  0.131689  0.337665  0.377766  1
  Dy  Dy6  1  0.368574  0.837804  0.622520  1
  Dy  Dy7  1  0.867360  0.662456  0.877266  1
  Dy  Dy8  1  0.521604  0.321366  0.902763  1
  Dy  Dy9  1  0.021758  0.178716  0.597204  1
  Dy  Dy10  1  0.478070  0.678517  0.402839  1
  Dy  Dy11  1  0.198973  0.503704  0.749733  1
  Y  Y12  1  0.979824  0.821027  0.096670  1
  Y  Y13  1  0.479500  0.678192  0.096492  1
  Y  Y14  1  0.978948  0.821426  0.403364  1
  Y  Y15  1  0.520969  0.321542  0.596757  1
  Y  Y16  1  0.019839  0.178747  0.903553  1
  Er  Er17  1  0.699057  0.996469  0.749970  1
  Er  Er18  1  0.800937  0.496191  0.250076  1
  Er  Er19  1  0.300955  0.003599  0.250334  1
  Sn  Sn20  1  0.294549  0.038345  0.041615  1
  Sn  Sn21  1  0.792212  0.462888  0.458066  1
  Sn  Sn22  1  0.707741  0.963453  0.542045  1
  Sn  Sn23  1  0.207017  0.537052  0.958215  1
  Sn  Sn24  1  0.704818  0.961961  0.958259  1
  Sn  Sn25  1  0.206499  0.538337  0.541382  1
  Sn  Sn26  1  0.293306  0.037968  0.458584  1
  Sn  Sn27  1  0.794047  0.461170  0.041271  1
  Sn  Sn28  1  0.565661  0.617972  0.750013  1
  Sn  Sn29  1  0.064532  0.882143  0.749440  1
  Sn  Sn30  1  0.434977  0.381611  0.250568  1
  Sn  Sn31  1  0.935155  0.118388  0.250101  1
  Sn  Sn32  1  0.331450  0.148907  0.750358  1
  Sn  Sn33  1  0.831579  0.350621  0.749764  1
  Sn  Sn34  1  0.667975  0.850619  0.250203  1
  Sn  Sn35  1  0.169035  0.648946  0.250264  1
