# generated using pymatgen
data_Nd6Ho7Th3(CdIr)4
_symmetry_space_group_name_H-M   'P 1'
_cell_length_a   9.82195219
_cell_length_b   9.81293834
_cell_length_c   9.81293900
_cell_angle_alpha   60.00000113
_cell_angle_beta   60.03035461
_cell_angle_gamma   60.03036071
_symmetry_Int_Tables_number   1
_chemical_formula_structural   Nd6Ho7Th3(CdIr)4
_chemical_formula_sum   'Nd6 Ho7 Th3 Cd4 Ir4'
_cell_volume   669.08318721
_cell_formula_units_Z   1
loop_
 _symmetry_equiv_pos_site_id
 _symmetry_equiv_pos_as_xyz
  1  'x, y, z'
loop_
 _atom_site_type_symbol
 _atom_site_label
 _atom_site_symmetry_multiplicity
 _atom_site_fract_x
 _atom_site_fract_y
 _atom_site_fract_z
 _atom_site_occupancy
  Nd  Nd0  1  0.937993  0.561967  0.561967  1
  Nd  Nd1  1  0.562220  0.937773  0.937773  1
  Nd  Nd2  1  0.562220  0.937773  0.562234  1
  Nd  Nd3  1  0.937993  0.561967  0.938073  1
  Nd  Nd4  1  0.562220  0.562234  0.937773  1
  Nd  Nd5  1  0.937993  0.938073  0.561967  1
  Ho  Ho6  1  0.953781  0.348740  0.348740  1
  Ho  Ho7  1  0.813542  0.187673  0.187673  1
  Ho  Ho8  1  0.187827  0.813709  0.813709  1
  Ho  Ho9  1  0.187827  0.813709  0.184755  1
  Ho  Ho10  1  0.813542  0.187673  0.811114  1
  Ho  Ho11  1  0.187827  0.184755  0.813709  1
  Ho  Ho12  1  0.813542  0.811114  0.187673  1
  Th  Th13  1  0.345846  0.348764  0.348764  1
  Th  Th14  1  0.345846  0.348764  0.956626  1
  Th  Th15  1  0.345846  0.956626  0.348764  1
  Cd  Cd16  1  0.580631  0.579204  0.579204  1
  Cd  Cd17  1  0.580631  0.579204  0.260960  1
  Cd  Cd18  1  0.580631  0.260960  0.579204  1
  Cd  Cd19  1  0.259013  0.580328  0.580328  1
  Ir  Ir20  1  0.143706  0.141473  0.141473  1
  Ir  Ir21  1  0.143706  0.141473  0.573346  1
  Ir  Ir22  1  0.143706  0.573346  0.141473  1
  Ir  Ir23  1  0.571907  0.142697  0.142697  1
