# generated using pymatgen
data_Ta10Ga4SiP
_symmetry_space_group_name_H-M   'P 1'
_cell_length_a   6.65024700
_cell_length_b   7.61665463
_cell_length_c   6.64222100
_cell_angle_alpha   115.90381280
_cell_angle_beta   89.89120561
_cell_angle_gamma   115.93730474
_symmetry_Int_Tables_number   1
_chemical_formula_structural   Ta10Ga4SiP
_chemical_formula_sum   'Ta10 Ga4 Si1 P1'
_cell_volume   264.61134265
_cell_formula_units_Z   1
loop_
 _symmetry_equiv_pos_site_id
 _symmetry_equiv_pos_as_xyz
  1  'x, y, z'
loop_
 _atom_site_type_symbol
 _atom_site_label
 _atom_site_symmetry_multiplicity
 _atom_site_fract_x
 _atom_site_fract_y
 _atom_site_fract_z
 _atom_site_occupancy
  Ta  Ta0  1  0.992212  0.000000  0.999588  1
  Ta  Ta1  1  0.507259  0.000000  0.496149  1
  Ta  Ta2  1  0.519881  0.703655  0.690792  1
  Ta  Ta3  1  0.192573  0.695243  0.010445  1
  Ta  Ta4  1  0.682620  0.704284  0.188167  1
  Ta  Ta5  1  0.002296  0.691971  0.508860  1
  Ta  Ta6  1  0.497331  0.304757  0.315203  1
  Ta  Ta7  1  0.816227  0.296345  0.987138  1
  Ta  Ta8  1  0.310326  0.308029  0.816890  1
  Ta  Ta9  1  0.978337  0.295716  0.483884  1
  Ga  Ga10  1  0.751005  0.499914  0.756379  1
  Ga  Ga11  1  0.251091  0.500086  0.256464  1
  Ga  Ga12  1  0.136057  0.000000  0.366222  1
  Ga  Ga13  1  0.360866  0.000000  0.862178  1
  Si  Si14  1  0.872148  0.000000  0.630537  1
  P  P15  1  0.629769  0.000000  0.131106  1
