# generated using pymatgen
data_DyY5(CoSn6)2
_symmetry_space_group_name_H-M   'P 1'
_cell_length_a   8.51273079
_cell_length_b   8.51273086
_cell_length_c   13.14618600
_cell_angle_alpha   89.97525159
_cell_angle_beta   90.02474841
_cell_angle_gamma   148.88738463
_symmetry_Int_Tables_number   1
_chemical_formula_structural   DyY5(CoSn6)2
_chemical_formula_sum   'Dy1 Y5 Co2 Sn12'
_cell_volume   492.25978440
_cell_formula_units_Z   1
loop_
 _symmetry_equiv_pos_site_id
 _symmetry_equiv_pos_as_xyz
  1  'x, y, z'
loop_
 _atom_site_type_symbol
 _atom_site_label
 _atom_site_symmetry_multiplicity
 _atom_site_fract_x
 _atom_site_fract_y
 _atom_site_fract_z
 _atom_site_occupancy
  Dy  Dy0  1  0.898952  0.101048  0.405893  1
  Y  Y1  1  0.898896  0.101104  0.093165  1
  Y  Y2  1  0.100946  0.899054  0.593430  1
  Y  Y3  1  0.900189  0.099811  0.750864  1
  Y  Y4  1  0.100525  0.899475  0.907162  1
  Y  Y5  1  0.099959  0.900041  0.249780  1
  Co  Co6  1  0.299833  0.700167  0.250260  1
  Co  Co7  1  0.700185  0.299815  0.749563  1
  Sn  Sn8  1  0.756432  0.243568  0.571594  1
  Sn  Sn9  1  0.428391  0.571609  0.575963  1
  Sn  Sn10  1  0.572236  0.427764  0.423645  1
  Sn  Sn11  1  0.734453  0.265547  0.249496  1
  Sn  Sn12  1  0.265503  0.734497  0.750290  1
  Sn  Sn13  1  0.244119  0.755881  0.071590  1
  Sn  Sn14  1  0.244559  0.755441  0.428572  1
  Sn  Sn15  1  0.571682  0.428318  0.076035  1
  Sn  Sn16  1  0.453662  0.546338  0.249794  1
  Sn  Sn17  1  0.546322  0.453678  0.750364  1
  Sn  Sn18  1  0.755535  0.244465  0.928243  1
  Sn  Sn19  1  0.427621  0.572379  0.924300  1
