# generated using pymatgen
data_Y5Tm3Tc2(B12Os)2
_symmetry_space_group_name_H-M   'P 1'
_cell_length_a   3.65421200
_cell_length_b   9.12753351
_cell_length_c   11.51730411
_cell_angle_alpha   89.93942319
_cell_angle_beta   90.00000000
_cell_angle_gamma   90.00000000
_symmetry_Int_Tables_number   1
_chemical_formula_structural   Y5Tm3Tc2(B12Os)2
_chemical_formula_sum   'Y5 Tm3 Tc2 B24 Os2'
_cell_volume   384.14728400
_cell_formula_units_Z   1
loop_
 _symmetry_equiv_pos_site_id
 _symmetry_equiv_pos_as_xyz
  1  'x, y, z'
loop_
 _atom_site_type_symbol
 _atom_site_label
 _atom_site_symmetry_multiplicity
 _atom_site_fract_x
 _atom_site_fract_y
 _atom_site_fract_z
 _atom_site_occupancy
  Y  Y0  1  0.000000  0.324493  0.415278  1
  Y  Y1  1  0.000000  0.675418  0.585166  1
  Y  Y2  1  0.000000  0.820276  0.087055  1
  Y  Y3  1  0.000000  0.179710  0.912543  1
  Y  Y4  1  0.000000  0.942136  0.371651  1
  Tm  Tm5  1  0.000000  0.058342  0.629603  1
  Tm  Tm6  1  0.000000  0.443847  0.129399  1
  Tm  Tm7  1  0.000000  0.556194  0.870224  1
  Tc  Tc8  1  0.000000  0.637495  0.319473  1
  Tc  Tc9  1  0.000000  0.361314  0.680669  1
  B  B10  1  0.500000  0.552733  0.432615  1
  B  B11  1  0.500000  0.446442  0.567627  1
  B  B12  1  0.500000  0.054192  0.066927  1
  B  B13  1  0.500000  0.946028  0.932527  1
  B  B14  1  0.500000  0.747723  0.418786  1
  B  B15  1  0.500000  0.250965  0.581618  1
  B  B16  1  0.500000  0.250004  0.081319  1
  B  B17  1  0.500000  0.750351  0.918368  1
  B  B18  1  0.500000  0.790653  0.265076  1
  B  B19  1  0.500000  0.208344  0.734578  1
  B  B20  1  0.500000  0.291667  0.233801  1
  B  B21  1  0.500000  0.708881  0.765993  1
  B  B22  1  0.500000  0.630102  0.184681  1
  B  B23  1  0.500000  0.369521  0.815038  1
  B  B24  1  0.500000  0.131343  0.313724  1
  B  B25  1  0.500000  0.869775  0.686040  1
  B  B26  1  0.500000  0.983172  0.211714  1
  B  B27  1  0.500000  0.017357  0.787514  1
  B  B28  1  0.500000  0.482058  0.286752  1
  B  B29  1  0.500000  0.517615  0.713103  1
  B  B30  1  0.500000  0.601386  0.027685  1
  B  B31  1  0.500000  0.398624  0.972009  1
  B  B32  1  0.500000  0.103395  0.472315  1
  B  B33  1  0.500000  0.897682  0.529849  1
  Os  Os34  1  0.000000  0.138827  0.178130  1
  Os  Os35  1  0.000000  0.861935  0.821152  1
