# generated using pymatgen
data_Hf16VNi4Ir3
_symmetry_space_group_name_H-M   'P 1'
_cell_length_a   8.66863833
_cell_length_b   8.56016842
_cell_length_c   8.56017000
_cell_angle_alpha   59.99999390
_cell_angle_beta   60.41306171
_cell_angle_gamma   60.41306401
_symmetry_Int_Tables_number   1
_chemical_formula_structural   Hf16VNi4Ir3
_chemical_formula_sum   'Hf16 V1 Ni4 Ir3'
_cell_volume   451.94337921
_cell_formula_units_Z   1
loop_
 _symmetry_equiv_pos_site_id
 _symmetry_equiv_pos_as_xyz
  1  'x, y, z'
loop_
 _atom_site_type_symbol
 _atom_site_label
 _atom_site_symmetry_multiplicity
 _atom_site_fract_x
 _atom_site_fract_y
 _atom_site_fract_z
 _atom_site_occupancy
  Hf  Hf0  1  0.666750  0.111083  0.111083  1
  Hf  Hf1  1  0.105332  0.684195  0.105235  1
  Hf  Hf2  1  0.105332  0.105235  0.684195  1
  Hf  Hf3  1  0.105332  0.105235  0.105235  1
  Hf  Hf4  1  0.317601  0.314695  0.683852  1
  Hf  Hf5  1  0.695530  0.675840  0.314316  1
  Hf  Hf6  1  0.317601  0.683852  0.314695  1
  Hf  Hf7  1  0.695530  0.314316  0.675840  1
  Hf  Hf8  1  0.695530  0.314316  0.314316  1
  Hf  Hf9  1  0.317601  0.683852  0.683852  1
  Hf  Hf10  1  0.949507  0.952456  0.549020  1
  Hf  Hf11  1  0.551290  0.550640  0.949035  1
  Hf  Hf12  1  0.949507  0.549020  0.952456  1
  Hf  Hf13  1  0.551290  0.949035  0.550640  1
  Hf  Hf14  1  0.551290  0.949035  0.949035  1
  Hf  Hf15  1  0.949507  0.549020  0.549020  1
  V  V16  1  0.002591  0.332469  0.332469  1
  Ni  Ni17  1  0.324673  0.891776  0.891776  1
  Ni  Ni18  1  0.886827  0.317996  0.897589  1
  Ni  Ni19  1  0.886827  0.897589  0.317996  1
  Ni  Ni20  1  0.886827  0.897589  0.897589  1
  Ir  Ir21  1  0.329241  0.994959  0.337899  1
  Ir  Ir22  1  0.329241  0.337899  0.994959  1
  Ir  Ir23  1  0.329241  0.337899  0.337899  1
