# generated using pymatgen
data_TaBe2Nb7Te8
_symmetry_space_group_name_H-M   'P 1'
_cell_length_a   4.79805900
_cell_length_b   11.14031897
_cell_length_c   19.25649468
_cell_angle_alpha   90.04781787
_cell_angle_beta   90.00000000
_cell_angle_gamma   90.00000000
_symmetry_Int_Tables_number   1
_chemical_formula_structural   TaBe2Nb7Te8
_chemical_formula_sum   'Ta2 Be4 Nb14 Te16'
_cell_volume   1029.29601755
_cell_formula_units_Z   2
loop_
 _symmetry_equiv_pos_site_id
 _symmetry_equiv_pos_as_xyz
  1  'x, y, z'
loop_
 _atom_site_type_symbol
 _atom_site_label
 _atom_site_symmetry_multiplicity
 _atom_site_fract_x
 _atom_site_fract_y
 _atom_site_fract_z
 _atom_site_occupancy
  Ta  Ta0  1  0.500000  0.806724  0.034768  1
  Ta  Ta1  1  0.000000  0.094994  0.896057  1
  Be  Be2  1  0.245434  0.500013  0.500006  1
  Be  Be3  1  0.751452  0.000034  0.000045  1
  Be  Be4  1  0.754566  0.500013  0.500006  1
  Be  Be5  1  0.248548  0.000034  0.000045  1
  Nb  Nb6  1  0.500000  0.559907  0.388428  1
  Nb  Nb7  1  0.500000  0.440129  0.611632  1
  Nb  Nb8  1  0.500000  0.059744  0.112517  1
  Nb  Nb9  1  0.500000  0.939520  0.888125  1
  Nb  Nb10  1  0.500000  0.693750  0.534751  1
  Nb  Nb11  1  0.500000  0.306236  0.465242  1
  Nb  Nb12  1  0.500000  0.194257  0.965189  1
  Nb  Nb13  1  0.000000  0.682923  0.444125  1
  Nb  Nb14  1  0.000000  0.317049  0.555878  1
  Nb  Nb15  1  0.000000  0.182121  0.055164  1
  Nb  Nb16  1  0.000000  0.819061  0.944500  1
  Nb  Nb17  1  0.000000  0.403806  0.394399  1
  Nb  Nb18  1  0.000000  0.596198  0.605600  1
  Nb  Nb19  1  0.000000  0.904753  0.104452  1
  Te  Te20  1  0.000000  0.839905  0.560852  1
  Te  Te21  1  0.000000  0.160070  0.439142  1
  Te  Te22  1  0.000000  0.339818  0.938501  1
  Te  Te23  1  0.000000  0.659951  0.060437  1
  Te  Te24  1  0.500000  0.334703  0.317973  1
  Te  Te25  1  0.500000  0.665341  0.682053  1
  Te  Te26  1  0.500000  0.833465  0.181591  1
  Te  Te27  1  0.500000  0.164732  0.817964  1
  Te  Te28  1  0.500000  0.814968  0.404062  1
  Te  Te29  1  0.500000  0.185061  0.595939  1
  Te  Te30  1  0.500000  0.314330  0.096164  1
  Te  Te31  1  0.500000  0.684716  0.904775  1
  Te  Te32  1  0.000000  0.604915  0.303628  1
  Te  Te33  1  0.000000  0.395099  0.696411  1
  Te  Te34  1  0.000000  0.105439  0.196038  1
  Te  Te35  1  0.000000  0.896219  0.803541  1
