# generated using pymatgen
data_Nd2Y4ScCo17P12
_symmetry_space_group_name_H-M   'P 1'
_cell_length_a   3.73359400
_cell_length_b   10.63335100
_cell_length_c   12.33855500
_cell_angle_alpha   90.00000000
_cell_angle_beta   90.00000000
_cell_angle_gamma   90.00000000
_symmetry_Int_Tables_number   1
_chemical_formula_structural   Nd2Y4ScCo17P12
_chemical_formula_sum   'Nd2 Y4 Sc1 Co17 P12'
_cell_volume   489.84822780
_cell_formula_units_Z   1
loop_
 _symmetry_equiv_pos_site_id
 _symmetry_equiv_pos_as_xyz
  1  'x, y, z'
loop_
 _atom_site_type_symbol
 _atom_site_label
 _atom_site_symmetry_multiplicity
 _atom_site_fract_x
 _atom_site_fract_y
 _atom_site_fract_z
 _atom_site_occupancy
  Nd  Nd0  1  0.000000  0.500000  0.528827  1
  Nd  Nd1  1  0.500000  0.000000  0.477009  1
  Y  Y2  1  0.500000  0.820894  0.206672  1
  Y  Y3  1  0.500000  0.179106  0.206672  1
  Y  Y4  1  0.000000  0.683013  0.796237  1
  Y  Y5  1  0.000000  0.316987  0.796237  1
  Sc  Sc6  1  0.500000  0.500000  0.150740  1
  Co  Co7  1  0.000000  0.000000  0.838543  1
  Co  Co8  1  0.500000  0.500000  0.706456  1
  Co  Co9  1  0.000000  0.000000  0.293099  1
  Co  Co10  1  0.000000  0.500000  0.984635  1
  Co  Co11  1  0.500000  0.000000  0.012765  1
  Co  Co12  1  0.500000  0.326558  0.990014  1
  Co  Co13  1  0.500000  0.673442  0.990014  1
  Co  Co14  1  0.000000  0.162202  0.001384  1
  Co  Co15  1  0.000000  0.837798  0.001384  1
  Co  Co16  1  0.500000  0.294498  0.433028  1
  Co  Co17  1  0.500000  0.705502  0.433028  1
  Co  Co18  1  0.000000  0.202698  0.571701  1
  Co  Co19  1  0.000000  0.797302  0.571701  1
  Co  Co20  1  0.500000  0.880907  0.709738  1
  Co  Co21  1  0.500000  0.119093  0.709738  1
  Co  Co22  1  0.000000  0.622048  0.294706  1
  Co  Co23  1  0.000000  0.377952  0.294706  1
  P  P24  1  0.500000  0.500000  0.884176  1
  P  P25  1  0.000000  0.000000  0.115091  1
  P  P26  1  0.500000  0.500000  0.354518  1
  P  P27  1  0.000000  0.000000  0.658289  1
  P  P28  1  0.500000  0.305801  0.618773  1
  P  P29  1  0.500000  0.694199  0.618773  1
  P  P30  1  0.000000  0.192110  0.385316  1
  P  P31  1  0.000000  0.807890  0.385316  1
  P  P32  1  0.500000  0.851719  0.889700  1
  P  P33  1  0.500000  0.148281  0.889700  1
  P  P34  1  0.000000  0.663184  0.100654  1
  P  P35  1  0.000000  0.336816  0.100654  1
