# generated using pymatgen
data_Y4Tm2Fe7Co16
_symmetry_space_group_name_H-M   'P 1'
_cell_length_a   8.38607389
_cell_length_b   8.37918587
_cell_length_c   8.37918453
_cell_angle_alpha   60.04829522
_cell_angle_beta   59.97279795
_cell_angle_gamma   59.97280084
_symmetry_Int_Tables_number   1
_chemical_formula_structural   Y4Tm2Fe7Co16
_chemical_formula_sum   'Y4 Tm2 Fe7 Co16'
_cell_volume   416.31946939
_cell_formula_units_Z   1
loop_
 _symmetry_equiv_pos_site_id
 _symmetry_equiv_pos_as_xyz
  1  'x, y, z'
loop_
 _atom_site_type_symbol
 _atom_site_label
 _atom_site_symmetry_multiplicity
 _atom_site_fract_x
 _atom_site_fract_y
 _atom_site_fract_z
 _atom_site_occupancy
  Y  Y0  1  0.711562  0.289011  0.289011  1
  Y  Y1  1  0.289585  0.710989  0.710989  1
  Y  Y2  1  0.288403  0.712132  0.287868  1
  Y  Y3  1  0.288403  0.287868  0.712132  1
  Tm  Tm4  1  0.713846  0.286821  0.713179  1
  Tm  Tm5  1  0.713846  0.713179  0.286821  1
  Fe  Fe6  1  0.501426  0.000000  0.000000  1
  Fe  Fe7  1  0.998436  0.500000  0.500000  1
  Fe  Fe8  1  0.999107  0.500835  0.000681  1
  Fe  Fe9  1  0.999107  0.000681  0.500835  1
  Fe  Fe10  1  0.500624  0.999319  0.499165  1
  Fe  Fe11  1  0.500624  0.499165  0.999319  1
  Fe  Fe12  1  0.999679  0.000000  0.000000  1
  Co  Co13  1  0.322584  0.322705  0.322705  1
  Co  Co14  1  0.323195  0.322661  0.031410  1
  Co  Co15  1  0.030893  0.323223  0.323223  1
  Co  Co16  1  0.323195  0.031410  0.322661  1
  Co  Co17  1  0.677337  0.676777  0.676777  1
  Co  Co18  1  0.677264  0.677339  0.968590  1
  Co  Co19  1  0.677264  0.968590  0.677339  1
  Co  Co20  1  0.967992  0.677295  0.677295  1
  Co  Co21  1  0.123483  0.123534  0.123534  1
  Co  Co22  1  0.121918  0.124031  0.629977  1
  Co  Co23  1  0.630443  0.122510  0.122510  1
  Co  Co24  1  0.121918  0.629977  0.124031  1
  Co  Co25  1  0.875463  0.877490  0.877490  1
  Co  Co26  1  0.875927  0.875969  0.370023  1
  Co  Co27  1  0.875927  0.370023  0.875969  1
  Co  Co28  1  0.370552  0.876466  0.876466  1
