# generated using pymatgen
data_Tb5Er6TmOs4
_symmetry_space_group_name_H-M   'P 1'
_cell_length_a   7.39180094
_cell_length_b   8.99809455
_cell_length_c   6.29034967
_cell_angle_alpha   89.84946554
_cell_angle_beta   89.94227880
_cell_angle_gamma   89.93573791
_symmetry_Int_Tables_number   1
_chemical_formula_structural   Tb5Er6TmOs4
_chemical_formula_sum   'Tb5 Er6 Tm1 Os4'
_cell_volume   418.38259737
_cell_formula_units_Z   1
loop_
 _symmetry_equiv_pos_site_id
 _symmetry_equiv_pos_as_xyz
  1  'x, y, z'
loop_
 _atom_site_type_symbol
 _atom_site_label
 _atom_site_symmetry_multiplicity
 _atom_site_fract_x
 _atom_site_fract_y
 _atom_site_fract_z
 _atom_site_occupancy
  Tb  Tb0  1  0.039384  0.250965  0.630538  1
  Tb  Tb1  1  0.960411  0.749143  0.370461  1
  Tb  Tb2  1  0.460647  0.749022  0.129444  1
  Tb  Tb3  1  0.539845  0.250627  0.869611  1
  Tb  Tb4  1  0.174845  0.063184  0.167158  1
  Er  Er5  1  0.825032  0.936083  0.832472  1
  Er  Er6  1  0.326027  0.935948  0.666722  1
  Er  Er7  1  0.825399  0.563106  0.833100  1
  Er  Er8  1  0.674148  0.063246  0.333715  1
  Er  Er9  1  0.173957  0.437858  0.166783  1
  Er  Er10  1  0.674373  0.436930  0.333527  1
  Tm  Tm11  1  0.325988  0.563319  0.666489  1
  Os  Os12  1  0.382952  0.251217  0.458628  1
  Os  Os13  1  0.617474  0.750212  0.542730  1
  Os  Os14  1  0.117699  0.748237  0.956038  1
  Os  Os15  1  0.881819  0.250902  0.042584  1
