# generated using pymatgen
data_Tb10Si6S
_symmetry_space_group_name_H-M   'P 1'
_cell_length_a   8.58157300
_cell_length_b   8.58157306
_cell_length_c   6.42682600
_cell_angle_alpha   90.00000000
_cell_angle_beta   90.00000000
_cell_angle_gamma   120.00000363
_symmetry_Int_Tables_number   1
_chemical_formula_structural   Tb10Si6S
_chemical_formula_sum   'Tb10 Si6 S1'
_cell_volume   409.88399746
_cell_formula_units_Z   1
loop_
 _symmetry_equiv_pos_site_id
 _symmetry_equiv_pos_as_xyz
  1  'x, y, z'
loop_
 _atom_site_type_symbol
 _atom_site_label
 _atom_site_symmetry_multiplicity
 _atom_site_fract_x
 _atom_site_fract_y
 _atom_site_fract_z
 _atom_site_occupancy
  Tb  Tb0  1  0.333333  0.666667  0.500000  1
  Tb  Tb1  1  0.666667  0.333333  0.500000  1
  Tb  Tb2  1  0.666667  0.333333  0.000000  1
  Tb  Tb3  1  0.333333  0.666667  0.000000  1
  Tb  Tb4  1  0.000000  0.749762  0.243229  1
  Tb  Tb5  1  0.250238  0.250238  0.243229  1
  Tb  Tb6  1  0.749762  0.000000  0.243229  1
  Tb  Tb7  1  0.000000  0.250238  0.756771  1
  Tb  Tb8  1  0.749762  0.749762  0.756771  1
  Tb  Tb9  1  0.250238  0.000000  0.756771  1
  Si  Si10  1  0.000000  0.393861  0.246097  1
  Si  Si11  1  0.606139  0.606139  0.246097  1
  Si  Si12  1  0.393861  0.000000  0.246097  1
  Si  Si13  1  0.000000  0.606139  0.753903  1
  Si  Si14  1  0.393861  0.393861  0.753903  1
  Si  Si15  1  0.606139  0.000000  0.753903  1
  S  S16  1  0.000000  0.000000  0.500000  1
