# generated using pymatgen
data_LaGeF7
_symmetry_space_group_name_H-M   'P 1'
_cell_length_a   5.67112800
_cell_length_b   9.13949618
_cell_length_c   12.20910300
_cell_angle_alpha   61.92569689
_cell_angle_beta   89.99765609
_cell_angle_gamma   89.99987489
_symmetry_Int_Tables_number   1
_chemical_formula_structural   LaGeF7
_chemical_formula_sum   'La4 Ge4 F28'
_cell_volume   558.35506264
_cell_formula_units_Z   4
loop_
 _symmetry_equiv_pos_site_id
 _symmetry_equiv_pos_as_xyz
  1  'x, y, z'
loop_
 _atom_site_type_symbol
 _atom_site_label
 _atom_site_symmetry_multiplicity
 _atom_site_fract_x
 _atom_site_fract_y
 _atom_site_fract_z
 _atom_site_occupancy
  La  La0  1  0.759593  0.806711  0.265060  1
  La  La1  1  0.259565  0.193175  0.235047  1
  La  La2  1  0.240380  0.193214  0.735038  1
  La  La3  1  0.740470  0.806751  0.764963  1
  Ge  Ge4  1  0.743724  0.274285  0.956938  1
  Ge  Ge5  1  0.756267  0.274307  0.456934  1
  Ge  Ge6  1  0.256268  0.725683  0.043088  1
  Ge  Ge7  1  0.243743  0.725711  0.543057  1
  F  F8  1  0.975389  0.714218  0.462641  1
  F  F9  1  0.475309  0.285765  0.037369  1
  F  F10  1  0.024652  0.285798  0.537342  1
  F  F11  1  0.524654  0.714231  0.962634  1
  F  F12  1  0.069376  0.708627  0.927743  1
  F  F13  1  0.569378  0.291397  0.572237  1
  F  F14  1  0.930630  0.291370  0.072252  1
  F  F15  1  0.430789  0.708643  0.427777  1
  F  F16  1  0.736262  0.500722  0.865138  1
  F  F17  1  0.236181  0.499367  0.634791  1
  F  F18  1  0.263745  0.499247  0.134866  1
  F  F19  1  0.763781  0.500732  0.365145  1
  F  F20  1  0.740032  0.048706  0.044768  1
  F  F21  1  0.240002  0.951280  0.455189  1
  F  F22  1  0.259966  0.951284  0.955239  1
  F  F23  1  0.759981  0.048724  0.544743  1
  F  F24  1  0.058100  0.739538  0.661977  1
  F  F25  1  0.558127  0.260477  0.837944  1
  F  F26  1  0.941838  0.260456  0.337968  1
  F  F27  1  0.441881  0.739547  0.162056  1
  F  F28  1  0.005883  0.269844  0.870562  1
  F  F29  1  0.505742  0.730221  0.629470  1
  F  F30  1  0.994106  0.730180  0.129434  1
  F  F31  1  0.494120  0.269824  0.370601  1
  F  F32  1  0.096716  0.967538  0.228412  1
  F  F33  1  0.596798  0.032422  0.271617  1
  F  F34  1  0.903266  0.032407  0.771575  1
  F  F35  1  0.403284  0.967597  0.728384  1
