# generated using pymatgen
data_Li2Yb3ErPt3
_symmetry_space_group_name_H-M   'P 1'
_cell_length_a   7.25818082
_cell_length_b   7.25818111
_cell_length_c   4.25337600
_cell_angle_alpha   90.00000000
_cell_angle_beta   90.00000000
_cell_angle_gamma   119.63798469
_symmetry_Int_Tables_number   1
_chemical_formula_structural   Li2Yb3ErPt3
_chemical_formula_sum   'Li2 Yb3 Er1 Pt3'
_cell_volume   194.75684361
_cell_formula_units_Z   1
loop_
 _symmetry_equiv_pos_site_id
 _symmetry_equiv_pos_as_xyz
  1  'x, y, z'
loop_
 _atom_site_type_symbol
 _atom_site_label
 _atom_site_symmetry_multiplicity
 _atom_site_fract_x
 _atom_site_fract_y
 _atom_site_fract_z
 _atom_site_occupancy
  Li  Li0  1  0.749814  0.995692  0.500000  1
  Li  Li1  1  0.995692  0.749814  0.500000  1
  Yb  Yb2  1  0.426501  0.991746  0.000000  1
  Yb  Yb3  1  0.991746  0.426501  0.000000  1
  Yb  Yb4  1  0.603025  0.603025  0.000000  1
  Er  Er5  1  0.243302  0.243302  0.500000  1
  Pt  Pt6  1  0.326727  0.659757  0.500000  1
  Pt  Pt7  1  0.659757  0.326727  0.500000  1
  Pt  Pt8  1  0.003437  0.003437  0.000000  1
