# generated using pymatgen
data_Nd7Th7Au20
_symmetry_space_group_name_H-M   'P 1'
_cell_length_a   9.01353381
_cell_length_b   9.01352344
_cell_length_c   10.73022688
_cell_angle_alpha   89.94546168
_cell_angle_beta   90.05466259
_cell_angle_gamma   107.48727496
_symmetry_Int_Tables_number   1
_chemical_formula_structural   Nd7Th7Au20
_chemical_formula_sum   'Nd7 Th7 Au20'
_cell_volume   831.47307012
_cell_formula_units_Z   1
loop_
 _symmetry_equiv_pos_site_id
 _symmetry_equiv_pos_as_xyz
  1  'x, y, z'
loop_
 _atom_site_type_symbol
 _atom_site_label
 _atom_site_symmetry_multiplicity
 _atom_site_fract_x
 _atom_site_fract_y
 _atom_site_fract_z
 _atom_site_occupancy
  Nd  Nd0  1  0.997594  0.497594  0.750000  1
  Nd  Nd1  1  0.497232  0.997232  0.750000  1
  Nd  Nd2  1  0.502651  0.002651  0.250000  1
  Nd  Nd3  1  0.308943  0.306758  0.193112  1
  Nd  Nd4  1  0.693240  0.693257  0.807587  1
  Nd  Nd5  1  0.193257  0.193239  0.692413  1
  Nd  Nd6  1  0.806758  0.808943  0.306888  1
  Th  Th7  1  0.689538  0.307971  0.997870  1
  Th  Th8  1  0.310327  0.692498  0.998724  1
  Th  Th9  1  0.807971  0.189538  0.502130  1
  Th  Th10  1  0.192498  0.810326  0.501278  1
  Th  Th11  1  0.000206  0.999998  0.000177  1
  Th  Th12  1  0.499997  0.500205  0.499823  1
  Th  Th13  1  0.003500  0.503501  0.250000  1
  Au  Au14  1  0.861891  0.152811  0.206473  1
  Au  Au15  1  0.136989  0.848774  0.793307  1
  Au  Au16  1  0.638452  0.349474  0.706230  1
  Au  Au17  1  0.652810  0.361890  0.293527  1
  Au  Au18  1  0.360100  0.650045  0.293308  1
  Au  Au19  1  0.348775  0.636989  0.706694  1
  Au  Au20  1  0.849474  0.138452  0.793770  1
  Au  Au21  1  0.150046  0.860101  0.206693  1
  Au  Au22  1  0.939337  0.644767  0.002129  1
  Au  Au23  1  0.061218  0.354566  0.000190  1
  Au  Au24  1  0.561104  0.853520  0.501759  1
  Au  Au25  1  0.144765  0.439336  0.497869  1
  Au  Au26  1  0.438702  0.146477  0.497835  1
  Au  Au27  1  0.854565  0.561217  0.499811  1
  Au  Au28  1  0.353521  0.061105  0.998241  1
  Au  Au29  1  0.646479  0.938703  0.002164  1
  Au  Au30  1  0.101836  0.102232  0.401604  1
  Au  Au31  1  0.897392  0.896599  0.598213  1
  Au  Au32  1  0.396600  0.397392  0.901786  1
  Au  Au33  1  0.602233  0.601836  0.098396  1
