# generated using pymatgen
data_LaPrGdRuO7
_symmetry_space_group_name_H-M   'P 1'
_cell_length_a   6.62688502
_cell_length_b   6.61016537
_cell_length_c   7.63156300
_cell_angle_alpha   90.00000000
_cell_angle_beta   90.00000000
_cell_angle_gamma   110.90473464
_symmetry_Int_Tables_number   1
_chemical_formula_structural   LaPrGdRuO7
_chemical_formula_sum   'La2 Pr2 Gd2 Ru2 O14'
_cell_volume   312.29389268
_cell_formula_units_Z   2
loop_
 _symmetry_equiv_pos_site_id
 _symmetry_equiv_pos_as_xyz
  1  'x, y, z'
loop_
 _atom_site_type_symbol
 _atom_site_label
 _atom_site_symmetry_multiplicity
 _atom_site_fract_x
 _atom_site_fract_y
 _atom_site_fract_z
 _atom_site_occupancy
  La  La0  1  0.000000  0.000000  0.500000  1
  La  La1  1  0.000000  0.000000  0.000000  1
  Pr  Pr2  1  0.472543  0.914833  0.750000  1
  Pr  Pr3  1  0.527457  0.085167  0.250000  1
  Gd  Gd4  1  0.924707  0.478098  0.750000  1
  Gd  Gd5  1  0.075293  0.521902  0.250000  1
  Ru  Ru6  1  0.500000  0.500000  0.500000  1
  Ru  Ru7  1  0.500000  0.500000  0.000000  1
  O  O8  1  0.587604  0.578844  0.750000  1
  O  O9  1  0.412396  0.421156  0.250000  1
  O  O10  1  0.843611  0.118548  0.750000  1
  O  O11  1  0.156389  0.881452  0.250000  1
  O  O12  1  0.099242  0.836000  0.750000  1
  O  O13  1  0.900758  0.164000  0.250000  1
  O  O14  1  0.429929  0.185531  0.961787  1
  O  O15  1  0.570071  0.814469  0.461787  1
  O  O16  1  0.191757  0.456259  0.961159  1
  O  O17  1  0.808243  0.543741  0.461159  1
  O  O18  1  0.429929  0.185531  0.538213  1
  O  O19  1  0.570071  0.814469  0.038213  1
  O  O20  1  0.808243  0.543741  0.038841  1
  O  O21  1  0.191757  0.456259  0.538841  1
