# generated using pymatgen
data_LiLaPr15Cd3Ir4
_symmetry_space_group_name_H-M   'P 1'
_cell_length_a   10.07774553
_cell_length_b   10.07774507
_cell_length_c   10.07774495
_cell_angle_alpha   59.78165699
_cell_angle_beta   59.78165783
_cell_angle_gamma   59.78165606
_symmetry_Int_Tables_number   1
_chemical_formula_structural   LiLaPr15Cd3Ir4
_chemical_formula_sum   'Li1 La1 Pr15 Cd3 Ir4'
_cell_volume   720.13995901
_cell_formula_units_Z   1
loop_
 _symmetry_equiv_pos_site_id
 _symmetry_equiv_pos_as_xyz
  1  'x, y, z'
loop_
 _atom_site_type_symbol
 _atom_site_label
 _atom_site_symmetry_multiplicity
 _atom_site_fract_x
 _atom_site_fract_y
 _atom_site_fract_z
 _atom_site_occupancy
  Li  Li0  1  0.571115  0.571115  0.571115  1
  La  La1  1  0.347099  0.347099  0.347099  1
  Pr  Pr2  1  0.347424  0.347424  0.957272  1
  Pr  Pr3  1  0.347424  0.957272  0.347424  1
  Pr  Pr4  1  0.957272  0.347424  0.347424  1
  Pr  Pr5  1  0.810509  0.191062  0.191062  1
  Pr  Pr6  1  0.187157  0.811890  0.811890  1
  Pr  Pr7  1  0.191062  0.810509  0.191062  1
  Pr  Pr8  1  0.811890  0.187157  0.811890  1
  Pr  Pr9  1  0.191062  0.191062  0.810509  1
  Pr  Pr10  1  0.811890  0.811890  0.187157  1
  Pr  Pr11  1  0.937619  0.562414  0.562414  1
  Pr  Pr12  1  0.560890  0.938570  0.938570  1
  Pr  Pr13  1  0.562414  0.937619  0.562414  1
  Pr  Pr14  1  0.938570  0.560890  0.938570  1
  Pr  Pr15  1  0.562414  0.562414  0.937619  1
  Pr  Pr16  1  0.938570  0.938570  0.560890  1
  Cd  Cd17  1  0.581353  0.581353  0.259264  1
  Cd  Cd18  1  0.581353  0.259264  0.581353  1
  Cd  Cd19  1  0.259264  0.581353  0.581353  1
  Ir  Ir20  1  0.141874  0.141874  0.141874  1
  Ir  Ir21  1  0.143197  0.143197  0.575378  1
  Ir  Ir22  1  0.143197  0.575378  0.143197  1
  Ir  Ir23  1  0.575378  0.143197  0.143197  1
