# generated using pymatgen
data_Lu6HfCo17As12
_symmetry_space_group_name_H-M   'P 1'
_cell_length_a   3.78435700
_cell_length_b   10.92940300
_cell_length_c   12.68767500
_cell_angle_alpha   90.00000000
_cell_angle_beta   90.00000000
_cell_angle_gamma   90.00000000
_symmetry_Int_Tables_number   1
_chemical_formula_structural   Lu6HfCo17As12
_chemical_formula_sum   'Lu6 Hf1 Co17 As12'
_cell_volume   524.77191551
_cell_formula_units_Z   1
loop_
 _symmetry_equiv_pos_site_id
 _symmetry_equiv_pos_as_xyz
  1  'x, y, z'
loop_
 _atom_site_type_symbol
 _atom_site_label
 _atom_site_symmetry_multiplicity
 _atom_site_fract_x
 _atom_site_fract_y
 _atom_site_fract_z
 _atom_site_occupancy
  Lu  Lu0  1  0.000000  0.500000  0.531277  1
  Lu  Lu1  1  0.500000  0.000000  0.474130  1
  Lu  Lu2  1  0.500000  0.823968  0.209363  1
  Lu  Lu3  1  0.500000  0.176032  0.209363  1
  Lu  Lu4  1  0.000000  0.679472  0.796400  1
  Lu  Lu5  1  0.000000  0.320528  0.796400  1
  Hf  Hf6  1  0.500000  0.500000  0.155100  1
  Co  Co7  1  0.000000  0.000000  0.838921  1
  Co  Co8  1  0.500000  0.500000  0.703426  1
  Co  Co9  1  0.000000  0.000000  0.297238  1
  Co  Co10  1  0.000000  0.500000  0.988540  1
  Co  Co11  1  0.500000  0.000000  0.012094  1
  Co  Co12  1  0.500000  0.327549  0.991719  1
  Co  Co13  1  0.500000  0.672451  0.991719  1
  Co  Co14  1  0.000000  0.162164  0.999484  1
  Co  Co15  1  0.000000  0.837836  0.999484  1
  Co  Co16  1  0.500000  0.295529  0.433827  1
  Co  Co17  1  0.500000  0.704471  0.433827  1
  Co  Co18  1  0.000000  0.201618  0.569352  1
  Co  Co19  1  0.000000  0.798382  0.569352  1
  Co  Co20  1  0.500000  0.879250  0.703348  1
  Co  Co21  1  0.500000  0.120750  0.703348  1
  Co  Co22  1  0.000000  0.622944  0.294644  1
  Co  Co23  1  0.000000  0.377056  0.294644  1
  As  As24  1  0.500000  0.500000  0.881335  1
  As  As25  1  0.000000  0.000000  0.118437  1
  As  As26  1  0.500000  0.500000  0.364226  1
  As  As27  1  0.000000  0.000000  0.649475  1
  As  As28  1  0.500000  0.313842  0.618343  1
  As  As29  1  0.500000  0.686158  0.618343  1
  As  As30  1  0.000000  0.185430  0.385026  1
  As  As31  1  0.000000  0.814570  0.385026  1
  As  As32  1  0.500000  0.849043  0.884295  1
  As  As33  1  0.500000  0.150957  0.884295  1
  As  As34  1  0.000000  0.667484  0.107098  1
  As  As35  1  0.000000  0.332516  0.107098  1
