# generated using pymatgen
data_Cs2Ce2CdCuS6
_symmetry_space_group_name_H-M   'P 1'
_cell_length_a   4.19237800
_cell_length_b   8.02778772
_cell_length_c   10.81919900
_cell_angle_alpha   90.00000000
_cell_angle_beta   90.00000000
_cell_angle_gamma   105.13632286
_symmetry_Int_Tables_number   1
_chemical_formula_structural   Cs2Ce2CdCuS6
_chemical_formula_sum   'Cs2 Ce2 Cd1 Cu1 S6'
_cell_volume   351.49326479
_cell_formula_units_Z   1
loop_
 _symmetry_equiv_pos_site_id
 _symmetry_equiv_pos_as_xyz
  1  'x, y, z'
loop_
 _atom_site_type_symbol
 _atom_site_label
 _atom_site_symmetry_multiplicity
 _atom_site_fract_x
 _atom_site_fract_y
 _atom_site_fract_z
 _atom_site_occupancy
  Cs  Cs0  1  0.259088  0.518178  0.750000  1
  Cs  Cs1  1  0.741190  0.482380  0.250000  1
  Ce  Ce2  1  0.998047  0.996095  0.488412  1
  Ce  Ce3  1  0.998047  0.996095  0.011588  1
  Cd  Cd4  1  0.536386  0.072772  0.750000  1
  Cu  Cu5  1  0.465901  0.931802  0.250000  1
  S  S6  1  0.939099  0.878199  0.750000  1
  S  S7  1  0.051189  0.102377  0.250000  1
  S  S8  1  0.389056  0.778111  0.433723  1
  S  S9  1  0.616470  0.232940  0.549211  1
  S  S10  1  0.616470  0.232940  0.950789  1
  S  S11  1  0.389056  0.778111  0.066277  1
