# generated using pymatgen
data_Dy5TmTcRh
_symmetry_space_group_name_H-M   'P 1'
_cell_length_a   6.31611170
_cell_length_b   7.31091800
_cell_length_c   9.21680014
_cell_angle_alpha   90.00000000
_cell_angle_beta   89.48849513
_cell_angle_gamma   90.00000000
_symmetry_Int_Tables_number   1
_chemical_formula_structural   Dy5TmTcRh
_chemical_formula_sum   'Dy10 Tm2 Tc2 Rh2'
_cell_volume   425.58330080
_cell_formula_units_Z   2
loop_
 _symmetry_equiv_pos_site_id
 _symmetry_equiv_pos_as_xyz
  1  'x, y, z'
loop_
 _atom_site_type_symbol
 _atom_site_label
 _atom_site_symmetry_multiplicity
 _atom_site_fract_x
 _atom_site_fract_y
 _atom_site_fract_z
 _atom_site_occupancy
  Dy  Dy0  1  0.665551  0.322458  0.559644  1
  Dy  Dy1  1  0.834449  0.822458  0.940356  1
  Dy  Dy2  1  0.666703  0.322945  0.940858  1
  Dy  Dy3  1  0.833297  0.822945  0.559142  1
  Dy  Dy4  1  0.326475  0.679479  0.431825  1
  Dy  Dy5  1  0.173525  0.179479  0.068175  1
  Dy  Dy6  1  0.874054  0.537302  0.249680  1
  Dy  Dy7  1  0.625946  0.037302  0.250320  1
  Dy  Dy8  1  0.137321  0.458611  0.750036  1
  Dy  Dy9  1  0.362679  0.958611  0.749964  1
  Tm  Tm10  1  0.328555  0.677950  0.068074  1
  Tm  Tm11  1  0.171445  0.177950  0.431926  1
  Tc  Tc12  1  0.037338  0.887453  0.249541  1
  Tc  Tc13  1  0.462662  0.387453  0.250459  1
  Rh  Rh14  1  0.953425  0.113802  0.746816  1
  Rh  Rh15  1  0.546575  0.613802  0.753184  1
