# generated using pymatgen
data_Sr4Al5Zn(SnAu10)2
_symmetry_space_group_name_H-M   'P 1'
_cell_length_a   7.40967100
_cell_length_b   9.24283988
_cell_length_c   9.89639583
_cell_angle_alpha   90.00981854
_cell_angle_beta   90.00000000
_cell_angle_gamma   90.00000000
_symmetry_Int_Tables_number   1
_chemical_formula_structural   Sr4Al5Zn(SnAu10)2
_chemical_formula_sum   'Sr4 Al5 Zn1 Sn2 Au20'
_cell_volume   677.76853944
_cell_formula_units_Z   1
loop_
 _symmetry_equiv_pos_site_id
 _symmetry_equiv_pos_as_xyz
  1  'x, y, z'
loop_
 _atom_site_type_symbol
 _atom_site_label
 _atom_site_symmetry_multiplicity
 _atom_site_fract_x
 _atom_site_fract_y
 _atom_site_fract_z
 _atom_site_occupancy
  Sr  Sr0  1  0.250000  0.250554  0.119605  1
  Sr  Sr1  1  0.250000  0.751044  0.383005  1
  Sr  Sr2  1  0.750000  0.753860  0.884990  1
  Sr  Sr3  1  0.750000  0.248844  0.623173  1
  Al  Al4  1  0.250000  0.049797  0.619553  1
  Al  Al5  1  0.250000  0.547483  0.878246  1
  Al  Al6  1  0.750000  0.951723  0.377504  1
  Al  Al7  1  0.750000  0.449474  0.119129  1
  Al  Al8  1  0.250000  0.340848  0.483397  1
  Zn  Zn9  1  0.750000  0.158623  0.981050  1
  Sn  Sn10  1  0.250000  0.852439  0.023170  1
  Sn  Sn11  1  0.750000  0.648716  0.526633  1
  Au  Au12  1  0.058471  0.107061  0.396204  1
  Au  Au13  1  0.442621  0.592095  0.105474  1
  Au  Au14  1  0.558332  0.910630  0.604922  1
  Au  Au15  1  0.941669  0.396992  0.895999  1
  Au  Au16  1  0.941668  0.910630  0.604922  1
  Au  Au17  1  0.558331  0.396992  0.895999  1
  Au  Au18  1  0.441529  0.107061  0.396204  1
  Au  Au19  1  0.057379  0.592095  0.105474  1
  Au  Au20  1  0.031867  0.056334  0.857934  1
  Au  Au21  1  0.447640  0.537559  0.637563  1
  Au  Au22  1  0.552244  0.959020  0.141004  1
  Au  Au23  1  0.976956  0.441017  0.358259  1
  Au  Au24  1  0.947756  0.959020  0.141004  1
  Au  Au25  1  0.523044  0.441017  0.358259  1
  Au  Au26  1  0.468133  0.056334  0.857934  1
  Au  Au27  1  0.052360  0.537559  0.637563  1
  Au  Au28  1  0.250000  0.289028  0.742948  1
  Au  Au29  1  0.250000  0.788793  0.744874  1
  Au  Au30  1  0.750000  0.704510  0.251097  1
  Au  Au31  1  0.750000  0.212843  0.246906  1
