# generated using pymatgen
data_Th14Re5Ir
_symmetry_space_group_name_H-M   'P 1'
_cell_length_a   10.10526200
_cell_length_b   10.05393635
_cell_length_c   6.32798794
_cell_angle_alpha   90.22941003
_cell_angle_beta   90.00000000
_cell_angle_gamma   120.16901722
_symmetry_Int_Tables_number   1
_chemical_formula_structural   Th14Re5Ir
_chemical_formula_sum   'Th14 Re5 Ir1'
_cell_volume   555.81868760
_cell_formula_units_Z   1
loop_
 _symmetry_equiv_pos_site_id
 _symmetry_equiv_pos_as_xyz
  1  'x, y, z'
loop_
 _atom_site_type_symbol
 _atom_site_label
 _atom_site_symmetry_multiplicity
 _atom_site_fract_x
 _atom_site_fract_y
 _atom_site_fract_z
 _atom_site_occupancy
  Th  Th0  1  0.458493  0.536589  0.296431  1
  Th  Th1  1  0.078095  0.536589  0.296431  1
  Th  Th2  1  0.925595  0.462203  0.794222  1
  Th  Th3  1  0.251016  0.125077  0.508428  1
  Th  Th4  1  0.538998  0.077996  0.797131  1
  Th  Th5  1  0.745474  0.875232  0.008379  1
  Th  Th6  1  0.666781  0.333562  0.283093  1
  Th  Th7  1  0.129759  0.875232  0.008379  1
  Th  Th8  1  0.461229  0.922457  0.296118  1
  Th  Th9  1  0.536608  0.462203  0.794222  1
  Th  Th10  1  0.874060  0.125077  0.508428  1
  Th  Th11  1  0.124550  0.249098  0.009980  1
  Th  Th12  1  0.874704  0.749410  0.507820  1
  Th  Th13  1  0.333162  0.666324  0.779847  1
  Re  Re14  1  0.815794  0.190390  0.050722  1
  Re  Re15  1  0.630707  0.811954  0.547915  1
  Re  Re16  1  0.374596  0.190390  0.050722  1
  Re  Re17  1  0.185206  0.370411  0.550087  1
  Re  Re18  1  0.181246  0.811954  0.547915  1
  Ir  Ir19  1  0.813928  0.627856  0.047726  1
