# generated using pymatgen
data_Y3Al12CoCuOs2
_symmetry_space_group_name_H-M   'P 1'
_cell_length_a   8.77130397
_cell_length_b   8.90239360
_cell_length_c   9.42046100
_cell_angle_alpha   90.00000000
_cell_angle_beta   90.00000000
_cell_angle_gamma   120.49563177
_symmetry_Int_Tables_number   1
_chemical_formula_structural   Y3Al12CoCuOs2
_chemical_formula_sum   'Y6 Al24 Co2 Cu2 Os4'
_cell_volume   633.84489975
_cell_formula_units_Z   2
loop_
 _symmetry_equiv_pos_site_id
 _symmetry_equiv_pos_as_xyz
  1  'x, y, z'
loop_
 _atom_site_type_symbol
 _atom_site_label
 _atom_site_symmetry_multiplicity
 _atom_site_fract_x
 _atom_site_fract_y
 _atom_site_fract_z
 _atom_site_occupancy
  Y  Y0  1  0.199773  0.386374  0.250000  1
  Y  Y1  1  0.800227  0.613626  0.750000  1
  Y  Y2  1  0.606663  0.803331  0.250000  1
  Y  Y3  1  0.393337  0.196669  0.750000  1
  Y  Y4  1  0.199773  0.813399  0.250000  1
  Y  Y5  1  0.800227  0.186601  0.750000  1
  Al  Al6  1  0.333931  0.666966  0.019505  1
  Al  Al7  1  0.666069  0.333034  0.980495  1
  Al  Al8  1  0.666069  0.333034  0.519505  1
  Al  Al9  1  0.333931  0.666966  0.480495  1
  Al  Al10  1  0.163635  0.317631  0.577192  1
  Al  Al11  1  0.836365  0.682369  0.422808  1
  Al  Al12  1  0.676328  0.838163  0.576526  1
  Al  Al13  1  0.836365  0.682369  0.077192  1
  Al  Al14  1  0.323672  0.161837  0.423474  1
  Al  Al15  1  0.163635  0.317631  0.922808  1
  Al  Al16  1  0.163635  0.846004  0.577192  1
  Al  Al17  1  0.323672  0.161837  0.076526  1
  Al  Al18  1  0.836365  0.153996  0.422808  1
  Al  Al19  1  0.676328  0.838163  0.923474  1
  Al  Al20  1  0.836365  0.153996  0.077192  1
  Al  Al21  1  0.163635  0.846004  0.922808  1
  Al  Al22  1  0.564874  0.126046  0.250000  1
  Al  Al23  1  0.435126  0.873954  0.750000  1
  Al  Al24  1  0.881145  0.440573  0.250000  1
  Al  Al25  1  0.118855  0.559427  0.750000  1
  Al  Al26  1  0.564874  0.438829  0.250000  1
  Al  Al27  1  0.435126  0.561171  0.750000  1
  Al  Al28  1  0.004528  0.002264  0.250000  1
  Al  Al29  1  0.995472  0.997736  0.750000  1
  Co  Co30  1  0.000000  0.000000  0.000000  1
  Co  Co31  1  0.000000  0.000000  0.500000  1
  Cu  Cu32  1  0.000000  0.500000  0.000000  1
  Cu  Cu33  1  0.000000  0.500000  0.500000  1
  Os  Os34  1  0.500000  0.000000  0.000000  1
  Os  Os35  1  0.500000  0.000000  0.500000  1
  Os  Os36  1  0.500000  0.500000  0.000000  1
  Os  Os37  1  0.500000  0.500000  0.500000  1
