# generated using pymatgen
data_Ho2ErFe2Sb3O14
_symmetry_space_group_name_H-M   'P 1'
_cell_length_a   7.19325948
_cell_length_b   7.16090682
_cell_length_c   7.16175511
_cell_angle_alpha   117.55994925
_cell_angle_beta   62.55052852
_cell_angle_gamma   117.44883053
_symmetry_Int_Tables_number   1
_chemical_formula_structural   Ho2ErFe2Sb3O14
_chemical_formula_sum   'Ho2 Er1 Fe2 Sb3 O14'
_cell_volume   275.46619287
_cell_formula_units_Z   1
loop_
 _symmetry_equiv_pos_site_id
 _symmetry_equiv_pos_as_xyz
  1  'x, y, z'
loop_
 _atom_site_type_symbol
 _atom_site_label
 _atom_site_symmetry_multiplicity
 _atom_site_fract_x
 _atom_site_fract_y
 _atom_site_fract_z
 _atom_site_occupancy
  Ho  Ho0  1  0.500013  0.000029  0.000013  1
  Ho  Ho1  1  0.500014  0.499986  0.499998  1
  Er  Er2  1  0.000247  0.499996  0.999911  1
  Fe  Fe3  1  0.499863  0.500080  0.000226  1
  Fe  Fe4  1  0.999770  0.999846  0.499963  1
  Sb  Sb5  1  0.499997  0.000050  0.499987  1
  Sb  Sb6  1  0.999997  0.500009  0.500025  1
  Sb  Sb7  1  0.000007  0.000004  0.999960  1
  O  O8  1  0.621016  0.384135  0.116288  1
  O  O9  1  0.378990  0.615849  0.883770  1
  O  O10  1  0.075615  0.323642  0.176612  1
  O  O11  1  0.675842  0.915449  0.174730  1
  O  O12  1  0.676225  0.325119  0.581558  1
  O  O13  1  0.924426  0.676390  0.823372  1
  O  O14  1  0.324170  0.084569  0.825274  1
  O  O15  1  0.323807  0.674870  0.418396  1
  O  O16  1  0.644046  0.902685  0.598530  1
  O  O17  1  0.096747  0.353218  0.596625  1
  O  O18  1  0.097788  0.903576  0.145844  1
  O  O19  1  0.355955  0.097301  0.401453  1
  O  O20  1  0.903243  0.646767  0.403329  1
  O  O21  1  0.902222  0.096430  0.854137  1
