# generated using pymatgen
data_Tb3Nd3TcSb2
_symmetry_space_group_name_H-M   'P 1'
_cell_length_a   8.36017300
_cell_length_b   8.36017171
_cell_length_c   4.30456700
_cell_angle_alpha   90.00000000
_cell_angle_beta   90.00000000
_cell_angle_gamma   120.00000114
_symmetry_Int_Tables_number   1
_chemical_formula_structural   Tb3Nd3TcSb2
_chemical_formula_sum   'Tb3 Nd3 Tc1 Sb2'
_cell_volume   260.54969004
_cell_formula_units_Z   1
loop_
 _symmetry_equiv_pos_site_id
 _symmetry_equiv_pos_as_xyz
  1  'x, y, z'
loop_
 _atom_site_type_symbol
 _atom_site_label
 _atom_site_symmetry_multiplicity
 _atom_site_fract_x
 _atom_site_fract_y
 _atom_site_fract_z
 _atom_site_occupancy
  Tb  Tb0  1  0.234721  0.000000  0.000000  1
  Tb  Tb1  1  0.765279  0.765279  0.000000  1
  Tb  Tb2  1  0.000000  0.234721  0.000000  1
  Nd  Nd3  1  0.599595  0.000000  0.500000  1
  Nd  Nd4  1  0.400405  0.400405  0.500000  1
  Nd  Nd5  1  0.000000  0.599595  0.500000  1
  Tc  Tc6  1  0.000000  0.000000  0.500000  1
  Sb  Sb7  1  0.333333  0.666667  0.000000  1
  Sb  Sb8  1  0.666667  0.333333  0.000000  1
