# generated using pymatgen
data_Dy15Ho5Ir11Ru
_symmetry_space_group_name_H-M   'P 1'
_cell_length_a   10.86725201
_cell_length_b   10.86687800
_cell_length_c   6.39643101
_cell_angle_alpha   90.00276087
_cell_angle_beta   89.99589779
_cell_angle_gamma   90.00100181
_symmetry_Int_Tables_number   1
_chemical_formula_structural   Dy15Ho5Ir11Ru
_chemical_formula_sum   'Dy15 Ho5 Ir11 Ru1'
_cell_volume   755.37437500
_cell_formula_units_Z   1
loop_
 _symmetry_equiv_pos_site_id
 _symmetry_equiv_pos_as_xyz
  1  'x, y, z'
loop_
 _atom_site_type_symbol
 _atom_site_label
 _atom_site_symmetry_multiplicity
 _atom_site_fract_x
 _atom_site_fract_y
 _atom_site_fract_z
 _atom_site_occupancy
  Dy  Dy0  1  0.292205  0.087188  0.376717  1
  Dy  Dy1  1  0.292541  0.912841  0.879505  1
  Dy  Dy2  1  0.707455  0.087167  0.879530  1
  Dy  Dy3  1  0.707756  0.912870  0.376775  1
  Dy  Dy4  1  0.587160  0.792543  0.879510  1
  Dy  Dy5  1  0.587121  0.207762  0.376780  1
  Dy  Dy6  1  0.412867  0.792236  0.376775  1
  Dy  Dy7  1  0.412811  0.207460  0.879543  1
  Dy  Dy8  1  0.209164  0.411782  0.621976  1
  Dy  Dy9  1  0.209155  0.587957  0.121666  1
  Dy  Dy10  1  0.790891  0.411938  0.121681  1
  Dy  Dy11  1  0.790809  0.588164  0.621981  1
  Dy  Dy12  1  0.911966  0.709168  0.121690  1
  Dy  Dy13  1  0.911883  0.290795  0.621964  1
  Dy  Dy14  1  0.088161  0.709205  0.621988  1
  Ho  Ho15  1  0.088012  0.290973  0.121508  1
  Ho  Ho16  1  0.000002  0.000006  0.499416  1
  Ho  Ho17  1  0.000038  0.000081  0.999443  1
  Ho  Ho18  1  0.500000  0.499992  0.999423  1
  Ho  Ho19  1  0.500000  0.500008  0.499428  1
  Ir  Ir20  1  0.847322  0.153554  0.250004  1
  Ir  Ir21  1  0.847306  0.846812  0.749808  1
  Ir  Ir22  1  0.152630  0.153274  0.750077  1
  Ir  Ir23  1  0.152778  0.846488  0.250073  1
  Ir  Ir24  1  0.653197  0.347312  0.749805  1
  Ir  Ir25  1  0.653514  0.652792  0.250064  1
  Ir  Ir26  1  0.346349  0.347182  0.250003  1
  Ir  Ir27  1  0.346807  0.652684  0.749811  1
  Ir  Ir28  1  0.500007  0.000000  0.622467  1
  Ir  Ir29  1  0.000044  0.499868  0.878929  1
  Ir  Ir30  1  0.000056  0.499895  0.378784  1
  Ru  Ru31  1  0.499993  0.000003  0.122884  1
