# generated using pymatgen
data_Ac4CdPb11
_symmetry_space_group_name_H-M   'P 1'
_cell_length_a   10.14066000
_cell_length_b   7.13083243
_cell_length_c   7.15027380
_cell_angle_alpha   89.81634501
_cell_angle_beta   90.00000000
_cell_angle_gamma   90.00000000
_symmetry_Int_Tables_number   1
_chemical_formula_structural   Ac4CdPb11
_chemical_formula_sum   'Ac4 Cd1 Pb11'
_cell_volume   517.04327490
_cell_formula_units_Z   1
loop_
 _symmetry_equiv_pos_site_id
 _symmetry_equiv_pos_as_xyz
  1  'x, y, z'
loop_
 _atom_site_type_symbol
 _atom_site_label
 _atom_site_symmetry_multiplicity
 _atom_site_fract_x
 _atom_site_fract_y
 _atom_site_fract_z
 _atom_site_occupancy
  Ac  Ac0  1  0.250000  0.005223  0.000482  1
  Ac  Ac1  1  0.250000  0.497658  0.503180  1
  Ac  Ac2  1  0.750000  0.997477  0.999647  1
  Ac  Ac3  1  0.750000  0.502634  0.498898  1
  Cd  Cd4  1  0.750000  0.495668  0.997914  1
  Pb  Pb5  1  0.995206  0.249045  0.748714  1
  Pb  Pb6  1  0.505042  0.254596  0.246162  1
  Pb  Pb7  1  0.501965  0.748466  0.248412  1
  Pb  Pb8  1  0.996442  0.745579  0.754909  1
  Pb  Pb9  1  0.998035  0.748466  0.248412  1
  Pb  Pb10  1  0.503558  0.745579  0.754909  1
  Pb  Pb11  1  0.504794  0.249045  0.748714  1
  Pb  Pb12  1  0.994958  0.254596  0.246162  1
  Pb  Pb13  1  0.250000  0.998197  0.500547  1
  Pb  Pb14  1  0.250000  0.505335  0.003397  1
  Pb  Pb15  1  0.750000  0.002434  0.499542  1
