# generated using pymatgen
data_YbDyPaIr3
_symmetry_space_group_name_H-M   'P 1'
_cell_length_a   5.35376286
_cell_length_b   5.35376207
_cell_length_c   5.35376244
_cell_angle_alpha   65.73935603
_cell_angle_beta   65.73935879
_cell_angle_gamma   65.73936997
_symmetry_Int_Tables_number   1
_chemical_formula_structural   YbDyPaIr3
_chemical_formula_sum   'Yb1 Dy1 Pa1 Ir3'
_cell_volume   122.01762938
_cell_formula_units_Z   1
loop_
 _symmetry_equiv_pos_site_id
 _symmetry_equiv_pos_as_xyz
  1  'x, y, z'
loop_
 _atom_site_type_symbol
 _atom_site_label
 _atom_site_symmetry_multiplicity
 _atom_site_fract_x
 _atom_site_fract_y
 _atom_site_fract_z
 _atom_site_occupancy
  Yb  Yb0  1  0.749279  0.749279  0.749279  1
  Dy  Dy1  1  0.503285  0.503285  0.503285  1
  Pa  Pa2  1  0.124051  0.124051  0.124051  1
  Ir  Ir3  1  0.624200  0.124592  0.124592  1
  Ir  Ir4  1  0.124592  0.124592  0.624200  1
  Ir  Ir5  1  0.124592  0.624200  0.124592  1
