# generated using pymatgen
data_Zr4Al3ReN
_symmetry_space_group_name_H-M   'P 1'
_cell_length_a   8.04668800
_cell_length_b   8.04668954
_cell_length_c   5.52723300
_cell_angle_alpha   90.00000000
_cell_angle_beta   90.00000000
_cell_angle_gamma   119.99999368
_symmetry_Int_Tables_number   1
_chemical_formula_structural   Zr4Al3ReN
_chemical_formula_sum   'Zr8 Al6 Re2 N2'
_cell_volume   309.93658239
_cell_formula_units_Z   2
loop_
 _symmetry_equiv_pos_site_id
 _symmetry_equiv_pos_as_xyz
  1  'x, y, z'
loop_
 _atom_site_type_symbol
 _atom_site_label
 _atom_site_symmetry_multiplicity
 _atom_site_fract_x
 _atom_site_fract_y
 _atom_site_fract_z
 _atom_site_occupancy
  Zr  Zr0  1  0.228077  0.000000  0.251963  1
  Zr  Zr1  1  0.771923  0.000000  0.748037  1
  Zr  Zr2  1  0.000000  0.228077  0.251963  1
  Zr  Zr3  1  0.000000  0.771923  0.748037  1
  Zr  Zr4  1  0.771923  0.771923  0.251963  1
  Zr  Zr5  1  0.228077  0.228077  0.748037  1
  Zr  Zr6  1  0.666667  0.333333  0.500000  1
  Zr  Zr7  1  0.333333  0.666667  0.500000  1
  Al  Al8  1  0.585650  0.000000  0.217796  1
  Al  Al9  1  0.414350  0.000000  0.782204  1
  Al  Al10  1  0.000000  0.585650  0.217796  1
  Al  Al11  1  0.000000  0.414350  0.782204  1
  Al  Al12  1  0.414350  0.414350  0.217796  1
  Al  Al13  1  0.585650  0.585650  0.782204  1
  Re  Re14  1  0.333333  0.666667  0.000000  1
  Re  Re15  1  0.666667  0.333333  0.000000  1
  N  N16  1  0.000000  0.000000  0.000000  1
  N  N17  1  0.000000  0.000000  0.500000  1
