# generated using pymatgen
data_YbHo3Re2(B8W)2
_symmetry_space_group_name_H-M   'P 1'
_cell_length_a   3.60893100
_cell_length_b   5.99995655
_cell_length_c   11.59431907
_cell_angle_alpha   89.94091502
_cell_angle_beta   90.00000000
_cell_angle_gamma   90.00000000
_symmetry_Int_Tables_number   1
_chemical_formula_structural   YbHo3Re2(B8W)2
_chemical_formula_sum   'Yb1 Ho3 Re2 B16 W2'
_cell_volume   251.05663334
_cell_formula_units_Z   1
loop_
 _symmetry_equiv_pos_site_id
 _symmetry_equiv_pos_as_xyz
  1  'x, y, z'
loop_
 _atom_site_type_symbol
 _atom_site_label
 _atom_site_symmetry_multiplicity
 _atom_site_fract_x
 _atom_site_fract_y
 _atom_site_fract_z
 _atom_site_occupancy
  Yb  Yb0  1  0.000000  0.628083  0.149236  1
  Ho  Ho1  1  0.000000  0.372402  0.851094  1
  Ho  Ho2  1  0.000000  0.127766  0.349101  1
  Ho  Ho3  1  0.000000  0.872750  0.650003  1
  Re  Re4  1  0.000000  0.133057  0.083571  1
  Re  Re5  1  0.000000  0.868092  0.915176  1
  B  B6  1  0.500000  0.978254  0.191318  1
  B  B7  1  0.500000  0.021873  0.808432  1
  B  B8  1  0.500000  0.476032  0.305564  1
  B  B9  1  0.500000  0.524254  0.694565  1
  B  B10  1  0.500000  0.788361  0.312692  1
  B  B11  1  0.500000  0.210568  0.687302  1
  B  B12  1  0.500000  0.284983  0.184150  1
  B  B13  1  0.500000  0.714562  0.816120  1
  B  B14  1  0.500000  0.867056  0.467815  1
  B  B15  1  0.500000  0.132746  0.532246  1
  B  B16  1  0.500000  0.364010  0.031768  1
  B  B17  1  0.500000  0.636294  0.968763  1
  B  B18  1  0.500000  0.885803  0.047727  1
  B  B19  1  0.500000  0.112853  0.952815  1
  B  B20  1  0.500000  0.385138  0.452405  1
  B  B21  1  0.500000  0.614290  0.547736  1
  W  W22  1  0.000000  0.631108  0.414568  1
  W  W23  1  0.000000  0.369665  0.585834  1
