# generated using pymatgen
data_Cr22GaC6
_symmetry_space_group_name_H-M   'P 1'
_cell_length_a   7.47830379
_cell_length_b   7.47830335
_cell_length_c   7.47830400
_cell_angle_alpha   59.99999713
_cell_angle_beta   59.99999908
_cell_angle_gamma   60.00000000
_symmetry_Int_Tables_number   1
_chemical_formula_structural   Cr22GaC6
_chemical_formula_sum   'Cr22 Ga1 C6'
_cell_volume   295.72925344
_cell_formula_units_Z   1
loop_
 _symmetry_equiv_pos_site_id
 _symmetry_equiv_pos_as_xyz
  1  'x, y, z'
loop_
 _atom_site_type_symbol
 _atom_site_label
 _atom_site_symmetry_multiplicity
 _atom_site_fract_x
 _atom_site_fract_y
 _atom_site_fract_z
 _atom_site_occupancy
  Cr  Cr0  1  0.750000  0.750000  0.750000  1
  Cr  Cr1  1  0.250000  0.250000  0.250000  1
  Cr  Cr2  1  0.619466  0.619466  0.141602  1
  Cr  Cr3  1  0.619466  0.141602  0.619466  1
  Cr  Cr4  1  0.141602  0.619466  0.619466  1
  Cr  Cr5  1  0.619466  0.619466  0.619466  1
  Cr  Cr6  1  0.380534  0.380534  0.858398  1
  Cr  Cr7  1  0.380534  0.858398  0.380534  1
  Cr  Cr8  1  0.858398  0.380534  0.380534  1
  Cr  Cr9  1  0.380534  0.380534  0.380534  1
  Cr  Cr10  1  0.000000  0.000000  0.343391  1
  Cr  Cr11  1  0.656609  0.000000  0.343391  1
  Cr  Cr12  1  0.000000  0.656609  0.343391  1
  Cr  Cr13  1  0.656609  0.343391  0.000000  1
  Cr  Cr14  1  0.000000  0.343391  0.000000  1
  Cr  Cr15  1  0.000000  0.343391  0.656609  1
  Cr  Cr16  1  0.343391  0.656609  0.000000  1
  Cr  Cr17  1  0.343391  0.000000  0.656609  1
  Cr  Cr18  1  0.343391  0.000000  0.000000  1
  Cr  Cr19  1  0.000000  0.000000  0.656609  1
  Cr  Cr20  1  0.000000  0.656609  0.000000  1
  Cr  Cr21  1  0.656609  0.000000  0.000000  1
  Ga  Ga22  1  0.000000  0.000000  0.000000  1
  C  C23  1  0.720718  0.720718  0.279282  1
  C  C24  1  0.279282  0.720718  0.279282  1
  C  C25  1  0.720718  0.279282  0.279282  1
  C  C26  1  0.279282  0.279282  0.720718  1
  C  C27  1  0.720718  0.279282  0.720718  1
  C  C28  1  0.279282  0.720718  0.720718  1
