# generated using pymatgen
data_Nd2TmPa(GePt)4
_symmetry_space_group_name_H-M   'P 1'
_cell_length_a   4.43146900
_cell_length_b   7.28725507
_cell_length_c   7.60266504
_cell_angle_alpha   89.98629301
_cell_angle_beta   90.00000000
_cell_angle_gamma   90.00000000
_symmetry_Int_Tables_number   1
_chemical_formula_structural   Nd2TmPa(GePt)4
_chemical_formula_sum   'Nd2 Tm1 Pa1 Ge4 Pt4'
_cell_volume   245.51471724
_cell_formula_units_Z   1
loop_
 _symmetry_equiv_pos_site_id
 _symmetry_equiv_pos_as_xyz
  1  'x, y, z'
loop_
 _atom_site_type_symbol
 _atom_site_label
 _atom_site_symmetry_multiplicity
 _atom_site_fract_x
 _atom_site_fract_y
 _atom_site_fract_z
 _atom_site_occupancy
  Nd  Nd0  1  0.750000  0.495708  0.286348  1
  Nd  Nd1  1  0.250000  0.504262  0.708772  1
  Tm  Tm2  1  0.750000  0.997245  0.208143  1
  Pa  Pa3  1  0.250000  0.000915  0.797127  1
  Ge  Ge4  1  0.250000  0.704263  0.092769  1
  Ge  Ge5  1  0.250000  0.190784  0.410635  1
  Ge  Ge6  1  0.750000  0.813022  0.582443  1
  Ge  Ge7  1  0.750000  0.308968  0.912418  1
  Pt  Pt8  1  0.250000  0.258126  0.074124  1
  Pt  Pt9  1  0.250000  0.806539  0.417591  1
  Pt  Pt10  1  0.750000  0.187964  0.591273  1
  Pt  Pt11  1  0.750000  0.732202  0.918356  1
