# generated using pymatgen
data_ThNiP
_symmetry_space_group_name_H-M   'P 1'
_cell_length_a   3.96604400
_cell_length_b   3.96604326
_cell_length_c   16.14307300
_cell_angle_alpha   90.00000000
_cell_angle_beta   90.00000000
_cell_angle_gamma   120.00000619
_symmetry_Int_Tables_number   1
_chemical_formula_structural   ThNiP
_chemical_formula_sum   'Th4 Ni4 P4'
_cell_volume   219.90332200
_cell_formula_units_Z   4
loop_
 _symmetry_equiv_pos_site_id
 _symmetry_equiv_pos_as_xyz
  1  'x, y, z'
loop_
 _atom_site_type_symbol
 _atom_site_label
 _atom_site_symmetry_multiplicity
 _atom_site_fract_x
 _atom_site_fract_y
 _atom_site_fract_z
 _atom_site_occupancy
  Th  Th0  1  0.000000  0.000000  0.500000  1
  Th  Th1  1  0.000000  0.000000  0.000000  1
  Th  Th2  1  0.000000  0.000000  0.250000  1
  Th  Th3  1  0.000000  0.000000  0.750000  1
  Ni  Ni4  1  0.333333  0.666667  0.378256  1
  Ni  Ni5  1  0.666667  0.333333  0.621744  1
  Ni  Ni6  1  0.666667  0.333333  0.878256  1
  Ni  Ni7  1  0.333333  0.666667  0.121744  1
  P  P8  1  0.333333  0.666667  0.872752  1
  P  P9  1  0.666667  0.333333  0.127248  1
  P  P10  1  0.666667  0.333333  0.372752  1
  P  P11  1  0.333333  0.666667  0.627248  1
