# generated using pymatgen
data_NbS23
_symmetry_space_group_name_H-M   'P 1'
_cell_length_a   5.51784902
_cell_length_b   9.64772952
_cell_length_c   15.45065100
_cell_angle_alpha   89.51739091
_cell_angle_beta   84.84501947
_cell_angle_gamma   90.86978670
_symmetry_Int_Tables_number   1
_chemical_formula_structural   NbS23
_chemical_formula_sum   'Nb1 S23'
_cell_volume   819.05024749
_cell_formula_units_Z   1
loop_
 _symmetry_equiv_pos_site_id
 _symmetry_equiv_pos_as_xyz
  1  'x, y, z'
loop_
 _atom_site_type_symbol
 _atom_site_label
 _atom_site_symmetry_multiplicity
 _atom_site_fract_x
 _atom_site_fract_y
 _atom_site_fract_z
 _atom_site_occupancy
  Nb  Nb0  1  0.502494  0.367044  0.448806  1
  S  S1  1  0.506337  0.775077  0.399951  1
  S  S2  1  0.002979  0.299353  0.110569  1
  S  S3  1  0.866087  0.233998  0.455931  1
  S  S4  1  0.289359  0.755191  0.511539  1
  S  S5  1  0.199220  0.258213  0.993663  1
  S  S6  1  0.795260  0.738484  0.008218  1
  S  S7  1  0.152161  0.317363  0.371291  1
  S  S8  1  0.724316  0.584676  0.389902  1
  S  S9  1  0.799245  0.124533  0.149466  1
  S  S10  1  0.204412  0.869657  0.133609  1
  S  S11  1  0.702206  0.633121  0.628660  1
  S  S12  1  0.271404  0.389457  0.597880  1
  S  S13  1  0.203130  0.876106  0.857517  1
  S  S14  1  0.791450  0.127008  0.867285  1
  S  S15  1  0.998931  0.695065  0.110607  1
  S  S16  1  0.497091  0.808280  0.612567  1
  S  S17  1  0.400401  0.198421  0.570969  1
  S  S18  1  0.001778  0.699196  0.893022  1
  S  S19  1  0.991652  0.302597  0.892286  1
  S  S20  1  0.608048  0.457868  0.298218  1
  S  S21  1  0.006276  0.996005  0.219851  1
  S  S22  1  0.483991  0.491042  0.694690  1
  S  S23  1  0.001776  0.002247  0.783502  1
