# generated using pymatgen
data_TbErFeCo16
_symmetry_space_group_name_H-M   'P 1'
_cell_length_a   6.26786232
_cell_length_b   6.26786138
_cell_length_c   6.26786200
_cell_angle_alpha   82.91993328
_cell_angle_beta   82.91992513
_cell_angle_gamma   82.91992727
_symmetry_Int_Tables_number   1
_chemical_formula_structural   TbErFeCo16
_chemical_formula_sum   'Tb1 Er1 Fe1 Co16'
_cell_volume   241.03452012
_cell_formula_units_Z   1
loop_
 _symmetry_equiv_pos_site_id
 _symmetry_equiv_pos_as_xyz
  1  'x, y, z'
loop_
 _atom_site_type_symbol
 _atom_site_label
 _atom_site_symmetry_multiplicity
 _atom_site_fract_x
 _atom_site_fract_y
 _atom_site_fract_z
 _atom_site_occupancy
  Tb  Tb0  1  0.345720  0.345720  0.345720  1
  Er  Er1  1  0.656259  0.656259  0.656259  1
  Fe  Fe2  1  0.095961  0.095961  0.095961  1
  Co  Co3  1  0.347025  0.347025  0.849334  1
  Co  Co4  1  0.347025  0.849334  0.347025  1
  Co  Co5  1  0.849334  0.347025  0.347025  1
  Co  Co6  1  0.654323  0.654323  0.151465  1
  Co  Co7  1  0.654323  0.151465  0.654323  1
  Co  Co8  1  0.151465  0.654323  0.654323  1
  Co  Co9  1  0.998570  0.998570  0.501672  1
  Co  Co10  1  0.998570  0.501672  0.998570  1
  Co  Co11  1  0.501672  0.998570  0.998570  1
  Co  Co12  1  0.289694  0.710169  0.998933  1
  Co  Co13  1  0.710169  0.998933  0.289694  1
  Co  Co14  1  0.998933  0.289694  0.710169  1
  Co  Co15  1  0.289694  0.998933  0.710169  1
  Co  Co16  1  0.998933  0.710169  0.289694  1
  Co  Co17  1  0.710169  0.289694  0.998933  1
  Co  Co18  1  0.902161  0.902161  0.902161  1
