# generated using pymatgen
data_Hf2Al(Co3B2)3
_symmetry_space_group_name_H-M   'P 1'
_cell_length_a   5.66236373
_cell_length_b   5.66236303
_cell_length_c   5.66236301
_cell_angle_alpha   95.23807257
_cell_angle_beta   95.23807881
_cell_angle_gamma   95.23807919
_symmetry_Int_Tables_number   1
_chemical_formula_structural   Hf2Al(Co3B2)3
_chemical_formula_sum   'Hf2 Al1 Co9 B6'
_cell_volume   179.12466928
_cell_formula_units_Z   1
loop_
 _symmetry_equiv_pos_site_id
 _symmetry_equiv_pos_as_xyz
  1  'x, y, z'
loop_
 _atom_site_type_symbol
 _atom_site_label
 _atom_site_symmetry_multiplicity
 _atom_site_fract_x
 _atom_site_fract_y
 _atom_site_fract_z
 _atom_site_occupancy
  Hf  Hf0  1  0.677206  0.677206  0.677206  1
  Hf  Hf1  1  0.322794  0.322794  0.322794  1
  Al  Al2  1  0.000000  0.000000  0.000000  1
  Co  Co3  1  0.500000  0.000000  0.000000  1
  Co  Co4  1  0.000000  0.500000  0.000000  1
  Co  Co5  1  0.000000  0.000000  0.500000  1
  Co  Co6  1  0.702891  0.198528  0.702891  1
  Co  Co7  1  0.702891  0.702891  0.198528  1
  Co  Co8  1  0.198528  0.702891  0.702891  1
  Co  Co9  1  0.297109  0.801472  0.297109  1
  Co  Co10  1  0.297109  0.297109  0.801472  1
  Co  Co11  1  0.801472  0.297109  0.297109  1
  B  B12  1  0.384190  0.000000  0.615810  1
  B  B13  1  0.615810  0.384190  0.000000  1
  B  B14  1  0.000000  0.615810  0.384190  1
  B  B15  1  0.615810  0.000000  0.384190  1
  B  B16  1  0.384190  0.615810  0.000000  1
  B  B17  1  0.000000  0.384190  0.615810  1
