# generated using pymatgen
data_DyB9N
_symmetry_space_group_name_H-M   'P 1'
_cell_length_a   5.51285291
_cell_length_b   5.51285260
_cell_length_c   7.59512752
_cell_angle_alpha   111.25510537
_cell_angle_beta   68.74487696
_cell_angle_gamma   119.98041469
_symmetry_Int_Tables_number   1
_chemical_formula_structural   DyB9N
_chemical_formula_sum   'Dy2 B18 N2'
_cell_volume   181.57739677
_cell_formula_units_Z   2
loop_
 _symmetry_equiv_pos_site_id
 _symmetry_equiv_pos_as_xyz
  1  'x, y, z'
loop_
 _atom_site_type_symbol
 _atom_site_label
 _atom_site_symmetry_multiplicity
 _atom_site_fract_x
 _atom_site_fract_y
 _atom_site_fract_z
 _atom_site_occupancy
  Dy  Dy0  1  0.298571  0.701429  0.104834  1
  Dy  Dy1  1  0.701429  0.298572  0.895167  1
  B  B2  1  0.179628  0.142880  0.105882  1
  B  B3  1  0.857265  0.142735  0.105914  1
  B  B4  1  0.857120  0.820373  0.105882  1
  B  B5  1  0.352016  0.323767  0.295324  1
  B  B6  1  0.676228  0.323772  0.295344  1
  B  B7  1  0.676233  0.647984  0.295324  1
  B  B8  1  0.337297  0.134117  0.459397  1
  B  B9  1  0.337299  0.662701  0.459484  1
  B  B10  1  0.865883  0.662703  0.459397  1
  B  B11  1  0.134117  0.337297  0.540603  1
  B  B12  1  0.662701  0.337299  0.540517  1
  B  B13  1  0.662703  0.865883  0.540603  1
  B  B14  1  0.323767  0.352016  0.704676  1
  B  B15  1  0.323772  0.676228  0.704656  1
  B  B16  1  0.647984  0.676233  0.704676  1
  B  B17  1  0.142880  0.179628  0.894118  1
  B  B18  1  0.142735  0.857265  0.894086  1
  B  B19  1  0.820373  0.857121  0.894118  1
  N  N20  1  0.188915  0.811085  0.433202  1
  N  N21  1  0.811085  0.188915  0.566798  1
