# generated using pymatgen
data_Ca2Nd3P12Ir12Ru7
_symmetry_space_group_name_H-M   'P 1'
_cell_length_a   12.69087918
_cell_length_b   12.65896435
_cell_length_c   4.00333900
_cell_angle_alpha   90.00000000
_cell_angle_beta   90.00000000
_cell_angle_gamma   119.85781632
_symmetry_Int_Tables_number   1
_chemical_formula_structural   Ca2Nd3P12Ir12Ru7
_chemical_formula_sum   'Ca2 Nd3 P12 Ir12 Ru7'
_cell_volume   557.78050906
_cell_formula_units_Z   1
loop_
 _symmetry_equiv_pos_site_id
 _symmetry_equiv_pos_as_xyz
  1  'x, y, z'
loop_
 _atom_site_type_symbol
 _atom_site_label
 _atom_site_symmetry_multiplicity
 _atom_site_fract_x
 _atom_site_fract_y
 _atom_site_fract_z
 _atom_site_occupancy
  Ca  Ca0  1  0.667319  0.332314  0.000000  1
  Ca  Ca1  1  0.333537  0.666899  0.000000  1
  Nd  Nd2  1  0.813696  0.001360  0.500000  1
  Nd  Nd3  1  0.184840  0.186061  0.500000  1
  Nd  Nd4  1  0.999446  0.814017  0.500000  1
  P  P5  1  0.634832  0.003960  0.000000  1
  P  P6  1  0.367662  0.367599  0.000000  1
  P  P7  1  0.999695  0.631811  0.000000  1
  P  P8  1  0.689409  0.516694  0.500000  1
  P  P9  1  0.827909  0.307452  0.500000  1
  P  P10  1  0.311407  0.828845  0.500000  1
  P  P11  1  0.517551  0.688821  0.500000  1
  P  P12  1  0.183167  0.000444  0.000000  1
  P  P13  1  0.816030  0.816900  0.000000  1
  P  P14  1  0.997293  0.184324  0.000000  1
  P  P15  1  0.482487  0.170543  0.500000  1
  P  P16  1  0.171820  0.482991  0.500000  1
  Ir  Ir17  1  0.621568  0.803685  0.000000  1
  Ir  Ir18  1  0.183012  0.378960  0.000000  1
  Ir  Ir19  1  0.378088  0.181565  0.000000  1
  Ir  Ir20  1  0.195924  0.818529  0.000000  1
  Ir  Ir21  1  0.803126  0.621323  0.000000  1
  Ir  Ir22  1  0.870960  0.507850  0.500000  1
  Ir  Ir23  1  0.491651  0.361575  0.500000  1
  Ir  Ir24  1  0.636781  0.127210  0.500000  1
  Ir  Ir25  1  0.129621  0.638892  0.500000  1
  Ir  Ir26  1  0.362325  0.491203  0.500000  1
  Ir  Ir27  1  0.507924  0.869410  0.500000  1
  Ir  Ir28  1  0.999663  0.000042  0.000000  1
  Ru  Ru29  1  0.709879  0.709737  0.500000  1
  Ru  Ru30  1  0.002247  0.291494  0.500000  1
  Ru  Ru31  1  0.450799  0.998036  0.000000  1
  Ru  Ru32  1  0.547668  0.547298  0.000000  1
  Ru  Ru33  1  0.001882  0.453267  0.000000  1
  Ru  Ru34  1  0.819038  0.198726  0.000000  1
  Ru  Ru35  1  0.289744  0.000163  0.500000  1
