# generated using pymatgen
data_Ce8Fe3Si12Ag
_symmetry_space_group_name_H-M   'P 1'
_cell_length_a   8.12748500
_cell_length_b   8.12748520
_cell_length_c   8.15163400
_cell_angle_alpha   90.00000000
_cell_angle_beta   90.00000000
_cell_angle_gamma   119.99999511
_symmetry_Int_Tables_number   1
_chemical_formula_structural   Ce8Fe3Si12Ag
_chemical_formula_sum   'Ce8 Fe3 Si12 Ag1'
_cell_volume   466.32391582
_cell_formula_units_Z   1
loop_
 _symmetry_equiv_pos_site_id
 _symmetry_equiv_pos_as_xyz
  1  'x, y, z'
loop_
 _atom_site_type_symbol
 _atom_site_label
 _atom_site_symmetry_multiplicity
 _atom_site_fract_x
 _atom_site_fract_y
 _atom_site_fract_z
 _atom_site_occupancy
  Ce  Ce0  1  0.999872  0.999888  0.250953  1
  Ce  Ce1  1  0.000005  0.000047  0.747855  1
  Ce  Ce2  1  0.507650  0.492381  0.258403  1
  Ce  Ce3  1  0.507736  0.015447  0.258487  1
  Ce  Ce4  1  0.984404  0.492204  0.258494  1
  Ce  Ce5  1  0.503595  0.496361  0.743759  1
  Ce  Ce6  1  0.503751  0.007464  0.743780  1
  Ce  Ce7  1  0.992693  0.496311  0.743779  1
  Fe  Fe8  1  0.333321  0.666722  0.526216  1
  Fe  Fe9  1  0.666874  0.333235  0.495204  1
  Fe  Fe10  1  0.666801  0.333322  0.963464  1
  Si  Si11  1  0.170662  0.829164  0.495133  1
  Si  Si12  1  0.170847  0.341713  0.495016  1
  Si  Si13  1  0.658677  0.829267  0.495040  1
  Si  Si14  1  0.832493  0.167763  0.503550  1
  Si  Si15  1  0.832220  0.664352  0.503517  1
  Si  Si16  1  0.335282  0.167702  0.503346  1
  Si  Si17  1  0.827245  0.172742  0.004697  1
  Si  Si18  1  0.827089  0.654278  0.004557  1
  Si  Si19  1  0.345606  0.172841  0.004802  1
  Si  Si20  1  0.159492  0.840329  0.997307  1
  Si  Si21  1  0.159699  0.319395  0.997616  1
  Si  Si22  1  0.680733  0.840284  0.997438  1
  Ag  Ag23  1  0.333255  0.666785  0.007590  1
