# generated using pymatgen
data_Pr3Ho(Sn5Rh3)2
_symmetry_space_group_name_H-M   'P 1'
_cell_length_a   13.59627775
_cell_length_b   13.59627807
_cell_length_c   7.26226102
_cell_angle_alpha   90.13726728
_cell_angle_beta   89.86273274
_cell_angle_gamma   160.82318967
_symmetry_Int_Tables_number   1
_chemical_formula_structural   Pr3Ho(Sn5Rh3)2
_chemical_formula_sum   'Pr3 Ho1 Sn10 Rh6'
_cell_volume   440.98659004
_cell_formula_units_Z   1
loop_
 _symmetry_equiv_pos_site_id
 _symmetry_equiv_pos_as_xyz
  1  'x, y, z'
loop_
 _atom_site_type_symbol
 _atom_site_label
 _atom_site_symmetry_multiplicity
 _atom_site_fract_x
 _atom_site_fract_y
 _atom_site_fract_z
 _atom_site_occupancy
  Pr  Pr0  1  0.172109  0.827891  0.746231  1
  Pr  Pr1  1  0.827768  0.172232  0.245834  1
  Pr  Pr2  1  0.476510  0.523490  0.761824  1
  Ho  Ho3  1  0.524664  0.475336  0.261663  1
  Sn  Sn4  1  0.878906  0.121094  0.767966  1
  Sn  Sn5  1  0.120288  0.879712  0.267245  1
  Sn  Sn6  1  0.704009  0.295991  0.450788  1
  Sn  Sn7  1  0.295255  0.704745  0.950559  1
  Sn  Sn8  1  0.596150  0.403850  0.889924  1
  Sn  Sn9  1  0.404746  0.595254  0.387439  1
  Sn  Sn10  1  0.953116  0.046884  0.101777  1
  Sn  Sn11  1  0.048157  0.951843  0.596834  1
  Sn  Sn12  1  0.290021  0.709979  0.524624  1
  Sn  Sn13  1  0.709731  0.290269  0.025225  1
  Rh  Rh14  1  0.050930  0.949070  0.986224  1
  Rh  Rh15  1  0.949491  0.050509  0.479152  1
  Rh  Rh16  1  0.777167  0.222833  0.735825  1
  Rh  Rh17  1  0.222346  0.777654  0.235912  1
  Rh  Rh18  1  0.394735  0.605265  0.016356  1
  Rh  Rh19  1  0.603901  0.396099  0.512596  1
