# generated using pymatgen
data_Ho8Al3Co
_symmetry_space_group_name_H-M   'P 1'
_cell_length_a   10.17661000
_cell_length_b   10.17661155
_cell_length_c   6.78616600
_cell_angle_alpha   90.00000000
_cell_angle_beta   90.00000000
_cell_angle_gamma   120.00000145
_symmetry_Int_Tables_number   1
_chemical_formula_structural   Ho8Al3Co
_chemical_formula_sum   'Ho16 Al6 Co2'
_cell_volume   608.64132046
_cell_formula_units_Z   2
loop_
 _symmetry_equiv_pos_site_id
 _symmetry_equiv_pos_as_xyz
  1  'x, y, z'
loop_
 _atom_site_type_symbol
 _atom_site_label
 _atom_site_symmetry_multiplicity
 _atom_site_fract_x
 _atom_site_fract_y
 _atom_site_fract_z
 _atom_site_occupancy
  Ho  Ho0  1  0.175126  0.824874  0.997148  1
  Ho  Ho1  1  0.350251  0.175126  0.497148  1
  Ho  Ho2  1  0.824874  0.649749  0.497148  1
  Ho  Ho3  1  0.175126  0.350251  0.997148  1
  Ho  Ho4  1  0.649749  0.824874  0.997148  1
  Ho  Ho5  1  0.824874  0.175126  0.497148  1
  Ho  Ho6  1  0.333333  0.666667  0.670366  1
  Ho  Ho7  1  0.666667  0.333333  0.170366  1
  Ho  Ho8  1  0.466751  0.533249  0.289203  1
  Ho  Ho9  1  0.933502  0.466751  0.789203  1
  Ho  Ho10  1  0.533249  0.066498  0.789203  1
  Ho  Ho11  1  0.466751  0.933502  0.289203  1
  Ho  Ho12  1  0.066498  0.533249  0.289203  1
  Ho  Ho13  1  0.533249  0.466751  0.789203  1
  Ho  Ho14  1  0.000000  0.000000  0.275111  1
  Ho  Ho15  1  0.000000  0.000000  0.775111  1
  Al  Al16  1  0.162687  0.837313  0.531676  1
  Al  Al17  1  0.325372  0.162687  0.031676  1
  Al  Al18  1  0.837313  0.674628  0.031676  1
  Al  Al19  1  0.162687  0.325372  0.531676  1
  Al  Al20  1  0.674628  0.837313  0.531676  1
  Al  Al21  1  0.837313  0.162687  0.031676  1
  Co  Co22  1  0.333333  0.666667  0.063441  1
  Co  Co23  1  0.666667  0.333333  0.563441  1
