# generated using pymatgen
data_Ho5Tm7Th4(MgIr)4
_symmetry_space_group_name_H-M   'P 1'
_cell_length_a   9.75751983
_cell_length_b   9.73619569
_cell_length_c   9.73619528
_cell_angle_alpha   59.91719516
_cell_angle_beta   59.92752361
_cell_angle_gamma   59.92752385
_symmetry_Int_Tables_number   1
_chemical_formula_structural   Ho5Tm7Th4(MgIr)4
_chemical_formula_sum   'Ho5 Tm7 Th4 Mg4 Ir4'
_cell_volume   652.91171919
_cell_formula_units_Z   1
loop_
 _symmetry_equiv_pos_site_id
 _symmetry_equiv_pos_as_xyz
  1  'x, y, z'
loop_
 _atom_site_type_symbol
 _atom_site_label
 _atom_site_symmetry_multiplicity
 _atom_site_fract_x
 _atom_site_fract_y
 _atom_site_fract_z
 _atom_site_occupancy
  Ho  Ho0  1  0.564090  0.935910  0.935910  1
  Ho  Ho1  1  0.565457  0.935535  0.565372  1
  Ho  Ho2  1  0.933636  0.565372  0.935535  1
  Ho  Ho3  1  0.565457  0.565372  0.935535  1
  Ho  Ho4  1  0.933636  0.935535  0.565372  1
  Tm  Tm5  1  0.813502  0.186498  0.186498  1
  Tm  Tm6  1  0.185346  0.814654  0.814654  1
  Tm  Tm7  1  0.185717  0.813814  0.186450  1
  Tm  Tm8  1  0.814018  0.186450  0.813814  1
  Tm  Tm9  1  0.185717  0.186450  0.813814  1
  Tm  Tm10  1  0.814018  0.813814  0.186450  1
  Tm  Tm11  1  0.934534  0.565466  0.565466  1
  Th  Th12  1  0.348075  0.348960  0.348960  1
  Th  Th13  1  0.349112  0.350452  0.951323  1
  Th  Th14  1  0.349112  0.951323  0.350452  1
  Th  Th15  1  0.954004  0.348960  0.348960  1
  Mg  Mg16  1  0.582486  0.579845  0.579845  1
  Mg  Mg17  1  0.581218  0.579052  0.258512  1
  Mg  Mg18  1  0.581218  0.258512  0.579052  1
  Mg  Mg19  1  0.257824  0.579845  0.579845  1
  Ir  Ir20  1  0.143961  0.141973  0.141973  1
  Ir  Ir21  1  0.142884  0.141929  0.572306  1
  Ir  Ir22  1  0.142884  0.572306  0.141929  1
  Ir  Ir23  1  0.572095  0.141973  0.141973  1
