# generated using pymatgen
data_Ba2Cu3BiF14
_symmetry_space_group_name_H-M   'P 1'
_cell_length_a   7.58824256
_cell_length_b   7.58824165
_cell_length_c   14.92658100
_cell_angle_alpha   88.75563121
_cell_angle_beta   88.75563136
_cell_angle_gamma   41.82936854
_symmetry_Int_Tables_number   1
_chemical_formula_structural   Ba2Cu3BiF14
_chemical_formula_sum   'Ba4 Cu6 Bi2 F28'
_cell_volume   573.05388440
_cell_formula_units_Z   2
loop_
 _symmetry_equiv_pos_site_id
 _symmetry_equiv_pos_as_xyz
  1  'x, y, z'
loop_
 _atom_site_type_symbol
 _atom_site_label
 _atom_site_symmetry_multiplicity
 _atom_site_fract_x
 _atom_site_fract_y
 _atom_site_fract_z
 _atom_site_occupancy
  Ba  Ba0  1  0.135018  0.255954  0.880632  1
  Ba  Ba1  1  0.255954  0.135018  0.380632  1
  Ba  Ba2  1  0.864982  0.744046  0.119368  1
  Ba  Ba3  1  0.744046  0.864982  0.619368  1
  Cu  Cu4  1  0.097674  0.143534  0.622486  1
  Cu  Cu5  1  0.902326  0.856466  0.377514  1
  Cu  Cu6  1  0.143534  0.097674  0.122486  1
  Cu  Cu7  1  0.856466  0.902326  0.877514  1
  Cu  Cu8  1  0.500000  0.500000  0.500000  1
  Cu  Cu9  1  0.500000  0.500000  0.000000  1
  Bi  Bi10  1  0.408832  0.591168  0.750000  1
  Bi  Bi11  1  0.591168  0.408832  0.250000  1
  F  F12  1  0.920997  0.061968  0.154041  1
  F  F13  1  0.872480  0.398541  0.045150  1
  F  F14  1  0.127520  0.601459  0.954850  1
  F  F15  1  0.663396  0.837650  0.906320  1
  F  F16  1  0.620414  0.492326  0.885341  1
  F  F17  1  0.507674  0.379586  0.614659  1
  F  F18  1  0.398541  0.872480  0.545150  1
  F  F19  1  0.938032  0.079003  0.345959  1
  F  F20  1  0.376538  0.932438  0.731920  1
  F  F21  1  0.336604  0.162350  0.093680  1
  F  F22  1  0.827923  0.412250  0.709333  1
  F  F23  1  0.162350  0.336604  0.593680  1
  F  F24  1  0.412250  0.827923  0.209333  1
  F  F25  1  0.172077  0.587750  0.290667  1
  F  F26  1  0.492326  0.620414  0.385341  1
  F  F27  1  0.623462  0.067562  0.268080  1
  F  F28  1  0.146385  0.693648  0.485311  1
  F  F29  1  0.079003  0.938032  0.845959  1
  F  F30  1  0.853615  0.306352  0.514689  1
  F  F31  1  0.693648  0.146385  0.985311  1
  F  F32  1  0.601459  0.127520  0.454850  1
  F  F33  1  0.587750  0.172077  0.790667  1
  F  F34  1  0.932438  0.376538  0.231920  1
  F  F35  1  0.306352  0.853615  0.014689  1
  F  F36  1  0.379586  0.507674  0.114659  1
  F  F37  1  0.061968  0.920997  0.654041  1
  F  F38  1  0.067562  0.623462  0.768080  1
  F  F39  1  0.837650  0.663396  0.406320  1
