# generated using pymatgen
data_Rb(TiSe2)3
_symmetry_space_group_name_H-M   'P 1'
_cell_length_a   9.57197811
_cell_length_b   9.57197688
_cell_length_c   9.57197651
_cell_angle_alpha   37.52335615
_cell_angle_beta   37.52336408
_cell_angle_gamma   37.52336599
_symmetry_Int_Tables_number   1
_chemical_formula_structural   Rb(TiSe2)3
_chemical_formula_sum   'Rb1 Ti3 Se6'
_cell_volume   291.80097917
_cell_formula_units_Z   1
loop_
 _symmetry_equiv_pos_site_id
 _symmetry_equiv_pos_as_xyz
  1  'x, y, z'
loop_
 _atom_site_type_symbol
 _atom_site_label
 _atom_site_symmetry_multiplicity
 _atom_site_fract_x
 _atom_site_fract_y
 _atom_site_fract_z
 _atom_site_occupancy
  Rb  Rb0  1  0.000024  0.000024  0.000024  1
  Ti  Ti1  1  0.500676  0.500676  0.500676  1
  Ti  Ti2  1  0.833073  0.833073  0.833073  1
  Ti  Ti3  1  0.166266  0.166266  0.166266  1
  Se  Se4  1  0.557051  0.225100  0.893130  1
  Se  Se5  1  0.893130  0.557051  0.225100  1
  Se  Se6  1  0.225100  0.893130  0.557051  1
  Se  Se7  1  0.772005  0.109599  0.443078  1
  Se  Se8  1  0.109599  0.443078  0.772005  1
  Se  Se9  1  0.443078  0.772005  0.109599  1
