# generated using pymatgen
data_HfSc3Si6Rh7
_symmetry_space_group_name_H-M   'P 1'
_cell_length_a   6.98233187
_cell_length_b   6.95257683
_cell_length_c   6.98233239
_cell_angle_alpha   109.38491255
_cell_angle_beta   109.55738990
_cell_angle_gamma   109.38491519
_symmetry_Int_Tables_number   1
_chemical_formula_structural   HfSc3Si6Rh7
_chemical_formula_sum   'Hf1 Sc3 Si6 Rh7'
_cell_volume   261.20794723
_cell_formula_units_Z   1
loop_
 _symmetry_equiv_pos_site_id
 _symmetry_equiv_pos_as_xyz
  1  'x, y, z'
loop_
 _atom_site_type_symbol
 _atom_site_label
 _atom_site_symmetry_multiplicity
 _atom_site_fract_x
 _atom_site_fract_y
 _atom_site_fract_z
 _atom_site_occupancy
  Hf  Hf0  1  0.000000  0.500000  0.000000  1
  Sc  Sc1  1  0.000000  0.000000  0.500000  1
  Sc  Sc2  1  0.500000  0.000000  0.000000  1
  Sc  Sc3  1  0.500000  0.500000  0.500000  1
  Si  Si4  1  0.678942  0.681432  0.000000  1
  Si  Si5  1  0.321058  0.002489  0.321058  1
  Si  Si6  1  0.000000  0.318568  0.321058  1
  Si  Si7  1  0.321058  0.318568  0.000000  1
  Si  Si8  1  0.678942  0.997511  0.678942  1
  Si  Si9  1  0.000000  0.681432  0.678942  1
  Rh  Rh10  1  0.750746  0.250746  0.501492  1
  Rh  Rh11  1  0.750746  0.500000  0.249254  1
  Rh  Rh12  1  0.501492  0.250746  0.750746  1
  Rh  Rh13  1  0.249254  0.500000  0.750746  1
  Rh  Rh14  1  0.249254  0.749254  0.498508  1
  Rh  Rh15  1  0.498508  0.749254  0.249254  1
  Rh  Rh16  1  0.000000  0.000000  0.000000  1
