# generated using pymatgen
data_Ac2Ga4GeRh3
_symmetry_space_group_name_H-M   'P 1'
_cell_length_a   8.87782760
_cell_length_b   8.87782733
_cell_length_c   8.87782700
_cell_angle_alpha   140.94727045
_cell_angle_beta   107.43062269
_cell_angle_gamma   85.63457394
_symmetry_Int_Tables_number   1
_chemical_formula_structural   Ac2Ga4GeRh3
_chemical_formula_sum   'Ac4 Ga8 Ge2 Rh6'
_cell_volume   406.09478103
_cell_formula_units_Z   2
loop_
 _symmetry_equiv_pos_site_id
 _symmetry_equiv_pos_as_xyz
  1  'x, y, z'
loop_
 _atom_site_type_symbol
 _atom_site_label
 _atom_site_symmetry_multiplicity
 _atom_site_fract_x
 _atom_site_fract_y
 _atom_site_fract_z
 _atom_site_occupancy
  Ac  Ac0  1  0.362521  0.135617  0.226903  1
  Ac  Ac1  1  0.638751  0.863953  0.774799  1
  Ac  Ac2  1  0.089154  0.363953  0.725201  1
  Ac  Ac3  1  0.908713  0.635617  0.273097  1
  Ga  Ga4  1  0.000272  0.250272  0.250000  1
  Ga  Ga5  1  0.000272  0.750272  0.750000  1
  Ga  Ga6  1  0.713589  0.963589  0.250000  1
  Ga  Ga7  1  0.287283  0.537283  0.250000  1
  Ga  Ga8  1  0.287283  0.037283  0.750000  1
  Ga  Ga9  1  0.713589  0.463589  0.750000  1
  Ga  Ga10  1  0.565500  0.405363  0.160138  1
  Ga  Ga11  1  0.245224  0.905363  0.339862  1
  Ge  Ge12  1  0.751468  0.093042  0.658427  1
  Ge  Ge13  1  0.434615  0.593042  0.841573  1
  Rh  Rh14  1  0.956124  0.856503  0.099621  1
  Rh  Rh15  1  0.501016  0.751016  0.250000  1
  Rh  Rh16  1  0.756881  0.356503  0.400379  1
  Rh  Rh17  1  0.247151  0.643362  0.603788  1
  Rh  Rh18  1  0.039574  0.143362  0.896212  1
  Rh  Rh19  1  0.501016  0.251016  0.750000  1
