# generated using pymatgen
data_Cs2U2TaTiTe10
_symmetry_space_group_name_H-M   'P 1'
_cell_length_a   6.23276356
_cell_length_b   8.72944200
_cell_length_c   10.24524662
_cell_angle_alpha   90.00000000
_cell_angle_beta   90.19175613
_cell_angle_gamma   90.00000000
_symmetry_Int_Tables_number   1
_chemical_formula_structural   Cs2U2TaTiTe10
_chemical_formula_sum   'Cs2 U2 Ta1 Ti1 Te10'
_cell_volume   557.42587066
_cell_formula_units_Z   1
loop_
 _symmetry_equiv_pos_site_id
 _symmetry_equiv_pos_as_xyz
  1  'x, y, z'
loop_
 _atom_site_type_symbol
 _atom_site_label
 _atom_site_symmetry_multiplicity
 _atom_site_fract_x
 _atom_site_fract_y
 _atom_site_fract_z
 _atom_site_occupancy
  Cs  Cs0  1  0.751237  0.500000  0.221351  1
  Cs  Cs1  1  0.248763  0.500000  0.778649  1
  U  U2  1  0.248973  0.000000  0.332042  1
  U  U3  1  0.751027  0.000000  0.667957  1
  Ta  Ta4  1  0.000000  0.000000  0.000000  1
  Ti  Ti5  1  0.500000  0.000000  0.000000  1
  Te  Te6  1  0.252687  0.237787  0.111126  1
  Te  Te7  1  0.252687  0.762212  0.111126  1
  Te  Te8  1  0.751595  0.000000  0.228450  1
  Te  Te9  1  0.000000  0.237106  0.500000  1
  Te  Te10  1  0.500000  0.236704  0.500000  1
  Te  Te11  1  0.000000  0.762894  0.500000  1
  Te  Te12  1  0.500000  0.763296  0.500000  1
  Te  Te13  1  0.248405  0.000000  0.771550  1
  Te  Te14  1  0.747313  0.237787  0.888873  1
  Te  Te15  1  0.747313  0.762212  0.888873  1
