# generated using pymatgen
data_YHo7Si8Pd3Pt5
_symmetry_space_group_name_H-M   'P 1'
_cell_length_a   4.27809000
_cell_length_b   7.49639803
_cell_length_c   14.02145407
_cell_angle_alpha   89.98895012
_cell_angle_beta   90.00000000
_cell_angle_gamma   90.00000000
_symmetry_Int_Tables_number   1
_chemical_formula_structural   YHo7Si8Pd3Pt5
_chemical_formula_sum   'Y1 Ho7 Si8 Pd3 Pt5'
_cell_volume   449.67174577
_cell_formula_units_Z   1
loop_
 _symmetry_equiv_pos_site_id
 _symmetry_equiv_pos_as_xyz
  1  'x, y, z'
loop_
 _atom_site_type_symbol
 _atom_site_label
 _atom_site_symmetry_multiplicity
 _atom_site_fract_x
 _atom_site_fract_y
 _atom_site_fract_z
 _atom_site_occupancy
  Y  Y0  1  0.000000  0.299067  0.999855  1
  Ho  Ho1  1  0.500000  0.794673  0.749750  1
  Ho  Ho2  1  0.000000  0.205059  0.749304  1
  Ho  Ho3  1  0.500000  0.795505  0.250505  1
  Ho  Ho4  1  0.000000  0.205362  0.250381  1
  Ho  Ho5  1  0.500000  0.708564  0.000254  1
  Ho  Ho6  1  0.000000  0.292380  0.500035  1
  Ho  Ho7  1  0.500000  0.701412  0.499780  1
  Si  Si8  1  0.500000  0.405167  0.642269  1
  Si  Si9  1  0.000000  0.595204  0.856441  1
  Si  Si10  1  0.500000  0.407640  0.355919  1
  Si  Si11  1  0.000000  0.595310  0.146616  1
  Si  Si12  1  0.500000  0.091102  0.092337  1
  Si  Si13  1  0.000000  0.906334  0.407097  1
  Si  Si14  1  0.500000  0.091223  0.907392  1
  Si  Si15  1  0.000000  0.907964  0.591944  1
  Pd  Pd16  1  0.500000  0.420070  0.156310  1
  Pd  Pd17  1  0.500000  0.421269  0.841929  1
  Pd  Pd18  1  0.000000  0.578863  0.658346  1
  Pt  Pt19  1  0.500000  0.075039  0.609044  1
  Pt  Pt20  1  0.000000  0.924380  0.890502  1
  Pt  Pt21  1  0.500000  0.076374  0.390799  1
  Pt  Pt22  1  0.000000  0.924343  0.109054  1
  Pt  Pt23  1  0.000000  0.577698  0.344137  1
