# generated using pymatgen
data_RbS27
_symmetry_space_group_name_H-M   'P 1'
_cell_length_a   14.15801348
_cell_length_b   14.15103875
_cell_length_c   14.15474566
_cell_angle_alpha   117.84371479
_cell_angle_beta   117.96270454
_cell_angle_gamma   117.94214523
_symmetry_Int_Tables_number   1
_chemical_formula_structural   RbS27
_chemical_formula_sum   'Rb1 S27'
_cell_volume   1050.36454005
_cell_formula_units_Z   1
loop_
 _symmetry_equiv_pos_site_id
 _symmetry_equiv_pos_as_xyz
  1  'x, y, z'
loop_
 _atom_site_type_symbol
 _atom_site_label
 _atom_site_symmetry_multiplicity
 _atom_site_fract_x
 _atom_site_fract_y
 _atom_site_fract_z
 _atom_site_occupancy
  Rb  Rb0  1  0.598073  0.586298  0.586179  1
  S  S1  1  0.813806  0.537863  0.537893  1
  S  S2  1  0.536963  0.536864  0.811882  1
  S  S3  1  0.537018  0.811986  0.536944  1
  S  S4  1  0.281253  0.420080  0.663543  1
  S  S5  1  0.291826  0.902569  0.291646  1
  S  S6  1  0.291711  0.291607  0.902499  1
  S  S7  1  0.902649  0.292104  0.292023  1
  S  S8  1  0.109417  0.728384  0.248136  1
  S  S9  1  0.249179  0.110730  0.728604  1
  S  S10  1  0.727871  0.248123  0.109384  1
  S  S11  1  0.728050  0.109670  0.248289  1
  S  S12  1  0.249064  0.728496  0.110585  1
  S  S13  1  0.109218  0.248034  0.728291  1
  S  S14  1  0.319778  0.860360  0.514727  1
  S  S15  1  0.515500  0.320424  0.859955  1
  S  S16  1  0.859383  0.514216  0.319219  1
  S  S17  1  0.859566  0.319409  0.514368  1
  S  S18  1  0.515380  0.859842  0.320276  1
  S  S19  1  0.319727  0.514676  0.860322  1
  S  S20  1  0.281315  0.663562  0.420192  1
  S  S21  1  0.418784  0.280202  0.661479  1
  S  S22  1  0.662547  0.419272  0.280739  1
  S  S23  1  0.662575  0.280735  0.419404  1
  S  S24  1  0.418802  0.661528  0.280289  1
  S  S25  1  0.039787  0.117046  0.116877  1
  S  S26  1  0.113235  0.138362  0.023057  1
  S  S27  1  0.112828  0.022862  0.138503  1
