# generated using pymatgen
data_Np5UF24
_symmetry_space_group_name_H-M   'P 1'
_cell_length_a   8.37987788
_cell_length_b   8.37987940
_cell_length_c   8.36761378
_cell_angle_alpha   116.72205387
_cell_angle_beta   63.27793907
_cell_angle_gamma   99.21051001
_symmetry_Int_Tables_number   1
_chemical_formula_structural   Np5UF24
_chemical_formula_sum   'Np5 U1 F24'
_cell_volume   468.12990617
_cell_formula_units_Z   1
loop_
 _symmetry_equiv_pos_site_id
 _symmetry_equiv_pos_as_xyz
  1  'x, y, z'
loop_
 _atom_site_type_symbol
 _atom_site_label
 _atom_site_symmetry_multiplicity
 _atom_site_fract_x
 _atom_site_fract_y
 _atom_site_fract_z
 _atom_site_occupancy
  Np  Np0  1  0.779869  0.367036  0.168346  1
  Np  Np1  1  0.367036  0.779869  0.331653  1
  Np  Np2  1  0.631839  0.223756  0.669706  1
  Np  Np3  1  0.786531  0.786532  0.750000  1
  Np  Np4  1  0.223756  0.631838  0.830294  1
  U  U5  1  0.216405  0.216405  0.250000  1
  F  F6  1  0.000898  0.496775  0.996589  1
  F  F7  1  0.186298  0.941703  0.048565  1
  F  F8  1  0.596707  0.813285  0.074318  1
  F  F9  1  0.257425  0.679806  0.106881  1
  F  F10  1  0.031561  0.270771  0.144771  1
  F  F11  1  0.494818  0.250195  0.209261  1
  F  F12  1  0.596966  0.596966  0.250000  1
  F  F13  1  0.250195  0.494818  0.290738  1
  F  F14  1  0.270772  0.031561  0.355229  1
  F  F15  1  0.679806  0.257424  0.393120  1
  F  F16  1  0.813285  0.596707  0.425682  1
  F  F17  1  0.941704  0.186297  0.451434  1
  F  F18  1  0.496776  0.000898  0.503410  1
  F  F19  1  0.064359  0.821780  0.544210  1
  F  F20  1  0.190356  0.400658  0.570696  1
  F  F21  1  0.318436  0.739888  0.604824  1
  F  F22  1  0.729378  0.972360  0.644682  1
  F  F23  1  0.740914  0.502758  0.714896  1
  F  F24  1  0.396463  0.396464  0.750000  1
  F  F25  1  0.502759  0.740913  0.785103  1
  F  F26  1  0.972360  0.729379  0.855318  1
  F  F27  1  0.739887  0.318437  0.895177  1
  F  F28  1  0.400657  0.190356  0.929303  1
  F  F29  1  0.821780  0.064359  0.955789  1
