# generated using pymatgen
data_YbDy(TmOs4)2
_symmetry_space_group_name_H-M   'P 1'
_cell_length_a   5.31448700
_cell_length_b   5.31448610
_cell_length_c   8.74218400
_cell_angle_alpha   90.00000000
_cell_angle_beta   90.00000000
_cell_angle_gamma   119.99999938
_symmetry_Int_Tables_number   1
_chemical_formula_structural   YbDy(TmOs4)2
_chemical_formula_sum   'Yb1 Dy1 Tm2 Os8'
_cell_volume   213.83224816
_cell_formula_units_Z   1
loop_
 _symmetry_equiv_pos_site_id
 _symmetry_equiv_pos_as_xyz
  1  'x, y, z'
loop_
 _atom_site_type_symbol
 _atom_site_label
 _atom_site_symmetry_multiplicity
 _atom_site_fract_x
 _atom_site_fract_y
 _atom_site_fract_z
 _atom_site_occupancy
  Yb  Yb0  1  0.333333  0.666667  0.062919  1
  Dy  Dy1  1  0.666667  0.333333  0.938834  1
  Tm  Tm2  1  0.333333  0.666667  0.429891  1
  Tm  Tm3  1  0.666667  0.333333  0.565329  1
  Os  Os4  1  0.000000  0.000000  0.500844  1
  Os  Os5  1  0.000000  0.000000  0.001042  1
  Os  Os6  1  0.828000  0.172000  0.251915  1
  Os  Os7  1  0.828000  0.656000  0.251915  1
  Os  Os8  1  0.344000  0.172000  0.251915  1
  Os  Os9  1  0.172927  0.827073  0.748465  1
  Os  Os10  1  0.172927  0.345854  0.748465  1
  Os  Os11  1  0.654146  0.827073  0.748465  1
