# generated using pymatgen
data_Tb4Y3ErC10
_symmetry_space_group_name_H-M   'P 1'
_cell_length_a   3.68654300
_cell_length_b   6.60604133
_cell_length_c   11.97148832
_cell_angle_alpha   89.97813851
_cell_angle_beta   90.00000000
_cell_angle_gamma   90.00000000
_symmetry_Int_Tables_number   1
_chemical_formula_structural   Tb4Y3ErC10
_chemical_formula_sum   'Tb4 Y3 Er1 C10'
_cell_volume   291.54708613
_cell_formula_units_Z   1
loop_
 _symmetry_equiv_pos_site_id
 _symmetry_equiv_pos_as_xyz
  1  'x, y, z'
loop_
 _atom_site_type_symbol
 _atom_site_label
 _atom_site_symmetry_multiplicity
 _atom_site_fract_x
 _atom_site_fract_y
 _atom_site_fract_z
 _atom_site_occupancy
  Tb  Tb0  1  0.000000  0.249412  0.544582  1
  Tb  Tb1  1  0.000000  0.738402  0.457868  1
  Tb  Tb2  1  0.500000  0.104899  0.802704  1
  Tb  Tb3  1  0.500000  0.892081  0.196015  1
  Y  Y4  1  0.000000  0.249834  0.042750  1
  Y  Y5  1  0.500000  0.608655  0.696979  1
  Y  Y6  1  0.500000  0.392908  0.303534  1
  Er  Er7  1  0.000000  0.763637  0.957999  1
  C  C8  1  0.500000  0.489292  0.499912  1
  C  C9  1  0.500000  0.007126  0.998287  1
  C  C10  1  0.000000  0.357988  0.740120  1
  C  C11  1  0.000000  0.634723  0.262666  1
  C  C12  1  0.000000  0.862404  0.766230  1
  C  C13  1  0.000000  0.144430  0.236547  1
  C  C14  1  0.000000  0.426925  0.844577  1
  C  C15  1  0.000000  0.611013  0.151907  1
  C  C16  1  0.000000  0.080734  0.341914  1
  C  C17  1  0.000000  0.885535  0.655406  1
