# generated using pymatgen
data_BaLi2YSi4
_symmetry_space_group_name_H-M   'P 1'
_cell_length_a   3.88507500
_cell_length_b   8.07876780
_cell_length_c   10.85921025
_cell_angle_alpha   89.77520390
_cell_angle_beta   90.00000000
_cell_angle_gamma   90.00000000
_symmetry_Int_Tables_number   1
_chemical_formula_structural   BaLi2YSi4
_chemical_formula_sum   'Ba2 Li4 Y2 Si8'
_cell_volume   340.83126919
_cell_formula_units_Z   2
loop_
 _symmetry_equiv_pos_site_id
 _symmetry_equiv_pos_as_xyz
  1  'x, y, z'
loop_
 _atom_site_type_symbol
 _atom_site_label
 _atom_site_symmetry_multiplicity
 _atom_site_fract_x
 _atom_site_fract_y
 _atom_site_fract_z
 _atom_site_occupancy
  Ba  Ba0  1  0.250000  0.638792  0.634193  1
  Ba  Ba1  1  0.750000  0.361208  0.365807  1
  Li  Li2  1  0.250000  0.005584  0.384442  1
  Li  Li3  1  0.750000  0.994416  0.615558  1
  Li  Li4  1  0.250000  0.491178  0.103870  1
  Li  Li5  1  0.750000  0.508822  0.896130  1
  Y  Y6  1  0.250000  0.120444  0.870065  1
  Y  Y7  1  0.750000  0.879556  0.129935  1
  Si  Si8  1  0.750000  0.258014  0.056422  1
  Si  Si9  1  0.250000  0.741986  0.943578  1
  Si  Si10  1  0.750000  0.790783  0.408681  1
  Si  Si11  1  0.250000  0.209217  0.591319  1
  Si  Si12  1  0.750000  0.843752  0.838347  1
  Si  Si13  1  0.250000  0.156248  0.161653  1
  Si  Si14  1  0.750000  0.311654  0.695490  1
  Si  Si15  1  0.250000  0.688346  0.304510  1
