# generated using pymatgen
data_K5ZrAs3
_symmetry_space_group_name_H-M   'P 1'
_cell_length_a   8.50015600
_cell_length_b   9.24740011
_cell_length_c   17.90645605
_cell_angle_alpha   59.59610716
_cell_angle_beta   90.00000000
_cell_angle_gamma   90.00000000
_symmetry_Int_Tables_number   1
_chemical_formula_structural   K5ZrAs3
_chemical_formula_sum   'K20 Zr4 As12'
_cell_volume   1213.96134884
_cell_formula_units_Z   4
loop_
 _symmetry_equiv_pos_site_id
 _symmetry_equiv_pos_as_xyz
  1  'x, y, z'
loop_
 _atom_site_type_symbol
 _atom_site_label
 _atom_site_symmetry_multiplicity
 _atom_site_fract_x
 _atom_site_fract_y
 _atom_site_fract_z
 _atom_site_occupancy
  K  K0  1  0.164534  0.841506  0.739570  1
  K  K1  1  0.664534  0.158494  0.760430  1
  K  K2  1  0.835466  0.158494  0.260430  1
  K  K3  1  0.335466  0.841506  0.239570  1
  K  K4  1  0.169862  0.160290  0.419460  1
  K  K5  1  0.669862  0.839710  0.080540  1
  K  K6  1  0.830138  0.839710  0.580540  1
  K  K7  1  0.330138  0.160290  0.919460  1
  K  K8  1  0.006238  0.091917  0.090419  1
  K  K9  1  0.506238  0.908083  0.409581  1
  K  K10  1  0.993762  0.908083  0.909581  1
  K  K11  1  0.493762  0.091917  0.590419  1
  K  K12  1  0.520130  0.260991  0.077926  1
  K  K13  1  0.020130  0.739009  0.422074  1
  K  K14  1  0.479870  0.739009  0.922074  1
  K  K15  1  0.979870  0.260991  0.577926  1
  K  K16  1  0.986548  0.551921  0.256501  1
  K  K17  1  0.486548  0.448079  0.243499  1
  K  K18  1  0.013452  0.448079  0.743499  1
  K  K19  1  0.513452  0.551921  0.756501  1
  Zr  Zr20  1  0.365422  0.490947  0.582440  1
  Zr  Zr21  1  0.865422  0.509053  0.917560  1
  Zr  Zr22  1  0.634578  0.509053  0.417560  1
  Zr  Zr23  1  0.134578  0.490947  0.082440  1
  As  As24  1  0.319842  0.486467  0.435042  1
  As  As25  1  0.819842  0.513533  0.064958  1
  As  As26  1  0.680158  0.513533  0.564958  1
  As  As27  1  0.180158  0.486467  0.935042  1
  As  As28  1  0.220896  0.208090  0.220441  1
  As  As29  1  0.720896  0.791910  0.279559  1
  As  As30  1  0.779104  0.791910  0.779559  1
  As  As31  1  0.279104  0.208090  0.720441  1
  As  As32  1  0.256509  0.756519  0.079175  1
  As  As33  1  0.756509  0.243481  0.420825  1
  As  As34  1  0.743491  0.243481  0.920825  1
  As  As35  1  0.243491  0.756519  0.579175  1
