# generated using pymatgen
data_Dy4Er16CoBi8Ir3
_symmetry_space_group_name_H-M   'P 1'
_cell_length_a   7.94926461
_cell_length_b   8.95976900
_cell_length_c   12.42892830
_cell_angle_alpha   90.00000000
_cell_angle_beta   90.21096870
_cell_angle_gamma   90.00000000
_symmetry_Int_Tables_number   1
_chemical_formula_structural   Dy4Er16CoBi8Ir3
_chemical_formula_sum   'Dy4 Er16 Co1 Bi8 Ir3'
_cell_volume   885.22670189
_cell_formula_units_Z   1
loop_
 _symmetry_equiv_pos_site_id
 _symmetry_equiv_pos_as_xyz
  1  'x, y, z'
loop_
 _atom_site_type_symbol
 _atom_site_label
 _atom_site_symmetry_multiplicity
 _atom_site_fract_x
 _atom_site_fract_y
 _atom_site_fract_z
 _atom_site_occupancy
  Dy  Dy0  1  0.657580  0.750000  0.699974  1
  Dy  Dy1  1  0.838962  0.750000  0.207035  1
  Dy  Dy2  1  0.123584  0.750000  0.807681  1
  Dy  Dy3  1  0.380449  0.750000  0.314112  1
  Er  Er4  1  0.338563  0.250000  0.293065  1
  Er  Er5  1  0.161091  0.250000  0.793277  1
  Er  Er6  1  0.875650  0.250000  0.191273  1
  Er  Er7  1  0.624089  0.250000  0.691398  1
  Er  Er8  1  0.556392  0.750000  0.997370  1
  Er  Er9  1  0.446417  0.250000  0.001258  1
  Er  Er10  1  0.055416  0.250000  0.501441  1
  Er  Er11  1  0.946590  0.750000  0.498408  1
  Er  Er12  1  0.825589  0.456726  0.933166  1
  Er  Er13  1  0.175536  0.541640  0.066823  1
  Er  Er14  1  0.325368  0.543537  0.565611  1
  Er  Er15  1  0.175536  0.958360  0.066823  1
  Er  Er16  1  0.673055  0.464009  0.435849  1
  Er  Er17  1  0.825589  0.043274  0.933166  1
  Er  Er18  1  0.673055  0.035991  0.435849  1
  Er  Er19  1  0.325368  0.956463  0.565611  1
  Co  Co20  1  0.567711  0.750000  0.492246  1
  Bi  Bi21  1  0.932478  0.009432  0.671785  1
  Bi  Bi22  1  0.066327  0.991530  0.328001  1
  Bi  Bi23  1  0.433962  0.991210  0.826762  1
  Bi  Bi24  1  0.066327  0.508470  0.328001  1
  Bi  Bi25  1  0.565746  0.008679  0.173346  1
  Bi  Bi26  1  0.932478  0.490568  0.671785  1
  Bi  Bi27  1  0.565746  0.491321  0.173346  1
  Bi  Bi28  1  0.433962  0.508790  0.826762  1
  Ir  Ir29  1  0.929008  0.750000  0.991697  1
  Ir  Ir30  1  0.072459  0.250000  0.009032  1
  Ir  Ir31  1  0.429918  0.250000  0.508045  1
