# generated using pymatgen
data_LaTh5PtBr15
_symmetry_space_group_name_H-M   'P 1'
_cell_length_a   10.30265782
_cell_length_b   10.30312653
_cell_length_c   10.30312616
_cell_angle_alpha   108.86503017
_cell_angle_beta   109.77408244
_cell_angle_gamma   109.77408058
_symmetry_Int_Tables_number   1
_chemical_formula_structural   LaTh5PtBr15
_chemical_formula_sum   'La1 Th5 Pt1 Br15'
_cell_volume   841.86156885
_cell_formula_units_Z   1
loop_
 _symmetry_equiv_pos_site_id
 _symmetry_equiv_pos_as_xyz
  1  'x, y, z'
loop_
 _atom_site_type_symbol
 _atom_site_label
 _atom_site_symmetry_multiplicity
 _atom_site_fract_x
 _atom_site_fract_y
 _atom_site_fract_z
 _atom_site_occupancy
  La  La0  1  0.000001  0.250428  0.250428  1
  Th  Th1  1  0.999996  0.757457  0.757457  1
  Th  Th2  1  0.242711  0.001771  0.244472  1
  Th  Th3  1  0.757294  0.001774  0.759075  1
  Th  Th4  1  0.242711  0.244472  0.001771  1
  Th  Th5  1  0.757294  0.759075  0.001774  1
  Pt  Pt6  1  0.000005  0.996657  0.996657  1
  Br  Br7  1  0.496181  0.247252  0.247252  1
  Br  Br8  1  0.503820  0.751085  0.751085  1
  Br  Br9  1  0.000000  0.247248  0.751078  1
  Br  Br10  1  0.000000  0.751078  0.247248  1
  Br  Br11  1  0.253907  0.496090  0.242184  1
  Br  Br12  1  0.746088  0.988284  0.242192  1
  Br  Br13  1  0.752259  0.507589  0.755327  1
  Br  Br14  1  0.247742  0.003048  0.755320  1
  Br  Br15  1  0.253907  0.242184  0.496090  1
  Br  Br16  1  0.752259  0.755327  0.507589  1
  Br  Br17  1  0.746088  0.242192  0.988284  1
  Br  Br18  1  0.247742  0.755320  0.003048  1
  Br  Br19  1  0.999998  0.509451  0.509451  1
  Br  Br20  1  0.499999  0.996108  0.496111  1
  Br  Br21  1  0.499999  0.496111  0.996108  1
