# generated using pymatgen
data_LuBeC
_symmetry_space_group_name_H-M   'P 1'
_cell_length_a   3.27840700
_cell_length_b   3.27840797
_cell_length_c   7.35163800
_cell_angle_alpha   90.00000000
_cell_angle_beta   90.00000000
_cell_angle_gamma   120.00002048
_symmetry_Int_Tables_number   1
_chemical_formula_structural   LuBeC
_chemical_formula_sum   'Lu2 Be2 C2'
_cell_volume   68.42905165
_cell_formula_units_Z   2
loop_
 _symmetry_equiv_pos_site_id
 _symmetry_equiv_pos_as_xyz
  1  'x, y, z'
loop_
 _atom_site_type_symbol
 _atom_site_label
 _atom_site_symmetry_multiplicity
 _atom_site_fract_x
 _atom_site_fract_y
 _atom_site_fract_z
 _atom_site_occupancy
  Lu  Lu0  1  0.000000  0.000000  0.500000  1
  Lu  Lu1  1  0.000000  0.000000  0.000000  1
  Be  Be2  1  0.333333  0.666667  0.750000  1
  Be  Be3  1  0.666667  0.333333  0.250000  1
  C  C4  1  0.333333  0.666667  0.250000  1
  C  C5  1  0.666667  0.333333  0.750000  1
