# generated using pymatgen
data_Ho6Co16ReP12W
_symmetry_space_group_name_H-M   'P 1'
_cell_length_a   3.71745800
_cell_length_b   10.51055300
_cell_length_c   12.20324700
_cell_angle_alpha   90.00000000
_cell_angle_beta   90.00000000
_cell_angle_gamma   90.00000000
_symmetry_Int_Tables_number   1
_chemical_formula_structural   Ho6Co16ReP12W
_chemical_formula_sum   'Ho6 Co16 Re1 P12 W1'
_cell_volume   476.81184841
_cell_formula_units_Z   1
loop_
 _symmetry_equiv_pos_site_id
 _symmetry_equiv_pos_as_xyz
  1  'x, y, z'
loop_
 _atom_site_type_symbol
 _atom_site_label
 _atom_site_symmetry_multiplicity
 _atom_site_fract_x
 _atom_site_fract_y
 _atom_site_fract_z
 _atom_site_occupancy
  Ho  Ho0  1  0.000000  0.500000  0.524712  1
  Ho  Ho1  1  0.500000  0.000000  0.475269  1
  Ho  Ho2  1  0.500000  0.818807  0.205013  1
  Ho  Ho3  1  0.500000  0.181193  0.205013  1
  Ho  Ho4  1  0.000000  0.680775  0.794539  1
  Ho  Ho5  1  0.000000  0.319225  0.794539  1
  Co  Co6  1  0.000000  0.500000  0.988025  1
  Co  Co7  1  0.500000  0.000000  0.013189  1
  Co  Co8  1  0.500000  0.296891  0.430853  1
  Co  Co9  1  0.500000  0.703109  0.430853  1
  Co  Co10  1  0.000000  0.204242  0.568105  1
  Co  Co11  1  0.000000  0.795758  0.568105  1
  Co  Co12  1  0.500000  0.877777  0.707553  1
  Co  Co13  1  0.500000  0.122223  0.707553  1
  Co  Co14  1  0.000000  0.620952  0.292184  1
  Co  Co15  1  0.000000  0.379048  0.292184  1
  Co  Co16  1  0.500000  0.333315  0.989981  1
  Co  Co17  1  0.500000  0.666685  0.989981  1
  Co  Co18  1  0.000000  0.168164  0.010587  1
  Co  Co19  1  0.000000  0.831836  0.010587  1
  Co  Co20  1  0.500000  0.500000  0.701500  1
  Co  Co21  1  0.000000  0.000000  0.298800  1
  Re  Re22  1  0.500000  0.500000  0.156700  1
  P  P23  1  0.500000  0.311976  0.615753  1
  P  P24  1  0.500000  0.688024  0.615753  1
  P  P25  1  0.000000  0.188099  0.383555  1
  P  P26  1  0.000000  0.811901  0.383555  1
  P  P27  1  0.500000  0.500000  0.879826  1
  P  P28  1  0.000000  0.000000  0.120263  1
  P  P29  1  0.500000  0.843904  0.892992  1
  P  P30  1  0.500000  0.156096  0.892992  1
  P  P31  1  0.000000  0.654238  0.108433  1
  P  P32  1  0.000000  0.345762  0.108433  1
  P  P33  1  0.500000  0.500000  0.349415  1
  P  P34  1  0.000000  0.000000  0.649310  1
  W  W35  1  0.000000  0.000000  0.843894  1
