# generated using pymatgen
data_Ho6Al12Ga5Si7Os8
_symmetry_space_group_name_H-M   'P 1'
_cell_length_a   8.67461896
_cell_length_b   8.66305516
_cell_length_c   9.55509600
_cell_angle_alpha   90.00000000
_cell_angle_beta   90.00000000
_cell_angle_gamma   120.18706183
_symmetry_Int_Tables_number   1
_chemical_formula_structural   Ho6Al12Ga5Si7Os8
_chemical_formula_sum   'Ho6 Al12 Ga5 Si7 Os8'
_cell_volume   620.67671926
_cell_formula_units_Z   1
loop_
 _symmetry_equiv_pos_site_id
 _symmetry_equiv_pos_as_xyz
  1  'x, y, z'
loop_
 _atom_site_type_symbol
 _atom_site_label
 _atom_site_symmetry_multiplicity
 _atom_site_fract_x
 _atom_site_fract_y
 _atom_site_fract_z
 _atom_site_occupancy
  Ho  Ho0  1  0.192487  0.385145  0.250000  1
  Ho  Ho1  1  0.807385  0.616073  0.750000  1
  Ho  Ho2  1  0.614601  0.807695  0.250000  1
  Ho  Ho3  1  0.385211  0.191890  0.750000  1
  Ho  Ho4  1  0.193620  0.807285  0.250000  1
  Ho  Ho5  1  0.806073  0.191555  0.750000  1
  Al  Al6  1  0.165082  0.331668  0.574667  1
  Al  Al7  1  0.833861  0.669412  0.422245  1
  Al  Al8  1  0.669217  0.834620  0.575479  1
  Al  Al9  1  0.833861  0.669412  0.077755  1
  Al  Al10  1  0.331331  0.165825  0.423629  1
  Al  Al11  1  0.165082  0.331668  0.925333  1
  Al  Al12  1  0.164893  0.833540  0.574137  1
  Al  Al13  1  0.331331  0.165825  0.076371  1
  Al  Al14  1  0.834587  0.164124  0.422576  1
  Al  Al15  1  0.669217  0.834620  0.924521  1
  Al  Al16  1  0.834587  0.164124  0.077424  1
  Al  Al17  1  0.164893  0.833540  0.925863  1
  Ga  Ga18  1  0.123585  0.564211  0.750000  1
  Ga  Ga19  1  0.562778  0.436890  0.250000  1
  Ga  Ga20  1  0.438317  0.565747  0.750000  1
  Ga  Ga21  1  0.999843  0.998823  0.250000  1
  Ga  Ga22  1  0.999859  0.001097  0.750000  1
  Si  Si23  1  0.333787  0.665179  0.044700  1
  Si  Si24  1  0.666881  0.335343  0.956957  1
  Si  Si25  1  0.666881  0.335343  0.543043  1
  Si  Si26  1  0.333787  0.665179  0.455300  1
  Si  Si27  1  0.565235  0.124232  0.250000  1
  Si  Si28  1  0.437776  0.875640  0.750000  1
  Si  Si29  1  0.874511  0.434411  0.250000  1
  Os  Os30  1  0.500623  0.000756  0.000731  1
  Os  Os31  1  0.998183  0.498935  0.008954  1
  Os  Os32  1  0.500623  0.000756  0.499269  1
  Os  Os33  1  0.500412  0.500025  0.000109  1
  Os  Os34  1  0.998183  0.498935  0.491046  1
  Os  Os35  1  0.500412  0.500025  0.499891  1
  Os  Os36  1  0.000503  0.000224  0.000042  1
  Os  Os37  1  0.000503  0.000224  0.499958  1
