# generated using pymatgen
data_Sr6Pr2Cu(Si4Pd)3
_symmetry_space_group_name_H-M   'P 1'
_cell_length_a   8.37431900
_cell_length_b   8.37432062
_cell_length_c   8.85643800
_cell_angle_alpha   90.00000000
_cell_angle_beta   90.00000000
_cell_angle_gamma   120.00000544
_symmetry_Int_Tables_number   1
_chemical_formula_structural   Sr6Pr2Cu(Si4Pd)3
_chemical_formula_sum   'Sr6 Pr2 Cu1 Si12 Pd3'
_cell_volume   537.88418996
_cell_formula_units_Z   1
loop_
 _symmetry_equiv_pos_site_id
 _symmetry_equiv_pos_as_xyz
  1  'x, y, z'
loop_
 _atom_site_type_symbol
 _atom_site_label
 _atom_site_symmetry_multiplicity
 _atom_site_fract_x
 _atom_site_fract_y
 _atom_site_fract_z
 _atom_site_occupancy
  Sr  Sr0  1  0.498759  0.501241  0.747513  1
  Sr  Sr1  1  0.499449  0.500551  0.252508  1
  Sr  Sr2  1  0.002482  0.501241  0.747513  1
  Sr  Sr3  1  0.001101  0.500551  0.252508  1
  Sr  Sr4  1  0.498759  0.997518  0.747513  1
  Sr  Sr5  1  0.499449  0.998899  0.252508  1
  Pr  Pr6  1  0.000000  0.000000  0.749621  1
  Pr  Pr7  1  0.000000  0.000000  0.250373  1
  Cu  Cu8  1  0.666667  0.333333  0.998799  1
  Si  Si9  1  0.836272  0.163728  0.999946  1
  Si  Si10  1  0.164569  0.835431  0.000000  1
  Si  Si11  1  0.327456  0.163728  0.999946  1
  Si  Si12  1  0.163104  0.836896  0.499924  1
  Si  Si13  1  0.670862  0.835431  0.000000  1
  Si  Si14  1  0.836761  0.163239  0.500143  1
  Si  Si15  1  0.836272  0.672544  0.999946  1
  Si  Si16  1  0.673792  0.836896  0.499924  1
  Si  Si17  1  0.164569  0.329138  0.000000  1
  Si  Si18  1  0.326478  0.163239  0.500143  1
  Si  Si19  1  0.163104  0.326208  0.499924  1
  Si  Si20  1  0.836761  0.673522  0.500143  1
  Pd  Pd21  1  0.333333  0.666667  0.000967  1
  Pd  Pd22  1  0.333333  0.666667  0.499151  1
  Pd  Pd23  1  0.666667  0.333333  0.500983  1
