# generated using pymatgen
data_Er4PdPt3O14
_symmetry_space_group_name_H-M   'P 1'
_cell_length_a   7.22460522
_cell_length_b   7.22460539
_cell_length_c   7.22630110
_cell_angle_alpha   60.00776686
_cell_angle_beta   60.00776800
_cell_angle_gamma   60.00000450
_symmetry_Int_Tables_number   1
_chemical_formula_structural   Er4PdPt3O14
_chemical_formula_sum   'Er4 Pd1 Pt3 O14'
_cell_volume   266.73518036
_cell_formula_units_Z   1
loop_
 _symmetry_equiv_pos_site_id
 _symmetry_equiv_pos_as_xyz
  1  'x, y, z'
loop_
 _atom_site_type_symbol
 _atom_site_label
 _atom_site_symmetry_multiplicity
 _atom_site_fract_x
 _atom_site_fract_y
 _atom_site_fract_z
 _atom_site_occupancy
  Er  Er0  1  0.625000  0.625000  0.125000  1
  Er  Er1  1  0.625000  0.625000  0.625000  1
  Er  Er2  1  0.625000  0.125000  0.625000  1
  Er  Er3  1  0.125000  0.625000  0.625000  1
  Pd  Pd4  1  0.125000  0.125000  0.625000  1
  Pt  Pt5  1  0.625000  0.125000  0.125000  1
  Pt  Pt6  1  0.125000  0.125000  0.125000  1
  Pt  Pt7  1  0.125000  0.625000  0.125000  1
  O  O8  1  0.032674  0.468473  0.466180  1
  O  O9  1  0.782241  0.782241  0.217640  1
  O  O10  1  0.782241  0.217877  0.217640  1
  O  O11  1  0.749979  0.749979  0.750062  1
  O  O12  1  0.032123  0.467759  0.032360  1
  O  O13  1  0.468473  0.032674  0.466180  1
  O  O14  1  0.032674  0.032674  0.466180  1
  O  O15  1  0.500021  0.500021  0.499938  1
  O  O16  1  0.217326  0.217326  0.783820  1
  O  O17  1  0.217877  0.782241  0.217640  1
  O  O18  1  0.781527  0.217326  0.783820  1
  O  O19  1  0.467759  0.032123  0.032360  1
  O  O20  1  0.467759  0.467759  0.032360  1
  O  O21  1  0.217326  0.781527  0.783820  1
