# generated using pymatgen
data_Pr6Nd9Dy(CdPt)4
_symmetry_space_group_name_H-M   'P 1'
_cell_length_a   10.04573617
_cell_length_b   10.04573648
_cell_length_c   10.03092300
_cell_angle_alpha   60.04876421
_cell_angle_beta   60.04876320
_cell_angle_gamma   59.84510746
_symmetry_Int_Tables_number   1
_chemical_formula_structural   Pr6Nd9Dy(CdPt)4
_chemical_formula_sum   'Pr6 Nd9 Dy1 Cd4 Pt4'
_cell_volume   715.47991536
_cell_formula_units_Z   1
loop_
 _symmetry_equiv_pos_site_id
 _symmetry_equiv_pos_as_xyz
  1  'x, y, z'
loop_
 _atom_site_type_symbol
 _atom_site_label
 _atom_site_symmetry_multiplicity
 _atom_site_fract_x
 _atom_site_fract_y
 _atom_site_fract_z
 _atom_site_occupancy
  Pr  Pr0  1  0.937061  0.563861  0.562939  1
  Pr  Pr1  1  0.563861  0.937061  0.936139  1
  Pr  Pr2  1  0.563861  0.937061  0.562939  1
  Pr  Pr3  1  0.937061  0.563861  0.936139  1
  Pr  Pr4  1  0.563486  0.563486  0.936514  1
  Pr  Pr5  1  0.936865  0.936865  0.563135  1
  Nd  Nd6  1  0.350456  0.350456  0.349006  1
  Nd  Nd7  1  0.350456  0.350456  0.950081  1
  Nd  Nd8  1  0.354070  0.945183  0.350374  1
  Nd  Nd9  1  0.945183  0.354070  0.350374  1
  Nd  Nd10  1  0.809987  0.188612  0.192048  1
  Nd  Nd11  1  0.188612  0.809987  0.809353  1
  Nd  Nd12  1  0.188612  0.809987  0.192048  1
  Nd  Nd13  1  0.809987  0.188612  0.809353  1
  Nd  Nd14  1  0.191243  0.191243  0.808757  1
  Dy  Dy15  1  0.809540  0.809540  0.190460  1
  Cd  Cd16  1  0.580510  0.580510  0.579815  1
  Cd  Cd17  1  0.580510  0.580510  0.259163  1
  Cd  Cd18  1  0.579984  0.259431  0.580291  1
  Cd  Cd19  1  0.259431  0.579984  0.580291  1
  Pt  Pt20  1  0.143913  0.143913  0.143309  1
  Pt  Pt21  1  0.143913  0.143913  0.568865  1
  Pt  Pt22  1  0.136508  0.574886  0.144302  1
  Pt  Pt23  1  0.574886  0.136508  0.144302  1
