# generated using pymatgen
data_Sm12Tc3Hg2
_symmetry_space_group_name_H-M   'P 1'
_cell_length_a   8.58757906
_cell_length_b   8.58757986
_cell_length_c   8.58758042
_cell_angle_alpha   109.80169392
_cell_angle_beta   109.80170573
_cell_angle_gamma   108.81226913
_symmetry_Int_Tables_number   1
_chemical_formula_structural   Sm12Tc3Hg2
_chemical_formula_sum   'Sm12 Tc3 Hg2'
_cell_volume   487.46946367
_cell_formula_units_Z   1
loop_
 _symmetry_equiv_pos_site_id
 _symmetry_equiv_pos_as_xyz
  1  'x, y, z'
loop_
 _atom_site_type_symbol
 _atom_site_label
 _atom_site_symmetry_multiplicity
 _atom_site_fract_x
 _atom_site_fract_y
 _atom_site_fract_z
 _atom_site_occupancy
  Sm  Sm0  1  0.318795  0.318795  0.637592  1
  Sm  Sm1  1  0.681205  0.681205  0.362408  1
  Sm  Sm2  1  0.681205  0.318795  0.000000  1
  Sm  Sm3  1  0.318795  0.681205  0.000000  1
  Sm  Sm4  1  0.185513  0.430899  0.245385  1
  Sm  Sm5  1  0.814487  0.569101  0.754615  1
  Sm  Sm6  1  0.185513  0.940126  0.754615  1
  Sm  Sm7  1  0.940126  0.185513  0.754615  1
  Sm  Sm8  1  0.814487  0.059874  0.245385  1
  Sm  Sm9  1  0.059874  0.814487  0.245385  1
  Sm  Sm10  1  0.430899  0.185513  0.245385  1
  Sm  Sm11  1  0.569101  0.814487  0.754615  1
  Tc  Tc12  1  0.337658  0.337658  0.000000  1
  Tc  Tc13  1  0.662342  0.662342  0.000000  1
  Tc  Tc14  1  0.000000  0.000000  0.000000  1
  Hg  Hg15  1  0.000000  0.500000  0.500000  1
  Hg  Hg16  1  0.500000  0.000000  0.500000  1
