# generated using pymatgen
data_Tb6ThNi16
_symmetry_space_group_name_H-M   'P 1'
_cell_length_a   8.72008666
_cell_length_b   8.72008711
_cell_length_c   8.74434657
_cell_angle_alpha   131.70198489
_cell_angle_beta   131.70198329
_cell_angle_gamma   70.69929065
_symmetry_Int_Tables_number   1
_chemical_formula_structural   Tb6ThNi16
_chemical_formula_sum   'Tb6 Th1 Ni16'
_cell_volume   363.08491780
_cell_formula_units_Z   1
loop_
 _symmetry_equiv_pos_site_id
 _symmetry_equiv_pos_as_xyz
  1  'x, y, z'
loop_
 _atom_site_type_symbol
 _atom_site_label
 _atom_site_symmetry_multiplicity
 _atom_site_fract_x
 _atom_site_fract_y
 _atom_site_fract_z
 _atom_site_occupancy
  Tb  Tb0  1  0.697072  0.697072  0.598568  1
  Tb  Tb1  1  0.903386  0.301184  0.997984  1
  Tb  Tb2  1  0.747140  0.251610  0.501488  1
  Tb  Tb3  1  0.503442  0.503442  0.004899  1
  Tb  Tb4  1  0.301184  0.903386  0.997984  1
  Tb  Tb5  1  0.251610  0.747140  0.501488  1
  Th  Th6  1  0.093977  0.093977  0.389881  1
  Ni  Ni7  1  0.433048  0.193000  0.000929  1
  Ni  Ni8  1  0.681361  0.933804  0.482373  1
  Ni  Ni9  1  0.933804  0.681361  0.482373  1
  Ni  Ni10  1  0.193000  0.433048  0.000929  1
  Ni  Ni11  1  0.318477  0.801317  0.252522  1
  Ni  Ni12  1  0.940760  0.665674  0.000896  1
  Ni  Ni13  1  0.806646  0.806646  0.239870  1
  Ni  Ni14  1  0.067117  0.549182  0.749679  1
  Ni  Ni15  1  0.059536  0.059536  0.722791  1
  Ni  Ni16  1  0.665674  0.940760  0.000896  1
  Ni  Ni17  1  0.567216  0.567216  0.760198  1
  Ni  Ni18  1  0.801317  0.318477  0.252522  1
  Ni  Ni19  1  0.549182  0.067117  0.749679  1
  Ni  Ni20  1  0.199430  0.450578  0.518271  1
  Ni  Ni21  1  0.335042  0.335042  0.275510  1
  Ni  Ni22  1  0.450578  0.199430  0.518271  1
