# generated using pymatgen
data_BaV2(As2O7)2
_symmetry_space_group_name_H-M   'P 1'
_cell_length_a   5.07382469
_cell_length_b   7.45439258
_cell_length_c   8.08161800
_cell_angle_alpha   90.90971262
_cell_angle_beta   86.39179777
_cell_angle_gamma   75.03924290
_symmetry_Int_Tables_number   1
_chemical_formula_structural   BaV2(As2O7)2
_chemical_formula_sum   'Ba1 V2 As4 O14'
_cell_volume   294.55506704
_cell_formula_units_Z   1
loop_
 _symmetry_equiv_pos_site_id
 _symmetry_equiv_pos_as_xyz
  1  'x, y, z'
loop_
 _atom_site_type_symbol
 _atom_site_label
 _atom_site_symmetry_multiplicity
 _atom_site_fract_x
 _atom_site_fract_y
 _atom_site_fract_z
 _atom_site_occupancy
  Ba  Ba0  1  0.000094  0.999920  0.000088  1
  V  V1  1  0.500079  0.499958  0.999949  1
  V  V2  1  0.999969  0.000076  0.500048  1
  As  As3  1  0.965240  0.618430  0.748146  1
  As  As4  1  0.034765  0.381591  0.251765  1
  As  As5  1  0.392788  0.235753  0.689211  1
  As  As6  1  0.607140  0.764248  0.310836  1
  O  O7  1  0.207118  0.455750  0.615365  1
  O  O8  1  0.792909  0.544266  0.384550  1
  O  O9  1  0.137484  0.640605  0.920769  1
  O  O10  1  0.862519  0.359352  0.079144  1
  O  O11  1  0.470777  0.244310  0.893155  1
  O  O12  1  0.529360  0.755645  0.106858  1
  O  O13  1  0.689281  0.533026  0.785474  1
  O  O14  1  0.344880  0.807871  0.456793  1
  O  O15  1  0.654986  0.192199  0.543218  1
  O  O16  1  0.171569  0.096642  0.692322  1
  O  O17  1  0.310679  0.466966  0.214457  1
  O  O18  1  0.134352  0.164415  0.325203  1
  O  O19  1  0.865635  0.835631  0.674884  1
  O  O20  1  0.828379  0.903342  0.307764  1
