# generated using pymatgen
data_Mn28Ir
_symmetry_space_group_name_H-M   'P 1'
_cell_length_a   7.46077266
_cell_length_b   7.46077230
_cell_length_c   7.46077300
_cell_angle_alpha   109.47121981
_cell_angle_beta   109.47121884
_cell_angle_gamma   109.47122340
_symmetry_Int_Tables_number   1
_chemical_formula_structural   Mn28Ir
_chemical_formula_sum   'Mn28 Ir1'
_cell_volume   319.69035038
_cell_formula_units_Z   1
loop_
 _symmetry_equiv_pos_site_id
 _symmetry_equiv_pos_as_xyz
  1  'x, y, z'
loop_
 _atom_site_type_symbol
 _atom_site_label
 _atom_site_symmetry_multiplicity
 _atom_site_fract_x
 _atom_site_fract_y
 _atom_site_fract_z
 _atom_site_occupancy
  Mn  Mn0  1  0.637072  0.000000  0.000000  1
  Mn  Mn1  1  0.000000  0.637072  0.000000  1
  Mn  Mn2  1  0.000000  0.000000  0.637072  1
  Mn  Mn3  1  0.362928  0.362928  0.362928  1
  Mn  Mn4  1  0.390315  0.679317  0.000000  1
  Mn  Mn5  1  0.710998  0.320683  0.320683  1
  Mn  Mn6  1  0.390315  0.000000  0.679317  1
  Mn  Mn7  1  0.679317  0.390315  0.000000  1
  Mn  Mn8  1  0.000000  0.390315  0.679317  1
  Mn  Mn9  1  0.320683  0.710998  0.320683  1
  Mn  Mn10  1  0.320683  0.320683  0.710998  1
  Mn  Mn11  1  0.000000  0.679317  0.390315  1
  Mn  Mn12  1  0.679317  0.000000  0.390315  1
  Mn  Mn13  1  0.609685  0.609685  0.289002  1
  Mn  Mn14  1  0.289002  0.609685  0.609685  1
  Mn  Mn15  1  0.609685  0.289002  0.609685  1
  Mn  Mn16  1  0.375168  0.194742  0.000000  1
  Mn  Mn17  1  0.180426  0.805258  0.805258  1
  Mn  Mn18  1  0.375168  0.000000  0.194742  1
  Mn  Mn19  1  0.194742  0.375168  0.000000  1
  Mn  Mn20  1  0.000000  0.375168  0.194742  1
  Mn  Mn21  1  0.805258  0.180426  0.805258  1
  Mn  Mn22  1  0.805258  0.805258  0.180426  1
  Mn  Mn23  1  0.000000  0.194742  0.375168  1
  Mn  Mn24  1  0.194742  0.000000  0.375168  1
  Mn  Mn25  1  0.624832  0.624832  0.819574  1
  Mn  Mn26  1  0.819574  0.624832  0.624832  1
  Mn  Mn27  1  0.624832  0.819574  0.624832  1
  Ir  Ir28  1  0.000000  0.000000  0.000000  1
