# generated using pymatgen
data_Y3Th(CdNi2)2
_symmetry_space_group_name_H-M   'P 1'
_cell_length_a   7.47694915
_cell_length_b   7.47694988
_cell_length_c   3.68497400
_cell_angle_alpha   90.00000000
_cell_angle_beta   90.00000000
_cell_angle_gamma   91.52982180
_symmetry_Int_Tables_number   1
_chemical_formula_structural   Y3Th(CdNi2)2
_chemical_formula_sum   'Y3 Th1 Cd2 Ni4'
_cell_volume   205.93421031
_cell_formula_units_Z   1
loop_
 _symmetry_equiv_pos_site_id
 _symmetry_equiv_pos_as_xyz
  1  'x, y, z'
loop_
 _atom_site_type_symbol
 _atom_site_label
 _atom_site_symmetry_multiplicity
 _atom_site_fract_x
 _atom_site_fract_y
 _atom_site_fract_z
 _atom_site_occupancy
  Y  Y0  1  0.826555  0.671981  0.500000  1
  Y  Y1  1  0.171981  0.326555  0.500000  1
  Y  Y2  1  0.674671  0.174671  0.500000  1
  Th  Th3  1  0.326852  0.826852  0.500000  1
  Cd  Cd4  1  0.991013  0.005230  0.000000  1
  Cd  Cd5  1  0.505230  0.491013  0.000000  1
  Ni  Ni6  1  0.375939  0.114020  0.000000  1
  Ni  Ni7  1  0.884978  0.384978  0.000000  1
  Ni  Ni8  1  0.128763  0.628763  0.000000  1
  Ni  Ni9  1  0.614020  0.875939  0.000000  1
