# generated using pymatgen
data_Tb7TmLu8(Tl3Co)2
_symmetry_space_group_name_H-M   'P 1'
_cell_length_a   10.14586100
_cell_length_b   10.13929761
_cell_length_c   7.20009117
_cell_angle_alpha   89.98216715
_cell_angle_beta   90.00000000
_cell_angle_gamma   120.02141229
_symmetry_Int_Tables_number   1
_chemical_formula_structural   Tb7TmLu8(Tl3Co)2
_chemical_formula_sum   'Tb7 Tm1 Lu8 Tl6 Co2'
_cell_volume   641.31534601
_cell_formula_units_Z   1
loop_
 _symmetry_equiv_pos_site_id
 _symmetry_equiv_pos_as_xyz
  1  'x, y, z'
loop_
 _atom_site_type_symbol
 _atom_site_label
 _atom_site_symmetry_multiplicity
 _atom_site_fract_x
 _atom_site_fract_y
 _atom_site_fract_z
 _atom_site_occupancy
  Tb  Tb0  1  0.925721  0.462609  0.786432  1
  Tb  Tb1  1  0.536889  0.462609  0.786432  1
  Tb  Tb2  1  0.463421  0.926843  0.286541  1
  Tb  Tb3  1  0.073788  0.536889  0.286253  1
  Tb  Tb4  1  0.463100  0.536889  0.286253  1
  Tb  Tb5  1  0.000016  0.000032  0.772491  1
  Tb  Tb6  1  0.999962  0.999924  0.272236  1
  Tm  Tm7  1  0.537985  0.075971  0.787242  1
  Lu  Lu8  1  0.820213  0.640428  0.486633  1
  Lu  Lu9  1  0.359696  0.179151  0.487686  1
  Lu  Lu10  1  0.819454  0.179151  0.487686  1
  Lu  Lu11  1  0.179546  0.359091  0.986596  1
  Lu  Lu12  1  0.640303  0.821053  0.985788  1
  Lu  Lu13  1  0.180751  0.821053  0.985788  1
  Lu  Lu14  1  0.666235  0.332469  0.184585  1
  Lu  Lu15  1  0.333795  0.667591  0.684755  1
  Tl  Tl16  1  0.836348  0.672697  0.043747  1
  Tl  Tl17  1  0.328168  0.163758  0.043137  1
  Tl  Tl18  1  0.835588  0.163758  0.043137  1
  Tl  Tl19  1  0.163793  0.327583  0.543223  1
  Tl  Tl20  1  0.672386  0.836088  0.543866  1
  Tl  Tl21  1  0.163704  0.836088  0.543866  1
  Co  Co22  1  0.665835  0.331669  0.556299  1
  Co  Co23  1  0.333301  0.666603  0.055398  1
