# generated using pymatgen
data_Tb2DyYPt4F28
_symmetry_space_group_name_H-M   'P 1'
_cell_length_a   5.56038501
_cell_length_b   8.90768791
_cell_length_c   12.01957122
_cell_angle_alpha   62.43054947
_cell_angle_beta   90.00095489
_cell_angle_gamma   89.99458100
_symmetry_Int_Tables_number   1
_chemical_formula_structural   Tb2DyYPt4F28
_chemical_formula_sum   'Tb2 Dy1 Y1 Pt4 F28'
_cell_volume   527.73185158
_cell_formula_units_Z   1
loop_
 _symmetry_equiv_pos_site_id
 _symmetry_equiv_pos_as_xyz
  1  'x, y, z'
loop_
 _atom_site_type_symbol
 _atom_site_label
 _atom_site_symmetry_multiplicity
 _atom_site_fract_x
 _atom_site_fract_y
 _atom_site_fract_z
 _atom_site_occupancy
  Tb  Tb0  1  0.260767  0.186891  0.735514  1
  Tb  Tb1  1  0.239149  0.186368  0.235585  1
  Dy  Dy2  1  0.739108  0.813684  0.264322  1
  Y  Y3  1  0.761134  0.814070  0.764285  1
  Pt  Pt4  1  0.758657  0.272219  0.957121  1
  Pt  Pt5  1  0.258831  0.727621  0.542777  1
  Pt  Pt6  1  0.241239  0.727579  0.043366  1
  Pt  Pt7  1  0.741277  0.272805  0.456752  1
  F  F8  1  0.435447  0.703024  0.915865  1
  F  F9  1  0.935772  0.296690  0.584275  1
  F  F10  1  0.564113  0.296522  0.084416  1
  F  F11  1  0.063931  0.703495  0.415449  1
  F  F12  1  0.440980  0.278194  0.542212  1
  F  F13  1  0.940770  0.721625  0.957972  1
  F  F14  1  0.559343  0.722129  0.457229  1
  F  F15  1  0.058965  0.277973  0.042381  1
  F  F16  1  0.774228  0.520896  0.858693  1
  F  F17  1  0.274178  0.479339  0.641078  1
  F  F18  1  0.225926  0.479189  0.141259  1
  F  F19  1  0.725903  0.521322  0.358655  1
  F  F20  1  0.754360  0.023766  0.050408  1
  F  F21  1  0.254370  0.976010  0.449786  1
  F  F22  1  0.245533  0.975967  0.949986  1
  F  F23  1  0.745590  0.024174  0.549720  1
  F  F24  1  0.966044  0.724849  0.635635  1
  F  F25  1  0.466268  0.274837  0.864365  1
  F  F26  1  0.033673  0.274866  0.364214  1
  F  F27  1  0.534012  0.725320  0.136011  1
  F  F28  1  0.051946  0.745748  0.175290  1
  F  F29  1  0.552575  0.254510  0.324918  1
  F  F30  1  0.947299  0.254384  0.825063  1
  F  F31  1  0.447384  0.745363  0.675262  1
  F  F32  1  0.415753  0.969150  0.232513  1
  F  F33  1  0.914066  0.029523  0.267568  1
  F  F34  1  0.585830  0.030415  0.767686  1
  F  F35  1  0.085581  0.969486  0.732368  1
