# generated using pymatgen
data_Ac8Nd9Tm3Sn16
_symmetry_space_group_name_H-M   'P 1'
_cell_length_a   8.47494200
_cell_length_b   8.63046283
_cell_length_c   16.37622400
_cell_angle_alpha   90.00000000
_cell_angle_beta   90.00000000
_cell_angle_gamma   90.05397332
_symmetry_Int_Tables_number   1
_chemical_formula_structural   Ac8Nd9Tm3Sn16
_chemical_formula_sum   'Ac8 Nd9 Tm3 Sn16'
_cell_volume   1197.80024772
_cell_formula_units_Z   1
loop_
 _symmetry_equiv_pos_site_id
 _symmetry_equiv_pos_as_xyz
  1  'x, y, z'
loop_
 _atom_site_type_symbol
 _atom_site_label
 _atom_site_symmetry_multiplicity
 _atom_site_fract_x
 _atom_site_fract_y
 _atom_site_fract_z
 _atom_site_occupancy
  Ac  Ac0  1  0.518548  0.318973  0.902202  1
  Ac  Ac1  1  0.018824  0.180998  0.598392  1
  Ac  Ac2  1  0.481736  0.680325  0.403084  1
  Ac  Ac3  1  0.981230  0.818022  0.097113  1
  Ac  Ac4  1  0.481736  0.680325  0.096916  1
  Ac  Ac5  1  0.981230  0.818022  0.402887  1
  Ac  Ac6  1  0.518548  0.318973  0.597798  1
  Ac  Ac7  1  0.018824  0.180998  0.901608  1
  Nd  Nd8  1  0.365237  0.839056  0.877614  1
  Nd  Nd9  1  0.865886  0.661233  0.621691  1
  Nd  Nd10  1  0.635579  0.162013  0.379479  1
  Nd  Nd11  1  0.133304  0.338803  0.120492  1
  Nd  Nd12  1  0.635579  0.162013  0.120521  1
  Nd  Nd13  1  0.133304  0.338803  0.379508  1
  Nd  Nd14  1  0.365237  0.839056  0.622386  1
  Nd  Nd15  1  0.865886  0.661233  0.878309  1
  Nd  Nd16  1  0.301474  0.003036  0.250000  1
  Tm  Tm17  1  0.200102  0.504412  0.750000  1
  Tm  Tm18  1  0.699718  0.995625  0.750000  1
  Tm  Tm19  1  0.799824  0.494040  0.250000  1
  Sn  Sn20  1  0.297893  0.040072  0.043481  1
  Sn  Sn21  1  0.797387  0.461821  0.454361  1
  Sn  Sn22  1  0.702360  0.961007  0.546190  1
  Sn  Sn23  1  0.202406  0.539298  0.953806  1
  Sn  Sn24  1  0.702360  0.961007  0.953810  1
  Sn  Sn25  1  0.202406  0.539298  0.546194  1
  Sn  Sn26  1  0.297893  0.040072  0.456519  1
  Sn  Sn27  1  0.797387  0.461821  0.045639  1
  Sn  Sn28  1  0.563477  0.625186  0.750000  1
  Sn  Sn29  1  0.062492  0.874579  0.750000  1
  Sn  Sn30  1  0.437999  0.378036  0.250000  1
  Sn  Sn31  1  0.932810  0.125735  0.250000  1
  Sn  Sn32  1  0.323230  0.142415  0.750000  1
  Sn  Sn33  1  0.822844  0.359003  0.750000  1
  Sn  Sn34  1  0.678855  0.858492  0.250000  1
  Sn  Sn35  1  0.176394  0.636196  0.250000  1
