# generated using pymatgen
data_Yb3(PrPb2)2
_symmetry_space_group_name_H-M   'P 1'
_cell_length_a   8.08582400
_cell_length_b   8.64443500
_cell_length_c   16.30561600
_cell_angle_alpha   90.00000000
_cell_angle_beta   90.00000000
_cell_angle_gamma   90.00000000
_symmetry_Int_Tables_number   1
_chemical_formula_structural   Yb3(PrPb2)2
_chemical_formula_sum   'Yb12 Pr8 Pb16'
_cell_volume   1139.71983751
_cell_formula_units_Z   4
loop_
 _symmetry_equiv_pos_site_id
 _symmetry_equiv_pos_as_xyz
  1  'x, y, z'
loop_
 _atom_site_type_symbol
 _atom_site_label
 _atom_site_symmetry_multiplicity
 _atom_site_fract_x
 _atom_site_fract_y
 _atom_site_fract_z
 _atom_site_occupancy
  Yb  Yb0  1  0.664620  0.166861  0.622809  1
  Yb  Yb1  1  0.164620  0.333139  0.877191  1
  Yb  Yb2  1  0.335380  0.833139  0.122809  1
  Yb  Yb3  1  0.835380  0.666861  0.377191  1
  Yb  Yb4  1  0.335380  0.833139  0.377191  1
  Yb  Yb5  1  0.835380  0.666861  0.122809  1
  Yb  Yb6  1  0.664620  0.166861  0.877191  1
  Yb  Yb7  1  0.164620  0.333139  0.622809  1
  Yb  Yb8  1  0.834238  0.495970  0.750000  1
  Yb  Yb9  1  0.334238  0.004030  0.750000  1
  Yb  Yb10  1  0.165762  0.504030  0.250000  1
  Yb  Yb11  1  0.665762  0.995970  0.250000  1
  Pr  Pr12  1  0.500846  0.686079  0.595474  1
  Pr  Pr13  1  0.000846  0.813921  0.904526  1
  Pr  Pr14  1  0.499154  0.313921  0.095474  1
  Pr  Pr15  1  0.999154  0.186079  0.404526  1
  Pr  Pr16  1  0.499154  0.313921  0.404526  1
  Pr  Pr17  1  0.999154  0.186079  0.095474  1
  Pr  Pr18  1  0.500846  0.686079  0.904526  1
  Pr  Pr19  1  0.000846  0.813921  0.595474  1
  Pb  Pb20  1  0.677689  0.961879  0.459300  1
  Pb  Pb21  1  0.177689  0.538121  0.040700  1
  Pb  Pb22  1  0.322311  0.038121  0.959300  1
  Pb  Pb23  1  0.822311  0.461879  0.540700  1
  Pb  Pb24  1  0.322311  0.038121  0.540700  1
  Pb  Pb25  1  0.822311  0.461879  0.959300  1
  Pb  Pb26  1  0.677689  0.961879  0.040700  1
  Pb  Pb27  1  0.177689  0.538121  0.459300  1
  Pb  Pb28  1  0.466693  0.392181  0.750000  1
  Pb  Pb29  1  0.966693  0.107819  0.750000  1
  Pb  Pb30  1  0.533307  0.607819  0.250000  1
  Pb  Pb31  1  0.033307  0.892181  0.250000  1
  Pb  Pb32  1  0.702274  0.854417  0.750000  1
  Pb  Pb33  1  0.202274  0.645583  0.750000  1
  Pb  Pb34  1  0.297726  0.145583  0.250000  1
  Pb  Pb35  1  0.797726  0.354417  0.250000  1
