# generated using pymatgen
data_TbAs4Ru5Rh
_symmetry_space_group_name_H-M   'P 1'
_cell_length_a   7.19516780
_cell_length_b   7.19516726
_cell_length_c   3.87927400
_cell_angle_alpha   90.00000000
_cell_angle_beta   90.00000000
_cell_angle_gamma   120.40888116
_symmetry_Int_Tables_number   1
_chemical_formula_structural   TbAs4Ru5Rh
_chemical_formula_sum   'Tb1 As4 Ru5 Rh1'
_cell_volume   173.20433635
_cell_formula_units_Z   1
loop_
 _symmetry_equiv_pos_site_id
 _symmetry_equiv_pos_as_xyz
  1  'x, y, z'
loop_
 _atom_site_type_symbol
 _atom_site_label
 _atom_site_symmetry_multiplicity
 _atom_site_fract_x
 _atom_site_fract_y
 _atom_site_fract_z
 _atom_site_occupancy
  Tb  Tb0  1  0.999400  0.000600  0.000000  1
  As  As1  1  0.805582  0.616485  0.500000  1
  As  As2  1  0.336262  0.663738  0.000000  1
  As  As3  1  0.383515  0.194418  0.500000  1
  As  As4  1  0.809411  0.190589  0.500000  1
  Ru  Ru5  1  0.533390  0.068741  0.000000  1
  Ru  Ru6  1  0.600245  0.799813  0.500000  1
  Ru  Ru7  1  0.200187  0.399755  0.500000  1
  Ru  Ru8  1  0.535408  0.464592  0.000000  1
  Ru  Ru9  1  0.931259  0.466610  0.000000  1
  Rh  Rh10  1  0.198671  0.801329  0.500000  1
