# generated using pymatgen
data_Be6CuNi2Rh3
_symmetry_space_group_name_H-M   'P 1'
_cell_length_a   3.82547000
_cell_length_b   5.40770500
_cell_length_c   11.47483600
_cell_angle_alpha   90.00000000
_cell_angle_beta   90.00062410
_cell_angle_gamma   90.00000000
_symmetry_Int_Tables_number   1
_chemical_formula_structural   Be6CuNi2Rh3
_chemical_formula_sum   'Be12 Cu2 Ni4 Rh6'
_cell_volume   237.38008432
_cell_formula_units_Z   2
loop_
 _symmetry_equiv_pos_site_id
 _symmetry_equiv_pos_as_xyz
  1  'x, y, z'
loop_
 _atom_site_type_symbol
 _atom_site_label
 _atom_site_symmetry_multiplicity
 _atom_site_fract_x
 _atom_site_fract_y
 _atom_site_fract_z
 _atom_site_occupancy
  Be  Be0  1  0.500007  0.255945  0.995245  1
  Be  Be1  1  0.500007  0.744054  0.995245  1
  Be  Be2  1  0.000417  0.244010  0.171408  1
  Be  Be3  1  0.000417  0.755989  0.171408  1
  Be  Be4  1  0.500430  0.244314  0.337190  1
  Be  Be5  1  0.500430  0.755685  0.337190  1
  Be  Be6  1  0.000011  0.248851  0.499698  1
  Be  Be7  1  0.000011  0.751150  0.499698  1
  Be  Be8  1  0.499545  0.251263  0.666956  1
  Be  Be9  1  0.499545  0.748736  0.666956  1
  Be  Be10  1  0.999585  0.255696  0.829509  1
  Be  Be11  1  0.999585  0.744303  0.829509  1
  Cu  Cu12  1  0.000010  0.000000  0.999097  1
  Cu  Cu13  1  0.500293  0.500000  0.167580  1
  Ni  Ni14  1  0.000336  0.000000  0.333254  1
  Ni  Ni15  1  0.499999  0.500000  0.499463  1
  Ni  Ni16  1  0.999681  0.000000  0.667208  1
  Ni  Ni17  1  0.499675  0.500000  0.833395  1
  Rh  Rh18  1  0.000005  0.500000  0.003118  1
  Rh  Rh19  1  0.500351  0.000000  0.163536  1
  Rh  Rh20  1  0.000328  0.500000  0.332587  1
  Rh  Rh21  1  0.500003  0.000000  0.501825  1
  Rh  Rh22  1  0.999654  0.500000  0.664834  1
  Rh  Rh23  1  0.499679  0.000000  0.834091  1
