# generated using pymatgen
data_Zr4P4Ir3Os
_symmetry_space_group_name_H-M   'P 1'
_cell_length_a   3.86176400
_cell_length_b   6.55458174
_cell_length_c   7.41216678
_cell_angle_alpha   89.71730788
_cell_angle_beta   90.00000000
_cell_angle_gamma   90.00000000
_symmetry_Int_Tables_number   1
_chemical_formula_structural   Zr4P4Ir3Os
_chemical_formula_sum   'Zr4 P4 Ir3 Os1'
_cell_volume   187.61631882
_cell_formula_units_Z   1
loop_
 _symmetry_equiv_pos_site_id
 _symmetry_equiv_pos_as_xyz
  1  'x, y, z'
loop_
 _atom_site_type_symbol
 _atom_site_label
 _atom_site_symmetry_multiplicity
 _atom_site_fract_x
 _atom_site_fract_y
 _atom_site_fract_z
 _atom_site_occupancy
  Zr  Zr0  1  0.250000  0.024107  0.822947  1
  Zr  Zr1  1  0.250000  0.521778  0.677057  1
  Zr  Zr2  1  0.750000  0.976093  0.175735  1
  Zr  Zr3  1  0.750000  0.475389  0.323322  1
  P  P4  1  0.250000  0.765371  0.377512  1
  P  P5  1  0.250000  0.266450  0.116498  1
  P  P6  1  0.750000  0.234559  0.627578  1
  P  P7  1  0.750000  0.729134  0.877394  1
  Ir  Ir8  1  0.250000  0.146013  0.435091  1
  Ir  Ir9  1  0.250000  0.648362  0.062026  1
  Ir  Ir10  1  0.750000  0.855768  0.562091  1
  Os  Os11  1  0.750000  0.356977  0.942750  1
