# generated using pymatgen
data_Hf20Zn3GaSb8
_symmetry_space_group_name_H-M   'P 1'
_cell_length_a   5.53176600
_cell_length_b   8.23975815
_cell_length_c   15.51188900
_cell_angle_alpha   90.00000000
_cell_angle_beta   90.00000000
_cell_angle_gamma   109.61360567
_symmetry_Int_Tables_number   1
_chemical_formula_structural   Hf20Zn3GaSb8
_chemical_formula_sum   'Hf20 Zn3 Ga1 Sb8'
_cell_volume   666.01438147
_cell_formula_units_Z   1
loop_
 _symmetry_equiv_pos_site_id
 _symmetry_equiv_pos_as_xyz
  1  'x, y, z'
loop_
 _atom_site_type_symbol
 _atom_site_label
 _atom_site_symmetry_multiplicity
 _atom_site_fract_x
 _atom_site_fract_y
 _atom_site_fract_z
 _atom_site_occupancy
  Hf  Hf0  1  0.430501  0.859355  0.355354  1
  Hf  Hf1  1  0.928971  0.860937  0.854746  1
  Hf  Hf2  1  0.068034  0.139063  0.145254  1
  Hf  Hf3  1  0.571147  0.140645  0.644646  1
  Hf  Hf4  1  0.644923  0.290285  0.070156  1
  Hf  Hf5  1  0.145487  0.289973  0.568986  1
  Hf  Hf6  1  0.855515  0.710027  0.431014  1
  Hf  Hf7  1  0.354639  0.709715  0.929844  1
  Hf  Hf8  1  0.855077  0.709715  0.070156  1
  Hf  Hf9  1  0.354513  0.710027  0.568986  1
  Hf  Hf10  1  0.644485  0.289973  0.431014  1
  Hf  Hf11  1  0.145361  0.290285  0.929844  1
  Hf  Hf12  1  0.069499  0.140645  0.355354  1
  Hf  Hf13  1  0.571029  0.139063  0.854746  1
  Hf  Hf14  1  0.431966  0.860937  0.145254  1
  Hf  Hf15  1  0.928853  0.859355  0.644646  1
  Hf  Hf16  1  0.500224  0.500269  0.250049  1
  Hf  Hf17  1  0.999955  0.499731  0.749951  1
  Hf  Hf18  1  0.999776  0.499731  0.250049  1
  Hf  Hf19  1  0.500045  0.500269  0.749951  1
  Zn  Zn20  1  0.750000  0.000000  0.500000  1
  Zn  Zn21  1  0.750000  0.000000  0.000000  1
  Zn  Zn22  1  0.250000  0.000000  0.500000  1
  Ga  Ga23  1  0.250000  0.000000  0.000000  1
  Sb  Sb24  1  0.916166  0.829477  0.251025  1
  Sb  Sb25  1  0.413311  0.829477  0.748975  1
  Sb  Sb26  1  0.583834  0.170523  0.251025  1
  Sb  Sb27  1  0.086689  0.170523  0.748975  1
  Sb  Sb28  1  0.250000  0.500000  0.085265  1
  Sb  Sb29  1  0.750000  0.500000  0.585501  1
  Sb  Sb30  1  0.250000  0.500000  0.414499  1
  Sb  Sb31  1  0.750000  0.500000  0.914735  1
