# generated using pymatgen
data_Pr4Ho(Er5Bi4)3
_symmetry_space_group_name_H-M   'P 1'
_cell_length_a   8.34368607
_cell_length_b   9.49193101
_cell_length_c   12.15932509
_cell_angle_alpha   89.99942052
_cell_angle_beta   90.01416936
_cell_angle_gamma   89.99435629
_symmetry_Int_Tables_number   1
_chemical_formula_structural   Pr4Ho(Er5Bi4)3
_chemical_formula_sum   'Pr4 Ho1 Er15 Bi12'
_cell_volume   962.99045673
_cell_formula_units_Z   1
loop_
 _symmetry_equiv_pos_site_id
 _symmetry_equiv_pos_as_xyz
  1  'x, y, z'
loop_
 _atom_site_type_symbol
 _atom_site_label
 _atom_site_symmetry_multiplicity
 _atom_site_fract_x
 _atom_site_fract_y
 _atom_site_fract_z
 _atom_site_occupancy
  Pr  Pr0  1  0.170057  0.750079  0.225051  1
  Pr  Pr1  1  0.329931  0.750058  0.724985  1
  Pr  Pr2  1  0.829886  0.250059  0.775003  1
  Pr  Pr3  1  0.670045  0.249955  0.275019  1
  Ho  Ho4  1  0.810975  0.563614  0.064089  1
  Er  Er5  1  0.688855  0.935615  0.564085  1
  Er  Er6  1  0.189120  0.064344  0.935768  1
  Er  Er7  1  0.311101  0.435585  0.435973  1
  Er  Er8  1  0.188763  0.435638  0.935847  1
  Er  Er9  1  0.311118  0.064457  0.435923  1
  Er  Er10  1  0.811013  0.935615  0.064175  1
  Er  Er11  1  0.688835  0.564418  0.564110  1
  Er  Er12  1  0.477357  0.750124  0.003632  1
  Er  Er13  1  0.022431  0.750042  0.503778  1
  Er  Er14  1  0.522460  0.250027  0.996279  1
  Er  Er15  1  0.977562  0.250022  0.496284  1
  Er  Er16  1  0.666031  0.750201  0.288542  1
  Er  Er17  1  0.834031  0.750116  0.788176  1
  Er  Er18  1  0.334064  0.250054  0.711639  1
  Er  Er19  1  0.166015  0.250137  0.211744  1
  Bi  Bi20  1  0.402594  0.749996  0.464730  1
  Bi  Bi21  1  0.097313  0.750202  0.964643  1
  Bi  Bi22  1  0.597321  0.250014  0.535315  1
  Bi  Bi23  1  0.903112  0.249131  0.035163  1
  Bi  Bi24  1  0.934620  0.506723  0.328983  1
  Bi  Bi25  1  0.565449  0.993421  0.828816  1
  Bi  Bi26  1  0.065482  0.006751  0.671088  1
  Bi  Bi27  1  0.434360  0.493351  0.171177  1
  Bi  Bi28  1  0.065544  0.493313  0.671066  1
  Bi  Bi29  1  0.434440  0.006780  0.171160  1
  Bi  Bi30  1  0.934563  0.993391  0.328938  1
  Bi  Bi31  1  0.565550  0.506769  0.828819  1
