# generated using pymatgen
data_Dy9YGaSb5
_symmetry_space_group_name_H-M   'P 1'
_cell_length_a   6.37058800
_cell_length_b   8.93740549
_cell_length_c   8.90882433
_cell_angle_alpha   120.10618957
_cell_angle_beta   89.99997813
_cell_angle_gamma   90.00003931
_symmetry_Int_Tables_number   1
_chemical_formula_structural   Dy9YGaSb5
_chemical_formula_sum   'Dy9 Y1 Ga1 Sb5'
_cell_volume   438.80978405
_cell_formula_units_Z   1
loop_
 _symmetry_equiv_pos_site_id
 _symmetry_equiv_pos_as_xyz
  1  'x, y, z'
loop_
 _atom_site_type_symbol
 _atom_site_label
 _atom_site_symmetry_multiplicity
 _atom_site_fract_x
 _atom_site_fract_y
 _atom_site_fract_z
 _atom_site_occupancy
  Dy  Dy0  1  0.501028  0.340129  0.675116  1
  Dy  Dy1  1  0.501028  0.665013  0.324884  1
  Dy  Dy2  1  0.998973  0.665014  0.324886  1
  Dy  Dy3  1  0.998973  0.340129  0.675114  1
  Dy  Dy4  1  0.750001  0.752928  0.763619  1
  Dy  Dy5  1  0.750001  0.989310  0.236381  1
  Dy  Dy6  1  0.250000  0.755536  0.000000  1
  Dy  Dy7  1  0.250000  0.244937  0.244730  1
  Dy  Dy8  1  0.250000  0.000207  0.755270  1
  Y  Y9  1  0.749999  0.249508  0.000000  1
  Ga  Ga10  1  0.750000  0.607017  0.000000  1
  Sb  Sb11  1  0.750000  0.388043  0.390037  1
  Sb  Sb12  1  0.750000  0.998006  0.609963  1
  Sb  Sb13  1  0.249999  0.390239  0.000000  1
  Sb  Sb14  1  0.250001  0.610902  0.607820  1
  Sb  Sb15  1  0.250001  0.003083  0.392180  1
