# generated using pymatgen
data_Dy3Er2Tm3(CdPt)2
_symmetry_space_group_name_H-M   'P 1'
_cell_length_a   9.61193261
_cell_length_b   9.61193238
_cell_length_c   9.61193200
_cell_angle_alpha   60.00000132
_cell_angle_beta   60.00000211
_cell_angle_gamma   60.00000062
_symmetry_Int_Tables_number   1
_chemical_formula_structural   Dy3Er2Tm3(CdPt)2
_chemical_formula_sum   'Dy6 Er4 Tm6 Cd4 Pt4'
_cell_volume   627.93852659
_cell_formula_units_Z   2
loop_
 _symmetry_equiv_pos_site_id
 _symmetry_equiv_pos_as_xyz
  1  'x, y, z'
loop_
 _atom_site_type_symbol
 _atom_site_label
 _atom_site_symmetry_multiplicity
 _atom_site_fract_x
 _atom_site_fract_y
 _atom_site_fract_z
 _atom_site_occupancy
  Dy  Dy0  1  0.935730  0.564270  0.564270  1
  Dy  Dy1  1  0.564270  0.935730  0.935730  1
  Dy  Dy2  1  0.564270  0.935730  0.564270  1
  Dy  Dy3  1  0.935730  0.564269  0.935730  1
  Dy  Dy4  1  0.564270  0.564270  0.935730  1
  Dy  Dy5  1  0.935730  0.935730  0.564269  1
  Er  Er6  1  0.352176  0.352176  0.352176  1
  Er  Er7  1  0.352176  0.352176  0.943475  1
  Er  Er8  1  0.352176  0.943475  0.352176  1
  Er  Er9  1  0.943475  0.352176  0.352176  1
  Tm  Tm10  1  0.811225  0.188775  0.188775  1
  Tm  Tm11  1  0.188775  0.811225  0.811225  1
  Tm  Tm12  1  0.188775  0.811225  0.188775  1
  Tm  Tm13  1  0.811225  0.188775  0.811225  1
  Tm  Tm14  1  0.188775  0.188775  0.811225  1
  Tm  Tm15  1  0.811225  0.811225  0.188775  1
  Cd  Cd16  1  0.581603  0.581603  0.581603  1
  Cd  Cd17  1  0.581603  0.581603  0.255191  1
  Cd  Cd18  1  0.581603  0.255191  0.581603  1
  Cd  Cd19  1  0.255191  0.581603  0.581603  1
  Pt  Pt20  1  0.142932  0.142932  0.142932  1
  Pt  Pt21  1  0.142932  0.142932  0.571205  1
  Pt  Pt22  1  0.142932  0.571205  0.142932  1
  Pt  Pt23  1  0.571205  0.142932  0.142932  1
