# generated using pymatgen
data_Y6Al24Co5Ru3
_symmetry_space_group_name_H-M   'P 1'
_cell_length_a   8.70417700
_cell_length_b   8.70417640
_cell_length_c   9.41125900
_cell_angle_alpha   90.00000000
_cell_angle_beta   90.00000000
_cell_angle_gamma   119.99999847
_symmetry_Int_Tables_number   1
_chemical_formula_structural   Y6Al24Co5Ru3
_chemical_formula_sum   'Y6 Al24 Co5 Ru3'
_cell_volume   617.49544986
_cell_formula_units_Z   1
loop_
 _symmetry_equiv_pos_site_id
 _symmetry_equiv_pos_as_xyz
  1  'x, y, z'
loop_
 _atom_site_type_symbol
 _atom_site_label
 _atom_site_symmetry_multiplicity
 _atom_site_fract_x
 _atom_site_fract_y
 _atom_site_fract_z
 _atom_site_occupancy
  Y  Y0  1  0.194286  0.805714  0.252362  1
  Y  Y1  1  0.194286  0.388574  0.252362  1
  Y  Y2  1  0.611426  0.805714  0.252362  1
  Y  Y3  1  0.805714  0.194286  0.747638  1
  Y  Y4  1  0.805714  0.611426  0.747638  1
  Y  Y5  1  0.388574  0.194286  0.747638  1
  Al  Al6  1  0.560560  0.439440  0.256333  1
  Al  Al7  1  0.560560  0.121119  0.256333  1
  Al  Al8  1  0.878881  0.439440  0.256333  1
  Al  Al9  1  0.439440  0.560560  0.743667  1
  Al  Al10  1  0.439440  0.878881  0.743667  1
  Al  Al11  1  0.121119  0.560560  0.743667  1
  Al  Al12  1  0.324704  0.162352  0.425268  1
  Al  Al13  1  0.837648  0.162352  0.425268  1
  Al  Al14  1  0.837648  0.675296  0.425268  1
  Al  Al15  1  0.675296  0.837648  0.574732  1
  Al  Al16  1  0.162352  0.837648  0.574732  1
  Al  Al17  1  0.162352  0.324704  0.574732  1
  Al  Al18  1  0.679488  0.839744  0.922450  1
  Al  Al19  1  0.160256  0.839744  0.922450  1
  Al  Al20  1  0.160256  0.320512  0.922450  1
  Al  Al21  1  0.320512  0.160256  0.077550  1
  Al  Al22  1  0.839744  0.160256  0.077550  1
  Al  Al23  1  0.839744  0.679488  0.077550  1
  Al  Al24  1  0.666667  0.333333  0.518403  1
  Al  Al25  1  0.333333  0.666667  0.481597  1
  Al  Al26  1  0.333333  0.666667  0.016972  1
  Al  Al27  1  0.666667  0.333333  0.983028  1
  Al  Al28  1  0.000000  0.000000  0.249953  1
  Al  Al29  1  0.000000  0.000000  0.750047  1
  Co  Co30  1  0.000000  0.000000  0.500000  1
  Co  Co31  1  0.000000  0.000000  0.000000  1
  Co  Co32  1  0.500000  0.500000  0.500000  1
  Co  Co33  1  0.500000  0.000000  0.500000  1
  Co  Co34  1  0.000000  0.500000  0.500000  1
  Ru  Ru35  1  0.500000  0.500000  0.000000  1
  Ru  Ru36  1  0.500000  0.000000  0.000000  1
  Ru  Ru37  1  0.000000  0.500000  0.000000  1
