# generated using pymatgen
data_CsLi2TaSe4
_symmetry_space_group_name_H-M   'P 1'
_cell_length_a   10.76583910
_cell_length_b   10.76583868
_cell_length_c   8.24527700
_cell_angle_alpha   90.00000000
_cell_angle_beta   90.00000000
_cell_angle_gamma   146.09597993
_symmetry_Int_Tables_number   1
_chemical_formula_structural   CsLi2TaSe4
_chemical_formula_sum   'Cs2 Li4 Ta2 Se8'
_cell_volume   533.06739141
_cell_formula_units_Z   2
loop_
 _symmetry_equiv_pos_site_id
 _symmetry_equiv_pos_as_xyz
  1  'x, y, z'
loop_
 _atom_site_type_symbol
 _atom_site_label
 _atom_site_symmetry_multiplicity
 _atom_site_fract_x
 _atom_site_fract_y
 _atom_site_fract_z
 _atom_site_occupancy
  Cs  Cs0  1  0.464197  0.830840  0.750000  1
  Cs  Cs1  1  0.830840  0.464197  0.250000  1
  Li  Li2  1  0.368442  0.368442  0.000000  1
  Li  Li3  1  0.368442  0.368442  0.500000  1
  Li  Li4  1  0.016398  0.803675  0.750000  1
  Li  Li5  1  0.803675  0.016398  0.250000  1
  Ta  Ta6  1  0.524657  0.295583  0.750000  1
  Ta  Ta7  1  0.295583  0.524657  0.250000  1
  Se  Se8  1  0.632325  0.602709  0.750000  1
  Se  Se9  1  0.602709  0.632325  0.250000  1
  Se  Se10  1  0.297855  0.070471  0.987123  1
  Se  Se11  1  0.070471  0.297855  0.487123  1
  Se  Se12  1  0.444377  0.855122  0.250000  1
  Se  Se13  1  0.070471  0.297855  0.012877  1
  Se  Se14  1  0.297855  0.070471  0.512877  1
  Se  Se15  1  0.855122  0.444377  0.750000  1
