# generated using pymatgen
data_Tb(MoC)4
_symmetry_space_group_name_H-M   'P 1'
_cell_length_a   6.17720199
_cell_length_b   6.17720254
_cell_length_c   6.17720301
_cell_angle_alpha   93.96949833
_cell_angle_beta   93.96951222
_cell_angle_gamma   149.49094459
_symmetry_Int_Tables_number   1
_chemical_formula_structural   Tb(MoC)4
_chemical_formula_sum   'Tb1 Mo4 C4'
_cell_volume   115.44712736
_cell_formula_units_Z   1
loop_
 _symmetry_equiv_pos_site_id
 _symmetry_equiv_pos_as_xyz
  1  'x, y, z'
loop_
 _atom_site_type_symbol
 _atom_site_label
 _atom_site_symmetry_multiplicity
 _atom_site_fract_x
 _atom_site_fract_y
 _atom_site_fract_z
 _atom_site_occupancy
  Tb  Tb0  1  0.000000  0.000000  0.000000  1
  Mo  Mo1  1  0.629884  0.820291  0.450176  1
  Mo  Mo2  1  0.370116  0.179709  0.549824  1
  Mo  Mo3  1  0.820291  0.370116  0.190406  1
  Mo  Mo4  1  0.179709  0.629884  0.809594  1
  C  C5  1  0.269355  0.401545  0.670900  1
  C  C6  1  0.730645  0.598455  0.329100  1
  C  C7  1  0.401545  0.730645  0.132189  1
  C  C8  1  0.598455  0.269355  0.867811  1
