# generated using pymatgen
data_Dy5Zr2Cr(P3Ir4)4
_symmetry_space_group_name_H-M   'P 1'
_cell_length_a   12.73202200
_cell_length_b   12.85483482
_cell_length_c   3.97541600
_cell_angle_alpha   90.00000000
_cell_angle_beta   90.00000000
_cell_angle_gamma   119.68445698
_symmetry_Int_Tables_number   1
_chemical_formula_structural   Dy5Zr2Cr(P3Ir4)4
_chemical_formula_sum   'Dy5 Zr2 Cr1 P12 Ir16'
_cell_volume   565.26126061
_cell_formula_units_Z   1
loop_
 _symmetry_equiv_pos_site_id
 _symmetry_equiv_pos_as_xyz
  1  'x, y, z'
loop_
 _atom_site_type_symbol
 _atom_site_label
 _atom_site_symmetry_multiplicity
 _atom_site_fract_x
 _atom_site_fract_y
 _atom_site_fract_z
 _atom_site_occupancy
  Dy  Dy0  1  0.331612  0.664981  0.500000  1
  Dy  Dy1  1  0.666632  0.335019  0.500000  1
  Dy  Dy2  1  0.001134  0.815692  0.000000  1
  Dy  Dy3  1  0.185442  0.184308  0.000000  1
  Dy  Dy4  1  0.810820  0.000000  0.000000  1
  Zr  Zr5  1  0.997566  0.446263  0.500000  1
  Zr  Zr6  1  0.551303  0.553737  0.500000  1
  Cr  Cr7  1  0.458605  0.000000  0.500000  1
  P  P8  1  0.005998  0.652132  0.500000  1
  P  P9  1  0.353866  0.347868  0.500000  1
  P  P10  1  0.635175  0.000000  0.500000  1
  P  P11  1  0.516233  0.688935  0.000000  1
  P  P12  1  0.315913  0.831929  0.000000  1
  P  P13  1  0.166069  0.481782  0.000000  1
  P  P14  1  0.483984  0.168071  0.000000  1
  P  P15  1  0.684287  0.518218  0.000000  1
  P  P16  1  0.827298  0.311065  0.000000  1
  P  P17  1  0.998357  0.173905  0.500000  1
  P  P18  1  0.824453  0.826095  0.500000  1
  P  P19  1  0.181281  0.000000  0.500000  1
  Ir  Ir20  1  0.508050  0.868652  0.000000  1
  Ir  Ir21  1  0.130194  0.645254  0.000000  1
  Ir  Ir22  1  0.355769  0.496225  0.000000  1
  Ir  Ir23  1  0.484940  0.354746  0.000000  1
  Ir  Ir24  1  0.859545  0.503775  0.000000  1
  Ir  Ir25  1  0.639399  0.131348  0.000000  1
  Ir  Ir26  1  0.998462  0.277156  0.000000  1
  Ir  Ir27  1  0.721306  0.722844  0.000000  1
  Ir  Ir28  1  0.288085  0.000000  0.000000  1
  Ir  Ir29  1  0.626724  0.809347  0.500000  1
  Ir  Ir30  1  0.203529  0.826364  0.500000  1
  Ir  Ir31  1  0.178762  0.367968  0.500000  1
  Ir  Ir32  1  0.377164  0.173636  0.500000  1
  Ir  Ir33  1  0.810794  0.632032  0.500000  1
  Ir  Ir34  1  0.817377  0.190653  0.500000  1
  Ir  Ir35  1  0.003874  0.000000  0.500000  1
