# generated using pymatgen
data_SrMgP7Ru12
_symmetry_space_group_name_H-M   'P 1'
_cell_length_a   9.46528400
_cell_length_b   9.46528302
_cell_length_c   3.94638100
_cell_angle_alpha   90.00000000
_cell_angle_beta   90.00000000
_cell_angle_gamma   119.99999456
_symmetry_Int_Tables_number   1
_chemical_formula_structural   SrMgP7Ru12
_chemical_formula_sum   'Sr1 Mg1 P7 Ru12'
_cell_volume   306.19417227
_cell_formula_units_Z   1
loop_
 _symmetry_equiv_pos_site_id
 _symmetry_equiv_pos_as_xyz
  1  'x, y, z'
loop_
 _atom_site_type_symbol
 _atom_site_label
 _atom_site_symmetry_multiplicity
 _atom_site_fract_x
 _atom_site_fract_y
 _atom_site_fract_z
 _atom_site_occupancy
  Sr  Sr0  1  0.333333  0.666667  0.000000  1
  Mg  Mg1  1  0.666667  0.333333  0.500000  1
  P  P2  1  0.605933  0.716069  0.500000  1
  P  P3  1  0.000000  0.000000  0.000000  1
  P  P4  1  0.283931  0.889864  0.500000  1
  P  P5  1  0.110136  0.394067  0.500000  1
  P  P6  1  0.895984  0.583463  0.000000  1
  P  P7  1  0.416537  0.312520  0.000000  1
  P  P8  1  0.687480  0.104016  0.000000  1
  Ru  Ru9  1  0.561465  0.960286  0.500000  1
  Ru  Ru10  1  0.398820  0.438535  0.500000  1
  Ru  Ru11  1  0.914036  0.117617  0.500000  1
  Ru  Ru12  1  0.203581  0.085964  0.500000  1
  Ru  Ru13  1  0.882383  0.796419  0.500000  1
  Ru  Ru14  1  0.727107  0.882525  0.000000  1
  Ru  Ru15  1  0.117475  0.844581  0.000000  1
  Ru  Ru16  1  0.155419  0.272893  0.000000  1
  Ru  Ru17  1  0.431951  0.080709  0.000000  1
  Ru  Ru18  1  0.919291  0.351243  0.000000  1
  Ru  Ru19  1  0.648757  0.568049  0.000000  1
  Ru  Ru20  1  0.039714  0.601180  0.500000  1
