# generated using pymatgen
data_SmTm3Th6(Bi3C)2
_symmetry_space_group_name_H-M   'P 1'
_cell_length_a   9.34800600
_cell_length_b   9.34800629
_cell_length_c   6.46680100
_cell_angle_alpha   90.00000000
_cell_angle_beta   90.00000000
_cell_angle_gamma   119.99999899
_symmetry_Int_Tables_number   1
_chemical_formula_structural   SmTm3Th6(Bi3C)2
_chemical_formula_sum   'Sm1 Tm3 Th6 Bi6 C2'
_cell_volume   489.39340336
_cell_formula_units_Z   1
loop_
 _symmetry_equiv_pos_site_id
 _symmetry_equiv_pos_as_xyz
  1  'x, y, z'
loop_
 _atom_site_type_symbol
 _atom_site_label
 _atom_site_symmetry_multiplicity
 _atom_site_fract_x
 _atom_site_fract_y
 _atom_site_fract_z
 _atom_site_occupancy
  Sm  Sm0  1  0.666667  0.333333  0.000000  1
  Tm  Tm1  1  0.333333  0.666667  0.000000  1
  Tm  Tm2  1  0.333333  0.666667  0.500000  1
  Tm  Tm3  1  0.666667  0.333333  0.500000  1
  Th  Th4  1  0.780297  0.780066  0.750260  1
  Th  Th5  1  0.219934  0.000231  0.750260  1
  Th  Th6  1  0.999769  0.219703  0.750260  1
  Th  Th7  1  0.219934  0.219703  0.249740  1
  Th  Th8  1  0.780297  0.000231  0.249740  1
  Th  Th9  1  0.999769  0.780066  0.249740  1
  Bi  Bi10  1  0.404254  0.407062  0.747620  1
  Bi  Bi11  1  0.592938  0.997191  0.747620  1
  Bi  Bi12  1  0.002809  0.595746  0.747620  1
  Bi  Bi13  1  0.592938  0.595746  0.252380  1
  Bi  Bi14  1  0.404254  0.997191  0.252380  1
  Bi  Bi15  1  0.002809  0.407062  0.252380  1
  C  C16  1  0.000000  0.000000  0.000000  1
  C  C17  1  0.000000  0.000000  0.500000  1
