# generated using pymatgen
data_Yb7Au10
_symmetry_space_group_name_H-M   'P 1'
_cell_length_a   8.84810504
_cell_length_b   8.84810507
_cell_length_c   10.29075100
_cell_angle_alpha   90.00000000
_cell_angle_beta   90.00000000
_cell_angle_gamma   108.17659109
_symmetry_Int_Tables_number   1
_chemical_formula_structural   Yb7Au10
_chemical_formula_sum   'Yb14 Au20'
_cell_volume   765.44984051
_cell_formula_units_Z   2
loop_
 _symmetry_equiv_pos_site_id
 _symmetry_equiv_pos_as_xyz
  1  'x, y, z'
loop_
 _atom_site_type_symbol
 _atom_site_label
 _atom_site_symmetry_multiplicity
 _atom_site_fract_x
 _atom_site_fract_y
 _atom_site_fract_z
 _atom_site_occupancy
  Yb  Yb0  1  0.693419  0.306581  0.000000  1
  Yb  Yb1  1  0.306581  0.693419  0.000000  1
  Yb  Yb2  1  0.806581  0.193419  0.500000  1
  Yb  Yb3  1  0.193419  0.806581  0.500000  1
  Yb  Yb4  1  0.000000  0.000000  0.000000  1
  Yb  Yb5  1  0.500000  0.500000  0.500000  1
  Yb  Yb6  1  0.003301  0.503301  0.250000  1
  Yb  Yb7  1  0.996699  0.496699  0.750000  1
  Yb  Yb8  1  0.496699  0.996699  0.750000  1
  Yb  Yb9  1  0.503301  0.003301  0.250000  1
  Yb  Yb10  1  0.312813  0.312813  0.187905  1
  Yb  Yb11  1  0.687187  0.687187  0.812095  1
  Yb  Yb12  1  0.187187  0.187187  0.687905  1
  Yb  Yb13  1  0.812813  0.812813  0.312095  1
  Au  Au14  1  0.860167  0.150890  0.209301  1
  Au  Au15  1  0.139833  0.849110  0.790699  1
  Au  Au16  1  0.639833  0.349110  0.709301  1
  Au  Au17  1  0.650890  0.360167  0.290699  1
  Au  Au18  1  0.360167  0.650890  0.290699  1
  Au  Au19  1  0.349110  0.639833  0.709301  1
  Au  Au20  1  0.849110  0.139833  0.790699  1
  Au  Au21  1  0.150890  0.860167  0.209301  1
  Au  Au22  1  0.936815  0.646245  0.004311  1
  Au  Au23  1  0.063185  0.353755  0.995689  1
  Au  Au24  1  0.563185  0.853755  0.504311  1
  Au  Au25  1  0.146245  0.436815  0.495689  1
  Au  Au26  1  0.436815  0.146245  0.495689  1
  Au  Au27  1  0.853755  0.563185  0.504311  1
  Au  Au28  1  0.353755  0.063185  0.995689  1
  Au  Au29  1  0.646245  0.936815  0.004311  1
  Au  Au30  1  0.102675  0.102675  0.398794  1
  Au  Au31  1  0.897325  0.897325  0.601206  1
  Au  Au32  1  0.397325  0.397325  0.898794  1
  Au  Au33  1  0.602675  0.602675  0.101206  1
