# generated using pymatgen
data_Y3ErAl18Ir5Au
_symmetry_space_group_name_H-M   'P 1'
_cell_length_a   7.59164135
_cell_length_b   7.59018448
_cell_length_c   9.47884024
_cell_angle_alpha   89.98008463
_cell_angle_beta   89.95937512
_cell_angle_gamma   119.55213244
_symmetry_Int_Tables_number   1
_chemical_formula_structural   Y3ErAl18Ir5Au
_chemical_formula_sum   'Y3 Er1 Al18 Ir5 Au1'
_cell_volume   475.13381317
_cell_formula_units_Z   1
loop_
 _symmetry_equiv_pos_site_id
 _symmetry_equiv_pos_as_xyz
  1  'x, y, z'
loop_
 _atom_site_type_symbol
 _atom_site_label
 _atom_site_symmetry_multiplicity
 _atom_site_fract_x
 _atom_site_fract_y
 _atom_site_fract_z
 _atom_site_occupancy
  Y  Y0  1  0.004183  0.326356  0.749021  1
  Y  Y1  1  0.673769  0.995758  0.250990  1
  Y  Y2  1  0.326250  0.004153  0.749011  1
  Er  Er3  1  0.995884  0.673784  0.251289  1
  Al  Al4  1  0.135539  0.135115  0.256062  1
  Al  Al5  1  0.864502  0.864404  0.743818  1
  Al  Al6  1  0.001736  0.344706  0.079444  1
  Al  Al7  1  0.998249  0.655942  0.921544  1
  Al  Al8  1  0.000055  0.664503  0.573130  1
  Al  Al9  1  0.334995  0.999388  0.425832  1
  Al  Al10  1  0.999973  0.336007  0.425842  1
  Al  Al11  1  0.664513  0.000076  0.573675  1
  Al  Al12  1  0.655846  0.998256  0.921083  1
  Al  Al13  1  0.343566  0.001254  0.079381  1
  Al  Al14  1  0.333229  0.333219  0.551655  1
  Al  Al15  1  0.667150  0.666758  0.447779  1
  Al  Al16  1  0.658563  0.658181  0.058855  1
  Al  Al17  1  0.341916  0.341918  0.941721  1
  Al  Al18  1  0.338891  0.550176  0.251197  1
  Al  Al19  1  0.660692  0.449868  0.748782  1
  Al  Al20  1  0.550740  0.339957  0.251226  1
  Al  Al21  1  0.449819  0.660590  0.748762  1
  Ir  Ir22  1  0.672028  0.328188  0.000198  1
  Ir  Ir23  1  0.327992  0.671933  0.000231  1
  Ir  Ir24  1  0.328117  0.671871  0.499810  1
  Ir  Ir25  1  0.671975  0.328303  0.499743  1
  Ir  Ir26  1  0.999862  0.999594  0.499686  1
  Au  Au27  1  0.999965  0.999742  0.000234  1
