# generated using pymatgen
data_Ho3Lu(P3Rh4)2
_symmetry_space_group_name_H-M   'P 1'
_cell_length_a   3.94864400
_cell_length_b   11.29649600
_cell_length_c   12.93963400
_cell_angle_alpha   90.00000000
_cell_angle_beta   90.00000000
_cell_angle_gamma   90.00000000
_symmetry_Int_Tables_number   1
_chemical_formula_structural   Ho3Lu(P3Rh4)2
_chemical_formula_sum   'Ho6 Lu2 P12 Rh16'
_cell_volume   577.18325876
_cell_formula_units_Z   2
loop_
 _symmetry_equiv_pos_site_id
 _symmetry_equiv_pos_as_xyz
  1  'x, y, z'
loop_
 _atom_site_type_symbol
 _atom_site_label
 _atom_site_symmetry_multiplicity
 _atom_site_fract_x
 _atom_site_fract_y
 _atom_site_fract_z
 _atom_site_occupancy
  Ho  Ho0  1  0.000000  0.500000  0.522621  1
  Ho  Ho1  1  0.500000  0.000000  0.477379  1
  Ho  Ho2  1  0.500000  0.819845  0.203889  1
  Ho  Ho3  1  0.500000  0.180155  0.203889  1
  Ho  Ho4  1  0.000000  0.680155  0.796111  1
  Ho  Ho5  1  0.000000  0.319845  0.796111  1
  Lu  Lu6  1  0.500000  0.500000  0.159713  1
  Lu  Lu7  1  0.000000  0.000000  0.840287  1
  P  P8  1  0.500000  0.312768  0.616754  1
  P  P9  1  0.500000  0.687232  0.616754  1
  P  P10  1  0.000000  0.187232  0.383246  1
  P  P11  1  0.000000  0.812768  0.383246  1
  P  P12  1  0.500000  0.500000  0.879007  1
  P  P13  1  0.000000  0.000000  0.120993  1
  P  P14  1  0.500000  0.839083  0.889713  1
  P  P15  1  0.500000  0.160917  0.889713  1
  P  P16  1  0.000000  0.660917  0.110287  1
  P  P17  1  0.000000  0.339083  0.110287  1
  P  P18  1  0.500000  0.500000  0.364456  1
  P  P19  1  0.000000  0.000000  0.635544  1
  Rh  Rh20  1  0.000000  0.500000  0.981188  1
  Rh  Rh21  1  0.500000  0.000000  0.018812  1
  Rh  Rh22  1  0.500000  0.291015  0.432263  1
  Rh  Rh23  1  0.500000  0.708985  0.432263  1
  Rh  Rh24  1  0.000000  0.208985  0.567737  1
  Rh  Rh25  1  0.000000  0.791015  0.567737  1
  Rh  Rh26  1  0.500000  0.873150  0.706133  1
  Rh  Rh27  1  0.500000  0.126850  0.706133  1
  Rh  Rh28  1  0.000000  0.626850  0.293867  1
  Rh  Rh29  1  0.000000  0.373150  0.293867  1
  Rh  Rh30  1  0.500000  0.331544  0.991181  1
  Rh  Rh31  1  0.500000  0.668456  0.991181  1
  Rh  Rh32  1  0.000000  0.168456  0.008819  1
  Rh  Rh33  1  0.000000  0.831544  0.008819  1
  Rh  Rh34  1  0.500000  0.500000  0.700791  1
  Rh  Rh35  1  0.000000  0.000000  0.299209  1
