# generated using pymatgen
data_Dy12InCo2Ru3
_symmetry_space_group_name_H-M   'P 1'
_cell_length_a   8.35755065
_cell_length_b   8.35754982
_cell_length_c   8.35755100
_cell_angle_alpha   112.69707231
_cell_angle_beta   109.95805859
_cell_angle_gamma   105.83148894
_symmetry_Int_Tables_number   1
_chemical_formula_structural   Dy12InCo2Ru3
_chemical_formula_sum   'Dy12 In1 Co2 Ru3'
_cell_volume   447.75821983
_cell_formula_units_Z   1
loop_
 _symmetry_equiv_pos_site_id
 _symmetry_equiv_pos_as_xyz
  1  'x, y, z'
loop_
 _atom_site_type_symbol
 _atom_site_label
 _atom_site_symmetry_multiplicity
 _atom_site_fract_x
 _atom_site_fract_y
 _atom_site_fract_z
 _atom_site_occupancy
  Dy  Dy0  1  0.821280  0.722845  0.544127  1
  Dy  Dy1  1  0.178720  0.277155  0.455873  1
  Dy  Dy2  1  0.178720  0.722845  0.901564  1
  Dy  Dy3  1  0.821280  0.277155  0.098436  1
  Dy  Dy4  1  0.679431  0.362107  0.682676  1
  Dy  Dy5  1  0.320569  0.637893  0.317324  1
  Dy  Dy6  1  0.679431  0.996753  0.317324  1
  Dy  Dy7  1  0.320569  0.003247  0.682676  1
  Dy  Dy8  1  0.583534  0.769859  0.813675  1
  Dy  Dy9  1  0.416466  0.230141  0.186325  1
  Dy  Dy10  1  0.956183  0.769859  0.186325  1
  Dy  Dy11  1  0.043817  0.230141  0.813675  1
  In  In12  1  0.500000  0.500000  0.000000  1
  Co  Co13  1  0.109575  0.609575  0.500000  1
  Co  Co14  1  0.890425  0.390425  0.500000  1
  Ru  Ru15  1  0.663487  0.000000  0.663487  1
  Ru  Ru16  1  0.336513  0.000000  0.336513  1
  Ru  Ru17  1  0.000000  0.000000  0.000000  1
