# generated using pymatgen
data_Ho2Fe4Mo2P7Ir6
_symmetry_space_group_name_H-M   'P 1'
_cell_length_a   9.34203412
_cell_length_b   9.32041286
_cell_length_c   3.86470500
_cell_angle_alpha   90.00000000
_cell_angle_beta   90.00000000
_cell_angle_gamma   119.71551121
_symmetry_Int_Tables_number   1
_chemical_formula_structural   Ho2Fe4Mo2P7Ir6
_chemical_formula_sum   'Ho2 Fe4 Mo2 P7 Ir6'
_cell_volume   292.25466131
_cell_formula_units_Z   1
loop_
 _symmetry_equiv_pos_site_id
 _symmetry_equiv_pos_as_xyz
  1  'x, y, z'
loop_
 _atom_site_type_symbol
 _atom_site_label
 _atom_site_symmetry_multiplicity
 _atom_site_fract_x
 _atom_site_fract_y
 _atom_site_fract_z
 _atom_site_occupancy
  Ho  Ho0  1  0.999909  0.000782  0.000000  1
  Ho  Ho1  1  0.335707  0.667091  0.500000  1
  Fe  Fe2  1  0.779883  0.178380  0.000000  1
  Fe  Fe3  1  0.394089  0.223271  0.000000  1
  Fe  Fe4  1  0.827974  0.599401  0.000000  1
  Fe  Fe5  1  0.874813  0.415480  0.500000  1
  Mo  Mo6  1  0.548456  0.123601  0.500000  1
  Mo  Mo7  1  0.574876  0.453654  0.500000  1
  P  P8  1  0.558463  0.928200  0.000000  1
  P  P9  1  0.370544  0.444558  0.000000  1
  P  P10  1  0.076157  0.632928  0.000000  1
  P  P11  1  0.942669  0.217333  0.500000  1
  P  P12  1  0.268631  0.054625  0.500000  1
  P  P13  1  0.787045  0.729624  0.500000  1
  P  P14  1  0.665158  0.333740  0.000000  1
  Ir  Ir15  1  0.303385  0.903405  0.000000  1
  Ir  Ir16  1  0.600913  0.698671  0.000000  1
  Ir  Ir17  1  0.093233  0.399158  0.000000  1
  Ir  Ir18  1  0.725702  0.948958  0.500000  1
  Ir  Ir19  1  0.220365  0.277192  0.500000  1
  Ir  Ir20  1  0.052030  0.769950  0.500000  1
