# generated using pymatgen
data_CePu(ThB12)2
_symmetry_space_group_name_H-M   'P 1'
_cell_length_a   4.09888200
_cell_length_b   4.09888200
_cell_length_c   16.40050800
_cell_angle_alpha   90.00000000
_cell_angle_beta   90.00000000
_cell_angle_gamma   90.00000000
_symmetry_Int_Tables_number   1
_chemical_formula_structural   CePu(ThB12)2
_chemical_formula_sum   'Ce1 Pu1 Th2 B24'
_cell_volume   275.54220668
_cell_formula_units_Z   1
loop_
 _symmetry_equiv_pos_site_id
 _symmetry_equiv_pos_as_xyz
  1  'x, y, z'
loop_
 _atom_site_type_symbol
 _atom_site_label
 _atom_site_symmetry_multiplicity
 _atom_site_fract_x
 _atom_site_fract_y
 _atom_site_fract_z
 _atom_site_occupancy
  Ce  Ce0  1  0.000000  0.000000  0.500000  1
  Pu  Pu1  1  0.000000  0.000000  0.000000  1
  Th  Th2  1  0.000000  0.000000  0.251408  1
  Th  Th3  1  0.000000  0.000000  0.748592  1
  B  B4  1  0.500000  0.500000  0.200561  1
  B  B5  1  0.500000  0.500000  0.450615  1
  B  B6  1  0.500000  0.500000  0.700454  1
  B  B7  1  0.500000  0.500000  0.950612  1
  B  B8  1  0.500000  0.197956  0.125089  1
  B  B9  1  0.500000  0.197788  0.375155  1
  B  B10  1  0.500000  0.197788  0.624845  1
  B  B11  1  0.500000  0.197956  0.874911  1
  B  B12  1  0.197956  0.500000  0.125089  1
  B  B13  1  0.197788  0.500000  0.375155  1
  B  B14  1  0.197788  0.500000  0.624845  1
  B  B15  1  0.197956  0.500000  0.874911  1
  B  B16  1  0.500000  0.500000  0.049388  1
  B  B17  1  0.500000  0.500000  0.299546  1
  B  B18  1  0.500000  0.500000  0.549385  1
  B  B19  1  0.500000  0.500000  0.799439  1
  B  B20  1  0.500000  0.802044  0.125089  1
  B  B21  1  0.500000  0.802212  0.375155  1
  B  B22  1  0.500000  0.802212  0.624845  1
  B  B23  1  0.500000  0.802044  0.874911  1
  B  B24  1  0.802044  0.500000  0.125089  1
  B  B25  1  0.802212  0.500000  0.375155  1
  B  B26  1  0.802212  0.500000  0.624845  1
  B  B27  1  0.802044  0.500000  0.874911  1
