# generated using pymatgen
data_SrLa4Tb2FeBr12
_symmetry_space_group_name_H-M   'P 1'
_cell_length_a   9.67059219
_cell_length_b   9.67940418
_cell_length_c   9.33033343
_cell_angle_alpha   106.35083893
_cell_angle_beta   105.76130876
_cell_angle_gamma   106.40116058
_symmetry_Int_Tables_number   1
_chemical_formula_structural   SrLa4Tb2FeBr12
_chemical_formula_sum   'Sr1 La4 Tb2 Fe1 Br12'
_cell_volume   743.16296348
_cell_formula_units_Z   1
loop_
 _symmetry_equiv_pos_site_id
 _symmetry_equiv_pos_as_xyz
  1  'x, y, z'
loop_
 _atom_site_type_symbol
 _atom_site_label
 _atom_site_symmetry_multiplicity
 _atom_site_fract_x
 _atom_site_fract_y
 _atom_site_fract_z
 _atom_site_occupancy
  Sr  Sr0  1  0.499880  0.498567  0.496706  1
  La  La1  1  0.018024  0.096653  0.283819  1
  La  La2  1  0.982167  0.908195  0.717937  1
  La  La3  1  0.680944  0.981229  0.891570  1
  La  La4  1  0.896348  0.681213  0.985241  1
  Tb  Tb5  1  0.107953  0.305479  0.019332  1
  Tb  Tb6  1  0.304963  0.020151  0.105029  1
  Fe  Fe7  1  0.000455  0.001642  0.002340  1
  Br  Br8  1  0.223964  0.688711  0.074231  1
  Br  Br9  1  0.439399  0.354004  0.136363  1
  Br  Br10  1  0.671932  0.071689  0.219993  1
  Br  Br11  1  0.931871  0.785778  0.330219  1
  Br  Br12  1  0.154189  0.451022  0.355967  1
  Br  Br13  1  0.370410  0.150070  0.445011  1
  Br  Br14  1  0.629149  0.842219  0.540229  1
  Br  Br15  1  0.844989  0.549248  0.629041  1
  Br  Br16  1  0.074774  0.227108  0.689603  1
  Br  Br17  1  0.320087  0.930680  0.792281  1
  Br  Br18  1  0.549085  0.634350  0.853529  1
  Br  Br19  1  0.799417  0.321993  0.931561  1
