# generated using pymatgen
data_Mg4U2Co16Si7
_symmetry_space_group_name_H-M   'P 1'
_cell_length_a   8.02732911
_cell_length_b   8.02732914
_cell_length_c   8.02210500
_cell_angle_alpha   60.02152165
_cell_angle_beta   60.02152151
_cell_angle_gamma   60.22856243
_symmetry_Int_Tables_number   1
_chemical_formula_structural   Mg4U2Co16Si7
_chemical_formula_sum   'Mg4 U2 Co16 Si7'
_cell_volume   366.27033327
_cell_formula_units_Z   1
loop_
 _symmetry_equiv_pos_site_id
 _symmetry_equiv_pos_as_xyz
  1  'x, y, z'
loop_
 _atom_site_type_symbol
 _atom_site_label
 _atom_site_symmetry_multiplicity
 _atom_site_fract_x
 _atom_site_fract_y
 _atom_site_fract_z
 _atom_site_occupancy
  Mg  Mg0  1  0.792271  0.207729  0.200303  1
  Mg  Mg1  1  0.792271  0.207729  0.799697  1
  Mg  Mg2  1  0.786932  0.797320  0.207875  1
  Mg  Mg3  1  0.202680  0.213068  0.792125  1
  U  U4  1  0.211550  0.788450  0.780885  1
  U  U5  1  0.211550  0.788450  0.219115  1
  Co  Co6  1  0.377190  0.382600  0.381257  1
  Co  Co7  1  0.489835  0.829671  0.840247  1
  Co  Co8  1  0.617400  0.622810  0.141045  1
  Co  Co9  1  0.176140  0.154744  0.496459  1
  Co  Co10  1  0.845256  0.823860  0.503541  1
  Co  Co11  1  0.176140  0.154744  0.172657  1
  Co  Co12  1  0.845256  0.823860  0.827343  1
  Co  Co13  1  0.377190  0.382600  0.858955  1
  Co  Co14  1  0.828835  0.527080  0.822043  1
  Co  Co15  1  0.617400  0.622810  0.618743  1
  Co  Co16  1  0.380959  0.856059  0.381492  1
  Co  Co17  1  0.143941  0.619041  0.618508  1
  Co  Co18  1  0.615174  0.141832  0.621497  1
  Co  Co19  1  0.170329  0.510165  0.159753  1
  Co  Co20  1  0.858168  0.384826  0.378503  1
  Co  Co21  1  0.472920  0.171165  0.177957  1
  Si  Si22  1  0.971136  0.028864  0.500000  1
  Si  Si23  1  0.515006  0.005056  0.494752  1
  Si  Si24  1  0.502357  0.497643  0.500000  1
  Si  Si25  1  0.994944  0.484994  0.014815  1
  Si  Si26  1  0.517215  0.482785  0.000000  1
  Si  Si27  1  0.515006  0.005056  0.985185  1
  Si  Si28  1  0.994944  0.484994  0.505248  1
