# generated using pymatgen
data_Hf5In4FeRh
_symmetry_space_group_name_H-M   'P 1'
_cell_length_a   3.28673800
_cell_length_b   7.64997967
_cell_length_c   17.44881253
_cell_angle_alpha   90.04797420
_cell_angle_beta   90.00000000
_cell_angle_gamma   90.00000000
_symmetry_Int_Tables_number   1
_chemical_formula_structural   Hf5In4FeRh
_chemical_formula_sum   'Hf10 In8 Fe2 Rh2'
_cell_volume   438.72369555
_cell_formula_units_Z   2
loop_
 _symmetry_equiv_pos_site_id
 _symmetry_equiv_pos_as_xyz
  1  'x, y, z'
loop_
 _atom_site_type_symbol
 _atom_site_label
 _atom_site_symmetry_multiplicity
 _atom_site_fract_x
 _atom_site_fract_y
 _atom_site_fract_z
 _atom_site_occupancy
  Hf  Hf0  1  0.000000  0.278893  0.219949  1
  Hf  Hf1  1  0.000000  0.635172  0.085365  1
  Hf  Hf2  1  0.000000  0.744517  0.272941  1
  Hf  Hf3  1  0.000000  0.860633  0.580799  1
  Hf  Hf4  1  0.000000  0.255483  0.727059  1
  Hf  Hf5  1  0.000000  0.721107  0.780051  1
  Hf  Hf6  1  0.000000  0.139367  0.419201  1
  Hf  Hf7  1  0.000000  0.000000  0.000000  1
  Hf  Hf8  1  0.000000  0.364828  0.914635  1
  Hf  Hf9  1  0.000000  0.500000  0.500000  1
  In  In10  1  0.500000  0.801753  0.430459  1
  In  In11  1  0.500000  0.696627  0.934589  1
  In  In12  1  0.500000  0.057268  0.850164  1
  In  In13  1  0.500000  0.559421  0.649850  1
  In  In14  1  0.500000  0.198247  0.569541  1
  In  In15  1  0.500000  0.942732  0.149836  1
  In  In16  1  0.500000  0.440579  0.350150  1
  In  In17  1  0.500000  0.303373  0.065411  1
  Fe  Fe18  1  0.500000  0.453308  0.807829  1
  Fe  Fe19  1  0.500000  0.546692  0.192171  1
  Rh  Rh20  1  0.500000  0.950541  0.694655  1
  Rh  Rh21  1  0.500000  0.049459  0.305345  1
