# generated using pymatgen
data_Y6Sc4Sn5Bi
_symmetry_space_group_name_H-M   'P 1'
_cell_length_a   8.83321318
_cell_length_b   8.83321322
_cell_length_c   6.27909900
_cell_angle_alpha   90.00000000
_cell_angle_beta   90.00000000
_cell_angle_gamma   119.97698481
_symmetry_Int_Tables_number   1
_chemical_formula_structural   Y6Sc4Sn5Bi
_chemical_formula_sum   'Y6 Sc4 Sn5 Bi1'
_cell_volume   424.39089786
_cell_formula_units_Z   1
loop_
 _symmetry_equiv_pos_site_id
 _symmetry_equiv_pos_as_xyz
  1  'x, y, z'
loop_
 _atom_site_type_symbol
 _atom_site_label
 _atom_site_symmetry_multiplicity
 _atom_site_fract_x
 _atom_site_fract_y
 _atom_site_fract_z
 _atom_site_occupancy
  Y  Y0  1  0.760541  0.760541  0.250000  1
  Y  Y1  1  0.999392  0.240620  0.250000  1
  Y  Y2  1  0.761090  0.006058  0.750000  1
  Y  Y3  1  0.240620  0.999392  0.250000  1
  Y  Y4  1  0.006058  0.761090  0.750000  1
  Y  Y5  1  0.236564  0.236564  0.750000  1
  Sc  Sc6  1  0.330131  0.667665  0.497451  1
  Sc  Sc7  1  0.667665  0.330131  0.497451  1
  Sc  Sc8  1  0.330131  0.667665  0.002549  1
  Sc  Sc9  1  0.667665  0.330131  0.002549  1
  Sn  Sn10  1  0.401699  0.000640  0.750000  1
  Sn  Sn11  1  0.599164  0.998722  0.250000  1
  Sn  Sn12  1  0.000640  0.401699  0.750000  1
  Sn  Sn13  1  0.398941  0.398941  0.250000  1
  Sn  Sn14  1  0.998722  0.599164  0.250000  1
  Bi  Bi15  1  0.600977  0.600977  0.750000  1
