# generated using pymatgen
data_La7Pr(SiBr6)2
_symmetry_space_group_name_H-M   'P 1'
_cell_length_a   4.31559500
_cell_length_b   13.96792756
_cell_length_c   14.81698814
_cell_angle_alpha   90.24831086
_cell_angle_beta   90.00000000
_cell_angle_gamma   90.00000000
_symmetry_Int_Tables_number   1
_chemical_formula_structural   La7Pr(SiBr6)2
_chemical_formula_sum   'La7 Pr1 Si2 Br12'
_cell_volume   893.15844742
_cell_formula_units_Z   1
loop_
 _symmetry_equiv_pos_site_id
 _symmetry_equiv_pos_as_xyz
  1  'x, y, z'
loop_
 _atom_site_type_symbol
 _atom_site_label
 _atom_site_symmetry_multiplicity
 _atom_site_fract_x
 _atom_site_fract_y
 _atom_site_fract_z
 _atom_site_occupancy
  La  La0  1  0.500000  0.119948  0.339645  1
  La  La1  1  0.500000  0.880777  0.660973  1
  La  La2  1  0.500000  0.620145  0.161298  1
  La  La3  1  0.000000  0.122125  0.581539  1
  La  La4  1  0.000000  0.879953  0.420279  1
  La  La5  1  0.000000  0.619550  0.918306  1
  La  La6  1  0.000000  0.377893  0.078254  1
  Pr  Pr7  1  0.500000  0.381627  0.840969  1
  Si  Si8  1  0.500000  0.000969  0.500697  1
  Si  Si9  1  0.500000  0.500386  0.000481  1
  Br  Br10  1  0.500000  0.242658  0.161315  1
  Br  Br11  1  0.500000  0.756444  0.837553  1
  Br  Br12  1  0.500000  0.742605  0.337581  1
  Br  Br13  1  0.500000  0.257146  0.664218  1
  Br  Br14  1  0.000000  0.253729  0.412093  1
  Br  Br15  1  0.000000  0.746780  0.588410  1
  Br  Br16  1  0.000000  0.752935  0.088530  1
  Br  Br17  1  0.000000  0.247795  0.907826  1
  Br  Br18  1  0.000000  0.001992  0.245083  1
  Br  Br19  1  0.000000  0.998245  0.755591  1
  Br  Br20  1  0.000000  0.502135  0.254290  1
  Br  Br21  1  0.000000  0.494163  0.745067  1
