# generated using pymatgen
data_YbHf(SbPt)2
_symmetry_space_group_name_H-M   'P 1'
_cell_length_a   6.47528272
_cell_length_b   6.47528198
_cell_length_c   7.96382704
_cell_angle_alpha   66.01211483
_cell_angle_beta   66.01211227
_cell_angle_gamma   90.00000071
_symmetry_Int_Tables_number   1
_chemical_formula_structural   YbHf(SbPt)2
_chemical_formula_sum   'Yb2 Hf2 Sb4 Pt4'
_cell_volume   273.21001714
_cell_formula_units_Z   2
loop_
 _symmetry_equiv_pos_site_id
 _symmetry_equiv_pos_as_xyz
  1  'x, y, z'
loop_
 _atom_site_type_symbol
 _atom_site_label
 _atom_site_symmetry_multiplicity
 _atom_site_fract_x
 _atom_site_fract_y
 _atom_site_fract_z
 _atom_site_occupancy
  Yb  Yb0  1  0.000000  0.000000  0.000000  1
  Yb  Yb1  1  0.250000  0.750000  0.500001  1
  Hf  Hf2  1  0.499999  0.499999  0.000000  1
  Hf  Hf3  1  0.750000  0.250000  0.500001  1
  Sb  Sb4  1  0.495022  0.995023  0.009956  1
  Sb  Sb5  1  0.754979  0.754979  0.490041  1
  Sb  Sb6  1  0.245021  0.245021  0.509959  1
  Sb  Sb7  1  0.004979  0.504979  0.990042  1
  Pt  Pt8  1  0.625001  0.597303  0.249999  1
  Pt  Pt9  1  0.125000  0.152696  0.250000  1
  Pt  Pt10  1  0.402696  0.875001  0.750000  1
  Pt  Pt11  1  0.847302  0.375000  0.750001  1
