# generated using pymatgen
data_Ti13Al9(FeIr3)2
_symmetry_space_group_name_H-M   'P 1'
_cell_length_a   8.69972457
_cell_length_b   8.69972410
_cell_length_c   8.69972440
_cell_angle_alpha   59.77106553
_cell_angle_beta   59.77106814
_cell_angle_gamma   59.77107135
_symmetry_Int_Tables_number   1
_chemical_formula_structural   Ti13Al9(FeIr3)2
_chemical_formula_sum   'Ti13 Al9 Fe2 Ir6'
_cell_volume   463.16761249
_cell_formula_units_Z   1
loop_
 _symmetry_equiv_pos_site_id
 _symmetry_equiv_pos_as_xyz
  1  'x, y, z'
loop_
 _atom_site_type_symbol
 _atom_site_label
 _atom_site_symmetry_multiplicity
 _atom_site_fract_x
 _atom_site_fract_y
 _atom_site_fract_z
 _atom_site_occupancy
  Ti  Ti0  1  0.203588  0.203588  0.796599  1
  Ti  Ti1  1  0.796599  0.203588  0.203588  1
  Ti  Ti2  1  0.203588  0.796599  0.203588  1
  Ti  Ti3  1  0.804929  0.804929  0.180510  1
  Ti  Ti4  1  0.180510  0.804929  0.804929  1
  Ti  Ti5  1  0.804929  0.180510  0.804929  1
  Ti  Ti6  1  0.382016  0.382016  0.382016  1
  Ti  Ti7  1  0.383084  0.854595  0.383084  1
  Ti  Ti8  1  0.854595  0.383084  0.383084  1
  Ti  Ti9  1  0.383084  0.383084  0.854595  1
  Ti  Ti10  1  0.844247  0.471138  0.844247  1
  Ti  Ti11  1  0.471138  0.844247  0.844247  1
  Ti  Ti12  1  0.844247  0.844247  0.471138  1
  Al  Al13  1  0.157152  0.157152  0.157152  1
  Al  Al14  1  0.161159  0.520669  0.161159  1
  Al  Al15  1  0.520669  0.161159  0.161159  1
  Al  Al16  1  0.161159  0.161159  0.520669  1
  Al  Al17  1  0.617618  0.617618  0.617618  1
  Al  Al18  1  0.617302  0.150497  0.617302  1
  Al  Al19  1  0.150497  0.617302  0.617302  1
  Al  Al20  1  0.617302  0.617302  0.150497  1
  Al  Al21  1  0.829754  0.829754  0.829754  1
  Fe  Fe22  1  0.500942  0.500942  0.500942  1
  Fe  Fe23  1  0.002719  0.002719  0.002719  1
  Ir  Ir24  1  0.003155  0.003155  0.499535  1
  Ir  Ir25  1  0.499535  0.003155  0.003155  1
  Ir  Ir26  1  0.003155  0.499535  0.003155  1
  Ir  Ir27  1  0.499950  0.499950  0.001428  1
  Ir  Ir28  1  0.001428  0.499950  0.499950  1
  Ir  Ir29  1  0.499950  0.001428  0.499950  1
