# generated using pymatgen
data_HoTm9(Sn3P)2
_symmetry_space_group_name_H-M   'P 1'
_cell_length_a   8.95680646
_cell_length_b   8.95680654
_cell_length_c   6.60086100
_cell_angle_alpha   90.00000000
_cell_angle_beta   90.00000000
_cell_angle_gamma   119.96345592
_symmetry_Int_Tables_number   1
_chemical_formula_structural   HoTm9(Sn3P)2
_chemical_formula_sum   'Ho1 Tm9 Sn6 P2'
_cell_volume   458.77253561
_cell_formula_units_Z   1
loop_
 _symmetry_equiv_pos_site_id
 _symmetry_equiv_pos_as_xyz
  1  'x, y, z'
loop_
 _atom_site_type_symbol
 _atom_site_label
 _atom_site_symmetry_multiplicity
 _atom_site_fract_x
 _atom_site_fract_y
 _atom_site_fract_z
 _atom_site_occupancy
  Ho  Ho0  1  0.757500  0.757500  0.750000  1
  Tm  Tm1  1  0.666601  0.333205  0.000038  1
  Tm  Tm2  1  0.333205  0.666601  0.000038  1
  Tm  Tm3  1  0.333205  0.666601  0.499962  1
  Tm  Tm4  1  0.666601  0.333205  0.499962  1
  Tm  Tm5  1  0.241707  0.000103  0.750000  1
  Tm  Tm6  1  0.000103  0.241707  0.750000  1
  Tm  Tm7  1  0.241685  0.241685  0.250000  1
  Tm  Tm8  1  0.758402  0.000057  0.250000  1
  Tm  Tm9  1  0.000057  0.758402  0.250000  1
  Sn  Sn10  1  0.398235  0.398235  0.750000  1
  Sn  Sn11  1  0.601186  0.000336  0.750000  1
  Sn  Sn12  1  0.000336  0.601186  0.750000  1
  Sn  Sn13  1  0.601440  0.601440  0.250000  1
  Sn  Sn14  1  0.398580  0.999982  0.250000  1
  Sn  Sn15  1  0.999982  0.398580  0.250000  1
  P  P16  1  0.000587  0.000587  0.000530  1
  P  P17  1  0.000587  0.000587  0.499470  1
