# generated using pymatgen
data_LaNd3PtSe7
_symmetry_space_group_name_H-M   'P 1'
_cell_length_a   4.07860007
_cell_length_b   8.39781550
_cell_length_c   8.72618955
_cell_angle_alpha   90.00012139
_cell_angle_beta   89.99332595
_cell_angle_gamma   89.99989280
_symmetry_Int_Tables_number   1
_chemical_formula_structural   LaNd3PtSe7
_chemical_formula_sum   'La1 Nd3 Pt1 Se7'
_cell_volume   298.88360370
_cell_formula_units_Z   1
loop_
 _symmetry_equiv_pos_site_id
 _symmetry_equiv_pos_as_xyz
  1  'x, y, z'
loop_
 _atom_site_type_symbol
 _atom_site_label
 _atom_site_symmetry_multiplicity
 _atom_site_fract_x
 _atom_site_fract_y
 _atom_site_fract_z
 _atom_site_occupancy
  La  La0  1  0.250817  0.625644  0.748803  1
  Nd  Nd1  1  0.250414  0.125411  0.701668  1
  Nd  Nd2  1  0.749937  0.867973  0.272635  1
  Nd  Nd3  1  0.749855  0.381251  0.273709  1
  Pt  Pt4  1  0.748711  0.124933  0.001012  1
  Se  Se5  1  0.249358  0.318724  0.998294  1
  Se  Se6  1  0.750375  0.624086  0.010512  1
  Se  Se7  1  0.750516  0.875388  0.630877  1
  Se  Se8  1  0.250027  0.625011  0.373156  1
  Se  Se9  1  0.249479  0.931640  0.997615  1
  Se  Se10  1  0.750438  0.375279  0.631250  1
  Se  Se11  1  0.250073  0.124658  0.360469  1
