# generated using pymatgen
data_CaMg(ClO4)4
_symmetry_space_group_name_H-M   'P 1'
_cell_length_a   5.10400644
_cell_length_b   7.35735200
_cell_length_c   8.96119142
_cell_angle_alpha   90.08825624
_cell_angle_beta   91.17718132
_cell_angle_gamma   98.46534578
_symmetry_Int_Tables_number   1
_chemical_formula_structural   CaMg(ClO4)4
_chemical_formula_sum   'Ca1 Mg1 Cl4 O16'
_cell_volume   332.77036222
_cell_formula_units_Z   1
loop_
 _symmetry_equiv_pos_site_id
 _symmetry_equiv_pos_as_xyz
  1  'x, y, z'
loop_
 _atom_site_type_symbol
 _atom_site_label
 _atom_site_symmetry_multiplicity
 _atom_site_fract_x
 _atom_site_fract_y
 _atom_site_fract_z
 _atom_site_occupancy
  Ca  Ca0  1  0.500000  0.500000  0.500000  1
  Mg  Mg1  1  0.000000  0.000000  0.000000  1
  Cl  Cl2  1  0.564368  0.243155  0.156852  1
  Cl  Cl3  1  0.944318  0.238100  0.678916  1
  Cl  Cl4  1  0.435632  0.756845  0.843148  1
  Cl  Cl5  1  0.055682  0.761900  0.321084  1
  O  O6  1  0.563633  0.275679  0.318077  1
  O  O7  1  0.946291  0.200286  0.839517  1
  O  O8  1  0.436367  0.724321  0.681923  1
  O  O9  1  0.053709  0.799714  0.160483  1
  O  O10  1  0.287098  0.197049  0.105755  1
  O  O11  1  0.219404  0.268840  0.629031  1
  O  O12  1  0.712902  0.802951  0.894245  1
  O  O13  1  0.780596  0.731160  0.370969  1
  O  O14  1  0.698483  0.081075  0.133214  1
  O  O15  1  0.835610  0.412091  0.659150  1
  O  O16  1  0.301517  0.918925  0.866786  1
  O  O17  1  0.164390  0.587909  0.340850  1
  O  O18  1  0.693245  0.399890  0.080513  1
  O  O19  1  0.789761  0.092056  0.597092  1
  O  O20  1  0.306755  0.600110  0.919487  1
  O  O21  1  0.210239  0.907944  0.402908  1
