# generated using pymatgen
data_LiHo2(TmPb2)2
_symmetry_space_group_name_H-M   'P 1'
_cell_length_a   7.63844000
_cell_length_b   15.61041600
_cell_length_c   8.25343600
_cell_angle_alpha   90.00000000
_cell_angle_beta   90.00000000
_cell_angle_gamma   90.00000000
_symmetry_Int_Tables_number   1
_chemical_formula_structural   LiHo2(TmPb2)2
_chemical_formula_sum   'Li4 Ho8 Tm8 Pb16'
_cell_volume   984.13332041
_cell_formula_units_Z   4
loop_
 _symmetry_equiv_pos_site_id
 _symmetry_equiv_pos_as_xyz
  1  'x, y, z'
loop_
 _atom_site_type_symbol
 _atom_site_label
 _atom_site_symmetry_multiplicity
 _atom_site_fract_x
 _atom_site_fract_y
 _atom_site_fract_z
 _atom_site_occupancy
  Li  Li0  1  0.834293  0.750000  0.508055  1
  Li  Li1  1  0.334293  0.750000  0.991945  1
  Li  Li2  1  0.165707  0.250000  0.491945  1
  Li  Li3  1  0.665707  0.250000  0.008055  1
  Ho  Ho4  1  0.494172  0.589897  0.688117  1
  Ho  Ho5  1  0.994172  0.910103  0.811883  1
  Ho  Ho6  1  0.505828  0.089897  0.311883  1
  Ho  Ho7  1  0.005828  0.410103  0.188117  1
  Ho  Ho8  1  0.505828  0.410103  0.311883  1
  Ho  Ho9  1  0.005828  0.089897  0.188117  1
  Ho  Ho10  1  0.494172  0.910103  0.688117  1
  Ho  Ho11  1  0.994172  0.589897  0.811883  1
  Tm  Tm12  1  0.663784  0.628221  0.159385  1
  Tm  Tm13  1  0.163784  0.871779  0.340615  1
  Tm  Tm14  1  0.336216  0.128221  0.840615  1
  Tm  Tm15  1  0.836216  0.371779  0.659385  1
  Tm  Tm16  1  0.336216  0.371779  0.840615  1
  Tm  Tm17  1  0.836216  0.128221  0.659385  1
  Tm  Tm18  1  0.663784  0.871779  0.159385  1
  Tm  Tm19  1  0.163784  0.628221  0.340615  1
  Pb  Pb20  1  0.690273  0.457746  0.959327  1
  Pb  Pb21  1  0.190273  0.042254  0.540673  1
  Pb  Pb22  1  0.309727  0.957746  0.040673  1
  Pb  Pb23  1  0.809727  0.542254  0.459327  1
  Pb  Pb24  1  0.309727  0.542254  0.040673  1
  Pb  Pb25  1  0.809727  0.957746  0.459327  1
  Pb  Pb26  1  0.690273  0.042254  0.959327  1
  Pb  Pb27  1  0.190273  0.457746  0.540673  1
  Pb  Pb28  1  0.484411  0.750000  0.403561  1
  Pb  Pb29  1  0.984411  0.750000  0.096439  1
  Pb  Pb30  1  0.515589  0.250000  0.596439  1
  Pb  Pb31  1  0.015589  0.250000  0.903561  1
  Pb  Pb32  1  0.688314  0.750000  0.840013  1
  Pb  Pb33  1  0.188314  0.750000  0.659987  1
  Pb  Pb34  1  0.311686  0.250000  0.159987  1
  Pb  Pb35  1  0.811686  0.250000  0.340013  1
