# generated using pymatgen
data_Pa3Ga3Re2Pd
_symmetry_space_group_name_H-M   'P 1'
_cell_length_a   6.88040000
_cell_length_b   6.88039934
_cell_length_c   8.14184500
_cell_angle_alpha   90.00000000
_cell_angle_beta   90.00000000
_cell_angle_gamma   119.99999357
_symmetry_Int_Tables_number   1
_chemical_formula_structural   Pa3Ga3Re2Pd
_chemical_formula_sum   'Pa6 Ga6 Re4 Pd2'
_cell_volume   333.79576522
_cell_formula_units_Z   2
loop_
 _symmetry_equiv_pos_site_id
 _symmetry_equiv_pos_as_xyz
  1  'x, y, z'
loop_
 _atom_site_type_symbol
 _atom_site_label
 _atom_site_symmetry_multiplicity
 _atom_site_fract_x
 _atom_site_fract_y
 _atom_site_fract_z
 _atom_site_occupancy
  Pa  Pa0  1  0.429662  0.429260  0.750000  1
  Pa  Pa1  1  0.999598  0.570338  0.750000  1
  Pa  Pa2  1  0.570740  0.000402  0.750000  1
  Pa  Pa3  1  0.570338  0.999598  0.250000  1
  Pa  Pa4  1  0.000402  0.570740  0.250000  1
  Pa  Pa5  1  0.429260  0.429662  0.250000  1
  Ga  Ga6  1  0.237729  0.000000  0.000000  1
  Ga  Ga7  1  0.762271  0.762271  0.000000  1
  Ga  Ga8  1  0.000000  0.237729  0.000000  1
  Ga  Ga9  1  0.762271  0.762271  0.500000  1
  Ga  Ga10  1  0.237729  0.000000  0.500000  1
  Ga  Ga11  1  0.000000  0.237729  0.500000  1
  Re  Re12  1  0.666667  0.333333  0.000107  1
  Re  Re13  1  0.666667  0.333333  0.499893  1
  Re  Re14  1  0.333333  0.666667  0.500107  1
  Re  Re15  1  0.333333  0.666667  0.999893  1
  Pd  Pd16  1  0.000000  0.000000  0.750000  1
  Pd  Pd17  1  0.000000  0.000000  0.250000  1
