# generated using pymatgen
data_LiAgP8(WO13)2
_symmetry_space_group_name_H-M   'P 1'
_cell_length_a   7.20242616
_cell_length_b   8.28395408
_cell_length_c   17.62170400
_cell_angle_alpha   90.00000000
_cell_angle_beta   90.00000000
_cell_angle_gamma   89.14249224
_symmetry_Int_Tables_number   1
_chemical_formula_structural   LiAgP8(WO13)2
_chemical_formula_sum   'Li2 Ag2 P16 W4 O52'
_cell_volume   1051.27360031
_cell_formula_units_Z   2
loop_
 _symmetry_equiv_pos_site_id
 _symmetry_equiv_pos_as_xyz
  1  'x, y, z'
loop_
 _atom_site_type_symbol
 _atom_site_label
 _atom_site_symmetry_multiplicity
 _atom_site_fract_x
 _atom_site_fract_y
 _atom_site_fract_z
 _atom_site_occupancy
  Li  Li0  1  0.726159  0.741308  0.499246  1
  Li  Li1  1  0.773841  0.258692  0.999246  1
  Ag  Ag2  1  0.206492  0.719526  0.482282  1
  Ag  Ag3  1  0.293508  0.280474  0.982282  1
  P  P4  1  0.066278  0.314504  0.425907  1
  P  P5  1  0.084918  0.896988  0.925292  1
  P  P6  1  0.098287  0.898069  0.663668  1
  P  P7  1  0.093954  0.346928  0.171058  1
  P  P8  1  0.406046  0.653072  0.671058  1
  P  P9  1  0.401713  0.101931  0.163668  1
  P  P10  1  0.415082  0.103012  0.425292  1
  P  P11  1  0.433722  0.685496  0.925907  1
  P  P12  1  0.570507  0.175236  0.574508  1
  P  P13  1  0.592499  0.601497  0.075616  1
  P  P14  1  0.598559  0.607384  0.337141  1
  P  P15  1  0.602050  0.156505  0.830264  1
  P  P16  1  0.897950  0.843495  0.330264  1
  P  P17  1  0.901441  0.392616  0.837141  1
  P  P18  1  0.907501  0.398503  0.575616  1
  P  P19  1  0.929493  0.824764  0.074508  1
  W  W20  1  0.234140  0.276761  0.712573  1
  W  W21  1  0.265860  0.723239  0.212573  1
  W  W22  1  0.729843  0.224151  0.288514  1
  W  W23  1  0.770157  0.775849  0.788514  1
  O  O24  1  0.004418  0.780088  0.989855  1
  O  O25  1  0.018027  0.357891  0.647818  1
  O  O26  1  0.075026  0.071084  0.942711  1
  O  O27  1  0.073135  0.355793  0.087718  1
  O  O28  1  0.078259  0.800374  0.288499  1
  O  O29  1  0.087511  0.327779  0.805697  1
  O  O30  1  0.097795  0.783947  0.124873  1
  O  O31  1  0.109707  0.912558  0.580457  1
  O  O32  1  0.132371  0.061776  0.707518  1
  O  O33  1  0.155881  0.471530  0.413439  1
  O  O34  1  0.165896  0.508575  0.208509  1
  O  O35  1  0.202292  0.160975  0.414912  1
  O  O36  1  0.243840  0.216773  0.201433  1
  O  O37  1  0.256160  0.783227  0.701433  1
  O  O38  1  0.297708  0.839025  0.914912  1
  O  O39  1  0.334104  0.491425  0.708509  1
  O  O40  1  0.344119  0.528470  0.913439  1
  O  O41  1  0.367629  0.938224  0.207518  1
  O  O42  1  0.390293  0.087442  0.080457  1
  O  O43  1  0.402205  0.216053  0.624873  1
  O  O44  1  0.412489  0.672221  0.305697  1
  O  O45  1  0.426865  0.644207  0.587718  1
  O  O46  1  0.421741  0.199626  0.788499  1
  O  O47  1  0.424974  0.928916  0.442711  1
  O  O48  1  0.481973  0.642109  0.147818  1
  O  O49  1  0.495582  0.219912  0.489855  1
  O  O50  1  0.499169  0.715978  0.012310  1
  O  O51  1  0.511455  0.156851  0.352062  1
  O  O52  1  0.608779  0.429078  0.054291  1
  O  O53  1  0.596600  0.154283  0.914453  1
  O  O54  1  0.578736  0.696120  0.717168  1
  O  O55  1  0.583847  0.169729  0.196413  1
  O  O56  1  0.605675  0.726563  0.879137  1
  O  O57  1  0.615879  0.600923  0.420515  1
  O  O58  1  0.632344  0.441925  0.295506  1
  O  O59  1  0.660285  0.015217  0.580268  1
  O  O60  1  0.669732  0.992895  0.793112  1
  O  O61  1  0.705639  0.325426  0.589146  1
  O  O62  1  0.747517  0.282524  0.796109  1
  O  O63  1  0.752483  0.717476  0.296109  1
  O  O64  1  0.794361  0.674574  0.089146  1
  O  O65  1  0.830268  0.007105  0.293112  1
  O  O66  1  0.839715  0.984783  0.080268  1
  O  O67  1  0.867656  0.558075  0.795506  1
  O  O68  1  0.884121  0.399077  0.920515  1
  O  O69  1  0.894325  0.273437  0.379137  1
  O  O70  1  0.916153  0.830271  0.696413  1
  O  O71  1  0.903400  0.845717  0.414453  1
  O  O72  1  0.921264  0.303880  0.217168  1
  O  O73  1  0.891221  0.570922  0.554291  1
  O  O74  1  0.988545  0.843149  0.852062  1
  O  O75  1  0.000831  0.284022  0.512310  1
