# generated using pymatgen
data_TbPr3Th4(ZnRh)8
_symmetry_space_group_name_H-M   'P 1'
_cell_length_a   3.99472400
_cell_length_b   7.41102587
_cell_length_c   16.63470475
_cell_angle_alpha   90.71987054
_cell_angle_beta   90.00000000
_cell_angle_gamma   90.00000000
_symmetry_Int_Tables_number   1
_chemical_formula_structural   TbPr3Th4(ZnRh)8
_chemical_formula_sum   'Tb1 Pr3 Th4 Zn8 Rh8'
_cell_volume   492.43161273
_cell_formula_units_Z   1
loop_
 _symmetry_equiv_pos_site_id
 _symmetry_equiv_pos_as_xyz
  1  'x, y, z'
loop_
 _atom_site_type_symbol
 _atom_site_label
 _atom_site_symmetry_multiplicity
 _atom_site_fract_x
 _atom_site_fract_y
 _atom_site_fract_z
 _atom_site_occupancy
  Tb  Tb0  1  0.250000  0.170122  0.940095  1
  Pr  Pr1  1  0.250000  0.555142  0.785631  1
  Pr  Pr2  1  0.750000  0.329962  0.441042  1
  Pr  Pr3  1  0.250000  0.676046  0.559893  1
  Th  Th4  1  0.750000  0.440162  0.214011  1
  Th  Th5  1  0.750000  0.944178  0.285458  1
  Th  Th6  1  0.750000  0.826307  0.057638  1
  Th  Th7  1  0.250000  0.057006  0.716373  1
  Zn  Zn8  1  0.250000  0.002853  0.441678  1
  Zn  Zn9  1  0.750000  0.488235  0.939601  1
  Zn  Zn10  1  0.750000  0.004765  0.558034  1
  Zn  Zn11  1  0.250000  0.613829  0.349153  1
  Zn  Zn12  1  0.750000  0.388103  0.652066  1
  Zn  Zn13  1  0.750000  0.886364  0.852670  1
  Zn  Zn14  1  0.250000  0.488317  0.057770  1
  Zn  Zn15  1  0.250000  0.112928  0.150075  1
  Rh  Rh16  1  0.250000  0.245649  0.569848  1
  Rh  Rh17  1  0.750000  0.247314  0.066187  1
  Rh  Rh18  1  0.250000  0.239835  0.308109  1
  Rh  Rh19  1  0.750000  0.245382  0.811806  1
  Rh  Rh20  1  0.250000  0.754568  0.942195  1
  Rh  Rh21  1  0.750000  0.779046  0.688342  1
  Rh  Rh22  1  0.750000  0.765429  0.427336  1
  Rh  Rh23  1  0.250000  0.738459  0.184992  1
