# generated using pymatgen
data_LiLu3Ir8
_symmetry_space_group_name_H-M   'P 1'
_cell_length_a   5.28114000
_cell_length_b   5.28113965
_cell_length_c   8.56909700
_cell_angle_alpha   90.00000000
_cell_angle_beta   90.00000000
_cell_angle_gamma   120.00000217
_symmetry_Int_Tables_number   1
_chemical_formula_structural   LiLu3Ir8
_chemical_formula_sum   'Li1 Lu3 Ir8'
_cell_volume   206.97648807
_cell_formula_units_Z   1
loop_
 _symmetry_equiv_pos_site_id
 _symmetry_equiv_pos_as_xyz
  1  'x, y, z'
loop_
 _atom_site_type_symbol
 _atom_site_label
 _atom_site_symmetry_multiplicity
 _atom_site_fract_x
 _atom_site_fract_y
 _atom_site_fract_z
 _atom_site_occupancy
  Li  Li0  1  0.333333  0.666667  0.438776  1
  Lu  Lu1  1  0.333333  0.666667  0.085645  1
  Lu  Lu2  1  0.666667  0.333333  0.554924  1
  Lu  Lu3  1  0.666667  0.333333  0.930317  1
  Ir  Ir4  1  0.000000  0.000000  0.998091  1
  Ir  Ir5  1  0.000000  0.000000  0.497929  1
  Ir  Ir6  1  0.830080  0.660160  0.249726  1
  Ir  Ir7  1  0.171392  0.828608  0.748381  1
  Ir  Ir8  1  0.657215  0.828608  0.748381  1
  Ir  Ir9  1  0.339840  0.169920  0.249726  1
  Ir  Ir10  1  0.830080  0.169920  0.249726  1
  Ir  Ir11  1  0.171392  0.342785  0.748381  1
