# generated using pymatgen
data_Y12In2CoOs3
_symmetry_space_group_name_H-M   'P 1'
_cell_length_a   8.50863170
_cell_length_b   8.50863409
_cell_length_c   8.50863161
_cell_angle_alpha   112.52529918
_cell_angle_beta   110.81854796
_cell_angle_gamma   105.15903991
_symmetry_Int_Tables_number   1
_chemical_formula_structural   Y12In2CoOs3
_chemical_formula_sum   'Y12 In2 Co1 Os3'
_cell_volume   472.08709431
_cell_formula_units_Z   1
loop_
 _symmetry_equiv_pos_site_id
 _symmetry_equiv_pos_as_xyz
  1  'x, y, z'
loop_
 _atom_site_type_symbol
 _atom_site_label
 _atom_site_symmetry_multiplicity
 _atom_site_fract_x
 _atom_site_fract_y
 _atom_site_fract_z
 _atom_site_occupancy
  Y  Y0  1  0.445026  0.243146  0.201880  1
  Y  Y1  1  0.553327  0.757521  0.795806  1
  Y  Y2  1  0.041266  0.243146  0.798120  1
  Y  Y3  1  0.961714  0.757521  0.204194  1
  Y  Y4  1  0.185590  0.283387  0.466697  1
  Y  Y5  1  0.816690  0.718893  0.533304  1
  Y  Y6  1  0.185589  0.718893  0.902203  1
  Y  Y7  1  0.816690  0.283387  0.097797  1
  Y  Y8  1  0.327742  0.642732  0.314989  1
  Y  Y9  1  0.673802  0.358364  0.684562  1
  Y  Y10  1  0.327742  0.012753  0.685010  1
  Y  Y11  1  0.673802  0.989239  0.315439  1
  In  In12  1  0.501427  0.501426  0.000000  1
  In  In13  1  0.998695  0.998695  0.000000  1
  Co  Co14  1  0.879253  0.379253  0.500000  1
  Os  Os15  1  0.332186  0.001795  0.330391  1
  Os  Os16  1  0.671403  0.001795  0.669609  1
  Os  Os17  1  0.108057  0.608057  0.500000  1
