# generated using pymatgen
data_DyLu5Si24Os5Ru3
_symmetry_space_group_name_H-M   'P 1'
_cell_length_a   10.09358669
_cell_length_b   10.09361489
_cell_length_c   8.10655354
_cell_angle_alpha   89.93332309
_cell_angle_beta   90.06173928
_cell_angle_gamma   132.61978687
_symmetry_Int_Tables_number   1
_chemical_formula_structural   DyLu5Si24Os5Ru3
_chemical_formula_sum   'Dy1 Lu5 Si24 Os5 Ru3'
_cell_volume   607.75048136
_cell_formula_units_Z   1
loop_
 _symmetry_equiv_pos_site_id
 _symmetry_equiv_pos_as_xyz
  1  'x, y, z'
loop_
 _atom_site_type_symbol
 _atom_site_label
 _atom_site_symmetry_multiplicity
 _atom_site_fract_x
 _atom_site_fract_y
 _atom_site_fract_z
 _atom_site_occupancy
  Dy  Dy0  1  0.001536  0.501489  0.749414  1
  Lu  Lu1  1  0.499452  0.499504  0.500053  1
  Lu  Lu2  1  0.000007  0.999987  0.999475  1
  Lu  Lu3  1  0.501385  0.001335  0.749520  1
  Lu  Lu4  1  0.998454  0.498626  0.250405  1
  Lu  Lu5  1  0.498612  0.998465  0.250438  1
  Si  Si6  1  0.795417  0.204100  0.499394  1
  Si  Si7  1  0.296609  0.704419  0.001166  1
  Si  Si8  1  0.205183  0.796439  0.499541  1
  Si  Si9  1  0.703269  0.295515  0.001222  1
  Si  Si10  1  0.332769  0.333011  0.833054  1
  Si  Si11  1  0.667739  0.667748  0.167324  1
  Si  Si12  1  0.166629  0.166508  0.330864  1
  Si  Si13  1  0.830753  0.830601  0.666272  1
  Si  Si14  1  0.120364  0.885912  0.728559  1
  Si  Si15  1  0.113869  0.880437  0.272373  1
  Si  Si16  1  0.611750  0.379080  0.228393  1
  Si  Si17  1  0.622274  0.388903  0.771464  1
  Si  Si18  1  0.881677  0.115015  0.272365  1
  Si  Si19  1  0.886020  0.120283  0.728438  1
  Si  Si20  1  0.388657  0.622200  0.771296  1
  Si  Si21  1  0.377632  0.610442  0.228358  1
  Si  Si22  1  0.344600  0.111185  0.503450  1
  Si  Si23  1  0.887935  0.654744  0.496216  1
  Si  Si24  1  0.388331  0.155441  0.005683  1
  Si  Si25  1  0.845568  0.612996  0.995047  1
  Si  Si26  1  0.655986  0.888622  0.496948  1
  Si  Si27  1  0.111918  0.345709  0.502971  1
  Si  Si28  1  0.612252  0.844487  0.994523  1
  Si  Si29  1  0.154203  0.387664  0.006336  1
  Os  Os30  1  0.668313  0.328818  0.499322  1
  Os  Os31  1  0.171603  0.831096  0.001213  1
  Os  Os32  1  0.331934  0.671357  0.498930  1
  Os  Os33  1  0.827937  0.168520  0.000936  1
  Os  Os34  1  0.126748  0.126602  0.627175  1
  Ru  Ru35  1  0.873079  0.873054  0.372482  1
  Ru  Ru36  1  0.371927  0.372005  0.127908  1
  Ru  Ru37  1  0.627609  0.627679  0.871474  1
