# generated using pymatgen
data_Sr10CoRe3N14
_symmetry_space_group_name_H-M   'P 1'
_cell_length_a   6.43733642
_cell_length_b   9.14765909
_cell_length_c   9.37476793
_cell_angle_alpha   113.89819370
_cell_angle_beta   98.63486443
_cell_angle_gamma   89.68268350
_symmetry_Int_Tables_number   1
_chemical_formula_structural   Sr10CoRe3N14
_chemical_formula_sum   'Sr10 Co1 Re3 N14'
_cell_volume   498.06388609
_cell_formula_units_Z   1
loop_
 _symmetry_equiv_pos_site_id
 _symmetry_equiv_pos_as_xyz
  1  'x, y, z'
loop_
 _atom_site_type_symbol
 _atom_site_label
 _atom_site_symmetry_multiplicity
 _atom_site_fract_x
 _atom_site_fract_y
 _atom_site_fract_z
 _atom_site_occupancy
  Sr  Sr0  1  0.859346  0.577393  0.337452  1
  Sr  Sr1  1  0.265687  0.986276  0.557897  1
  Sr  Sr2  1  0.687070  0.397980  0.827492  1
  Sr  Sr3  1  0.293802  0.586529  0.143319  1
  Sr  Sr4  1  0.394388  0.789260  0.915240  1
  Sr  Sr5  1  0.612370  0.215965  0.109698  1
  Sr  Sr6  1  0.150714  0.403660  0.649129  1
  Sr  Sr7  1  0.885142  0.838775  0.758440  1
  Sr  Sr8  1  0.137057  0.163051  0.256319  1
  Sr  Sr9  1  0.729020  0.043847  0.439551  1
  Co  Co10  1  0.591132  0.367500  0.472472  1
  Re  Re11  1  0.427956  0.633253  0.523413  1
  Re  Re12  1  0.121691  0.215838  0.915378  1
  Re  Re13  1  0.873367  0.776312  0.083123  1
  N  N14  1  0.542931  0.574515  0.687077  1
  N  N15  1  0.437773  0.456959  0.328681  1
  N  N16  1  0.162202  0.699517  0.571329  1
  N  N17  1  0.844076  0.298472  0.404119  1
  N  N18  1  0.412908  0.202698  0.504709  1
  N  N19  1  0.588432  0.800628  0.524305  1
  N  N20  1  0.954666  0.138904  0.718318  1
  N  N21  1  0.044589  0.847194  0.277193  1
  N  N22  1  0.228380  0.051935  0.965660  1
  N  N23  1  0.764767  0.943415  0.039138  1
  N  N24  1  0.350980  0.331271  0.911559  1
  N  N25  1  0.971184  0.345637  0.067596  1
  N  N26  1  0.023919  0.654871  0.925368  1
  N  N27  1  0.644449  0.658347  0.086028  1
