# generated using pymatgen
data_CeNdTm3Si4
_symmetry_space_group_name_H-M   'P 1'
_cell_length_a   7.72041900
_cell_length_b   7.72041900
_cell_length_c   14.22264000
_cell_angle_alpha   90.00000000
_cell_angle_beta   90.00000000
_cell_angle_gamma   90.00000000
_symmetry_Int_Tables_number   1
_chemical_formula_structural   CeNdTm3Si4
_chemical_formula_sum   'Ce4 Nd4 Tm12 Si16'
_cell_volume   847.73860165
_cell_formula_units_Z   4
loop_
 _symmetry_equiv_pos_site_id
 _symmetry_equiv_pos_as_xyz
  1  'x, y, z'
loop_
 _atom_site_type_symbol
 _atom_site_label
 _atom_site_symmetry_multiplicity
 _atom_site_fract_x
 _atom_site_fract_y
 _atom_site_fract_z
 _atom_site_occupancy
  Ce  Ce0  1  0.851930  0.505719  0.959959  1
  Ce  Ce1  1  0.148070  0.494281  0.459959  1
  Ce  Ce2  1  0.005719  0.648070  0.709959  1
  Ce  Ce3  1  0.994281  0.351930  0.209959  1
  Nd  Nd4  1  0.494311  0.145450  0.540547  1
  Nd  Nd5  1  0.505689  0.854550  0.040547  1
  Nd  Nd6  1  0.645450  0.005689  0.290547  1
  Nd  Nd7  1  0.354550  0.994311  0.790547  1
  Tm  Tm8  1  0.681900  0.323023  0.750367  1
  Tm  Tm9  1  0.318100  0.676977  0.250367  1
  Tm  Tm10  1  0.823023  0.818100  0.500367  1
  Tm  Tm11  1  0.176977  0.181900  0.000367  1
  Tm  Tm12  1  0.505508  0.355878  0.126291  1
  Tm  Tm13  1  0.494492  0.644122  0.626291  1
  Tm  Tm14  1  0.855878  0.994492  0.876291  1
  Tm  Tm15  1  0.144122  0.005508  0.376291  1
  Tm  Tm16  1  0.643469  0.493608  0.373439  1
  Tm  Tm17  1  0.356531  0.506392  0.873439  1
  Tm  Tm18  1  0.993608  0.856531  0.123439  1
  Tm  Tm19  1  0.006392  0.143469  0.623439  1
  Si  Si20  1  0.796649  0.150154  0.063074  1
  Si  Si21  1  0.203351  0.849846  0.563074  1
  Si  Si22  1  0.650154  0.703351  0.813074  1
  Si  Si23  1  0.349846  0.296649  0.313074  1
  Si  Si24  1  0.855621  0.208406  0.436054  1
  Si  Si25  1  0.144379  0.791594  0.936054  1
  Si  Si26  1  0.708406  0.644379  0.186054  1
  Si  Si27  1  0.291594  0.355621  0.686054  1
  Si  Si28  1  0.559969  0.210234  0.938070  1
  Si  Si29  1  0.440031  0.789766  0.438070  1
  Si  Si30  1  0.710234  0.940031  0.688070  1
  Si  Si31  1  0.289766  0.059969  0.188070  1
  Si  Si32  1  0.794995  0.442762  0.562201  1
  Si  Si33  1  0.205005  0.557238  0.062201  1
  Si  Si34  1  0.942762  0.705005  0.312201  1
  Si  Si35  1  0.057238  0.294995  0.812201  1
