# generated using pymatgen
data_Y5Ho(ThSn2)4
_symmetry_space_group_name_H-M   'P 1'
_cell_length_a   8.13372100
_cell_length_b   8.23506800
_cell_length_c   15.56636000
_cell_angle_alpha   90.00000000
_cell_angle_beta   90.00000000
_cell_angle_gamma   90.00000000
_symmetry_Int_Tables_number   1
_chemical_formula_structural   Y5Ho(ThSn2)4
_chemical_formula_sum   'Y10 Ho2 Th8 Sn16'
_cell_volume   1042.66196432
_cell_formula_units_Z   2
loop_
 _symmetry_equiv_pos_site_id
 _symmetry_equiv_pos_as_xyz
  1  'x, y, z'
loop_
 _atom_site_type_symbol
 _atom_site_label
 _atom_site_symmetry_multiplicity
 _atom_site_fract_x
 _atom_site_fract_y
 _atom_site_fract_z
 _atom_site_occupancy
  Y  Y0  1  0.363597  0.836489  0.876510  1
  Y  Y1  1  0.863597  0.663511  0.623490  1
  Y  Y2  1  0.636350  0.163556  0.376356  1
  Y  Y3  1  0.136350  0.336444  0.123644  1
  Y  Y4  1  0.636350  0.163556  0.123644  1
  Y  Y5  1  0.136350  0.336444  0.376356  1
  Y  Y6  1  0.363597  0.836489  0.623490  1
  Y  Y7  1  0.863597  0.663511  0.876510  1
  Y  Y8  1  0.192165  0.497690  0.750000  1
  Y  Y9  1  0.692165  0.002310  0.750000  1
  Ho  Ho10  1  0.807782  0.502353  0.250000  1
  Ho  Ho11  1  0.307782  0.997647  0.250000  1
  Th  Th12  1  0.519411  0.320484  0.903420  1
  Th  Th13  1  0.019411  0.179516  0.596580  1
  Th  Th14  1  0.480634  0.679538  0.403280  1
  Th  Th15  1  0.980634  0.820462  0.096720  1
  Th  Th16  1  0.480634  0.679538  0.096720  1
  Th  Th17  1  0.980634  0.820462  0.403280  1
  Th  Th18  1  0.519411  0.320484  0.596580  1
  Th  Th19  1  0.019411  0.179516  0.903420  1
  Sn  Sn20  1  0.296812  0.038379  0.042343  1
  Sn  Sn21  1  0.796812  0.461621  0.457657  1
  Sn  Sn22  1  0.703198  0.961543  0.542176  1
  Sn  Sn23  1  0.203198  0.538457  0.957824  1
  Sn  Sn24  1  0.703198  0.961543  0.957824  1
  Sn  Sn25  1  0.203198  0.538457  0.542176  1
  Sn  Sn26  1  0.296812  0.038379  0.457657  1
  Sn  Sn27  1  0.796812  0.461621  0.042343  1
  Sn  Sn28  1  0.559449  0.621197  0.750000  1
  Sn  Sn29  1  0.059449  0.878803  0.750000  1
  Sn  Sn30  1  0.440803  0.378683  0.250000  1
  Sn  Sn31  1  0.940803  0.121317  0.250000  1
  Sn  Sn32  1  0.325451  0.142419  0.750000  1
  Sn  Sn33  1  0.825451  0.357581  0.750000  1
  Sn  Sn34  1  0.674347  0.857378  0.250000  1
  Sn  Sn35  1  0.174347  0.642622  0.250000  1
