# generated using pymatgen
data_RbBa3(ZnSb)8
_symmetry_space_group_name_H-M   'P 1'
_cell_length_a   4.53293200
_cell_length_b   10.80640147
_cell_length_c   11.79101870
_cell_angle_alpha   89.59357742
_cell_angle_beta   90.00000000
_cell_angle_gamma   90.00000000
_symmetry_Int_Tables_number   1
_chemical_formula_structural   RbBa3(ZnSb)8
_chemical_formula_sum   'Rb1 Ba3 Zn8 Sb8'
_cell_volume   577.56478302
_cell_formula_units_Z   1
loop_
 _symmetry_equiv_pos_site_id
 _symmetry_equiv_pos_as_xyz
  1  'x, y, z'
loop_
 _atom_site_type_symbol
 _atom_site_label
 _atom_site_symmetry_multiplicity
 _atom_site_fract_x
 _atom_site_fract_y
 _atom_site_fract_z
 _atom_site_occupancy
  Rb  Rb0  1  0.250000  0.746251  0.322769  1
  Ba  Ba1  1  0.750000  0.255838  0.678610  1
  Ba  Ba2  1  0.250000  0.245461  0.178717  1
  Ba  Ba3  1  0.750000  0.753523  0.820344  1
  Zn  Zn4  1  0.750000  0.394706  0.952875  1
  Zn  Zn5  1  0.250000  0.601460  0.049434  1
  Zn  Zn6  1  0.250000  0.104346  0.453038  1
  Zn  Zn7  1  0.750000  0.896995  0.541271  1
  Zn  Zn8  1  0.750000  0.950019  0.125180  1
  Zn  Zn9  1  0.250000  0.045286  0.875934  1
  Zn  Zn10  1  0.750000  0.457192  0.378848  1
  Zn  Zn11  1  0.250000  0.549938  0.625550  1
  Sb  Sb12  1  0.750000  0.645331  0.539558  1
  Sb  Sb13  1  0.250000  0.355271  0.464700  1
  Sb  Sb14  1  0.250000  0.853089  0.035875  1
  Sb  Sb15  1  0.750000  0.144680  0.961486  1
  Sb  Sb16  1  0.750000  0.516135  0.155231  1
  Sb  Sb17  1  0.250000  0.475598  0.842738  1
  Sb  Sb18  1  0.750000  0.032931  0.341048  1
  Sb  Sb19  1  0.250000  0.975949  0.656793  1
