# generated using pymatgen
data_CaLu6Co6Sn23
_symmetry_space_group_name_H-M   'P 1'
_cell_length_a   9.65162900
_cell_length_b   9.65162797
_cell_length_c   9.92369600
_cell_angle_alpha   90.00000000
_cell_angle_beta   90.00000000
_cell_angle_gamma   120.00000011
_symmetry_Int_Tables_number   1
_chemical_formula_structural   CaLu6Co6Sn23
_chemical_formula_sum   'Ca1 Lu6 Co6 Sn23'
_cell_volume   800.58099451
_cell_formula_units_Z   1
loop_
 _symmetry_equiv_pos_site_id
 _symmetry_equiv_pos_as_xyz
  1  'x, y, z'
loop_
 _atom_site_type_symbol
 _atom_site_label
 _atom_site_symmetry_multiplicity
 _atom_site_fract_x
 _atom_site_fract_y
 _atom_site_fract_z
 _atom_site_occupancy
  Ca  Ca0  1  0.000000  0.000000  0.000000  1
  Lu  Lu1  1  0.520182  0.479818  0.693190  1
  Lu  Lu2  1  0.520182  0.040364  0.693190  1
  Lu  Lu3  1  0.959636  0.479818  0.693190  1
  Lu  Lu4  1  0.040364  0.520182  0.306810  1
  Lu  Lu5  1  0.479818  0.959636  0.306810  1
  Lu  Lu6  1  0.479818  0.520182  0.306810  1
  Co  Co7  1  0.169567  0.830433  0.800979  1
  Co  Co8  1  0.169567  0.339133  0.800979  1
  Co  Co9  1  0.660867  0.830433  0.800979  1
  Co  Co10  1  0.339133  0.169567  0.199021  1
  Co  Co11  1  0.830433  0.660867  0.199021  1
  Co  Co12  1  0.830433  0.169567  0.199021  1
  Sn  Sn13  1  0.666667  0.333333  0.182951  1
  Sn  Sn14  1  0.666667  0.333333  0.877530  1
  Sn  Sn15  1  0.333333  0.666667  0.122470  1
  Sn  Sn16  1  0.346630  0.346630  0.000000  1
  Sn  Sn17  1  0.000000  0.653370  0.000000  1
  Sn  Sn18  1  0.653370  0.000000  0.000000  1
  Sn  Sn19  1  0.653370  0.653370  0.000000  1
  Sn  Sn20  1  0.333333  0.666667  0.817049  1
  Sn  Sn21  1  0.437874  0.218938  0.452301  1
  Sn  Sn22  1  0.218938  0.781062  0.547699  1
  Sn  Sn23  1  0.218938  0.437874  0.547699  1
  Sn  Sn24  1  0.562126  0.781062  0.547699  1
  Sn  Sn25  1  0.118911  0.881089  0.274440  1
  Sn  Sn26  1  0.781062  0.562126  0.452301  1
  Sn  Sn27  1  0.781062  0.218938  0.452301  1
  Sn  Sn28  1  0.346630  0.000000  0.000000  1
  Sn  Sn29  1  0.118911  0.237824  0.274440  1
  Sn  Sn30  1  0.762176  0.881089  0.274440  1
  Sn  Sn31  1  0.237824  0.118911  0.725560  1
  Sn  Sn32  1  0.881089  0.762176  0.725560  1
  Sn  Sn33  1  0.881089  0.118911  0.725560  1
  Sn  Sn34  1  0.000000  0.000000  0.500000  1
  Sn  Sn35  1  0.000000  0.346630  0.000000  1
