# generated using pymatgen
data_Hf9TaFeTc3
_symmetry_space_group_name_H-M   'P 1'
_cell_length_a   8.43523400
_cell_length_b   8.63046515
_cell_length_c   8.63046400
_cell_angle_alpha   119.99449048
_cell_angle_beta   90.00000000
_cell_angle_gamma   90.00000000
_symmetry_Int_Tables_number   1
_chemical_formula_structural   Hf9TaFeTc3
_chemical_formula_sum   'Hf18 Ta2 Fe2 Tc6'
_cell_volume   544.15199214
_cell_formula_units_Z   2
loop_
 _symmetry_equiv_pos_site_id
 _symmetry_equiv_pos_as_xyz
  1  'x, y, z'
loop_
 _atom_site_type_symbol
 _atom_site_label
 _atom_site_symmetry_multiplicity
 _atom_site_fract_x
 _atom_site_fract_y
 _atom_site_fract_z
 _atom_site_occupancy
  Hf  Hf0  1  0.559079  0.797479  0.594952  1
  Hf  Hf1  1  0.559080  0.797464  0.202536  1
  Hf  Hf2  1  0.559079  0.405048  0.202521  1
  Hf  Hf3  1  0.440921  0.202521  0.405048  1
  Hf  Hf4  1  0.440920  0.202536  0.797464  1
  Hf  Hf5  1  0.440921  0.594952  0.797479  1
  Hf  Hf6  1  0.059079  0.202521  0.405048  1
  Hf  Hf7  1  0.059080  0.202536  0.797464  1
  Hf  Hf8  1  0.059079  0.594952  0.797479  1
  Hf  Hf9  1  0.940921  0.797479  0.594952  1
  Hf  Hf10  1  0.940920  0.797464  0.202536  1
  Hf  Hf11  1  0.940921  0.405048  0.202521  1
  Hf  Hf12  1  0.750000  0.457971  0.915989  1
  Hf  Hf13  1  0.750000  0.457991  0.542009  1
  Hf  Hf14  1  0.750000  0.084011  0.542028  1
  Hf  Hf15  1  0.250000  0.542028  0.084011  1
  Hf  Hf16  1  0.250000  0.542009  0.457991  1
  Hf  Hf17  1  0.250000  0.915989  0.457971  1
  Ta  Ta18  1  0.500000  0.000000  0.000000  1
  Ta  Ta19  1  0.000000  0.000000  0.000000  1
  Fe  Fe20  1  0.750000  0.666654  0.333346  1
  Fe  Fe21  1  0.250000  0.333346  0.666654  1
  Tc  Tc22  1  0.750000  0.114504  0.229035  1
  Tc  Tc23  1  0.750000  0.114513  0.885487  1
  Tc  Tc24  1  0.750000  0.770965  0.885496  1
  Tc  Tc25  1  0.250000  0.885496  0.770965  1
  Tc  Tc26  1  0.250000  0.885487  0.114513  1
  Tc  Tc27  1  0.250000  0.229035  0.114504  1
