# generated using pymatgen
data_DyHo3Er4(CdPt)2
_symmetry_space_group_name_H-M   'P 1'
_cell_length_a   9.63308028
_cell_length_b   9.63308121
_cell_length_c   9.62401700
_cell_angle_alpha   60.03112481
_cell_angle_beta   60.03112160
_cell_angle_gamma   60.07624103
_symmetry_Int_Tables_number   1
_chemical_formula_structural   DyHo3Er4(CdPt)2
_chemical_formula_sum   'Dy2 Ho6 Er8 Cd4 Pt4'
_cell_volume   632.15820076
_cell_formula_units_Z   2
loop_
 _symmetry_equiv_pos_site_id
 _symmetry_equiv_pos_as_xyz
  1  'x, y, z'
loop_
 _atom_site_type_symbol
 _atom_site_label
 _atom_site_symmetry_multiplicity
 _atom_site_fract_x
 _atom_site_fract_y
 _atom_site_fract_z
 _atom_site_occupancy
  Dy  Dy0  1  0.602383  0.602383  0.600816  1
  Dy  Dy1  1  0.602383  0.602383  0.194417  1
  Ho  Ho2  1  0.185442  0.814861  0.814769  1
  Ho  Ho3  1  0.814861  0.185442  0.184929  1
  Ho  Ho4  1  0.814861  0.185442  0.814769  1
  Ho  Ho5  1  0.185442  0.814861  0.184929  1
  Ho  Ho6  1  0.816089  0.816089  0.183911  1
  Ho  Ho7  1  0.186630  0.186630  0.813370  1
  Er  Er8  1  0.604931  0.189644  0.602712  1
  Er  Er9  1  0.189644  0.604931  0.602712  1
  Er  Er10  1  0.061249  0.439199  0.439349  1
  Er  Er11  1  0.439199  0.061249  0.060203  1
  Er  Er12  1  0.439199  0.061249  0.439349  1
  Er  Er13  1  0.061249  0.439199  0.060203  1
  Er  Er14  1  0.439648  0.439648  0.060352  1
  Er  Er15  1  0.061223  0.061223  0.438777  1
  Cd  Cd16  1  0.831600  0.831600  0.832656  1
  Cd  Cd17  1  0.831600  0.831600  0.504145  1
  Cd  Cd18  1  0.831392  0.503789  0.832410  1
  Cd  Cd19  1  0.503789  0.831392  0.832410  1
  Pt  Pt20  1  0.392322  0.392322  0.396185  1
  Pt  Pt21  1  0.392322  0.392322  0.819170  1
  Pt  Pt22  1  0.390708  0.821831  0.393730  1
  Pt  Pt23  1  0.821831  0.390708  0.393730  1
