# generated using pymatgen
data_Ti12Cd2Sn7Sb
_symmetry_space_group_name_H-M   'P 1'
_cell_length_a   9.22853600
_cell_length_b   9.28150386
_cell_length_c   5.73327000
_cell_angle_alpha   90.00000000
_cell_angle_beta   90.00000000
_cell_angle_gamma   119.81140593
_symmetry_Int_Tables_number   1
_chemical_formula_structural   Ti12Cd2Sn7Sb
_chemical_formula_sum   'Ti12 Cd2 Sn7 Sb1'
_cell_volume   426.09494966
_cell_formula_units_Z   1
loop_
 _symmetry_equiv_pos_site_id
 _symmetry_equiv_pos_as_xyz
  1  'x, y, z'
loop_
 _atom_site_type_symbol
 _atom_site_label
 _atom_site_symmetry_multiplicity
 _atom_site_fract_x
 _atom_site_fract_y
 _atom_site_fract_z
 _atom_site_occupancy
  Ti  Ti0  1  0.840841  0.681681  0.750000  1
  Ti  Ti1  1  0.158496  0.841934  0.250000  1
  Ti  Ti2  1  0.683438  0.841934  0.250000  1
  Ti  Ti3  1  0.313442  0.159635  0.750000  1
  Ti  Ti4  1  0.846193  0.159635  0.750000  1
  Ti  Ti5  1  0.157862  0.315724  0.250000  1
  Ti  Ti6  1  0.499912  0.999825  0.499190  1
  Ti  Ti7  1  0.498950  0.500375  0.999280  1
  Ti  Ti8  1  0.001425  0.500375  0.999280  1
  Ti  Ti9  1  0.001425  0.500375  0.500720  1
  Ti  Ti10  1  0.499912  0.999825  0.000810  1
  Ti  Ti11  1  0.498950  0.500375  0.500720  1
  Cd  Cd12  1  0.997962  0.995924  0.498747  1
  Cd  Cd13  1  0.997962  0.995924  0.001253  1
  Sn  Sn14  1  0.803359  0.197533  0.250000  1
  Sn  Sn15  1  0.394174  0.197533  0.250000  1
  Sn  Sn16  1  0.608452  0.805010  0.750000  1
  Sn  Sn17  1  0.196557  0.805010  0.750000  1
  Sn  Sn18  1  0.802611  0.605222  0.250000  1
  Sn  Sn19  1  0.666085  0.332170  0.750000  1
  Sn  Sn20  1  0.334621  0.669242  0.250000  1
  Sb  Sb21  1  0.197370  0.394740  0.750000  1
