# generated using pymatgen
data_Nb2FeSi(BRu2)2
_symmetry_space_group_name_H-M   'P 1'
_cell_length_a   9.12984700
_cell_length_b   9.12984700
_cell_length_c   2.97207900
_cell_angle_alpha   90.00000000
_cell_angle_beta   90.00000000
_cell_angle_gamma   90.00000000
_symmetry_Int_Tables_number   1
_chemical_formula_structural   Nb2FeSi(BRu2)2
_chemical_formula_sum   'Nb4 Fe2 Si2 B4 Ru8'
_cell_volume   247.73498873
_cell_formula_units_Z   2
loop_
 _symmetry_equiv_pos_site_id
 _symmetry_equiv_pos_as_xyz
  1  'x, y, z'
loop_
 _atom_site_type_symbol
 _atom_site_label
 _atom_site_symmetry_multiplicity
 _atom_site_fract_x
 _atom_site_fract_y
 _atom_site_fract_z
 _atom_site_occupancy
  Nb  Nb0  1  0.827166  0.672834  0.000000  1
  Nb  Nb1  1  0.172834  0.327166  0.000000  1
  Nb  Nb2  1  0.327166  0.827166  0.000000  1
  Nb  Nb3  1  0.672834  0.172834  0.000000  1
  Fe  Fe4  1  0.500000  0.000000  0.500000  1
  Fe  Fe5  1  0.000000  0.500000  0.500000  1
  Si  Si6  1  0.500000  0.500000  0.000000  1
  Si  Si7  1  0.000000  0.000000  0.000000  1
  B  B8  1  0.616112  0.883888  0.000000  1
  B  B9  1  0.383888  0.116112  0.000000  1
  B  B10  1  0.116112  0.616112  0.000000  1
  B  B11  1  0.883888  0.383888  0.000000  1
  Ru  Ru12  1  0.565399  0.714787  0.500000  1
  Ru  Ru13  1  0.434601  0.285213  0.500000  1
  Ru  Ru14  1  0.065399  0.785213  0.500000  1
  Ru  Ru15  1  0.934601  0.214787  0.500000  1
  Ru  Ru16  1  0.285213  0.565399  0.500000  1
  Ru  Ru17  1  0.714787  0.434601  0.500000  1
  Ru  Ru18  1  0.214787  0.065399  0.500000  1
  Ru  Ru19  1  0.785213  0.934601  0.500000  1
