# generated using pymatgen
data_TbDy2Zr(Co4P3)2
_symmetry_space_group_name_H-M   'P 1'
_cell_length_a   3.71837100
_cell_length_b   10.69417100
_cell_length_c   12.40982900
_cell_angle_alpha   90.00000000
_cell_angle_beta   90.00000000
_cell_angle_gamma   90.00000000
_symmetry_Int_Tables_number   1
_chemical_formula_structural   TbDy2Zr(Co4P3)2
_chemical_formula_sum   'Tb2 Dy4 Zr2 Co16 P12'
_cell_volume   493.47555107
_cell_formula_units_Z   2
loop_
 _symmetry_equiv_pos_site_id
 _symmetry_equiv_pos_as_xyz
  1  'x, y, z'
loop_
 _atom_site_type_symbol
 _atom_site_label
 _atom_site_symmetry_multiplicity
 _atom_site_fract_x
 _atom_site_fract_y
 _atom_site_fract_z
 _atom_site_occupancy
  Tb  Tb0  1  0.000000  0.500000  0.529515  1
  Tb  Tb1  1  0.500000  0.000000  0.470485  1
  Dy  Dy2  1  0.500000  0.821715  0.204725  1
  Dy  Dy3  1  0.500000  0.178285  0.204725  1
  Dy  Dy4  1  0.000000  0.678285  0.795275  1
  Dy  Dy5  1  0.000000  0.321715  0.795275  1
  Zr  Zr6  1  0.500000  0.500000  0.158162  1
  Zr  Zr7  1  0.000000  0.000000  0.841838  1
  Co  Co8  1  0.500000  0.500000  0.703960  1
  Co  Co9  1  0.000000  0.000000  0.296040  1
  Co  Co10  1  0.000000  0.500000  0.986042  1
  Co  Co11  1  0.500000  0.000000  0.013958  1
  Co  Co12  1  0.500000  0.331823  0.993007  1
  Co  Co13  1  0.500000  0.668177  0.993007  1
  Co  Co14  1  0.000000  0.168177  0.006993  1
  Co  Co15  1  0.000000  0.831823  0.006993  1
  Co  Co16  1  0.500000  0.295138  0.433384  1
  Co  Co17  1  0.500000  0.704862  0.433384  1
  Co  Co18  1  0.000000  0.204862  0.566616  1
  Co  Co19  1  0.000000  0.795138  0.566616  1
  Co  Co20  1  0.500000  0.877595  0.701366  1
  Co  Co21  1  0.500000  0.122405  0.701366  1
  Co  Co22  1  0.000000  0.622405  0.298634  1
  Co  Co23  1  0.000000  0.377595  0.298634  1
  P  P24  1  0.500000  0.500000  0.883933  1
  P  P25  1  0.000000  0.000000  0.116067  1
  P  P26  1  0.500000  0.500000  0.362854  1
  P  P27  1  0.000000  0.000000  0.637146  1
  P  P28  1  0.500000  0.309612  0.615687  1
  P  P29  1  0.500000  0.690388  0.615687  1
  P  P30  1  0.000000  0.190388  0.384313  1
  P  P31  1  0.000000  0.809612  0.384313  1
  P  P32  1  0.500000  0.838015  0.893968  1
  P  P33  1  0.500000  0.161985  0.893968  1
  P  P34  1  0.000000  0.661985  0.106032  1
  P  P35  1  0.000000  0.338015  0.106032  1
