# generated using pymatgen
data_Ca3(CeRu)2
_symmetry_space_group_name_H-M   'P 1'
_cell_length_a   9.07251158
_cell_length_b   9.07251152
_cell_length_c   7.28781565
_cell_angle_alpha   84.63546074
_cell_angle_beta   84.63545540
_cell_angle_gamma   43.13964065
_symmetry_Int_Tables_number   1
_chemical_formula_structural   Ca3(CeRu)2
_chemical_formula_sum   'Ca6 Ce4 Ru4'
_cell_volume   408.09590210
_cell_formula_units_Z   2
loop_
 _symmetry_equiv_pos_site_id
 _symmetry_equiv_pos_as_xyz
  1  'x, y, z'
loop_
 _atom_site_type_symbol
 _atom_site_label
 _atom_site_symmetry_multiplicity
 _atom_site_fract_x
 _atom_site_fract_y
 _atom_site_fract_z
 _atom_site_occupancy
  Ca  Ca0  1  0.358697  0.218893  0.818110  1
  Ca  Ca1  1  0.781107  0.641303  0.681890  1
  Ca  Ca2  1  0.641303  0.781107  0.181890  1
  Ca  Ca3  1  0.218893  0.358697  0.318110  1
  Ca  Ca4  1  0.570669  0.429331  0.750000  1
  Ca  Ca5  1  0.429331  0.570669  0.250000  1
  Ce  Ce6  1  0.994849  0.823790  0.902075  1
  Ce  Ce7  1  0.176210  0.005151  0.597925  1
  Ce  Ce8  1  0.005151  0.176210  0.097925  1
  Ce  Ce9  1  0.823790  0.994849  0.402075  1
  Ru  Ru10  1  0.117102  0.673251  0.603778  1
  Ru  Ru11  1  0.326749  0.882898  0.896222  1
  Ru  Ru12  1  0.882898  0.326749  0.396222  1
  Ru  Ru13  1  0.673251  0.117102  0.103778  1
