# generated using pymatgen
data_Er4Ga4RuPt3
_symmetry_space_group_name_H-M   'P 1'
_cell_length_a   4.41240200
_cell_length_b   6.80345086
_cell_length_c   7.68885705
_cell_angle_alpha   89.91583296
_cell_angle_beta   90.00000000
_cell_angle_gamma   90.00000000
_symmetry_Int_Tables_number   1
_chemical_formula_structural   Er4Ga4RuPt3
_chemical_formula_sum   'Er4 Ga4 Ru1 Pt3'
_cell_volume   230.81585778
_cell_formula_units_Z   1
loop_
 _symmetry_equiv_pos_site_id
 _symmetry_equiv_pos_as_xyz
  1  'x, y, z'
loop_
 _atom_site_type_symbol
 _atom_site_label
 _atom_site_symmetry_multiplicity
 _atom_site_fract_x
 _atom_site_fract_y
 _atom_site_fract_z
 _atom_site_occupancy
  Er  Er0  1  0.250000  0.984118  0.304123  1
  Er  Er1  1  0.250000  0.480370  0.192515  1
  Er  Er2  1  0.750000  0.015803  0.700948  1
  Er  Er3  1  0.750000  0.511643  0.802217  1
  Ga  Ga4  1  0.250000  0.325244  0.576450  1
  Ga  Ga5  1  0.250000  0.832770  0.925149  1
  Ga  Ga6  1  0.750000  0.673457  0.427360  1
  Ga  Ga7  1  0.750000  0.175977  0.070730  1
  Ru  Ru8  1  0.250000  0.225936  0.899914  1
  Pt  Pt9  1  0.250000  0.723299  0.600416  1
  Pt  Pt10  1  0.750000  0.774845  0.100894  1
  Pt  Pt11  1  0.750000  0.276536  0.399285  1
