# generated using pymatgen
data_Sm2Y2BI5
_symmetry_space_group_name_H-M   'P 1'
_cell_length_a   9.80688778
_cell_length_b   9.80688701
_cell_length_c   8.71237608
_cell_angle_alpha   77.87210878
_cell_angle_beta   77.87211048
_cell_angle_gamma   24.43180157
_symmetry_Int_Tables_number   1
_chemical_formula_structural   Sm2Y2BI5
_chemical_formula_sum   'Sm2 Y2 B1 I5'
_cell_volume   338.46716992
_cell_formula_units_Z   1
loop_
 _symmetry_equiv_pos_site_id
 _symmetry_equiv_pos_as_xyz
  1  'x, y, z'
loop_
 _atom_site_type_symbol
 _atom_site_label
 _atom_site_symmetry_multiplicity
 _atom_site_fract_x
 _atom_site_fract_y
 _atom_site_fract_z
 _atom_site_occupancy
  Sm  Sm0  1  0.363170  0.363170  0.067698  1
  Sm  Sm1  1  0.000960  0.000960  0.196842  1
  Y  Y2  1  0.635146  0.635146  0.930330  1
  Y  Y3  1  0.999154  0.999154  0.806774  1
  B  B4  1  0.501236  0.501236  0.997441  1
  I  I5  1  0.834327  0.834327  0.343767  1
  I  I6  1  0.829378  0.829378  0.819463  1
  I  I7  1  0.172158  0.172158  0.169296  1
  I  I8  1  0.500193  0.500193  0.505875  1
  I  I9  1  0.164278  0.164278  0.662514  1
