# generated using pymatgen
data_Zr10Sn3Sb4
_symmetry_space_group_name_H-M   'P 1'
_cell_length_a   5.91734704
_cell_length_b   8.68525912
_cell_length_c   8.68535003
_cell_angle_alpha   119.99966351
_cell_angle_beta   89.99937420
_cell_angle_gamma   90.00123946
_symmetry_Int_Tables_number   1
_chemical_formula_structural   Zr10Sn3Sb4
_chemical_formula_sum   'Zr10 Sn3 Sb4'
_cell_volume   386.57098189
_cell_formula_units_Z   1
loop_
 _symmetry_equiv_pos_site_id
 _symmetry_equiv_pos_as_xyz
  1  'x, y, z'
loop_
 _atom_site_type_symbol
 _atom_site_label
 _atom_site_symmetry_multiplicity
 _atom_site_fract_x
 _atom_site_fract_y
 _atom_site_fract_z
 _atom_site_occupancy
  Zr  Zr0  1  0.499717  0.333333  0.666671  1
  Zr  Zr1  1  0.499717  0.666661  0.333329  1
  Zr  Zr2  1  0.002053  0.666664  0.333328  1
  Zr  Zr3  1  0.002053  0.333336  0.666672  1
  Zr  Zr4  1  0.769815  0.267437  0.000000  1
  Zr  Zr5  1  0.769795  0.732568  0.732574  1
  Zr  Zr6  1  0.769795  0.999992  0.267426  1
  Zr  Zr7  1  0.229478  0.731408  0.000000  1
  Zr  Zr8  1  0.229489  0.268588  0.268582  1
  Zr  Zr9  1  0.229489  0.000006  0.731418  1
  Sn  Sn10  1  0.254430  0.385352  0.000000  1
  Sn  Sn11  1  0.254415  0.614651  0.614654  1
  Sn  Sn12  1  0.254415  0.999996  0.385346  1
  Sb  Sb13  1  0.745882  0.612163  0.000000  1
  Sb  Sb14  1  0.745884  0.387834  0.387831  1
  Sb  Sb15  1  0.745884  0.000003  0.612169  1
  Sb  Sb16  1  0.497689  0.000010  0.000000  1
