# generated using pymatgen
data_Hf3MoAs3Ru2
_symmetry_space_group_name_H-M   'P 1'
_cell_length_a   7.73683106
_cell_length_b   7.73683199
_cell_length_c   7.73683117
_cell_angle_alpha   126.71141000
_cell_angle_beta   123.12010302
_cell_angle_gamma   81.71016216
_symmetry_Int_Tables_number   1
_chemical_formula_structural   Hf3MoAs3Ru2
_chemical_formula_sum   'Hf6 Mo2 As6 Ru4'
_cell_volume   299.23986639
_cell_formula_units_Z   2
loop_
 _symmetry_equiv_pos_site_id
 _symmetry_equiv_pos_as_xyz
  1  'x, y, z'
loop_
 _atom_site_type_symbol
 _atom_site_label
 _atom_site_symmetry_multiplicity
 _atom_site_fract_x
 _atom_site_fract_y
 _atom_site_fract_z
 _atom_site_occupancy
  Hf  Hf0  1  0.462861  0.688641  0.725780  1
  Hf  Hf1  1  0.537139  0.262919  0.225780  1
  Hf  Hf2  1  0.748681  0.838641  0.589960  1
  Hf  Hf3  1  0.251319  0.841280  0.089960  1
  Hf  Hf4  1  0.055341  0.264149  0.708808  1
  Hf  Hf5  1  0.944659  0.653467  0.208808  1
  Mo  Mo6  1  0.500000  0.497402  0.997402  1
  Mo  Mo7  1  0.000000  0.497402  0.497402  1
  As  As8  1  0.275678  0.262227  0.486550  1
  As  As9  1  0.724322  0.210873  0.986550  1
  As  As10  1  0.327837  0.589552  0.253668  1
  As  As11  1  0.672163  0.925831  0.261715  1
  As  As12  1  0.164116  0.925831  0.753668  1
  As  As13  1  0.835884  0.589552  0.761715  1
  Ru  Ru14  1  0.095847  0.252462  0.099301  1
  Ru  Ru15  1  0.904153  0.003454  0.156615  1
  Ru  Ru16  1  0.346839  0.003454  0.599301  1
  Ru  Ru17  1  0.653161  0.252462  0.656615  1
