# generated using pymatgen
data_K5Rb2NbIn3As5
_symmetry_space_group_name_H-M   'P 1'
_cell_length_a   8.47320763
_cell_length_b   9.48091695
_cell_length_c   14.21436695
_cell_angle_alpha   85.37654998
_cell_angle_beta   83.70847521
_cell_angle_gamma   88.07126292
_symmetry_Int_Tables_number   1
_chemical_formula_structural   K5Rb2NbIn3As5
_chemical_formula_sum   'K10 Rb4 Nb2 In6 As10'
_cell_volume   1130.96784676
_cell_formula_units_Z   2
loop_
 _symmetry_equiv_pos_site_id
 _symmetry_equiv_pos_as_xyz
  1  'x, y, z'
loop_
 _atom_site_type_symbol
 _atom_site_label
 _atom_site_symmetry_multiplicity
 _atom_site_fract_x
 _atom_site_fract_y
 _atom_site_fract_z
 _atom_site_occupancy
  K  K0  1  0.839316  0.360130  0.648723  1
  K  K1  1  0.816136  0.810638  0.132961  1
  K  K2  1  0.240564  0.009367  0.468953  1
  K  K3  1  0.271151  0.259484  0.251586  1
  K  K4  1  0.739069  0.497921  0.973699  1
  K  K5  1  0.260501  0.503638  0.024924  1
  K  K6  1  0.683849  0.082160  0.881161  1
  K  K7  1  0.755117  0.995401  0.532945  1
  K  K8  1  0.726924  0.739653  0.747959  1
  K  K9  1  0.337211  0.338602  0.607045  1
  Rb  Rb10  1  0.172050  0.637530  0.356095  1
  Rb  Rb11  1  0.180927  0.187291  0.871818  1
  Rb  Rb12  1  0.312912  0.922114  0.115932  1
  Rb  Rb13  1  0.682783  0.662770  0.397384  1
  Nb  Nb14  1  0.354341  0.603285  0.773745  1
  Nb  Nb15  1  0.646851  0.395307  0.223822  1
  In  In16  1  0.047665  0.813654  0.873970  1
  In  In17  1  0.950089  0.184031  0.127309  1
  In  In18  1  0.366124  0.958078  0.698276  1
  In  In19  1  0.082891  0.718211  0.619686  1
  In  In20  1  0.910346  0.280486  0.381831  1
  In  In21  1  0.628969  0.042095  0.300202  1
  As  As22  1  0.935543  0.457480  0.206099  1
  As  As23  1  0.617754  0.193281  0.118718  1
  As  As24  1  0.065693  0.540580  0.794011  1
  As  As25  1  0.572510  0.297365  0.394743  1
  As  As26  1  0.418408  0.703703  0.603029  1
  As  As27  1  0.017021  0.000327  0.699383  1
  As  As28  1  0.522405  0.397633  0.810310  1
  As  As29  1  0.486486  0.602523  0.182601  1
  As  As30  1  0.383414  0.806258  0.877755  1
  As  As31  1  0.974980  0.999005  0.303325  1
