# generated using pymatgen
data_Zr4InRe17Tc7
_symmetry_space_group_name_H-M   'P 1'
_cell_length_a   8.48391876
_cell_length_b   8.48391818
_cell_length_c   8.46945561
_cell_angle_alpha   109.46474149
_cell_angle_beta   109.46472764
_cell_angle_gamma   109.63326529
_symmetry_Int_Tables_number   1
_chemical_formula_structural   Zr4InRe17Tc7
_chemical_formula_sum   'Zr4 In1 Re17 Tc7'
_cell_volume   468.40774084
_cell_formula_units_Z   1
loop_
 _symmetry_equiv_pos_site_id
 _symmetry_equiv_pos_as_xyz
  1  'x, y, z'
loop_
 _atom_site_type_symbol
 _atom_site_label
 _atom_site_symmetry_multiplicity
 _atom_site_fract_x
 _atom_site_fract_y
 _atom_site_fract_z
 _atom_site_occupancy
  Zr  Zr0  1  0.629214  0.999768  0.999636  1
  Zr  Zr1  1  0.999768  0.629214  0.999636  1
  Zr  Zr2  1  0.001626  0.001626  0.631747  1
  Zr  Zr3  1  0.368439  0.368439  0.369106  1
  In  In4  1  0.998968  0.998968  0.999558  1
  Re  Re5  1  0.000431  0.675015  0.394698  1
  Re  Re6  1  0.675015  0.000431  0.394698  1
  Re  Re7  1  0.605074  0.605074  0.279282  1
  Re  Re8  1  0.280098  0.606334  0.605506  1
  Re  Re9  1  0.606334  0.280098  0.605506  1
  Re  Re10  1  0.377487  0.195775  0.001181  1
  Re  Re11  1  0.180932  0.805627  0.804884  1
  Re  Re12  1  0.376151  0.000791  0.195101  1
  Re  Re13  1  0.195775  0.377487  0.001181  1
  Re  Re14  1  0.000791  0.376151  0.195101  1
  Re  Re15  1  0.805627  0.180932  0.804884  1
  Re  Re16  1  0.805632  0.805632  0.181701  1
  Re  Re17  1  0.000618  0.194543  0.377625  1
  Re  Re18  1  0.194543  0.000618  0.377625  1
  Re  Re19  1  0.622042  0.622042  0.815906  1
  Re  Re20  1  0.816201  0.622779  0.621891  1
  Re  Re21  1  0.622779  0.816201  0.621891  1
  Tc  Tc22  1  0.394728  0.676351  0.000422  1
  Tc  Tc23  1  0.719561  0.324054  0.323832  1
  Tc  Tc24  1  0.395630  0.001527  0.676747  1
  Tc  Tc25  1  0.676351  0.394728  0.000422  1
  Tc  Tc26  1  0.001527  0.395630  0.676747  1
  Tc  Tc27  1  0.324054  0.719561  0.323832  1
  Tc  Tc28  1  0.324604  0.324604  0.719654  1
