# generated using pymatgen
data_CeHoZn4
_symmetry_space_group_name_H-M   'P 1'
_cell_length_a   5.68405972
_cell_length_b   5.68405945
_cell_length_c   5.68405897
_cell_angle_alpha   133.12135656
_cell_angle_beta   101.98264774
_cell_angle_gamma   96.24836771
_symmetry_Int_Tables_number   1
_chemical_formula_structural   CeHoZn4
_chemical_formula_sum   'Ce1 Ho1 Zn4'
_cell_volume   122.77003605
_cell_formula_units_Z   1
loop_
 _symmetry_equiv_pos_site_id
 _symmetry_equiv_pos_as_xyz
  1  'x, y, z'
loop_
 _atom_site_type_symbol
 _atom_site_label
 _atom_site_symmetry_multiplicity
 _atom_site_fract_x
 _atom_site_fract_y
 _atom_site_fract_z
 _atom_site_occupancy
  Ce  Ce0  1  0.719665  0.469665  0.250000  1
  Ho  Ho1  1  0.272771  0.522771  0.750000  1
  Zn  Zn2  1  0.715945  0.167535  0.548411  1
  Zn  Zn3  1  0.294118  0.836248  0.457871  1
  Zn  Zn4  1  0.119124  0.167535  0.951589  1
  Zn  Zn5  1  0.878377  0.836248  0.042129  1
