# generated using pymatgen
data_Ba4ScRuO8
_symmetry_space_group_name_H-M   'P 1'
_cell_length_a   7.36233091
_cell_length_b   7.36233094
_cell_length_c   5.83097100
_cell_angle_alpha   90.00000000
_cell_angle_beta   90.00000000
_cell_angle_gamma   133.39866475
_symmetry_Int_Tables_number   1
_chemical_formula_structural   Ba4ScRuO8
_chemical_formula_sum   'Ba4 Sc1 Ru1 O8'
_cell_volume   229.64731627
_cell_formula_units_Z   1
loop_
 _symmetry_equiv_pos_site_id
 _symmetry_equiv_pos_as_xyz
  1  'x, y, z'
loop_
 _atom_site_type_symbol
 _atom_site_label
 _atom_site_symmetry_multiplicity
 _atom_site_fract_x
 _atom_site_fract_y
 _atom_site_fract_z
 _atom_site_occupancy
  Ba  Ba0  1  0.645311  0.354689  0.000000  1
  Ba  Ba1  1  0.144538  0.855462  0.500000  1
  Ba  Ba2  1  0.855462  0.144538  0.500000  1
  Ba  Ba3  1  0.354689  0.645311  0.000000  1
  Sc  Sc4  1  0.000000  0.000000  0.000000  1
  Ru  Ru5  1  0.500000  0.500000  0.500000  1
  O  O6  1  0.741908  0.741908  0.260837  1
  O  O7  1  0.258092  0.258092  0.739163  1
  O  O8  1  0.258092  0.258092  0.260837  1
  O  O9  1  0.741908  0.741908  0.739163  1
  O  O10  1  0.843036  0.156964  0.000000  1
  O  O11  1  0.349690  0.650310  0.500000  1
  O  O12  1  0.650310  0.349690  0.500000  1
  O  O13  1  0.156964  0.843036  0.000000  1
