# generated using pymatgen
data_Y2Fe3P7Ru9
_symmetry_space_group_name_H-M   'P 1'
_cell_length_a   9.31265700
_cell_length_b   9.31265765
_cell_length_c   3.86192300
_cell_angle_alpha   90.00000000
_cell_angle_beta   90.00000000
_cell_angle_gamma   120.00000125
_symmetry_Int_Tables_number   1
_chemical_formula_structural   Y2Fe3P7Ru9
_chemical_formula_sum   'Y2 Fe3 P7 Ru9'
_cell_volume   290.05575182
_cell_formula_units_Z   1
loop_
 _symmetry_equiv_pos_site_id
 _symmetry_equiv_pos_as_xyz
  1  'x, y, z'
loop_
 _atom_site_type_symbol
 _atom_site_label
 _atom_site_symmetry_multiplicity
 _atom_site_fract_x
 _atom_site_fract_y
 _atom_site_fract_z
 _atom_site_occupancy
  Y  Y0  1  0.333333  0.666667  0.000000  1
  Y  Y1  1  0.000000  0.000000  0.500000  1
  Fe  Fe2  1  0.934033  0.443241  0.000000  1
  Fe  Fe3  1  0.509209  0.065967  0.000000  1
  Fe  Fe4  1  0.556759  0.490791  0.000000  1
  P  P5  1  0.970864  0.225033  0.000000  1
  P  P6  1  0.254169  0.029136  0.000000  1
  P  P7  1  0.774967  0.745831  0.000000  1
  P  P8  1  0.062664  0.613881  0.500000  1
  P  P9  1  0.551216  0.937336  0.500000  1
  P  P10  1  0.386119  0.448784  0.500000  1
  P  P11  1  0.666667  0.333333  0.000000  1
  Ru  Ru12  1  0.726583  0.972532  0.000000  1
  Ru  Ru13  1  0.245951  0.273417  0.000000  1
  Ru  Ru14  1  0.027468  0.754049  0.000000  1
  Ru  Ru15  1  0.104399  0.385566  0.500000  1
  Ru  Ru16  1  0.281168  0.895601  0.500000  1
  Ru  Ru17  1  0.614434  0.718832  0.500000  1
  Ru  Ru18  1  0.754543  0.216982  0.500000  1
  Ru  Ru19  1  0.462440  0.245457  0.500000  1
  Ru  Ru20  1  0.783018  0.537560  0.500000  1
