# generated using pymatgen
data_Tb2Y2ReTcC4
_symmetry_space_group_name_H-M   'P 1'
_cell_length_a   5.13149400
_cell_length_b   6.59385900
_cell_length_c   9.92079000
_cell_angle_alpha   90.00000000
_cell_angle_beta   90.00000000
_cell_angle_gamma   90.00000000
_symmetry_Int_Tables_number   1
_chemical_formula_structural   Tb2Y2ReTcC4
_chemical_formula_sum   'Tb4 Y4 Re2 Tc2 C8'
_cell_volume   335.68330184
_cell_formula_units_Z   2
loop_
 _symmetry_equiv_pos_site_id
 _symmetry_equiv_pos_as_xyz
  1  'x, y, z'
loop_
 _atom_site_type_symbol
 _atom_site_label
 _atom_site_symmetry_multiplicity
 _atom_site_fract_x
 _atom_site_fract_y
 _atom_site_fract_z
 _atom_site_occupancy
  Tb  Tb0  1  0.750000  0.468426  0.783624  1
  Tb  Tb1  1  0.250000  0.031574  0.283624  1
  Tb  Tb2  1  0.750000  0.969163  0.715479  1
  Tb  Tb3  1  0.250000  0.530837  0.215479  1
  Y  Y4  1  0.750000  0.820565  0.055822  1
  Y  Y5  1  0.250000  0.679435  0.555822  1
  Y  Y6  1  0.750000  0.319383  0.442870  1
  Y  Y7  1  0.250000  0.180617  0.942870  1
  Re  Re8  1  0.750000  0.778127  0.364561  1
  Re  Re9  1  0.250000  0.721873  0.864561  1
  Tc  Tc10  1  0.750000  0.277557  0.135241  1
  Tc  Tc11  1  0.250000  0.222443  0.635241  1
  C  C12  1  0.750000  0.178831  0.953405  1
  C  C13  1  0.250000  0.820443  0.047755  1
  C  C14  1  0.750000  0.679557  0.547755  1
  C  C15  1  0.250000  0.321169  0.453405  1
  C  C16  1  0.750000  0.043424  0.259332  1
  C  C17  1  0.250000  0.456576  0.759332  1
  C  C18  1  0.750000  0.545402  0.241912  1
  C  C19  1  0.250000  0.954598  0.741912  1
