# generated using pymatgen
data_Ho3Er7Si5Ge
_symmetry_space_group_name_H-M   'P 1'
_cell_length_a   8.38690500
_cell_length_b   8.38834814
_cell_length_c   6.30078700
_cell_angle_alpha   90.00000000
_cell_angle_beta   90.00000000
_cell_angle_gamma   119.99429727
_symmetry_Int_Tables_number   1
_chemical_formula_structural   Ho3Er7Si5Ge
_chemical_formula_sum   'Ho3 Er7 Si5 Ge1'
_cell_volume   383.90923034
_cell_formula_units_Z   1
loop_
 _symmetry_equiv_pos_site_id
 _symmetry_equiv_pos_as_xyz
  1  'x, y, z'
loop_
 _atom_site_type_symbol
 _atom_site_label
 _atom_site_symmetry_multiplicity
 _atom_site_fract_x
 _atom_site_fract_y
 _atom_site_fract_z
 _atom_site_occupancy
  Ho  Ho0  1  0.998800  0.756254  0.750000  1
  Ho  Ho1  1  0.758060  0.000000  0.750000  1
  Ho  Ho2  1  0.242547  0.243746  0.750000  1
  Er  Er3  1  0.999936  0.242812  0.250000  1
  Er  Er4  1  0.757125  0.757188  0.250000  1
  Er  Er5  1  0.242489  0.000000  0.250000  1
  Er  Er6  1  0.333177  0.665719  0.499278  1
  Er  Er7  1  0.667459  0.334281  0.000722  1
  Er  Er8  1  0.667459  0.334281  0.499278  1
  Er  Er9  1  0.333177  0.665719  0.000722  1
  Si  Si10  1  0.394373  0.394312  0.250000  1
  Si  Si11  1  0.000061  0.605688  0.250000  1
  Si  Si12  1  0.999950  0.394491  0.750000  1
  Si  Si13  1  0.605458  0.605509  0.750000  1
  Si  Si14  1  0.605778  0.000000  0.250000  1
  Ge  Ge15  1  0.394154  0.000000  0.750000  1
