# generated using pymatgen
data_Tb2Zr2IrRh
_symmetry_space_group_name_H-M   'P 1'
_cell_length_a   4.62628800
_cell_length_b   7.09351300
_cell_length_c   8.30463500
_cell_angle_alpha   90.00000000
_cell_angle_beta   90.00000000
_cell_angle_gamma   90.00000000
_symmetry_Int_Tables_number   1
_chemical_formula_structural   Tb2Zr2IrRh
_chemical_formula_sum   'Tb4 Zr4 Ir2 Rh2'
_cell_volume   272.53016788
_cell_formula_units_Z   2
loop_
 _symmetry_equiv_pos_site_id
 _symmetry_equiv_pos_as_xyz
  1  'x, y, z'
loop_
 _atom_site_type_symbol
 _atom_site_label
 _atom_site_symmetry_multiplicity
 _atom_site_fract_x
 _atom_site_fract_y
 _atom_site_fract_z
 _atom_site_occupancy
  Tb  Tb0  1  0.250000  0.016091  0.678047  1
  Tb  Tb1  1  0.250000  0.516091  0.821953  1
  Tb  Tb2  1  0.750000  0.984569  0.324200  1
  Tb  Tb3  1  0.750000  0.484569  0.175800  1
  Zr  Zr4  1  0.250000  0.141862  0.079267  1
  Zr  Zr5  1  0.250000  0.641862  0.420733  1
  Zr  Zr6  1  0.750000  0.858230  0.924759  1
  Zr  Zr7  1  0.750000  0.358230  0.575241  1
  Ir  Ir8  1  0.250000  0.268807  0.412964  1
  Ir  Ir9  1  0.250000  0.768807  0.087036  1
  Rh  Rh10  1  0.750000  0.730440  0.586839  1
  Rh  Rh11  1  0.750000  0.230440  0.913161  1
