# generated using pymatgen
data_Pa6Ta4Al12Os7
_symmetry_space_group_name_H-M   'P 1'
_cell_length_a   8.93460993
_cell_length_b   8.93416747
_cell_length_c   8.93366200
_cell_angle_alpha   60.00069411
_cell_angle_beta   60.00070320
_cell_angle_gamma   59.99712469
_symmetry_Int_Tables_number   1
_chemical_formula_structural   Pa6Ta4Al12Os7
_chemical_formula_sum   'Pa6 Ta4 Al12 Os7'
_cell_volume   504.24239004
_cell_formula_units_Z   1
loop_
 _symmetry_equiv_pos_site_id
 _symmetry_equiv_pos_as_xyz
  1  'x, y, z'
loop_
 _atom_site_type_symbol
 _atom_site_label
 _atom_site_symmetry_multiplicity
 _atom_site_fract_x
 _atom_site_fract_y
 _atom_site_fract_z
 _atom_site_occupancy
  Pa  Pa0  1  0.690569  0.690674  0.309402  1
  Pa  Pa1  1  0.309466  0.690522  0.309541  1
  Pa  Pa2  1  0.690531  0.309427  0.309454  1
  Pa  Pa3  1  0.309348  0.309387  0.690666  1
  Pa  Pa4  1  0.690483  0.309467  0.690604  1
  Pa  Pa5  1  0.309444  0.690534  0.690558  1
  Ta  Ta6  1  0.880250  0.880278  0.359239  1
  Ta  Ta7  1  0.880253  0.359256  0.880279  1
  Ta  Ta8  1  0.359274  0.880228  0.880226  1
  Ta  Ta9  1  0.880296  0.880209  0.880226  1
  Al  Al10  1  0.120523  0.120443  0.638560  1
  Al  Al11  1  0.120474  0.638583  0.120415  1
  Al  Al12  1  0.638610  0.120460  0.120484  1
  Al  Al13  1  0.120449  0.120513  0.120439  1
  Al  Al14  1  0.668717  0.668657  0.993965  1
  Al  Al15  1  0.668674  0.993958  0.668659  1
  Al  Al16  1  0.993913  0.668677  0.668728  1
  Al  Al17  1  0.668685  0.668714  0.668673  1
  Al  Al18  1  0.329957  0.330023  0.010010  1
  Al  Al19  1  0.329988  0.010034  0.330012  1
  Al  Al20  1  0.009984  0.330013  0.329971  1
  Al  Al21  1  0.330008  0.329973  0.330000  1
  Os  Os22  1  0.000017  0.999995  0.999976  1
  Os  Os23  1  0.997746  0.997714  0.502248  1
  Os  Os24  1  0.502290  0.997733  0.502241  1
  Os  Os25  1  0.997744  0.502277  0.502255  1
  Os  Os26  1  0.502285  0.502261  0.997724  1
  Os  Os27  1  0.997742  0.502259  0.997718  1
  Os  Os28  1  0.502278  0.997724  0.997725  1
