# generated using pymatgen
data_NdTlCr2(TeO6)2
_symmetry_space_group_name_H-M   'P 1'
_cell_length_a   5.23535319
_cell_length_b   5.23518279
_cell_length_c   9.91374904
_cell_angle_alpha   89.99489158
_cell_angle_beta   90.00377787
_cell_angle_gamma   119.99808898
_symmetry_Int_Tables_number   1
_chemical_formula_structural   NdTlCr2(TeO6)2
_chemical_formula_sum   'Nd1 Tl1 Cr2 Te2 O12'
_cell_volume   235.31778318
_cell_formula_units_Z   1
loop_
 _symmetry_equiv_pos_site_id
 _symmetry_equiv_pos_as_xyz
  1  'x, y, z'
loop_
 _atom_site_type_symbol
 _atom_site_label
 _atom_site_symmetry_multiplicity
 _atom_site_fract_x
 _atom_site_fract_y
 _atom_site_fract_z
 _atom_site_occupancy
  Nd  Nd0  1  0.999954  0.999918  0.500035  1
  Tl  Tl1  1  0.999934  0.000021  0.000047  1
  Cr  Cr2  1  0.666895  0.333359  0.756858  1
  Cr  Cr3  1  0.333402  0.666834  0.243215  1
  Te  Te4  1  0.666703  0.333336  0.242346  1
  Te  Te5  1  0.333287  0.666655  0.757630  1
  O  O6  1  0.633792  0.992114  0.865375  1
  O  O7  1  0.358139  0.366196  0.865423  1
  O  O8  1  0.007809  0.641722  0.865361  1
  O  O9  1  0.366300  0.007857  0.134605  1
  O  O10  1  0.641660  0.633732  0.134599  1
  O  O11  1  0.992178  0.358413  0.134590  1
  O  O12  1  0.364878  0.990419  0.646681  1
  O  O13  1  0.625546  0.635049  0.646699  1
  O  O14  1  0.009483  0.374445  0.646726  1
  O  O15  1  0.635263  0.009574  0.353251  1
  O  O16  1  0.374361  0.364776  0.353285  1
  O  O17  1  0.990419  0.625578  0.353279  1
