# generated using pymatgen
data_LaPIrPt2
_symmetry_space_group_name_H-M   'P 1'
_cell_length_a   4.03989000
_cell_length_b   4.17253800
_cell_length_c   5.44125200
_cell_angle_alpha   90.00000000
_cell_angle_beta   90.00000000
_cell_angle_gamma   90.00000000
_symmetry_Int_Tables_number   1
_chemical_formula_structural   LaPIrPt2
_chemical_formula_sum   'La1 P1 Ir1 Pt2'
_cell_volume   91.72097876
_cell_formula_units_Z   1
loop_
 _symmetry_equiv_pos_site_id
 _symmetry_equiv_pos_as_xyz
  1  'x, y, z'
loop_
 _atom_site_type_symbol
 _atom_site_label
 _atom_site_symmetry_multiplicity
 _atom_site_fract_x
 _atom_site_fract_y
 _atom_site_fract_z
 _atom_site_occupancy
  La  La0  1  0.500000  0.500000  0.702805  1
  P  P1  1  0.000000  0.000000  0.972379  1
  Ir  Ir2  1  0.500000  0.000000  0.187134  1
  Pt  Pt3  1  0.000000  0.500000  0.195151  1
  Pt  Pt4  1  0.000000  0.000000  0.550732  1
