# generated using pymatgen
data_LaPr6CoBr12
_symmetry_space_group_name_H-M   'P 1'
_cell_length_a   9.64368645
_cell_length_b   9.64663607
_cell_length_c   9.63859600
_cell_angle_alpha   107.27530359
_cell_angle_beta   107.16097905
_cell_angle_gamma   107.29997143
_symmetry_Int_Tables_number   1
_chemical_formula_structural   LaPr6CoBr12
_chemical_formula_sum   'La1 Pr6 Co1 Br12'
_cell_volume   741.69848306
_cell_formula_units_Z   1
loop_
 _symmetry_equiv_pos_site_id
 _symmetry_equiv_pos_as_xyz
  1  'x, y, z'
loop_
 _atom_site_type_symbol
 _atom_site_label
 _atom_site_symmetry_multiplicity
 _atom_site_fract_x
 _atom_site_fract_y
 _atom_site_fract_z
 _atom_site_occupancy
  La  La0  1  0.500000  0.500000  0.500000  1
  Pr  Pr1  1  0.306703  0.102031  0.020981  1
  Pr  Pr2  1  0.020996  0.306656  0.102684  1
  Pr  Pr3  1  0.101720  0.020749  0.306688  1
  Pr  Pr4  1  0.898280  0.979251  0.693313  1
  Pr  Pr5  1  0.979004  0.693345  0.897317  1
  Pr  Pr6  1  0.693298  0.897969  0.979020  1
  Co  Co7  1  0.000000  0.000000  0.000000  1
  Br  Br8  1  0.681650  0.219425  0.068929  1
  Br  Br9  1  0.378462  0.461261  0.164779  1
  Br  Br10  1  0.068539  0.681756  0.218662  1
  Br  Br11  1  0.780057  0.931035  0.318147  1
  Br  Br12  1  0.461289  0.164809  0.378659  1
  Br  Br13  1  0.164834  0.378577  0.462052  1
  Br  Br14  1  0.835166  0.621424  0.537948  1
  Br  Br15  1  0.538711  0.835192  0.621341  1
  Br  Br16  1  0.219944  0.068966  0.681853  1
  Br  Br17  1  0.931461  0.318244  0.781339  1
  Br  Br18  1  0.621539  0.538739  0.835221  1
  Br  Br19  1  0.318351  0.780575  0.931071  1
