# generated using pymatgen
data_YbRuBr18
_symmetry_space_group_name_H-M   'P 1'
_cell_length_a   9.37754024
_cell_length_b   9.37753839
_cell_length_c   9.37753904
_cell_angle_alpha   94.47987801
_cell_angle_beta   94.47987427
_cell_angle_gamma   94.47987286
_symmetry_Int_Tables_number   1
_chemical_formula_structural   YbRuBr18
_chemical_formula_sum   'Yb1 Ru1 Br18'
_cell_volume   816.66600222
_cell_formula_units_Z   1
loop_
 _symmetry_equiv_pos_site_id
 _symmetry_equiv_pos_as_xyz
  1  'x, y, z'
loop_
 _atom_site_type_symbol
 _atom_site_label
 _atom_site_symmetry_multiplicity
 _atom_site_fract_x
 _atom_site_fract_y
 _atom_site_fract_z
 _atom_site_occupancy
  Yb  Yb0  1  0.500000  0.500000  0.500000  1
  Ru  Ru1  1  0.000000  0.000000  0.000000  1
  Br  Br2  1  0.267728  0.007641  0.021844  1
  Br  Br3  1  0.021844  0.267728  0.007641  1
  Br  Br4  1  0.007641  0.021844  0.267728  1
  Br  Br5  1  0.732272  0.992359  0.978156  1
  Br  Br6  1  0.978156  0.732272  0.992359  1
  Br  Br7  1  0.992359  0.978156  0.732272  1
  Br  Br8  1  0.637179  0.224509  0.104557  1
  Br  Br9  1  0.104557  0.637179  0.224509  1
  Br  Br10  1  0.224509  0.104557  0.637179  1
  Br  Br11  1  0.362821  0.775491  0.895443  1
  Br  Br12  1  0.895443  0.362821  0.775491  1
  Br  Br13  1  0.775491  0.895443  0.362821  1
  Br  Br14  1  0.450770  0.195706  0.537325  1
  Br  Br15  1  0.537325  0.450770  0.195706  1
  Br  Br16  1  0.195706  0.537325  0.450770  1
  Br  Br17  1  0.549230  0.804294  0.462675  1
  Br  Br18  1  0.462675  0.549230  0.804294  1
  Br  Br19  1  0.804294  0.462675  0.549230  1
