# generated using pymatgen
data_Ba3Ga2(SbAs)2
_symmetry_space_group_name_H-M   'P 1'
_cell_length_a   9.32339924
_cell_length_b   9.32340079
_cell_length_c   7.30921786
_cell_angle_alpha   88.81302244
_cell_angle_beta   88.81302178
_cell_angle_gamma   74.92022027
_symmetry_Int_Tables_number   1
_chemical_formula_structural   Ba3Ga2(SbAs)2
_chemical_formula_sum   'Ba6 Ga4 Sb4 As4'
_cell_volume   613.27165933
_cell_formula_units_Z   2
loop_
 _symmetry_equiv_pos_site_id
 _symmetry_equiv_pos_as_xyz
  1  'x, y, z'
loop_
 _atom_site_type_symbol
 _atom_site_label
 _atom_site_symmetry_multiplicity
 _atom_site_fract_x
 _atom_site_fract_y
 _atom_site_fract_z
 _atom_site_occupancy
  Ba  Ba0  1  0.001002  0.738655  0.529917  1
  Ba  Ba1  1  0.261345  0.998998  0.970083  1
  Ba  Ba2  1  0.998998  0.261345  0.470083  1
  Ba  Ba3  1  0.738655  0.001002  0.029917  1
  Ba  Ba4  1  0.411798  0.588202  0.250000  1
  Ba  Ba5  1  0.588202  0.411798  0.750000  1
  Ga  Ga6  1  0.812650  0.590608  0.090208  1
  Ga  Ga7  1  0.409392  0.187350  0.409792  1
  Ga  Ga8  1  0.187350  0.409392  0.909792  1
  Ga  Ga9  1  0.590608  0.812650  0.590208  1
  Sb  Sb10  1  0.060004  0.697949  0.021960  1
  Sb  Sb11  1  0.302051  0.939996  0.478040  1
  Sb  Sb12  1  0.939996  0.302051  0.978040  1
  Sb  Sb13  1  0.697949  0.060004  0.521960  1
  As  As14  1  0.738535  0.577604  0.425939  1
  As  As15  1  0.422396  0.261465  0.074061  1
  As  As16  1  0.261465  0.422396  0.574061  1
  As  As17  1  0.577604  0.738535  0.925939  1
