# generated using pymatgen
data_Mn2BeB2Ir2Rh3
_symmetry_space_group_name_H-M   'P 1'
_cell_length_a   9.13368700
_cell_length_b   9.16617800
_cell_length_c   2.87778700
_cell_angle_alpha   90.00000000
_cell_angle_beta   90.00000000
_cell_angle_gamma   90.00082630
_symmetry_Int_Tables_number   1
_chemical_formula_structural   Mn2BeB2Ir2Rh3
_chemical_formula_sum   'Mn4 Be2 B4 Ir4 Rh6'
_cell_volume   240.93120783
_cell_formula_units_Z   2
loop_
 _symmetry_equiv_pos_site_id
 _symmetry_equiv_pos_as_xyz
  1  'x, y, z'
loop_
 _atom_site_type_symbol
 _atom_site_label
 _atom_site_symmetry_multiplicity
 _atom_site_fract_x
 _atom_site_fract_y
 _atom_site_fract_z
 _atom_site_occupancy
  Mn  Mn0  1  0.677157  0.176743  0.000000  1
  Mn  Mn1  1  0.325195  0.820595  0.000000  1
  Mn  Mn2  1  0.177041  0.323029  0.000000  1
  Mn  Mn3  1  0.823494  0.677276  0.000000  1
  Be  Be4  1  0.999468  0.000568  0.000000  1
  Be  Be5  1  0.499701  0.500053  0.000000  1
  B  B6  1  0.130068  0.632097  0.000000  1
  B  B7  1  0.869383  0.369471  0.000000  1
  B  B8  1  0.631421  0.869565  0.000000  1
  B  B9  1  0.368603  0.130037  0.000000  1
  Ir  Ir10  1  0.932377  0.205997  0.500000  1
  Ir  Ir11  1  0.294458  0.566184  0.500000  1
  Ir  Ir12  1  0.567604  0.705967  0.500000  1
  Ir  Ir13  1  0.432709  0.294066  0.500000  1
  Rh  Rh14  1  0.205031  0.067208  0.500000  1
  Rh  Rh15  1  0.794082  0.933213  0.500000  1
  Rh  Rh16  1  0.067913  0.794037  0.500000  1
  Rh  Rh17  1  0.705545  0.433114  0.500000  1
  Rh  Rh18  1  0.499397  0.999929  0.500000  1
  Rh  Rh19  1  0.999357  0.500853  0.500000  1
