# generated using pymatgen
data_Er6Tm2B24MoRu3
_symmetry_space_group_name_H-M   'P 1'
_cell_length_a   3.63157000
_cell_length_b   9.11673219
_cell_length_c   11.49990706
_cell_angle_alpha   89.87674905
_cell_angle_beta   90.00000000
_cell_angle_gamma   90.00000000
_symmetry_Int_Tables_number   1
_chemical_formula_structural   Er6Tm2B24MoRu3
_chemical_formula_sum   'Er6 Tm2 B24 Mo1 Ru3'
_cell_volume   380.73863019
_cell_formula_units_Z   1
loop_
 _symmetry_equiv_pos_site_id
 _symmetry_equiv_pos_as_xyz
  1  'x, y, z'
loop_
 _atom_site_type_symbol
 _atom_site_label
 _atom_site_symmetry_multiplicity
 _atom_site_fract_x
 _atom_site_fract_y
 _atom_site_fract_z
 _atom_site_occupancy
  Er  Er0  1  0.000000  0.322216  0.413505  1
  Er  Er1  1  0.000000  0.677319  0.584614  1
  Er  Er2  1  0.000000  0.820235  0.087149  1
  Er  Er3  1  0.000000  0.177380  0.914944  1
  Er  Er4  1  0.000000  0.945311  0.372395  1
  Er  Er5  1  0.000000  0.058092  0.629311  1
  Tm  Tm6  1  0.000000  0.442797  0.126718  1
  Tm  Tm7  1  0.000000  0.557053  0.870575  1
  B  B8  1  0.500000  0.551016  0.435779  1
  B  B9  1  0.500000  0.446139  0.568073  1
  B  B10  1  0.500000  0.053496  0.066787  1
  B  B11  1  0.500000  0.946009  0.933404  1
  B  B12  1  0.500000  0.750902  0.421772  1
  B  B13  1  0.500000  0.252109  0.581190  1
  B  B14  1  0.500000  0.248588  0.080063  1
  B  B15  1  0.500000  0.750935  0.919002  1
  B  B16  1  0.500000  0.794410  0.264188  1
  B  B17  1  0.500000  0.208864  0.735036  1
  B  B18  1  0.500000  0.290954  0.233047  1
  B  B19  1  0.500000  0.709036  0.765416  1
  B  B20  1  0.500000  0.631210  0.182663  1
  B  B21  1  0.500000  0.368536  0.815387  1
  B  B22  1  0.500000  0.131560  0.314068  1
  B  B23  1  0.500000  0.869476  0.685503  1
  B  B24  1  0.500000  0.983226  0.212383  1
  B  B25  1  0.500000  0.017380  0.788457  1
  B  B26  1  0.500000  0.477848  0.286509  1
  B  B27  1  0.500000  0.516948  0.712940  1
  B  B28  1  0.500000  0.604599  0.027287  1
  B  B29  1  0.500000  0.394550  0.969987  1
  B  B30  1  0.500000  0.106829  0.471323  1
  B  B31  1  0.500000  0.896528  0.530303  1
  Mo  Mo32  1  0.000000  0.637258  0.320937  1
  Ru  Ru33  1  0.000000  0.361267  0.680799  1
  Ru  Ru34  1  0.000000  0.137973  0.177568  1
  Ru  Ru35  1  0.000000  0.861949  0.820916  1
