# generated using pymatgen
data_Y3Tm5(ReB6)4
_symmetry_space_group_name_H-M   'P 1'
_cell_length_a   3.65691800
_cell_length_b   9.13136501
_cell_length_c   11.51464701
_cell_angle_alpha   89.99443254
_cell_angle_beta   90.00000000
_cell_angle_gamma   90.00000000
_symmetry_Int_Tables_number   1
_chemical_formula_structural   Y3Tm5(ReB6)4
_chemical_formula_sum   'Y3 Tm5 Re4 B24'
_cell_volume   384.50461116
_cell_formula_units_Z   1
loop_
 _symmetry_equiv_pos_site_id
 _symmetry_equiv_pos_as_xyz
  1  'x, y, z'
loop_
 _atom_site_type_symbol
 _atom_site_label
 _atom_site_symmetry_multiplicity
 _atom_site_fract_x
 _atom_site_fract_y
 _atom_site_fract_z
 _atom_site_occupancy
  Y  Y0  1  0.000000  0.322802  0.414051  1
  Y  Y1  1  0.000000  0.677371  0.586273  1
  Y  Y2  1  0.000000  0.822808  0.085873  1
  Tm  Tm3  1  0.000000  0.176816  0.913992  1
  Tm  Tm4  1  0.000000  0.943024  0.369942  1
  Tm  Tm5  1  0.000000  0.057105  0.629979  1
  Tm  Tm6  1  0.000000  0.442651  0.129483  1
  Tm  Tm7  1  0.000000  0.556978  0.870371  1
  Re  Re8  1  0.000000  0.638898  0.319964  1
  Re  Re9  1  0.000000  0.360874  0.680612  1
  Re  Re10  1  0.000000  0.138917  0.179291  1
  Re  Re11  1  0.000000  0.861818  0.820357  1
  B  B12  1  0.500000  0.553197  0.432663  1
  B  B13  1  0.500000  0.446475  0.567768  1
  B  B14  1  0.500000  0.053731  0.066529  1
  B  B15  1  0.500000  0.947496  0.932651  1
  B  B16  1  0.500000  0.750043  0.418146  1
  B  B17  1  0.500000  0.249962  0.582308  1
  B  B18  1  0.500000  0.249837  0.080663  1
  B  B19  1  0.500000  0.750326  0.918182  1
  B  B20  1  0.500000  0.792294  0.265157  1
  B  B21  1  0.500000  0.207366  0.735593  1
  B  B22  1  0.500000  0.292161  0.234080  1
  B  B23  1  0.500000  0.707876  0.765548  1
  B  B24  1  0.500000  0.629720  0.184927  1
  B  B25  1  0.500000  0.369429  0.815727  1
  B  B26  1  0.500000  0.129911  0.314533  1
  B  B27  1  0.500000  0.870497  0.685307  1
  B  B28  1  0.500000  0.981757  0.212015  1
  B  B29  1  0.500000  0.019252  0.788076  1
  B  B30  1  0.500000  0.481380  0.287338  1
  B  B31  1  0.500000  0.518163  0.712896  1
  B  B32  1  0.500000  0.598372  0.027377  1
  B  B33  1  0.500000  0.400494  0.972299  1
  B  B34  1  0.500000  0.098394  0.472611  1
  B  B35  1  0.500000  0.901806  0.527417  1
