# generated using pymatgen
data_Yb2LuAl3NiGe2
_symmetry_space_group_name_H-M   'P 1'
_cell_length_a   6.90251229
_cell_length_b   6.90251289
_cell_length_c   4.19515800
_cell_angle_alpha   90.00000000
_cell_angle_beta   90.00000000
_cell_angle_gamma   120.46686500
_symmetry_Int_Tables_number   1
_chemical_formula_structural   Yb2LuAl3NiGe2
_chemical_formula_sum   'Yb2 Lu1 Al3 Ni1 Ge2'
_cell_volume   172.27845627
_cell_formula_units_Z   1
loop_
 _symmetry_equiv_pos_site_id
 _symmetry_equiv_pos_as_xyz
  1  'x, y, z'
loop_
 _atom_site_type_symbol
 _atom_site_label
 _atom_site_symmetry_multiplicity
 _atom_site_fract_x
 _atom_site_fract_y
 _atom_site_fract_z
 _atom_site_occupancy
  Yb  Yb0  1  0.412797  0.999860  0.000000  1
  Yb  Yb1  1  0.999860  0.412798  0.000000  1
  Lu  Lu2  1  0.591535  0.591536  0.000000  1
  Al  Al3  1  0.769287  0.996407  0.500000  1
  Al  Al4  1  0.232145  0.232145  0.500000  1
  Al  Al5  1  0.996407  0.769287  0.500000  1
  Ni  Ni6  1  0.996231  0.996231  0.000000  1
  Ge  Ge7  1  0.664120  0.337616  0.500000  1
  Ge  Ge8  1  0.337616  0.664120  0.500000  1
