# generated using pymatgen
data_Sr3DyOs6O19
_symmetry_space_group_name_H-M   'P 1'
_cell_length_a   8.12321459
_cell_length_b   7.92859266
_cell_length_c   7.92859262
_cell_angle_alpha   108.96864411
_cell_angle_beta   109.96923849
_cell_angle_gamma   109.96924162
_symmetry_Int_Tables_number   1
_chemical_formula_structural   Sr3DyOs6O19
_chemical_formula_sum   'Sr3 Dy1 Os6 O19'
_cell_volume   390.65372950
_cell_formula_units_Z   1
loop_
 _symmetry_equiv_pos_site_id
 _symmetry_equiv_pos_as_xyz
  1  'x, y, z'
loop_
 _atom_site_type_symbol
 _atom_site_label
 _atom_site_symmetry_multiplicity
 _atom_site_fract_x
 _atom_site_fract_y
 _atom_site_fract_z
 _atom_site_occupancy
  Sr  Sr0  1  0.005220  0.005281  0.311050  1
  Sr  Sr1  1  0.999939  0.305769  0.994719  1
  Sr  Sr2  1  0.694170  0.688950  0.694231  1
  Dy  Dy3  1  0.278213  0.000000  0.000000  1
  Os  Os4  1  0.363189  0.498202  0.860635  1
  Os  Os5  1  0.864987  0.362433  0.501798  1
  Os  Os6  1  0.502554  0.139365  0.637567  1
  Os  Os7  1  0.136707  0.639242  0.501931  1
  Os  Os8  1  0.497464  0.862689  0.360758  1
  Os  Os9  1  0.634776  0.498069  0.137311  1
  O  O10  1  0.337533  0.006231  0.322811  1
  O  O11  1  0.331302  0.316580  0.993769  1
  O  O12  1  0.014722  0.677189  0.683420  1
  O  O13  1  0.667124  0.675477  0.005322  1
  O  O14  1  0.991648  0.329845  0.324523  1
  O  O15  1  0.661802  0.994678  0.670155  1
  O  O16  1  0.023694  0.000000  0.000000  1
  O  O17  1  0.363953  0.296123  0.638238  1
  O  O18  1  0.067829  0.342114  0.703877  1
  O  O19  1  0.725715  0.361762  0.657886  1
  O  O20  1  0.359172  0.646349  0.708155  1
  O  O21  1  0.289369  0.943691  0.657642  1
  O  O22  1  0.631728  0.342358  0.286049  1
  O  O23  1  0.279156  0.642658  0.347144  1
  O  O24  1  0.712824  0.061806  0.353651  1
  O  O25  1  0.932013  0.652856  0.295514  1
  O  O26  1  0.636498  0.704486  0.357342  1
  O  O27  1  0.651017  0.291845  0.938194  1
  O  O28  1  0.345678  0.713951  0.056309  1
