# generated using pymatgen
data_Pr5Nd3(HoSn3)2
_symmetry_space_group_name_H-M   'P 1'
_cell_length_a   6.79392101
_cell_length_b   9.25400344
_cell_length_c   9.24738600
_cell_angle_alpha   120.02356884
_cell_angle_beta   89.99648328
_cell_angle_gamma   90.00728859
_symmetry_Int_Tables_number   1
_chemical_formula_structural   Pr5Nd3(HoSn3)2
_chemical_formula_sum   'Pr5 Nd3 Ho2 Sn6'
_cell_volume   503.38071379
_cell_formula_units_Z   1
loop_
 _symmetry_equiv_pos_site_id
 _symmetry_equiv_pos_as_xyz
  1  'x, y, z'
loop_
 _atom_site_type_symbol
 _atom_site_label
 _atom_site_symmetry_multiplicity
 _atom_site_fract_x
 _atom_site_fract_y
 _atom_site_fract_z
 _atom_site_occupancy
  Pr  Pr0  1  0.752476  0.757646  0.757675  1
  Pr  Pr1  1  0.752451  0.999975  0.242370  1
  Pr  Pr2  1  0.247547  0.757462  0.999998  1
  Pr  Pr3  1  0.247501  0.242407  0.242238  1
  Pr  Pr4  1  0.247530  0.000171  0.757726  1
  Nd  Nd5  1  0.500044  0.333227  0.666682  1
  Nd  Nd6  1  0.500040  0.666613  0.333326  1
  Nd  Nd7  1  0.752879  0.242863  0.999975  1
  Ho  Ho8  1  0.999905  0.666671  0.333401  1
  Ho  Ho9  1  0.999899  0.333221  0.666602  1
  Sn  Sn10  1  0.761174  0.601598  0.999930  1
  Sn  Sn11  1  0.761317  0.397382  0.396538  1
  Sn  Sn12  1  0.761324  0.000769  0.603440  1
  Sn  Sn13  1  0.238534  0.397786  0.000070  1
  Sn  Sn14  1  0.238690  0.602283  0.602431  1
  Sn  Sn15  1  0.238690  0.999930  0.397597  1
