# generated using pymatgen
data_Sm2Si6AsIr12
_symmetry_space_group_name_H-M   'P 1'
_cell_length_a   9.82606700
_cell_length_b   9.82606843
_cell_length_c   3.87087300
_cell_angle_alpha   90.00000000
_cell_angle_beta   90.00000000
_cell_angle_gamma   119.99999856
_symmetry_Int_Tables_number   1
_chemical_formula_structural   Sm2Si6AsIr12
_chemical_formula_sum   'Sm2 Si6 As1 Ir12'
_cell_volume   323.66747957
_cell_formula_units_Z   1
loop_
 _symmetry_equiv_pos_site_id
 _symmetry_equiv_pos_as_xyz
  1  'x, y, z'
loop_
 _atom_site_type_symbol
 _atom_site_label
 _atom_site_symmetry_multiplicity
 _atom_site_fract_x
 _atom_site_fract_y
 _atom_site_fract_z
 _atom_site_occupancy
  Sm  Sm0  1  0.333333  0.666667  0.250538  1
  Sm  Sm1  1  0.666667  0.333333  0.749462  1
  Si  Si2  1  0.405109  0.113581  0.249451  1
  Si  Si3  1  0.708472  0.594891  0.249451  1
  Si  Si4  1  0.886419  0.291528  0.249451  1
  Si  Si5  1  0.594891  0.886419  0.750549  1
  Si  Si6  1  0.291528  0.405109  0.750549  1
  Si  Si7  1  0.113581  0.708472  0.750549  1
  As  As8  1  0.000000  0.000000  0.500000  1
  Ir  Ir9  1  0.443867  0.380977  0.249735  1
  Ir  Ir10  1  0.937110  0.556133  0.249735  1
  Ir  Ir11  1  0.619023  0.062890  0.249735  1
  Ir  Ir12  1  0.556133  0.619023  0.750265  1
  Ir  Ir13  1  0.062890  0.443867  0.750265  1
  Ir  Ir14  1  0.380977  0.937110  0.750265  1
  Ir  Ir15  1  0.146426  0.880857  0.247548  1
  Ir  Ir16  1  0.734431  0.853574  0.247548  1
  Ir  Ir17  1  0.119143  0.265569  0.247548  1
  Ir  Ir18  1  0.853574  0.119143  0.752452  1
  Ir  Ir19  1  0.265569  0.146426  0.752452  1
  Ir  Ir20  1  0.880857  0.734431  0.752452  1
