# generated using pymatgen
data_Hf6IrPb2
_symmetry_space_group_name_H-M   'P 1'
_cell_length_a   8.06792500
_cell_length_b   8.06792474
_cell_length_c   3.52394300
_cell_angle_alpha   90.00000000
_cell_angle_beta   90.00000000
_cell_angle_gamma   119.99999695
_symmetry_Int_Tables_number   1
_chemical_formula_structural   Hf6IrPb2
_chemical_formula_sum   'Hf6 Ir1 Pb2'
_cell_volume   198.64754906
_cell_formula_units_Z   1
loop_
 _symmetry_equiv_pos_site_id
 _symmetry_equiv_pos_as_xyz
  1  'x, y, z'
loop_
 _atom_site_type_symbol
 _atom_site_label
 _atom_site_symmetry_multiplicity
 _atom_site_fract_x
 _atom_site_fract_y
 _atom_site_fract_z
 _atom_site_occupancy
  Hf  Hf0  1  0.613954  0.000000  0.000000  1
  Hf  Hf1  1  0.386046  0.386045  0.000000  1
  Hf  Hf2  1  0.000000  0.613954  0.000000  1
  Hf  Hf3  1  0.249293  0.000000  0.499999  1
  Hf  Hf4  1  0.000000  0.249293  0.499999  1
  Hf  Hf5  1  0.750706  0.750706  0.499999  1
  Ir  Ir6  1  0.000000  0.000000  0.000000  1
  Pb  Pb7  1  0.666667  0.333334  0.499999  1
  Pb  Pb8  1  0.333334  0.666667  0.499999  1
