# generated using pymatgen
data_Th4CoNi3B16
_symmetry_space_group_name_H-M   'P 1'
_cell_length_a   6.96015921
_cell_length_b   6.96015724
_cell_length_c   6.96015837
_cell_angle_alpha   112.63484962
_cell_angle_beta   112.68208563
_cell_angle_gamma   103.26915146
_symmetry_Int_Tables_number   1
_chemical_formula_structural   Th4CoNi3B16
_chemical_formula_sum   'Th4 Co1 Ni3 B16'
_cell_volume   257.31133750
_cell_formula_units_Z   1
loop_
 _symmetry_equiv_pos_site_id
 _symmetry_equiv_pos_as_xyz
  1  'x, y, z'
loop_
 _atom_site_type_symbol
 _atom_site_label
 _atom_site_symmetry_multiplicity
 _atom_site_fract_x
 _atom_site_fract_y
 _atom_site_fract_z
 _atom_site_occupancy
  Th  Th0  1  0.793929  0.794595  0.999333  1
  Th  Th1  1  0.204739  0.205405  0.999333  1
  Th  Th2  1  0.752806  0.251357  0.501449  1
  Th  Th3  1  0.250092  0.748643  0.501449  1
  Co  Co4  1  0.270556  0.500000  0.770556  1
  Ni  Ni5  1  0.727718  0.500000  0.227718  1
  Ni  Ni6  1  0.499247  0.728521  0.227769  1
  Ni  Ni7  1  0.499247  0.271479  0.770727  1
  B  B8  1  0.272919  0.111472  0.384391  1
  B  B9  1  0.726285  0.888932  0.615217  1
  B  B10  1  0.272919  0.888528  0.161447  1
  B  B11  1  0.726285  0.111068  0.837354  1
  B  B12  1  0.111460  0.724630  0.836090  1
  B  B13  1  0.888514  0.273630  0.162143  1
  B  B14  1  0.111460  0.275370  0.386830  1
  B  B15  1  0.888514  0.726370  0.614884  1
  B  B16  1  0.114675  0.115603  0.533695  1
  B  B17  1  0.582316  0.582441  0.469013  1
  B  B18  1  0.114675  0.580978  0.999071  1
  B  B19  1  0.582316  0.113303  0.999876  1
  B  B20  1  0.886572  0.886697  0.469013  1
  B  B21  1  0.418092  0.419022  0.533695  1
  B  B22  1  0.886572  0.417559  0.999876  1
  B  B23  1  0.418092  0.884397  0.999071  1
