# generated using pymatgen
data_SmSO4F
_symmetry_space_group_name_H-M   'P 1'
_cell_length_a   6.52716700
_cell_length_b   7.13848100
_cell_length_c   8.58268800
_cell_angle_alpha   90.00000000
_cell_angle_beta   90.00000000
_cell_angle_gamma   90.00000000
_symmetry_Int_Tables_number   1
_chemical_formula_structural   SmSO4F
_chemical_formula_sum   'Sm4 S4 O16 F4'
_cell_volume   399.90225915
_cell_formula_units_Z   4
loop_
 _symmetry_equiv_pos_site_id
 _symmetry_equiv_pos_as_xyz
  1  'x, y, z'
loop_
 _atom_site_type_symbol
 _atom_site_label
 _atom_site_symmetry_multiplicity
 _atom_site_fract_x
 _atom_site_fract_y
 _atom_site_fract_z
 _atom_site_occupancy
  Sm  Sm0  1  0.650361  0.750000  0.445965  1
  Sm  Sm1  1  0.150361  0.250000  0.054035  1
  Sm  Sm2  1  0.349639  0.250000  0.554035  1
  Sm  Sm3  1  0.849639  0.750000  0.945965  1
  S  S4  1  0.187054  0.750000  0.592112  1
  S  S5  1  0.687054  0.250000  0.907888  1
  S  S6  1  0.812946  0.250000  0.407888  1
  S  S7  1  0.312946  0.750000  0.092112  1
  O  O8  1  0.014474  0.750000  0.482674  1
  O  O9  1  0.514474  0.250000  0.017326  1
  O  O10  1  0.985526  0.250000  0.517326  1
  O  O11  1  0.485526  0.750000  0.982674  1
  O  O12  1  0.378809  0.750000  0.255007  1
  O  O13  1  0.878809  0.250000  0.244993  1
  O  O14  1  0.621191  0.250000  0.744993  1
  O  O15  1  0.121191  0.750000  0.755007  1
  O  O16  1  0.325567  0.915245  0.560340  1
  O  O17  1  0.825567  0.084755  0.939660  1
  O  O18  1  0.674433  0.415245  0.439660  1
  O  O19  1  0.174433  0.584755  0.060340  1
  O  O20  1  0.825567  0.415245  0.939660  1
  O  O21  1  0.325567  0.584755  0.560340  1
  O  O22  1  0.174433  0.915245  0.060340  1
  O  O23  1  0.674433  0.084755  0.439660  1
  F  F24  1  0.701244  0.750000  0.706855  1
  F  F25  1  0.201244  0.250000  0.793145  1
  F  F26  1  0.298756  0.250000  0.293145  1
  F  F27  1  0.798756  0.750000  0.206855  1
