# generated using pymatgen
data_Ba2NaDyPb2
_symmetry_space_group_name_H-M   'P 1'
_cell_length_a   11.21920815
_cell_length_b   11.21920751
_cell_length_c   7.41723900
_cell_angle_alpha   90.00000000
_cell_angle_beta   90.00000000
_cell_angle_gamma   97.98193205
_symmetry_Int_Tables_number   1
_chemical_formula_structural   Ba2NaDyPb2
_chemical_formula_sum   'Ba8 Na4 Dy4 Pb8'
_cell_volume   924.56757946
_cell_formula_units_Z   4
loop_
 _symmetry_equiv_pos_site_id
 _symmetry_equiv_pos_as_xyz
  1  'x, y, z'
loop_
 _atom_site_type_symbol
 _atom_site_label
 _atom_site_symmetry_multiplicity
 _atom_site_fract_x
 _atom_site_fract_y
 _atom_site_fract_z
 _atom_site_occupancy
  Ba  Ba0  1  0.075466  0.424534  0.250000  1
  Ba  Ba1  1  0.424534  0.075466  0.750000  1
  Ba  Ba2  1  0.924534  0.575466  0.750000  1
  Ba  Ba3  1  0.575466  0.924534  0.250000  1
  Ba  Ba4  1  0.671962  0.328038  0.219681  1
  Ba  Ba5  1  0.828038  0.171962  0.719681  1
  Ba  Ba6  1  0.328038  0.671962  0.780319  1
  Ba  Ba7  1  0.171962  0.828038  0.280319  1
  Na  Na8  1  0.379892  0.379892  0.000000  1
  Na  Na9  1  0.120108  0.120108  0.500000  1
  Na  Na10  1  0.620108  0.620108  0.000000  1
  Na  Na11  1  0.879892  0.879892  0.500000  1
  Dy  Dy12  1  0.128122  0.128122  0.000000  1
  Dy  Dy13  1  0.371878  0.371878  0.500000  1
  Dy  Dy14  1  0.871878  0.871878  0.000000  1
  Dy  Dy15  1  0.628122  0.628122  0.500000  1
  Pb  Pb16  1  0.860449  0.639550  0.250000  1
  Pb  Pb17  1  0.639550  0.860449  0.750000  1
  Pb  Pb18  1  0.139550  0.360449  0.750000  1
  Pb  Pb19  1  0.360449  0.139550  0.250000  1
  Pb  Pb20  1  0.886484  0.113516  0.222736  1
  Pb  Pb21  1  0.613516  0.386484  0.722736  1
  Pb  Pb22  1  0.113516  0.886484  0.777264  1
  Pb  Pb23  1  0.386484  0.613516  0.277264  1
