# generated using pymatgen
data_Cs2U(I2O)2
_symmetry_space_group_name_H-M   'P 1'
_cell_length_a   10.45539835
_cell_length_b   11.16040700
_cell_length_c   6.92031926
_cell_angle_alpha   90.00000000
_cell_angle_beta   103.64304542
_cell_angle_gamma   90.00000000
_symmetry_Int_Tables_number   1
_chemical_formula_structural   Cs2U(I2O)2
_chemical_formula_sum   'Cs4 U2 I8 O4'
_cell_volume   784.72325322
_cell_formula_units_Z   2
loop_
 _symmetry_equiv_pos_site_id
 _symmetry_equiv_pos_as_xyz
  1  'x, y, z'
loop_
 _atom_site_type_symbol
 _atom_site_label
 _atom_site_symmetry_multiplicity
 _atom_site_fract_x
 _atom_site_fract_y
 _atom_site_fract_z
 _atom_site_occupancy
  Cs  Cs0  1  0.179707  0.625818  0.310981  1
  Cs  Cs1  1  0.679708  0.874183  0.310982  1
  Cs  Cs2  1  0.320293  0.125818  0.689019  1
  Cs  Cs3  1  0.820294  0.374183  0.689019  1
  U  U4  1  0.000000  0.000000  0.000000  1
  U  U5  1  0.500000  0.500000  0.000000  1
  I  I6  1  0.292218  0.944207  0.179566  1
  I  I7  1  0.792218  0.555793  0.179567  1
  I  I8  1  0.518558  0.274102  0.255690  1
  I  I9  1  0.018558  0.225898  0.255691  1
  I  I10  1  0.481442  0.725898  0.744309  1
  I  I11  1  0.981441  0.774102  0.744309  1
  I  I12  1  0.707782  0.055793  0.820433  1
  I  I13  1  0.207782  0.444207  0.820434  1
  O  O14  1  0.452468  0.588448  0.190386  1
  O  O15  1  0.952468  0.911551  0.190386  1
  O  O16  1  0.547532  0.411552  0.809614  1
  O  O17  1  0.047532  0.088448  0.809615  1
