# generated using pymatgen
data_Nd4AgRh
_symmetry_space_group_name_H-M   'P 1'
_cell_length_a   9.86444478
_cell_length_b   9.86444425
_cell_length_c   9.86444500
_cell_angle_alpha   60.00000084
_cell_angle_beta   60.00000262
_cell_angle_gamma   59.99999997
_symmetry_Int_Tables_number   1
_chemical_formula_structural   Nd4AgRh
_chemical_formula_sum   'Nd16 Ag4 Rh4'
_cell_volume   678.73920894
_cell_formula_units_Z   4
loop_
 _symmetry_equiv_pos_site_id
 _symmetry_equiv_pos_as_xyz
  1  'x, y, z'
loop_
 _atom_site_type_symbol
 _atom_site_label
 _atom_site_symmetry_multiplicity
 _atom_site_fract_x
 _atom_site_fract_y
 _atom_site_fract_z
 _atom_site_occupancy
  Nd  Nd0  1  0.601532  0.601532  0.601532  1
  Nd  Nd1  1  0.601532  0.601532  0.195404  1
  Nd  Nd2  1  0.601532  0.195404  0.601532  1
  Nd  Nd3  1  0.195404  0.601532  0.601532  1
  Nd  Nd4  1  0.061236  0.438764  0.438764  1
  Nd  Nd5  1  0.438764  0.061236  0.061236  1
  Nd  Nd6  1  0.438764  0.061236  0.438764  1
  Nd  Nd7  1  0.061236  0.438764  0.061236  1
  Nd  Nd8  1  0.438764  0.438764  0.061236  1
  Nd  Nd9  1  0.061236  0.061236  0.438764  1
  Nd  Nd10  1  0.186779  0.813221  0.813221  1
  Nd  Nd11  1  0.813221  0.186779  0.186779  1
  Nd  Nd12  1  0.813221  0.186779  0.813221  1
  Nd  Nd13  1  0.186779  0.813221  0.186779  1
  Nd  Nd14  1  0.813221  0.813221  0.186779  1
  Nd  Nd15  1  0.186779  0.186779  0.813221  1
  Ag  Ag16  1  0.831037  0.831037  0.831037  1
  Ag  Ag17  1  0.831037  0.831037  0.506890  1
  Ag  Ag18  1  0.831037  0.506890  0.831037  1
  Ag  Ag19  1  0.506890  0.831037  0.831037  1
  Rh  Rh20  1  0.393065  0.393065  0.393065  1
  Rh  Rh21  1  0.393065  0.393065  0.820803  1
  Rh  Rh22  1  0.393065  0.820803  0.393065  1
  Rh  Rh23  1  0.820803  0.393065  0.393065  1
