# generated using pymatgen
data_Ac3Ce(SiPt)4
_symmetry_space_group_name_H-M   'P 1'
_cell_length_a   4.25311500
_cell_length_b   8.84347576
_cell_length_c   7.39140200
_cell_angle_alpha   90.27887782
_cell_angle_beta   90.00000000
_cell_angle_gamma   90.00000000
_symmetry_Int_Tables_number   1
_chemical_formula_structural   Ac3Ce(SiPt)4
_chemical_formula_sum   'Ac3 Ce1 Si4 Pt4'
_cell_volume   278.00447960
_cell_formula_units_Z   1
loop_
 _symmetry_equiv_pos_site_id
 _symmetry_equiv_pos_as_xyz
  1  'x, y, z'
loop_
 _atom_site_type_symbol
 _atom_site_label
 _atom_site_symmetry_multiplicity
 _atom_site_fract_x
 _atom_site_fract_y
 _atom_site_fract_z
 _atom_site_occupancy
  Ac  Ac0  1  0.250000  0.000085  0.749946  1
  Ac  Ac1  1  0.250000  0.500078  0.750106  1
  Ac  Ac2  1  0.750000  0.999929  0.250157  1
  Ce  Ce3  1  0.750000  0.499928  0.249632  1
  Si  Si4  1  0.250000  0.737798  0.411802  1
  Si  Si5  1  0.250000  0.261748  0.088252  1
  Si  Si6  1  0.750000  0.250919  0.580975  1
  Si  Si7  1  0.750000  0.749442  0.919077  1
  Pt  Pt8  1  0.250000  0.262723  0.416317  1
  Pt  Pt9  1  0.250000  0.737367  0.083731  1
  Pt  Pt10  1  0.750000  0.744659  0.580936  1
  Pt  Pt11  1  0.750000  0.255325  0.919069  1
