# generated using pymatgen
data_Tm2LuIn3Ag2Rh
_symmetry_space_group_name_H-M   'P 1'
_cell_length_a   7.97075421
_cell_length_b   7.97704884
_cell_length_c   3.62523400
_cell_angle_alpha   90.00000000
_cell_angle_beta   90.00000000
_cell_angle_gamma   119.94759729
_symmetry_Int_Tables_number   1
_chemical_formula_structural   Tm2LuIn3Ag2Rh
_chemical_formula_sum   'Tm2 Lu1 In3 Ag2 Rh1'
_cell_volume   199.72729903
_cell_formula_units_Z   1
loop_
 _symmetry_equiv_pos_site_id
 _symmetry_equiv_pos_as_xyz
  1  'x, y, z'
loop_
 _atom_site_type_symbol
 _atom_site_label
 _atom_site_symmetry_multiplicity
 _atom_site_fract_x
 _atom_site_fract_y
 _atom_site_fract_z
 _atom_site_occupancy
  Tm  Tm0  1  0.617394  0.584356  0.500000  1
  Tm  Tm1  1  0.415959  0.033227  0.500000  1
  Lu  Lu2  1  0.965675  0.381920  0.500000  1
  In  In3  1  0.269521  0.281337  0.000000  1
  In  In4  1  0.011663  0.729991  0.000000  1
  In  In5  1  0.718680  0.988546  0.000000  1
  Ag  Ag6  1  0.332460  0.666003  0.000000  1
  Ag  Ag7  1  0.999998  0.000297  0.500000  1
  Rh  Rh8  1  0.668650  0.334323  0.000000  1
