# generated using pymatgen
data_Dy2Sc6Ti11Si16Ru
_symmetry_space_group_name_H-M   'P 1'
_cell_length_a   6.89591980
_cell_length_b   6.89119151
_cell_length_c   12.62569895
_cell_angle_alpha   89.93489183
_cell_angle_beta   89.88220311
_cell_angle_gamma   89.89361380
_symmetry_Int_Tables_number   1
_chemical_formula_structural   Dy2Sc6Ti11Si16Ru
_chemical_formula_sum   'Dy2 Sc6 Ti11 Si16 Ru1'
_cell_volume   599.98446555
_cell_formula_units_Z   1
loop_
 _symmetry_equiv_pos_site_id
 _symmetry_equiv_pos_as_xyz
  1  'x, y, z'
loop_
 _atom_site_type_symbol
 _atom_site_label
 _atom_site_symmetry_multiplicity
 _atom_site_fract_x
 _atom_site_fract_y
 _atom_site_fract_z
 _atom_site_occupancy
  Dy  Dy0  1  0.497783  0.838905  0.715443  1
  Dy  Dy1  1  0.340982  0.003960  0.468019  1
  Sc  Sc2  1  0.997831  0.658076  0.032951  1
  Sc  Sc3  1  0.998746  0.342853  0.531135  1
  Sc  Sc4  1  0.658766  0.997994  0.967964  1
  Sc  Sc5  1  0.156197  0.500983  0.784070  1
  Sc  Sc6  1  0.841967  0.500691  0.282320  1
  Sc  Sc7  1  0.502226  0.157539  0.217345  1
  Ti  Ti8  1  0.346055  0.505560  0.374337  1
  Ti  Ti9  1  0.850648  0.998811  0.372030  1
  Ti  Ti10  1  0.004030  0.148044  0.124607  1
  Ti  Ti11  1  0.999555  0.850136  0.627357  1
  Ti  Ti12  1  0.508675  0.346807  0.624954  1
  Ti  Ti13  1  0.148519  0.007140  0.876824  1
  Ti  Ti14  1  0.827067  0.173684  0.749736  1
  Ti  Ti15  1  0.170795  0.825392  0.250815  1
  Ti  Ti16  1  0.326199  0.326821  0.001200  1
  Ti  Ti17  1  0.494540  0.647023  0.126676  1
  Ti  Ti18  1  0.650452  0.495321  0.874409  1
  Si  Si19  1  0.038224  0.703907  0.434767  1
  Si  Si20  1  0.952222  0.298006  0.935240  1
  Si  Si21  1  0.717251  0.049843  0.563598  1
  Si  Si22  1  0.201508  0.454975  0.183479  1
  Si  Si23  1  0.800038  0.545918  0.682497  1
  Si  Si24  1  0.452604  0.207463  0.817769  1
  Si  Si25  1  0.552489  0.791736  0.315451  1
  Si  Si26  1  0.297775  0.952622  0.066209  1
  Si  Si27  1  0.795668  0.862016  0.179442  1
  Si  Si28  1  0.288862  0.622555  0.568711  1
  Si  Si29  1  0.705079  0.363199  0.069957  1
  Si  Si30  1  0.637473  0.303151  0.429206  1
  Si  Si31  1  0.362558  0.703838  0.932649  1
  Si  Si32  1  0.132442  0.209091  0.316252  1
  Si  Si33  1  0.200466  0.142586  0.683262  1
  Si  Si34  1  0.867744  0.794193  0.821383  1
  Ru  Ru35  1  0.676563  0.669159  0.497938  1
