# generated using pymatgen
data_Na5Nb3(Ni4P3)4
_symmetry_space_group_name_H-M   'P 1'
_cell_length_a   12.24017900
_cell_length_b   12.24017878
_cell_length_c   3.71219800
_cell_angle_alpha   90.00000000
_cell_angle_beta   90.00000000
_cell_angle_gamma   119.99999788
_symmetry_Int_Tables_number   1
_chemical_formula_structural   Na5Nb3(Ni4P3)4
_chemical_formula_sum   'Na5 Nb3 Ni16 P12'
_cell_volume   481.65636485
_cell_formula_units_Z   1
loop_
 _symmetry_equiv_pos_site_id
 _symmetry_equiv_pos_as_xyz
  1  'x, y, z'
loop_
 _atom_site_type_symbol
 _atom_site_label
 _atom_site_symmetry_multiplicity
 _atom_site_fract_x
 _atom_site_fract_y
 _atom_site_fract_z
 _atom_site_occupancy
  Na  Na0  1  0.818436  0.000000  0.500000  1
  Na  Na1  1  0.000000  0.818436  0.500000  1
  Na  Na2  1  0.181564  0.181564  0.500000  1
  Na  Na3  1  0.333333  0.666667  0.000000  1
  Na  Na4  1  0.666667  0.333333  0.000000  1
  Nb  Nb5  1  0.444651  0.000000  0.000000  1
  Nb  Nb6  1  0.000000  0.444651  0.000000  1
  Nb  Nb7  1  0.555349  0.555349  0.000000  1
  Ni  Ni8  1  0.275919  0.000000  0.500000  1
  Ni  Ni9  1  0.000000  0.275919  0.500000  1
  Ni  Ni10  1  0.724081  0.724081  0.500000  1
  Ni  Ni11  1  0.624817  0.806213  0.000000  1
  Ni  Ni12  1  0.193787  0.818605  0.000000  1
  Ni  Ni13  1  0.181395  0.375183  0.000000  1
  Ni  Ni14  1  0.375183  0.181395  0.000000  1
  Ni  Ni15  1  0.806213  0.624817  0.000000  1
  Ni  Ni16  1  0.818605  0.193787  0.000000  1
  Ni  Ni17  1  0.519568  0.873485  0.500000  1
  Ni  Ni18  1  0.126515  0.646083  0.500000  1
  Ni  Ni19  1  0.353917  0.480432  0.500000  1
  Ni  Ni20  1  0.480432  0.353917  0.500000  1
  Ni  Ni21  1  0.873485  0.519568  0.500000  1
  Ni  Ni22  1  0.646083  0.126515  0.500000  1
  Ni  Ni23  1  0.000000  0.000000  0.000000  1
  P  P24  1  0.176585  0.000000  0.000000  1
  P  P25  1  0.000000  0.176585  0.000000  1
  P  P26  1  0.823415  0.823415  0.000000  1
  P  P27  1  0.520694  0.686842  0.500000  1
  P  P28  1  0.313158  0.833851  0.500000  1
  P  P29  1  0.166149  0.479306  0.500000  1
  P  P30  1  0.479306  0.166149  0.500000  1
  P  P31  1  0.686842  0.520694  0.500000  1
  P  P32  1  0.833851  0.313158  0.500000  1
  P  P33  1  0.644171  0.000000  0.000000  1
  P  P34  1  0.000000  0.644171  0.000000  1
  P  P35  1  0.355829  0.355829  0.000000  1
