# generated using pymatgen
data_Dy4VRe(B8Mo)2
_symmetry_space_group_name_H-M   'P 1'
_cell_length_a   3.59095400
_cell_length_b   6.01120812
_cell_length_c   11.61104828
_cell_angle_alpha   89.91281413
_cell_angle_beta   90.00000000
_cell_angle_gamma   90.00000000
_symmetry_Int_Tables_number   1
_chemical_formula_structural   Dy4VRe(B8Mo)2
_chemical_formula_sum   'Dy4 V1 Re1 B16 Mo2'
_cell_volume   250.63547126
_cell_formula_units_Z   1
loop_
 _symmetry_equiv_pos_site_id
 _symmetry_equiv_pos_as_xyz
  1  'x, y, z'
loop_
 _atom_site_type_symbol
 _atom_site_label
 _atom_site_symmetry_multiplicity
 _atom_site_fract_x
 _atom_site_fract_y
 _atom_site_fract_z
 _atom_site_occupancy
  Dy  Dy0  1  0.000000  0.626109  0.351728  1
  Dy  Dy1  1  0.000000  0.374716  0.648530  1
  Dy  Dy2  1  0.000000  0.126636  0.151003  1
  Dy  Dy3  1  0.000000  0.872965  0.847612  1
  V  V4  1  0.000000  0.871658  0.581657  1
  Re  Re5  1  0.000000  0.127588  0.417287  1
  B  B6  1  0.500000  0.787345  0.187428  1
  B  B7  1  0.500000  0.212938  0.812820  1
  B  B8  1  0.500000  0.284014  0.315851  1
  B  B9  1  0.500000  0.715934  0.684327  1
  B  B10  1  0.500000  0.867206  0.031955  1
  B  B11  1  0.500000  0.132915  0.967817  1
  B  B12  1  0.500000  0.364234  0.468192  1
  B  B13  1  0.500000  0.635816  0.532011  1
  B  B14  1  0.500000  0.886733  0.453076  1
  B  B15  1  0.500000  0.113394  0.547161  1
  B  B16  1  0.500000  0.385779  0.047769  1
  B  B17  1  0.500000  0.614880  0.952488  1
  B  B18  1  0.500000  0.976837  0.308450  1
  B  B19  1  0.500000  0.022841  0.691635  1
  B  B20  1  0.500000  0.474694  0.194490  1
  B  B21  1  0.500000  0.525083  0.805625  1
  Mo  Mo22  1  0.000000  0.629416  0.084873  1
  Mo  Mo23  1  0.000000  0.370266  0.916216  1
