# generated using pymatgen
data_Y2Er4C3Cl5
_symmetry_space_group_name_H-M   'P 1'
_cell_length_a   3.63215764
_cell_length_b   8.26340205
_cell_length_c   10.21748304
_cell_angle_alpha   85.41789184
_cell_angle_beta   79.67917587
_cell_angle_gamma   77.36771660
_symmetry_Int_Tables_number   1
_chemical_formula_structural   Y2Er4C3Cl5
_chemical_formula_sum   'Y2 Er4 C3 Cl5'
_cell_volume   294.13748208
_cell_formula_units_Z   1
loop_
 _symmetry_equiv_pos_site_id
 _symmetry_equiv_pos_as_xyz
  1  'x, y, z'
loop_
 _atom_site_type_symbol
 _atom_site_label
 _atom_site_symmetry_multiplicity
 _atom_site_fract_x
 _atom_site_fract_y
 _atom_site_fract_z
 _atom_site_occupancy
  Y  Y0  1  0.320857  0.818079  0.543780  1
  Y  Y1  1  0.431808  0.923941  0.217807  1
  Er  Er2  1  0.573906  0.075330  0.777948  1
  Er  Er3  1  0.960001  0.427840  0.655310  1
  Er  Er4  1  0.683405  0.179636  0.456596  1
  Er  Er5  1  0.045500  0.569749  0.343146  1
  C  C6  1  0.126559  0.124350  0.625686  1
  C  C7  1  0.877452  0.875487  0.373139  1
  C  C8  1  0.503786  0.496793  0.499158  1
  Cl  Cl9  1  0.752202  0.745112  0.755936  1
  Cl  Cl10  1  0.380491  0.378670  0.865258  1
  Cl  Cl11  1  0.249839  0.254654  0.246036  1
  Cl  Cl12  1  0.627328  0.615255  0.133170  1
  Cl  Cl13  1  0.004086  0.998693  0.996344  1
