# generated using pymatgen
data_TbDyHo2Fe3Os5
_symmetry_space_group_name_H-M   'P 1'
_cell_length_a   5.26914465
_cell_length_b   5.31207939
_cell_length_c   9.17464997
_cell_angle_alpha   73.17211882
_cell_angle_beta   90.91660209
_cell_angle_gamma   120.26992355
_symmetry_Int_Tables_number   1
_chemical_formula_structural   TbDyHo2Fe3Os5
_chemical_formula_sum   'Tb1 Dy1 Ho2 Fe3 Os5'
_cell_volume   209.65177341
_cell_formula_units_Z   1
loop_
 _symmetry_equiv_pos_site_id
 _symmetry_equiv_pos_as_xyz
  1  'x, y, z'
loop_
 _atom_site_type_symbol
 _atom_site_label
 _atom_site_symmetry_multiplicity
 _atom_site_fract_x
 _atom_site_fract_y
 _atom_site_fract_z
 _atom_site_occupancy
  Tb  Tb0  1  0.875745  0.750007  0.375730  1
  Dy  Dy1  1  0.499210  0.999751  0.499708  1
  Ho  Ho2  1  0.378546  0.752345  0.873857  1
  Ho  Ho3  1  0.996458  0.997868  0.000723  1
  Fe  Fe4  1  0.687520  0.375031  0.937459  1
  Fe  Fe5  1  0.940489  0.376608  0.187272  1
  Fe  Fe6  1  0.434472  0.373402  0.687668  1
  Os  Os7  1  0.440455  0.374693  0.182976  1
  Os  Os8  1  0.934525  0.375261  0.692025  1
  Os  Os9  1  0.440455  0.882786  0.182976  1
  Os  Os10  1  0.934525  0.867237  0.692025  1
  Os  Os11  1  0.187600  0.375010  0.437580  1
