# generated using pymatgen
data_Zn3Co4Cu(Mo3N)4
_symmetry_space_group_name_H-M   'P 1'
_cell_length_a   6.72494488
_cell_length_b   6.71716551
_cell_length_c   6.71548612
_cell_angle_alpha   90.18970154
_cell_angle_beta   90.11914457
_cell_angle_gamma   90.06353546
_symmetry_Int_Tables_number   1
_chemical_formula_structural   Zn3Co4Cu(Mo3N)4
_chemical_formula_sum   'Zn3 Co4 Cu1 Mo12 N4'
_cell_volume   303.35324439
_cell_formula_units_Z   1
loop_
 _symmetry_equiv_pos_site_id
 _symmetry_equiv_pos_as_xyz
  1  'x, y, z'
loop_
 _atom_site_type_symbol
 _atom_site_label
 _atom_site_symmetry_multiplicity
 _atom_site_fract_x
 _atom_site_fract_y
 _atom_site_fract_z
 _atom_site_occupancy
  Zn  Zn0  1  0.069086  0.065634  0.069922  1
  Zn  Zn1  1  0.320376  0.184397  0.819810  1
  Zn  Zn2  1  0.816183  0.319493  0.182209  1
  Co  Co3  1  0.435942  0.932275  0.569547  1
  Co  Co4  1  0.570889  0.435675  0.929446  1
  Co  Co5  1  0.933388  0.569420  0.434312  1
  Co  Co6  1  0.684635  0.683529  0.682609  1
  Cu  Cu7  1  0.184194  0.818776  0.317960  1
  Mo  Mo8  1  0.126573  0.203255  0.457780  1
  Mo  Mo9  1  0.384932  0.786063  0.945504  1
  Mo  Mo10  1  0.872493  0.696458  0.041914  1
  Mo  Mo11  1  0.203684  0.460789  0.127701  1
  Mo  Mo12  1  0.789128  0.943313  0.383962  1
  Mo  Mo13  1  0.041617  0.871118  0.694107  1
  Mo  Mo14  1  0.454643  0.121504  0.209952  1
  Mo  Mo15  1  0.302767  0.552214  0.624631  1
  Mo  Mo16  1  0.944375  0.385452  0.786751  1
  Mo  Mo17  1  0.546736  0.627377  0.303866  1
  Mo  Mo18  1  0.696004  0.039553  0.870680  1
  Mo  Mo19  1  0.626725  0.305164  0.549264  1
  N  N20  1  0.374724  0.375690  0.376236  1
  N  N21  1  0.625579  0.871734  0.124507  1
  N  N22  1  0.123875  0.626683  0.871795  1
  N  N23  1  0.871450  0.124433  0.625538  1
