# generated using pymatgen
data_Ce3Zn3PdPt2
_symmetry_space_group_name_H-M   'P 1'
_cell_length_a   7.43822600
_cell_length_b   7.43822628
_cell_length_c   3.91250500
_cell_angle_alpha   90.00000000
_cell_angle_beta   90.00000000
_cell_angle_gamma   119.99999875
_symmetry_Int_Tables_number   1
_chemical_formula_structural   Ce3Zn3PdPt2
_chemical_formula_sum   'Ce3 Zn3 Pd1 Pt2'
_cell_volume   187.46677077
_cell_formula_units_Z   1
loop_
 _symmetry_equiv_pos_site_id
 _symmetry_equiv_pos_as_xyz
  1  'x, y, z'
loop_
 _atom_site_type_symbol
 _atom_site_label
 _atom_site_symmetry_multiplicity
 _atom_site_fract_x
 _atom_site_fract_y
 _atom_site_fract_z
 _atom_site_occupancy
  Ce  Ce0  1  0.000000  0.414026  0.000000  1
  Ce  Ce1  1  0.585974  0.585974  0.000000  1
  Ce  Ce2  1  0.414026  0.000000  0.000000  1
  Zn  Zn3  1  0.000000  0.756023  0.500000  1
  Zn  Zn4  1  0.243977  0.243977  0.500000  1
  Zn  Zn5  1  0.756023  0.000000  0.500000  1
  Pd  Pd6  1  0.000000  0.000000  0.000000  1
  Pt  Pt7  1  0.666667  0.333333  0.500000  1
  Pt  Pt8  1  0.333333  0.666667  0.500000  1
