# generated using pymatgen
data_MgSc8Ir4Ru3
_symmetry_space_group_name_H-M   'P 1'
_cell_length_a   6.44943000
_cell_length_b   4.61410400
_cell_length_c   9.23234400
_cell_angle_alpha   90.00000000
_cell_angle_beta   89.99820019
_cell_angle_gamma   90.00000000
_symmetry_Int_Tables_number   1
_chemical_formula_structural   MgSc8Ir4Ru3
_chemical_formula_sum   'Mg1 Sc8 Ir4 Ru3'
_cell_volume   274.73923870
_cell_formula_units_Z   1
loop_
 _symmetry_equiv_pos_site_id
 _symmetry_equiv_pos_as_xyz
  1  'x, y, z'
loop_
 _atom_site_type_symbol
 _atom_site_label
 _atom_site_symmetry_multiplicity
 _atom_site_fract_x
 _atom_site_fract_y
 _atom_site_fract_z
 _atom_site_occupancy
  Mg  Mg0  1  0.249962  0.250000  0.124985  1
  Sc  Sc1  1  0.985188  0.750000  0.124992  1
  Sc  Sc2  1  0.514631  0.750000  0.125007  1
  Sc  Sc3  1  0.993900  0.250000  0.383206  1
  Sc  Sc4  1  0.505927  0.250000  0.383234  1
  Sc  Sc5  1  0.498129  0.750000  0.625003  1
  Sc  Sc6  1  0.002075  0.750000  0.624997  1
  Sc  Sc7  1  0.506091  0.250000  0.866784  1
  Sc  Sc8  1  0.994058  0.250000  0.866759  1
  Ir  Ir9  1  0.749932  0.250000  0.124985  1
  Ir  Ir10  1  0.249943  0.750000  0.369473  1
  Ir  Ir11  1  0.750051  0.250000  0.624985  1
  Ir  Ir12  1  0.250056  0.750000  0.880534  1
  Ru  Ru13  1  0.749953  0.750000  0.375632  1
  Ru  Ru14  1  0.250055  0.250000  0.625009  1
  Ru  Ru15  1  0.750050  0.750000  0.874412  1
