# generated using pymatgen
data_Zr4Co19Si12Ni
_symmetry_space_group_name_H-M   'P 1'
_cell_length_a   3.66142700
_cell_length_b   6.78070667
_cell_length_c   17.92176338
_cell_angle_alpha   89.85232073
_cell_angle_beta   90.00000000
_cell_angle_gamma   90.00000000
_symmetry_Int_Tables_number   1
_chemical_formula_structural   Zr4Co19Si12Ni
_chemical_formula_sum   'Zr4 Co19 Si12 Ni1'
_cell_volume   444.94326090
_cell_formula_units_Z   1
loop_
 _symmetry_equiv_pos_site_id
 _symmetry_equiv_pos_as_xyz
  1  'x, y, z'
loop_
 _atom_site_type_symbol
 _atom_site_label
 _atom_site_symmetry_multiplicity
 _atom_site_fract_x
 _atom_site_fract_y
 _atom_site_fract_z
 _atom_site_occupancy
  Zr  Zr0  1  0.250000  0.873478  0.358433  1
  Zr  Zr1  1  0.750000  0.116189  0.642205  1
  Zr  Zr2  1  0.750000  0.383001  0.140742  1
  Zr  Zr3  1  0.250000  0.625261  0.859271  1
  Co  Co4  1  0.250000  0.061946  0.204710  1
  Co  Co5  1  0.750000  0.939500  0.794917  1
  Co  Co6  1  0.750000  0.561060  0.295048  1
  Co  Co7  1  0.250000  0.438527  0.705518  1
  Co  Co8  1  0.250000  0.617645  0.490773  1
  Co  Co9  1  0.750000  0.368507  0.509994  1
  Co  Co10  1  0.750000  0.127066  0.008770  1
  Co  Co11  1  0.250000  0.882166  0.991376  1
  Co  Co12  1  0.250000  0.680742  0.201848  1
  Co  Co13  1  0.750000  0.321157  0.798201  1
  Co  Co14  1  0.750000  0.179476  0.296841  1
  Co  Co15  1  0.250000  0.820424  0.702484  1
  Co  Co16  1  0.250000  0.358868  0.387736  1
  Co  Co17  1  0.750000  0.635250  0.612076  1
  Co  Co18  1  0.750000  0.866715  0.110617  1
  Co  Co19  1  0.250000  0.139804  0.889236  1
  Co  Co20  1  0.250000  0.375912  0.005660  1
  Co  Co21  1  0.750000  0.632755  0.993838  1
  Co  Co22  1  0.750000  0.870228  0.493872  1
  Si  Si23  1  0.250000  0.105719  0.082550  1
  Si  Si24  1  0.750000  0.903153  0.917508  1
  Si  Si25  1  0.750000  0.595438  0.418202  1
  Si  Si26  1  0.250000  0.397876  0.583446  1
  Si  Si27  1  0.250000  0.647624  0.076106  1
  Si  Si28  1  0.750000  0.360428  0.923543  1
  Si  Si29  1  0.750000  0.142412  0.421615  1
  Si  Si30  1  0.250000  0.847679  0.576798  1
  Si  Si31  1  0.250000  0.371351  0.260178  1
  Si  Si32  1  0.750000  0.628887  0.739879  1
  Si  Si33  1  0.750000  0.871284  0.239033  1
  Si  Si34  1  0.250000  0.129639  0.761132  1
  Ni  Ni35  1  0.250000  0.122833  0.505843  1
