# generated using pymatgen
data_Ho19ErBi12
_symmetry_space_group_name_H-M   'P 1'
_cell_length_a   8.22652703
_cell_length_b   9.50797600
_cell_length_c   12.00266104
_cell_angle_alpha   90.00012224
_cell_angle_beta   90.00931367
_cell_angle_gamma   90.00179633
_symmetry_Int_Tables_number   1
_chemical_formula_structural   Ho19ErBi12
_chemical_formula_sum   'Ho19 Er1 Bi12'
_cell_volume   938.81958601
_cell_formula_units_Z   1
loop_
 _symmetry_equiv_pos_site_id
 _symmetry_equiv_pos_as_xyz
  1  'x, y, z'
loop_
 _atom_site_type_symbol
 _atom_site_label
 _atom_site_symmetry_multiplicity
 _atom_site_fract_x
 _atom_site_fract_y
 _atom_site_fract_z
 _atom_site_occupancy
  Ho  Ho0  1  0.353679  0.749948  0.216271  1
  Ho  Ho1  1  0.853539  0.749924  0.283650  1
  Ho  Ho2  1  0.646358  0.249974  0.783687  1
  Ho  Ho3  1  0.146384  0.249985  0.716299  1
  Ho  Ho4  1  0.191944  0.935812  0.441011  1
  Ho  Ho5  1  0.308079  0.064215  0.941025  1
  Ho  Ho6  1  0.808057  0.435815  0.558981  1
  Ho  Ho7  1  0.308025  0.435812  0.941010  1
  Ho  Ho8  1  0.808062  0.064200  0.558998  1
  Ho  Ho9  1  0.691984  0.935723  0.058985  1
  Ho  Ho10  1  0.191942  0.564191  0.441006  1
  Ho  Ho11  1  0.476498  0.249980  0.488831  1
  Ho  Ho12  1  0.976454  0.250012  0.011164  1
  Ho  Ho13  1  0.523497  0.749999  0.511148  1
  Ho  Ho14  1  0.023384  0.749942  0.988869  1
  Ho  Ho15  1  0.314409  0.250000  0.218130  1
  Ho  Ho16  1  0.814447  0.249998  0.281874  1
  Ho  Ho17  1  0.685554  0.749960  0.781910  1
  Ho  Ho18  1  0.185562  0.749995  0.718132  1
  Er  Er19  1  0.691961  0.564391  0.058966  1
  Bi  Bi20  1  0.405587  0.749890  0.957529  1
  Bi  Bi21  1  0.905484  0.750004  0.542510  1
  Bi  Bi22  1  0.594599  0.250327  0.042552  1
  Bi  Bi23  1  0.094502  0.249998  0.457483  1
  Bi  Bi24  1  0.566130  0.996170  0.325720  1
  Bi  Bi25  1  0.066053  0.503805  0.174236  1
  Bi  Bi26  1  0.433915  0.496182  0.674282  1
  Bi  Bi27  1  0.933866  0.003799  0.825748  1
  Bi  Bi28  1  0.433888  0.003802  0.674273  1
  Bi  Bi29  1  0.933887  0.496171  0.825780  1
  Bi  Bi30  1  0.566155  0.503806  0.325690  1
  Bi  Bi31  1  0.066116  0.996170  0.174250  1
