# generated using pymatgen
data_UTiCo9W
_symmetry_space_group_name_H-M   'P 1'
_cell_length_a   6.94397715
_cell_length_b   6.94397713
_cell_length_c   6.94397853
_cell_angle_alpha   43.77096123
_cell_angle_beta   43.77094619
_cell_angle_gamma   43.77095691
_symmetry_Int_Tables_number   1
_chemical_formula_structural   UTiCo9W
_chemical_formula_sum   'U1 Ti1 Co9 W1'
_cell_volume   145.46771087
_cell_formula_units_Z   1
loop_
 _symmetry_equiv_pos_site_id
 _symmetry_equiv_pos_as_xyz
  1  'x, y, z'
loop_
 _atom_site_type_symbol
 _atom_site_label
 _atom_site_symmetry_multiplicity
 _atom_site_fract_x
 _atom_site_fract_y
 _atom_site_fract_z
 _atom_site_occupancy
  U  U0  1  0.000177  0.000177  0.000177  1
  Ti  Ti1  1  0.780641  0.780641  0.780641  1
  Co  Co2  1  0.284628  0.766932  0.284628  1
  Co  Co3  1  0.766932  0.284628  0.284628  1
  Co  Co4  1  0.284628  0.284628  0.766932  1
  Co  Co5  1  0.715542  0.234379  0.715542  1
  Co  Co6  1  0.234379  0.715542  0.715542  1
  Co  Co7  1  0.715542  0.715542  0.234379  1
  Co  Co8  1  0.000929  0.498611  0.498611  1
  Co  Co9  1  0.498611  0.498611  0.000929  1
  Co  Co10  1  0.498611  0.000929  0.498611  1
  W  W11  1  0.219377  0.219377  0.219377  1
