# generated using pymatgen
data_Nd3ErTmPb3
_symmetry_space_group_name_H-M   'P 1'
_cell_length_a   6.73623500
_cell_length_b   9.24087615
_cell_length_c   9.24139900
_cell_angle_alpha   119.99812127
_cell_angle_beta   90.00020127
_cell_angle_gamma   89.99960324
_symmetry_Int_Tables_number   1
_chemical_formula_structural   Nd3ErTmPb3
_chemical_formula_sum   'Nd6 Er2 Tm2 Pb6'
_cell_volume   498.20370609
_cell_formula_units_Z   2
loop_
 _symmetry_equiv_pos_site_id
 _symmetry_equiv_pos_as_xyz
  1  'x, y, z'
loop_
 _atom_site_type_symbol
 _atom_site_label
 _atom_site_symmetry_multiplicity
 _atom_site_fract_x
 _atom_site_fract_y
 _atom_site_fract_z
 _atom_site_occupancy
  Nd  Nd0  1  0.750058  0.240113  0.000000  1
  Nd  Nd1  1  0.750050  0.759808  0.759838  1
  Nd  Nd2  1  0.750050  0.999969  0.240162  1
  Nd  Nd3  1  0.249939  0.759886  0.000000  1
  Nd  Nd4  1  0.249939  0.240192  0.240162  1
  Nd  Nd5  1  0.249939  0.000030  0.759838  1
  Er  Er6  1  0.500019  0.333338  0.666707  1
  Er  Er7  1  0.500019  0.666631  0.333293  1
  Tm  Tm8  1  0.999992  0.666672  0.333308  1
  Tm  Tm9  1  0.999992  0.333364  0.666692  1
  Pb  Pb10  1  0.750129  0.601706  0.000000  1
  Pb  Pb11  1  0.750134  0.398260  0.398237  1
  Pb  Pb12  1  0.750134  0.000022  0.601763  1
  Pb  Pb13  1  0.249864  0.398291  0.000000  1
  Pb  Pb14  1  0.249873  0.601741  0.601762  1
  Pb  Pb15  1  0.249873  0.999978  0.398238  1
