# generated using pymatgen
data_Pr2Ti3VO10
_symmetry_space_group_name_H-M   'P 1'
_cell_length_a   5.88203200
_cell_length_b   7.77770700
_cell_length_c   8.86392700
_cell_angle_alpha   90.00000000
_cell_angle_beta   90.00000000
_cell_angle_gamma   90.00000000
_symmetry_Int_Tables_number   1
_chemical_formula_structural   Pr2Ti3VO10
_chemical_formula_sum   'Pr4 Ti6 V2 O20'
_cell_volume   405.51332737
_cell_formula_units_Z   2
loop_
 _symmetry_equiv_pos_site_id
 _symmetry_equiv_pos_as_xyz
  1  'x, y, z'
loop_
 _atom_site_type_symbol
 _atom_site_label
 _atom_site_symmetry_multiplicity
 _atom_site_fract_x
 _atom_site_fract_y
 _atom_site_fract_z
 _atom_site_occupancy
  Pr  Pr0  1  0.998158  0.358279  0.672082  1
  Pr  Pr1  1  0.998158  0.641721  0.327918  1
  Pr  Pr2  1  0.001842  0.858279  0.827918  1
  Pr  Pr3  1  0.001842  0.141721  0.172082  1
  Ti  Ti4  1  0.504904  0.116821  0.858103  1
  Ti  Ti5  1  0.504904  0.883179  0.141897  1
  Ti  Ti6  1  0.495096  0.616821  0.641897  1
  Ti  Ti7  1  0.495096  0.383179  0.358103  1
  Ti  Ti8  1  0.758947  0.500000  0.000000  1
  Ti  Ti9  1  0.241053  0.000000  0.500000  1
  V  V10  1  0.257041  0.500000  0.000000  1
  V  V11  1  0.742959  0.000000  0.500000  1
  O  O12  1  0.257530  0.901661  0.291164  1
  O  O13  1  0.257530  0.098339  0.708836  1
  O  O14  1  0.742470  0.401661  0.208836  1
  O  O15  1  0.742470  0.598339  0.791164  1
  O  O16  1  0.746664  0.103448  0.719580  1
  O  O17  1  0.746664  0.896552  0.280420  1
  O  O18  1  0.253336  0.603448  0.780420  1
  O  O19  1  0.253336  0.396552  0.219580  1
  O  O20  1  0.507747  0.333580  0.923992  1
  O  O21  1  0.507747  0.666420  0.076008  1
  O  O22  1  0.492253  0.833580  0.576008  1
  O  O23  1  0.492253  0.166420  0.423992  1
  O  O24  1  0.280791  0.000000  0.000000  1
  O  O25  1  0.719209  0.500000  0.500000  1
  O  O26  1  0.715226  0.000000  0.000000  1
  O  O27  1  0.284774  0.500000  0.500000  1
  O  O28  1  0.015394  0.164211  0.446839  1
  O  O29  1  0.015394  0.835789  0.553161  1
  O  O30  1  0.984606  0.664211  0.053161  1
  O  O31  1  0.984606  0.335789  0.946839  1
