# generated using pymatgen
data_Er5Ga2Sb
_symmetry_space_group_name_H-M   'P 1'
_cell_length_a   8.60260977
_cell_length_b   8.62129483
_cell_length_c   6.47897000
_cell_angle_alpha   90.00000000
_cell_angle_beta   90.00000000
_cell_angle_gamma   120.07188223
_symmetry_Int_Tables_number   1
_chemical_formula_structural   Er5Ga2Sb
_chemical_formula_sum   'Er10 Ga4 Sb2'
_cell_volume   415.83811281
_cell_formula_units_Z   2
loop_
 _symmetry_equiv_pos_site_id
 _symmetry_equiv_pos_as_xyz
  1  'x, y, z'
loop_
 _atom_site_type_symbol
 _atom_site_label
 _atom_site_symmetry_multiplicity
 _atom_site_fract_x
 _atom_site_fract_y
 _atom_site_fract_z
 _atom_site_occupancy
  Er  Er0  1  0.987217  0.750603  0.750000  1
  Er  Er1  1  0.987217  0.236614  0.250000  1
  Er  Er2  1  0.765978  0.766237  0.250000  1
  Er  Er3  1  0.765978  0.999742  0.750000  1
  Er  Er4  1  0.236187  0.248662  0.750000  1
  Er  Er5  1  0.236187  0.987524  0.250000  1
  Er  Er6  1  0.331983  0.665992  0.500000  1
  Er  Er7  1  0.683854  0.341927  0.000000  1
  Er  Er8  1  0.683854  0.341927  0.500000  1
  Er  Er9  1  0.331983  0.665992  0.000000  1
  Ga  Ga10  1  0.001299  0.601456  0.250000  1
  Ga  Ga11  1  0.001299  0.399843  0.750000  1
  Ga  Ga12  1  0.598429  0.601452  0.750000  1
  Ga  Ga13  1  0.598429  0.996976  0.250000  1
  Sb  Sb14  1  0.395053  0.003912  0.750000  1
  Sb  Sb15  1  0.395053  0.391141  0.250000  1
