# generated using pymatgen
data_ErPa(ZnIr)2
_symmetry_space_group_name_H-M   'P 1'
_cell_length_a   3.84619200
_cell_length_b   7.13376845
_cell_length_c   8.39319759
_cell_angle_alpha   90.88479626
_cell_angle_beta   90.00000000
_cell_angle_gamma   90.00000000
_symmetry_Int_Tables_number   1
_chemical_formula_structural   ErPa(ZnIr)2
_chemical_formula_sum   'Er2 Pa2 Zn4 Ir4'
_cell_volume   230.26378034
_cell_formula_units_Z   2
loop_
 _symmetry_equiv_pos_site_id
 _symmetry_equiv_pos_as_xyz
  1  'x, y, z'
loop_
 _atom_site_type_symbol
 _atom_site_label
 _atom_site_symmetry_multiplicity
 _atom_site_fract_x
 _atom_site_fract_y
 _atom_site_fract_z
 _atom_site_occupancy
  Er  Er0  1  0.750000  0.943701  0.684757  1
  Er  Er1  1  0.250000  0.056299  0.315243  1
  Pa  Pa2  1  0.250000  0.552583  0.190194  1
  Pa  Pa3  1  0.750000  0.447417  0.809806  1
  Zn  Zn4  1  0.250000  0.633193  0.559456  1
  Zn  Zn5  1  0.750000  0.366807  0.440544  1
  Zn  Zn6  1  0.750000  0.883567  0.061597  1
  Zn  Zn7  1  0.250000  0.116433  0.938403  1
  Ir  Ir8  1  0.250000  0.721424  0.877565  1
  Ir  Ir9  1  0.750000  0.278576  0.122435  1
  Ir  Ir10  1  0.750000  0.751506  0.359953  1
  Ir  Ir11  1  0.250000  0.248494  0.640047  1
