# generated using pymatgen
data_Rb3DyBi2
_symmetry_space_group_name_H-M   'P 1'
_cell_length_a   10.37387266
_cell_length_b   10.37387256
_cell_length_c   10.37387286
_cell_angle_alpha   128.11052458
_cell_angle_beta   70.82512306
_cell_angle_gamma   135.33851926
_symmetry_Int_Tables_number   1
_chemical_formula_structural   Rb3DyBi2
_chemical_formula_sum   'Rb6 Dy2 Bi4'
_cell_volume   604.99548867
_cell_formula_units_Z   2
loop_
 _symmetry_equiv_pos_site_id
 _symmetry_equiv_pos_as_xyz
  1  'x, y, z'
loop_
 _atom_site_type_symbol
 _atom_site_label
 _atom_site_symmetry_multiplicity
 _atom_site_fract_x
 _atom_site_fract_y
 _atom_site_fract_z
 _atom_site_occupancy
  Rb  Rb0  1  0.250000  0.250000  0.000000  1
  Rb  Rb1  1  0.750000  0.750000  0.000000  1
  Rb  Rb2  1  0.314045  0.804277  0.118320  1
  Rb  Rb3  1  0.185955  0.304276  0.490232  1
  Rb  Rb4  1  0.814045  0.695724  0.509769  1
  Rb  Rb5  1  0.685955  0.195723  0.881679  1
  Dy  Dy6  1  0.750000  0.250000  0.500000  1
  Dy  Dy7  1  0.250000  0.749999  0.499999  1
  Bi  Bi8  1  0.901506  0.304428  0.205933  1
  Bi  Bi9  1  0.598494  0.804428  0.402923  1
  Bi  Bi10  1  0.401506  0.195572  0.597077  1
  Bi  Bi11  1  0.098494  0.695572  0.794066  1
