# generated using pymatgen
data_Sc8Ti9Si(Ge5Mo)3
_symmetry_space_group_name_H-M   'P 1'
_cell_length_a   6.78201455
_cell_length_b   6.91750295
_cell_length_c   13.15590300
_cell_angle_alpha   90.00000000
_cell_angle_beta   90.00000000
_cell_angle_gamma   90.03755123
_symmetry_Int_Tables_number   1
_chemical_formula_structural   Sc8Ti9Si(Ge5Mo)3
_chemical_formula_sum   'Sc8 Ti9 Si1 Ge15 Mo3'
_cell_volume   617.20386832
_cell_formula_units_Z   1
loop_
 _symmetry_equiv_pos_site_id
 _symmetry_equiv_pos_as_xyz
  1  'x, y, z'
loop_
 _atom_site_type_symbol
 _atom_site_label
 _atom_site_symmetry_multiplicity
 _atom_site_fract_x
 _atom_site_fract_y
 _atom_site_fract_z
 _atom_site_occupancy
  Sc  Sc0  1  0.493042  0.678856  0.593710  1
  Sc  Sc1  1  0.995312  0.825692  0.906299  1
  Sc  Sc2  1  0.507032  0.324180  0.095636  1
  Sc  Sc3  1  0.005867  0.178694  0.403568  1
  Sc  Sc4  1  0.507032  0.324180  0.404364  1
  Sc  Sc5  1  0.005867  0.178694  0.096432  1
  Sc  Sc6  1  0.493042  0.678856  0.906290  1
  Sc  Sc7  1  0.995312  0.825692  0.593701  1
  Ti  Ti8  1  0.655386  0.166575  0.627537  1
  Ti  Ti9  1  0.162717  0.328899  0.873102  1
  Ti  Ti10  1  0.343041  0.827225  0.128456  1
  Ti  Ti11  1  0.835805  0.667122  0.372384  1
  Ti  Ti12  1  0.343041  0.827225  0.371544  1
  Ti  Ti13  1  0.835805  0.667122  0.127616  1
  Ti  Ti14  1  0.655386  0.166575  0.872463  1
  Ti  Ti15  1  0.162717  0.328899  0.626898  1
  Ti  Ti16  1  0.835635  0.490900  0.750000  1
  Si  Si17  1  0.538760  0.616647  0.250000  1
  Ge  Ge18  1  0.681037  0.962488  0.458614  1
  Ge  Ge19  1  0.178423  0.537464  0.041297  1
  Ge  Ge20  1  0.319790  0.038356  0.960272  1
  Ge  Ge21  1  0.821250  0.463163  0.541691  1
  Ge  Ge22  1  0.319790  0.038356  0.539728  1
  Ge  Ge23  1  0.821250  0.463163  0.958309  1
  Ge  Ge24  1  0.681037  0.962488  0.041386  1
  Ge  Ge25  1  0.178423  0.537464  0.458703  1
  Ge  Ge26  1  0.463075  0.384676  0.750000  1
  Ge  Ge27  1  0.961420  0.118837  0.750000  1
  Ge  Ge28  1  0.037603  0.882014  0.250000  1
  Ge  Ge29  1  0.693890  0.850298  0.750000  1
  Ge  Ge30  1  0.191600  0.647344  0.750000  1
  Ge  Ge31  1  0.307432  0.146739  0.250000  1
  Ge  Ge32  1  0.803165  0.357024  0.250000  1
  Mo  Mo33  1  0.335697  0.011271  0.750000  1
  Mo  Mo34  1  0.170437  0.512396  0.250000  1
  Mo  Mo35  1  0.663878  0.984429  0.250000  1
