# generated using pymatgen
data_Tb16In2Ag2Ir3Pt
_symmetry_space_group_name_H-M   'P 1'
_cell_length_a   9.65269640
_cell_length_b   9.63812932
_cell_length_c   9.63812991
_cell_angle_alpha   60.22696392
_cell_angle_beta   60.22865530
_cell_angle_gamma   60.22864676
_symmetry_Int_Tables_number   1
_chemical_formula_structural   Tb16In2Ag2Ir3Pt
_chemical_formula_sum   'Tb16 In2 Ag2 Ir3 Pt1'
_cell_volume   637.31778180
_cell_formula_units_Z   1
loop_
 _symmetry_equiv_pos_site_id
 _symmetry_equiv_pos_as_xyz
  1  'x, y, z'
loop_
 _atom_site_type_symbol
 _atom_site_label
 _atom_site_symmetry_multiplicity
 _atom_site_fract_x
 _atom_site_fract_y
 _atom_site_fract_z
 _atom_site_occupancy
  Tb  Tb0  1  0.103439  0.695901  0.104070  1
  Tb  Tb1  1  0.943195  0.940788  0.555348  1
  Tb  Tb2  1  0.943195  0.555348  0.940788  1
  Tb  Tb3  1  0.313750  0.685142  0.311846  1
  Tb  Tb4  1  0.936521  0.560846  0.560846  1
  Tb  Tb5  1  0.313750  0.311846  0.685142  1
  Tb  Tb6  1  0.099631  0.098260  0.098260  1
  Tb  Tb7  1  0.558751  0.559646  0.938484  1
  Tb  Tb8  1  0.103439  0.104070  0.695901  1
  Tb  Tb9  1  0.692794  0.310978  0.684698  1
  Tb  Tb10  1  0.692794  0.684698  0.310978  1
  Tb  Tb11  1  0.692118  0.309986  0.309986  1
  Tb  Tb12  1  0.313762  0.687895  0.687895  1
  Tb  Tb13  1  0.558751  0.938484  0.559646  1
  Tb  Tb14  1  0.695850  0.103093  0.103093  1
  Tb  Tb15  1  0.552927  0.943546  0.943546  1
  In  In16  1  0.327993  0.007112  0.333522  1
  In  In17  1  0.327993  0.333522  0.007112  1
  Ag  Ag18  1  0.332255  0.333325  0.333325  1
  Ag  Ag19  1  0.999027  0.334262  0.334262  1
  Ir  Ir20  1  0.890655  0.891900  0.324575  1
  Ir  Ir21  1  0.324466  0.891383  0.891383  1
  Ir  Ir22  1  0.890655  0.324575  0.891900  1
  Pt  Pt23  1  0.892284  0.893392  0.893392  1
