# generated using pymatgen
data_Hf2Sc(Co3B2)3
_symmetry_space_group_name_H-M   'P 1'
_cell_length_a   5.68811575
_cell_length_b   5.68811577
_cell_length_c   5.68811574
_cell_angle_alpha   94.69951623
_cell_angle_beta   94.69951223
_cell_angle_gamma   94.69950848
_symmetry_Int_Tables_number   1
_chemical_formula_structural   Hf2Sc(Co3B2)3
_chemical_formula_sum   'Hf2 Sc1 Co9 B6'
_cell_volume   182.07232464
_cell_formula_units_Z   1
loop_
 _symmetry_equiv_pos_site_id
 _symmetry_equiv_pos_as_xyz
  1  'x, y, z'
loop_
 _atom_site_type_symbol
 _atom_site_label
 _atom_site_symmetry_multiplicity
 _atom_site_fract_x
 _atom_site_fract_y
 _atom_site_fract_z
 _atom_site_occupancy
  Hf  Hf0  1  0.997694  0.997694  0.997694  1
  Hf  Hf1  1  0.330473  0.330473  0.330473  1
  Sc  Sc2  1  0.669886  0.669886  0.669886  1
  Co  Co3  1  0.498081  0.000716  0.000716  1
  Co  Co4  1  0.000716  0.498081  0.000716  1
  Co  Co5  1  0.000716  0.000716  0.498081  1
  Co  Co6  1  0.695799  0.196116  0.695799  1
  Co  Co7  1  0.695799  0.695799  0.196116  1
  Co  Co8  1  0.196116  0.695799  0.695799  1
  Co  Co9  1  0.304148  0.804478  0.304148  1
  Co  Co10  1  0.304148  0.304148  0.804478  1
  Co  Co11  1  0.804478  0.304148  0.304148  1
  B  B12  1  0.379057  0.000107  0.621809  1
  B  B13  1  0.621809  0.379057  0.000107  1
  B  B14  1  0.000107  0.621809  0.379057  1
  B  B15  1  0.621809  0.000107  0.379057  1
  B  B16  1  0.379057  0.621809  0.000107  1
  B  B17  1  0.000107  0.379057  0.621809  1
