# generated using pymatgen
data_SmHo2Co9(SiB2)2
_symmetry_space_group_name_H-M   'P 1'
_cell_length_a   5.12263000
_cell_length_b   5.12279938
_cell_length_c   9.31565300
_cell_angle_alpha   89.99996860
_cell_angle_beta   90.00021194
_cell_angle_gamma   119.99873398
_symmetry_Int_Tables_number   1
_chemical_formula_structural   SmHo2Co9(SiB2)2
_chemical_formula_sum   'Sm1 Ho2 Co9 Si2 B4'
_cell_volume   211.71411442
_cell_formula_units_Z   1
loop_
 _symmetry_equiv_pos_site_id
 _symmetry_equiv_pos_as_xyz
  1  'x, y, z'
loop_
 _atom_site_type_symbol
 _atom_site_label
 _atom_site_symmetry_multiplicity
 _atom_site_fract_x
 _atom_site_fract_y
 _atom_site_fract_z
 _atom_site_occupancy
  Sm  Sm0  1  0.999988  0.999999  0.000041  1
  Ho  Ho1  1  0.999996  0.999996  0.338935  1
  Ho  Ho2  1  0.000008  0.000007  0.661065  1
  Co  Co3  1  0.499997  0.000000  0.499989  1
  Co  Co4  1  0.499997  0.500002  0.499984  1
  Co  Co5  1  0.999996  0.500000  0.499968  1
  Co  Co6  1  0.499990  0.000001  0.197388  1
  Co  Co7  1  0.499992  0.500001  0.197381  1
  Co  Co8  1  0.999990  0.500000  0.197377  1
  Co  Co9  1  0.499996  0.999998  0.802615  1
  Co  Co10  1  0.499997  0.500000  0.802631  1
  Co  Co11  1  0.999995  0.499999  0.802636  1
  Si  Si12  1  0.333343  0.666661  0.000021  1
  Si  Si13  1  0.666636  0.333337  0.000021  1
  B  B14  1  0.333329  0.666663  0.345949  1
  B  B15  1  0.666657  0.333338  0.345949  1
  B  B16  1  0.666682  0.333347  0.654025  1
  B  B17  1  0.333310  0.666653  0.654024  1
