# generated using pymatgen
data_Tb15ThIn4CoIr3
_symmetry_space_group_name_H-M   'P 1'
_cell_length_a   9.66707503
_cell_length_b   9.68222966
_cell_length_c   9.66707448
_cell_angle_alpha   60.38320144
_cell_angle_beta   60.40957876
_cell_angle_gamma   60.38320205
_symmetry_Int_Tables_number   1
_chemical_formula_structural   Tb15ThIn4CoIr3
_chemical_formula_sum   'Tb15 Th1 In4 Co1 Ir3'
_cell_volume   645.48126202
_cell_formula_units_Z   1
loop_
 _symmetry_equiv_pos_site_id
 _symmetry_equiv_pos_as_xyz
  1  'x, y, z'
loop_
 _atom_site_type_symbol
 _atom_site_label
 _atom_site_symmetry_multiplicity
 _atom_site_fract_x
 _atom_site_fract_y
 _atom_site_fract_z
 _atom_site_occupancy
  Tb  Tb0  1  0.940127  0.938804  0.564722  1
  Tb  Tb1  1  0.938834  0.562102  0.938834  1
  Tb  Tb2  1  0.310507  0.689623  0.310507  1
  Tb  Tb3  1  0.939981  0.559236  0.560692  1
  Tb  Tb4  1  0.311143  0.308565  0.690978  1
  Tb  Tb5  1  0.099105  0.099455  0.099105  1
  Tb  Tb6  1  0.560692  0.559236  0.939981  1
  Tb  Tb7  1  0.097837  0.099334  0.701334  1
  Tb  Tb8  1  0.689909  0.310630  0.689909  1
  Tb  Tb9  1  0.689110  0.688158  0.312153  1
  Tb  Tb10  1  0.690978  0.308565  0.311143  1
  Tb  Tb11  1  0.312153  0.688158  0.689110  1
  Tb  Tb12  1  0.559275  0.940066  0.559275  1
  Tb  Tb13  1  0.701334  0.099334  0.097837  1
  Tb  Tb14  1  0.564722  0.938804  0.940127  1
  Th  Th15  1  0.091929  0.714410  0.091929  1
  In  In16  1  0.331880  0.333147  0.331880  1
  In  In17  1  0.001527  0.333219  0.332799  1
  In  In18  1  0.333216  0.001243  0.333216  1
  In  In19  1  0.332799  0.333219  0.001527  1
  Co  Co20  1  0.894879  0.887279  0.894879  1
  Ir  Ir21  1  0.892585  0.891650  0.324019  1
  Ir  Ir22  1  0.324019  0.891650  0.892585  1
  Ir  Ir23  1  0.891460  0.324110  0.891460  1
