# generated using pymatgen
data_Nd7(YIn4)5
_symmetry_space_group_name_H-M   'P 1'
_cell_length_a   6.67825378
_cell_length_b   10.55462457
_cell_length_c   12.44625990
_cell_angle_alpha   90.19136617
_cell_angle_beta   90.07122229
_cell_angle_gamma   90.09162332
_symmetry_Int_Tables_number   1
_chemical_formula_structural   Nd7(YIn4)5
_chemical_formula_sum   'Nd7 Y5 In20'
_cell_volume   877.28611959
_cell_formula_units_Z   1
loop_
 _symmetry_equiv_pos_site_id
 _symmetry_equiv_pos_as_xyz
  1  'x, y, z'
loop_
 _atom_site_type_symbol
 _atom_site_label
 _atom_site_symmetry_multiplicity
 _atom_site_fract_x
 _atom_site_fract_y
 _atom_site_fract_z
 _atom_site_occupancy
  Nd  Nd0  1  0.887634  0.488998  0.144541  1
  Nd  Nd1  1  0.613604  0.011639  0.645515  1
  Nd  Nd2  1  0.112247  0.988977  0.853990  1
  Nd  Nd3  1  0.386530  0.511541  0.356122  1
  Nd  Nd4  1  0.112216  0.510647  0.855470  1
  Nd  Nd5  1  0.387443  0.989238  0.355881  1
  Nd  Nd6  1  0.886220  0.009749  0.145018  1
  Y  Y7  1  0.352286  0.749335  0.061899  1
  Y  Y8  1  0.149549  0.752798  0.562063  1
  Y  Y9  1  0.647769  0.248548  0.937914  1
  Y  Y10  1  0.853344  0.250453  0.438483  1
  Y  Y11  1  0.612206  0.488172  0.643698  1
  In  In12  1  0.613897  0.747687  0.509632  1
  In  In13  1  0.886204  0.748659  0.004591  1
  In  In14  1  0.390230  0.252073  0.494470  1
  In  In15  1  0.112494  0.249574  0.994480  1
  In  In16  1  0.655469  0.749367  0.246581  1
  In  In17  1  0.842272  0.746614  0.743810  1
  In  In18  1  0.344459  0.252233  0.753499  1
  In  In19  1  0.156008  0.249685  0.254032  1
  In  In20  1  0.108414  0.750023  0.285657  1
  In  In21  1  0.390400  0.749383  0.785519  1
  In  In22  1  0.888252  0.253985  0.713841  1
  In  In23  1  0.609814  0.250081  0.214547  1
  In  In24  1  0.870747  0.545701  0.406486  1
  In  In25  1  0.628453  0.952557  0.905757  1
  In  In26  1  0.129545  0.049553  0.594321  1
  In  In27  1  0.373369  0.453475  0.094182  1
  In  In28  1  0.131064  0.456260  0.595337  1
  In  In29  1  0.370926  0.045957  0.094363  1
  In  In30  1  0.870485  0.953262  0.406504  1
  In  In31  1  0.626452  0.543776  0.901798  1
