# generated using pymatgen
data_Th4CuB16Ir3
_symmetry_space_group_name_H-M   'P 1'
_cell_length_a   7.07884059
_cell_length_b   7.07884080
_cell_length_c   7.07884100
_cell_angle_alpha   112.36674096
_cell_angle_beta   111.64879230
_cell_angle_gamma   104.51007233
_symmetry_Int_Tables_number   1
_chemical_formula_structural   Th4CuB16Ir3
_chemical_formula_sum   'Th4 Cu1 B16 Ir3'
_cell_volume   271.53454547
_cell_formula_units_Z   1
loop_
 _symmetry_equiv_pos_site_id
 _symmetry_equiv_pos_as_xyz
  1  'x, y, z'
loop_
 _atom_site_type_symbol
 _atom_site_label
 _atom_site_symmetry_multiplicity
 _atom_site_fract_x
 _atom_site_fract_y
 _atom_site_fract_z
 _atom_site_occupancy
  Th  Th0  1  0.210686  0.208975  0.001711  1
  Th  Th1  1  0.792738  0.791025  0.001711  1
  Th  Th2  1  0.745995  0.247903  0.498091  1
  Th  Th3  1  0.250188  0.752097  0.498091  1
  Cu  Cu4  1  0.262510  0.500000  0.762510  1
  B  B5  1  0.108767  0.266228  0.374995  1
  B  B6  1  0.893862  0.736622  0.630485  1
  B  B7  1  0.893862  0.263378  0.157241  1
  B  B8  1  0.108767  0.733772  0.842538  1
  B  B9  1  0.732309  0.891586  0.623896  1
  B  B10  1  0.264856  0.108347  0.373202  1
  B  B11  1  0.732309  0.108414  0.840722  1
  B  B12  1  0.264856  0.891653  0.156510  1
  B  B13  1  0.413285  0.415180  0.525422  1
  B  B14  1  0.891087  0.890680  0.476240  1
  B  B15  1  0.585560  0.109320  0.000406  1
  B  B16  1  0.110242  0.584820  0.998106  1
  B  B17  1  0.585560  0.585154  0.476240  1
  B  B18  1  0.110242  0.112137  0.525422  1
  B  B19  1  0.891087  0.414846  0.000406  1
  B  B20  1  0.413285  0.887863  0.998106  1
  Ir  Ir21  1  0.498529  0.265025  0.763554  1
  Ir  Ir22  1  0.498529  0.734975  0.233504  1
  Ir  Ir23  1  0.740891  0.500000  0.240891  1
