# generated using pymatgen
data_Y3TmLu4(ReB6)4
_symmetry_space_group_name_H-M   'P 1'
_cell_length_a   3.64281000
_cell_length_b   9.10533801
_cell_length_c   11.49041900
_cell_angle_alpha   90.00319017
_cell_angle_beta   90.00000000
_cell_angle_gamma   90.00000000
_symmetry_Int_Tables_number   1
_chemical_formula_structural   Y3TmLu4(ReB6)4
_chemical_formula_sum   'Y3 Tm1 Lu4 Re4 B24'
_cell_volume   381.12589505
_cell_formula_units_Z   1
loop_
 _symmetry_equiv_pos_site_id
 _symmetry_equiv_pos_as_xyz
  1  'x, y, z'
loop_
 _atom_site_type_symbol
 _atom_site_label
 _atom_site_symmetry_multiplicity
 _atom_site_fract_x
 _atom_site_fract_y
 _atom_site_fract_z
 _atom_site_occupancy
  Y  Y0  1  0.000000  0.677357  0.585868  1
  Y  Y1  1  0.000000  0.822571  0.086123  1
  Y  Y2  1  0.000000  0.177475  0.914037  1
  Tm  Tm3  1  0.000000  0.323176  0.413961  1
  Lu  Lu4  1  0.000000  0.943426  0.370406  1
  Lu  Lu5  1  0.000000  0.056852  0.629413  1
  Lu  Lu6  1  0.000000  0.443235  0.129973  1
  Lu  Lu7  1  0.000000  0.556530  0.870047  1
  Re  Re8  1  0.000000  0.638621  0.320093  1
  Re  Re9  1  0.000000  0.360690  0.679595  1
  Re  Re10  1  0.000000  0.139874  0.180980  1
  Re  Re11  1  0.000000  0.860663  0.819683  1
  B  B12  1  0.500000  0.552650  0.432566  1
  B  B13  1  0.500000  0.445954  0.566669  1
  B  B14  1  0.500000  0.053788  0.067764  1
  B  B15  1  0.500000  0.946472  0.932527  1
  B  B16  1  0.500000  0.750586  0.418180  1
  B  B17  1  0.500000  0.249238  0.580683  1
  B  B18  1  0.500000  0.250981  0.082185  1
  B  B19  1  0.500000  0.748996  0.918194  1
  B  B20  1  0.500000  0.792817  0.265493  1
  B  B21  1  0.500000  0.207098  0.734128  1
  B  B22  1  0.500000  0.293318  0.235492  1
  B  B23  1  0.500000  0.706956  0.765245  1
  B  B24  1  0.500000  0.629431  0.185032  1
  B  B25  1  0.500000  0.370102  0.814987  1
  B  B26  1  0.500000  0.130556  0.315968  1
  B  B27  1  0.500000  0.870250  0.684646  1
  B  B28  1  0.500000  0.981868  0.213131  1
  B  B29  1  0.500000  0.018532  0.787021  1
  B  B30  1  0.500000  0.480738  0.287741  1
  B  B31  1  0.500000  0.518228  0.712439  1
  B  B32  1  0.500000  0.597498  0.027160  1
  B  B33  1  0.500000  0.402308  0.972952  1
  B  B34  1  0.500000  0.098805  0.472582  1
  B  B35  1  0.500000  0.902359  0.527036  1
