# generated using pymatgen
data_K7Sb(SO4)6
_symmetry_space_group_name_H-M   'P 1'
_cell_length_a   9.39393807
_cell_length_b   9.39393848
_cell_length_c   9.39393915
_cell_angle_alpha   109.47524069
_cell_angle_beta   109.47523971
_cell_angle_gamma   109.47525364
_symmetry_Int_Tables_number   1
_chemical_formula_structural   K7Sb(SO4)6
_chemical_formula_sum   'K7 Sb1 S6 O24'
_cell_volume   638.05267787
_cell_formula_units_Z   1
loop_
 _symmetry_equiv_pos_site_id
 _symmetry_equiv_pos_as_xyz
  1  'x, y, z'
loop_
 _atom_site_type_symbol
 _atom_site_label
 _atom_site_symmetry_multiplicity
 _atom_site_fract_x
 _atom_site_fract_y
 _atom_site_fract_z
 _atom_site_occupancy
  K  K0  1  0.500000  0.500000  0.500000  1
  K  K1  1  0.838186  0.337084  0.680937  1
  K  K2  1  0.337084  0.680937  0.838186  1
  K  K3  1  0.680937  0.838186  0.337084  1
  K  K4  1  0.161814  0.662916  0.319063  1
  K  K5  1  0.662916  0.319063  0.161814  1
  K  K6  1  0.319063  0.161814  0.662916  1
  Sb  Sb7  1  0.000000  0.000000  0.000000  1
  S  S8  1  0.969175  0.749498  0.622849  1
  S  S9  1  0.749498  0.622849  0.969175  1
  S  S10  1  0.622849  0.969175  0.749498  1
  S  S11  1  0.030825  0.250502  0.377151  1
  S  S12  1  0.250502  0.377151  0.030825  1
  S  S13  1  0.377151  0.030825  0.250502  1
  O  O14  1  0.426003  0.907544  0.167526  1
  O  O15  1  0.907544  0.167526  0.426003  1
  O  O16  1  0.167526  0.426003  0.907544  1
  O  O17  1  0.573997  0.092456  0.832474  1
  O  O18  1  0.092456  0.832474  0.573997  1
  O  O19  1  0.832474  0.573997  0.092456  1
  O  O20  1  0.296728  0.982040  0.348418  1
  O  O21  1  0.982040  0.348418  0.296728  1
  O  O22  1  0.348418  0.296728  0.982040  1
  O  O23  1  0.703272  0.017960  0.651582  1
  O  O24  1  0.017960  0.651582  0.703272  1
  O  O25  1  0.651582  0.703272  0.017960  1
  O  O26  1  0.760244  0.973824  0.909262  1
  O  O27  1  0.973824  0.909262  0.760244  1
  O  O28  1  0.644964  0.476843  0.787706  1
  O  O29  1  0.787706  0.644964  0.476843  1
  O  O30  1  0.476843  0.787706  0.644964  1
  O  O31  1  0.355036  0.523157  0.212294  1
  O  O32  1  0.212294  0.355036  0.523157  1
  O  O33  1  0.523157  0.212294  0.355036  1
  O  O34  1  0.090738  0.239756  0.026176  1
  O  O35  1  0.026176  0.090738  0.239756  1
  O  O36  1  0.239756  0.026176  0.090738  1
  O  O37  1  0.909262  0.760244  0.973824  1
