# generated using pymatgen
data_Tb8Ti9Si16Mo2W
_symmetry_space_group_name_H-M   'P 1'
_cell_length_a   7.01598496
_cell_length_b   7.01584238
_cell_length_c   12.90862106
_cell_angle_alpha   90.01643309
_cell_angle_beta   89.96973700
_cell_angle_gamma   89.93077438
_symmetry_Int_Tables_number   1
_chemical_formula_structural   Tb8Ti9Si16Mo2W
_chemical_formula_sum   'Tb8 Ti9 Si16 Mo2 W1'
_cell_volume   635.40105244
_cell_formula_units_Z   1
loop_
 _symmetry_equiv_pos_site_id
 _symmetry_equiv_pos_as_xyz
  1  'x, y, z'
loop_
 _atom_site_type_symbol
 _atom_site_label
 _atom_site_symmetry_multiplicity
 _atom_site_fract_x
 _atom_site_fract_y
 _atom_site_fract_z
 _atom_site_occupancy
  Tb  Tb0  1  0.339522  0.002131  0.466791  1
  Tb  Tb1  1  0.498288  0.840890  0.718105  1
  Tb  Tb2  1  0.500686  0.159486  0.216741  1
  Tb  Tb3  1  0.840987  0.498470  0.281925  1
  Tb  Tb4  1  0.159598  0.500808  0.783209  1
  Tb  Tb5  1  0.659990  0.999171  0.967026  1
  Tb  Tb6  1  0.002247  0.339697  0.533312  1
  Tb  Tb7  1  0.999201  0.660132  0.032905  1
  Ti  Ti8  1  0.673006  0.672950  0.500052  1
  Ti  Ti9  1  0.153460  0.009318  0.876415  1
  Ti  Ti10  1  0.490529  0.653680  0.125734  1
  Ti  Ti11  1  0.508561  0.345240  0.627717  1
  Ti  Ti12  1  0.653829  0.490369  0.874175  1
  Ti  Ti13  1  0.345453  0.508434  0.372402  1
  Ti  Ti14  1  0.847571  0.991487  0.375276  1
  Ti  Ti15  1  0.009185  0.153423  0.123485  1
  Ti  Ti16  1  0.991330  0.847563  0.624836  1
  Si  Si17  1  0.200523  0.128985  0.685130  1
  Si  Si18  1  0.370677  0.700182  0.935107  1
  Si  Si19  1  0.629383  0.298050  0.435193  1
  Si  Si20  1  0.700150  0.370721  0.064788  1
  Si  Si21  1  0.297971  0.629460  0.564922  1
  Si  Si22  1  0.799544  0.870953  0.185450  1
  Si  Si23  1  0.128957  0.200824  0.314845  1
  Si  Si24  1  0.870918  0.799851  0.814530  1
  Si  Si25  1  0.291384  0.953342  0.065010  1
  Si  Si26  1  0.546027  0.790796  0.314986  1
  Si  Si27  1  0.453383  0.208869  0.815453  1
  Si  Si28  1  0.790838  0.545653  0.685034  1
  Si  Si29  1  0.208938  0.453001  0.184486  1
  Si  Si30  1  0.708583  0.047886  0.566200  1
  Si  Si31  1  0.953293  0.291381  0.934764  1
  Si  Si32  1  0.047887  0.708537  0.434064  1
  Mo  Mo33  1  0.327126  0.327078  0.999953  1
  Mo  Mo34  1  0.173886  0.827225  0.249274  1
  W  W35  1  0.827088  0.173956  0.750706  1
