# generated using pymatgen
data_Eu3Dy2(TcO6)2
_symmetry_space_group_name_H-M   'P 1'
_cell_length_a   6.85164291
_cell_length_b   6.85164233
_cell_length_c   7.56054400
_cell_angle_alpha   73.78350852
_cell_angle_beta   73.78350994
_cell_angle_gamma   49.00196056
_symmetry_Int_Tables_number   1
_chemical_formula_structural   Eu3Dy2(TcO6)2
_chemical_formula_sum   'Eu3 Dy2 Tc2 O12'
_cell_volume   254.94937224
_cell_formula_units_Z   1
loop_
 _symmetry_equiv_pos_site_id
 _symmetry_equiv_pos_as_xyz
  1  'x, y, z'
loop_
 _atom_site_type_symbol
 _atom_site_label
 _atom_site_symmetry_multiplicity
 _atom_site_fract_x
 _atom_site_fract_y
 _atom_site_fract_z
 _atom_site_occupancy
  Eu  Eu0  1  0.193344  0.193344  0.643960  1
  Eu  Eu1  1  0.182964  0.182964  0.176801  1
  Eu  Eu2  1  0.805816  0.805816  0.359119  1
  Dy  Dy3  1  0.500029  0.500029  0.501504  1
  Dy  Dy4  1  0.816970  0.816970  0.820017  1
  Tc  Tc5  1  0.719496  0.280580  0.999617  1
  Tc  Tc6  1  0.280580  0.719496  0.999617  1
  O  O7  1  0.418368  0.904271  0.918597  1
  O  O8  1  0.904271  0.418368  0.918597  1
  O  O9  1  0.899130  0.401256  0.428012  1
  O  O10  1  0.401256  0.899130  0.428012  1
  O  O11  1  0.497575  0.497575  0.202949  1
  O  O12  1  0.998358  0.998358  0.170413  1
  O  O13  1  0.998951  0.998951  0.825875  1
  O  O14  1  0.501313  0.501313  0.797688  1
  O  O15  1  0.089324  0.590664  0.073578  1
  O  O16  1  0.590664  0.089324  0.073578  1
  O  O17  1  0.097900  0.603689  0.581033  1
  O  O18  1  0.603689  0.097900  0.581033  1
