# generated using pymatgen
data_AcNd11(SiI3)4
_symmetry_space_group_name_H-M   'P 1'
_cell_length_a   10.86612787
_cell_length_b   10.86612997
_cell_length_c   10.92082240
_cell_angle_alpha   109.40634424
_cell_angle_beta   109.40634481
_cell_angle_gamma   109.51101270
_symmetry_Int_Tables_number   1
_chemical_formula_structural   AcNd11(SiI3)4
_chemical_formula_sum   'Ac1 Nd11 Si4 I12'
_cell_volume   993.71999606
_cell_formula_units_Z   1
loop_
 _symmetry_equiv_pos_site_id
 _symmetry_equiv_pos_as_xyz
  1  'x, y, z'
loop_
 _atom_site_type_symbol
 _atom_site_label
 _atom_site_symmetry_multiplicity
 _atom_site_fract_x
 _atom_site_fract_y
 _atom_site_fract_z
 _atom_site_occupancy
  Ac  Ac0  1  0.237794  0.262206  0.750000  1
  Nd  Nd1  1  0.464478  0.483362  0.234667  1
  Nd  Nd2  1  0.747633  0.231589  0.266349  1
  Nd  Nd3  1  0.747126  0.017030  0.479850  1
  Nd  Nd4  1  0.231496  0.464160  0.479517  1
  Nd  Nd5  1  0.268411  0.752367  0.233651  1
  Nd  Nd6  1  0.035840  0.268504  0.020483  1
  Nd  Nd7  1  0.016638  0.035522  0.265333  1
  Nd  Nd8  1  0.482970  0.752874  0.020150  1
  Nd  Nd9  1  0.481854  0.232447  0.462758  1
  Nd  Nd10  1  0.018075  0.481925  0.750000  1
  Nd  Nd11  1  0.267553  0.018146  0.037242  1
  Si  Si12  1  0.249926  0.250074  0.250000  1
  Si  Si13  1  0.499423  0.000577  0.250000  1
  Si  Si14  1  0.996484  0.249689  0.495728  1
  Si  Si15  1  0.250311  0.503516  0.004272  1
  I  I16  1  0.250325  0.756954  0.744270  1
  I  I17  1  0.521470  0.516147  0.755478  1
  I  I18  1  0.986871  0.743062  0.993671  1
  I  I19  1  0.743046  0.249675  0.755730  1
  I  I20  1  0.983853  0.978530  0.744522  1
  I  I21  1  0.248996  0.985870  0.499358  1
  I  I22  1  0.756938  0.513129  0.506329  1
  I  I23  1  0.514130  0.251004  0.000642  1
  I  I24  1  0.756089  0.743911  0.250000  1
  I  I25  1  0.743010  0.993948  0.987068  1
  I  I26  1  0.993205  0.506795  0.250000  1
  I  I27  1  0.506052  0.756990  0.512932  1
