# generated using pymatgen
data_Y5Ho(Cu3Sb4)2
_symmetry_space_group_name_H-M   'P 1'
_cell_length_a   8.32414905
_cell_length_b   8.32408910
_cell_length_c   8.32400550
_cell_angle_alpha   109.49079236
_cell_angle_beta   109.49100334
_cell_angle_gamma   109.43153890
_symmetry_Int_Tables_number   1
_chemical_formula_structural   Y5Ho(Cu3Sb4)2
_chemical_formula_sum   'Y5 Ho1 Cu6 Sb8'
_cell_volume   444.00583125
_cell_formula_units_Z   1
loop_
 _symmetry_equiv_pos_site_id
 _symmetry_equiv_pos_as_xyz
  1  'x, y, z'
loop_
 _atom_site_type_symbol
 _atom_site_label
 _atom_site_symmetry_multiplicity
 _atom_site_fract_x
 _atom_site_fract_y
 _atom_site_fract_z
 _atom_site_occupancy
  Y  Y0  1  0.875022  0.249964  0.124997  1
  Y  Y1  1  0.624964  0.749988  0.374988  1
  Y  Y2  1  0.249993  0.124992  0.874967  1
  Y  Y3  1  0.750025  0.375026  0.625044  1
  Y  Y4  1  0.125008  0.875000  0.250007  1
  Ho  Ho5  1  0.375009  0.625032  0.750047  1
  Cu  Cu6  1  0.374692  0.251488  0.625373  1
  Cu  Cu7  1  0.126130  0.749487  0.874651  1
  Cu  Cu8  1  0.250597  0.625236  0.376766  1
  Cu  Cu9  1  0.748562  0.873874  0.123222  1
  Cu  Cu10  1  0.624998  0.374951  0.249971  1
  Cu  Cu11  1  0.875011  0.124989  0.749968  1
  Sb  Sb12  1  0.659927  0.500007  0.999786  1
  Sb  Sb13  1  0.499956  0.000128  0.660506  1
  Sb  Sb14  1  0.000210  0.660125  0.500203  1
  Sb  Sb15  1  0.839617  0.839439  0.839480  1
  Sb  Sb16  1  0.499998  0.999765  0.159926  1
  Sb  Sb17  1  0.160542  0.500059  0.000173  1
  Sb  Sb18  1  0.999872  0.160370  0.499822  1
  Sb  Sb19  1  0.339867  0.340077  0.340102  1
