# generated using pymatgen
data_Y4In2Cu3Rh
_symmetry_space_group_name_H-M   'P 1'
_cell_length_a   7.58430933
_cell_length_b   7.58430933
_cell_length_c   3.73707900
_cell_angle_alpha   90.00000000
_cell_angle_beta   90.00000000
_cell_angle_gamma   90.38286354
_symmetry_Int_Tables_number   1
_chemical_formula_structural   Y4In2Cu3Rh
_chemical_formula_sum   'Y4 In2 Cu3 Rh1'
_cell_volume   214.95851738
_cell_formula_units_Z   1
loop_
 _symmetry_equiv_pos_site_id
 _symmetry_equiv_pos_as_xyz
  1  'x, y, z'
loop_
 _atom_site_type_symbol
 _atom_site_label
 _atom_site_symmetry_multiplicity
 _atom_site_fract_x
 _atom_site_fract_y
 _atom_site_fract_z
 _atom_site_occupancy
  Y  Y0  1  0.674027  0.174027  0.500000  1
  Y  Y1  1  0.318328  0.818328  0.500000  1
  Y  Y2  1  0.178456  0.333490  0.500000  1
  Y  Y3  1  0.833490  0.678456  0.500000  1
  In  In4  1  0.503119  0.499235  0.000000  1
  In  In5  1  0.999235  0.003119  0.000000  1
  Cu  Cu6  1  0.875294  0.375294  0.000000  1
  Cu  Cu7  1  0.617161  0.881043  0.000000  1
  Cu  Cu8  1  0.381043  0.117161  0.000000  1
  Rh  Rh9  1  0.119848  0.619848  0.000000  1
