# generated using pymatgen
data_Tb10In8CoIr3
_symmetry_space_group_name_H-M   'P 1'
_cell_length_a   3.64801143
_cell_length_b   8.05690243
_cell_length_c   18.31896255
_cell_angle_alpha   90.05744771
_cell_angle_beta   90.04259061
_cell_angle_gamma   90.02205200
_symmetry_Int_Tables_number   1
_chemical_formula_structural   Tb10In8CoIr3
_chemical_formula_sum   'Tb10 In8 Co1 Ir3'
_cell_volume   538.42448300
_cell_formula_units_Z   1
loop_
 _symmetry_equiv_pos_site_id
 _symmetry_equiv_pos_as_xyz
  1  'x, y, z'
loop_
 _atom_site_type_symbol
 _atom_site_label
 _atom_site_symmetry_multiplicity
 _atom_site_fract_x
 _atom_site_fract_y
 _atom_site_fract_z
 _atom_site_occupancy
  Tb  Tb0  1  0.000004  0.499666  0.498916  1
  Tb  Tb1  1  0.999887  0.999653  0.000746  1
  Tb  Tb2  1  0.000082  0.744164  0.276332  1
  Tb  Tb3  1  0.999945  0.256940  0.722714  1
  Tb  Tb4  1  0.000216  0.756643  0.778277  1
  Tb  Tb5  1  0.000060  0.247171  0.221327  1
  Tb  Tb6  1  0.000168  0.612511  0.092847  1
  Tb  Tb7  1  0.999679  0.384255  0.911804  1
  Tb  Tb8  1  0.999654  0.884283  0.589376  1
  Tb  Tb9  1  0.000515  0.116416  0.409477  1
  In  In10  1  0.500177  0.706806  0.933865  1
  In  In11  1  0.499846  0.293608  0.070707  1
  In  In12  1  0.499986  0.791652  0.430401  1
  In  In13  1  0.500460  0.208566  0.567976  1
  In  In14  1  0.500171  0.568095  0.649004  1
  In  In15  1  0.500144  0.433558  0.346746  1
  In  In16  1  0.499461  0.928776  0.148992  1
  In  In17  1  0.499589  0.069542  0.851704  1
  Co  Co18  1  0.499970  0.513170  0.194373  1
  Ir  Ir19  1  0.499882  0.483884  0.805116  1
  Ir  Ir20  1  0.499846  0.983463  0.696256  1
  Ir  Ir21  1  0.500257  0.017178  0.303046  1
