# generated using pymatgen
data_Tb4Ho8Ni5Sn
_symmetry_space_group_name_H-M   'P 1'
_cell_length_a   8.29286953
_cell_length_b   8.29286847
_cell_length_c   8.29286870
_cell_angle_alpha   107.16998655
_cell_angle_beta   109.73126962
_cell_angle_gamma   111.54201868
_symmetry_Int_Tables_number   1
_chemical_formula_structural   Tb4Ho8Ni5Sn
_chemical_formula_sum   'Tb4 Ho8 Ni5 Sn1'
_cell_volume   438.38543472
_cell_formula_units_Z   1
loop_
 _symmetry_equiv_pos_site_id
 _symmetry_equiv_pos_as_xyz
  1  'x, y, z'
loop_
 _atom_site_type_symbol
 _atom_site_label
 _atom_site_symmetry_multiplicity
 _atom_site_fract_x
 _atom_site_fract_y
 _atom_site_fract_z
 _atom_site_occupancy
  Tb  Tb0  1  0.478335  0.295897  0.182438  1
  Tb  Tb1  1  0.113458  0.295897  0.817562  1
  Tb  Tb2  1  0.886542  0.704103  0.182438  1
  Tb  Tb3  1  0.521665  0.704103  0.817562  1
  Ho  Ho4  1  0.306140  0.627712  0.321572  1
  Ho  Ho5  1  0.306140  0.984569  0.678428  1
  Ho  Ho6  1  0.693860  0.372288  0.678428  1
  Ho  Ho7  1  0.693860  0.015431  0.321572  1
  Ho  Ho8  1  0.190923  0.209870  0.400794  1
  Ho  Ho9  1  0.809077  0.790130  0.599206  1
  Ho  Ho10  1  0.190923  0.790130  0.981052  1
  Ho  Ho11  1  0.809077  0.209870  0.018948  1
  Ni  Ni12  1  0.500000  0.625762  0.125762  1
  Ni  Ni13  1  0.500000  0.374238  0.874238  1
  Ni  Ni14  1  0.366039  0.000000  0.366039  1
  Ni  Ni15  1  0.633961  0.000000  0.633961  1
  Ni  Ni16  1  0.000000  0.000000  0.000000  1
  Sn  Sn17  1  0.000000  0.500000  0.500000  1
