# generated using pymatgen
data_TbHo3Al18Co5Pd
_symmetry_space_group_name_H-M   'P 1'
_cell_length_a   7.41438572
_cell_length_b   7.41219550
_cell_length_c   9.33095004
_cell_angle_alpha   89.84676775
_cell_angle_beta   89.83875018
_cell_angle_gamma   119.05642287
_symmetry_Int_Tables_number   1
_chemical_formula_structural   TbHo3Al18Co5Pd
_chemical_formula_sum   'Tb1 Ho3 Al18 Co5 Pd1'
_cell_volume   448.25326530
_cell_formula_units_Z   1
loop_
 _symmetry_equiv_pos_site_id
 _symmetry_equiv_pos_as_xyz
  1  'x, y, z'
loop_
 _atom_site_type_symbol
 _atom_site_label
 _atom_site_symmetry_multiplicity
 _atom_site_fract_x
 _atom_site_fract_y
 _atom_site_fract_z
 _atom_site_occupancy
  Tb  Tb0  1  0.324131  0.005302  0.748385  1
  Ho  Ho1  1  0.005183  0.324419  0.748317  1
  Ho  Ho2  1  0.676300  0.995312  0.251975  1
  Ho  Ho3  1  0.994859  0.676568  0.251816  1
  Al  Al4  1  0.655674  0.999714  0.925692  1
  Al  Al5  1  0.336470  0.997261  0.428288  1
  Al  Al6  1  0.996929  0.336570  0.428856  1
  Al  Al7  1  0.345257  0.000421  0.075615  1
  Al  Al8  1  0.998979  0.654154  0.925429  1
  Al  Al9  1  0.000072  0.344529  0.074953  1
  Al  Al10  1  0.332007  0.332440  0.540590  1
  Al  Al11  1  0.339876  0.340155  0.953101  1
  Al  Al12  1  0.659697  0.659715  0.048398  1
  Al  Al13  1  0.668140  0.668253  0.458236  1
  Al  Al14  1  0.866487  0.867042  0.741425  1
  Al  Al15  1  0.132679  0.133028  0.258015  1
  Al  Al16  1  0.340139  0.557825  0.251557  1
  Al  Al17  1  0.557730  0.340516  0.251609  1
  Al  Al18  1  0.660451  0.443297  0.748499  1
  Al  Al19  1  0.442822  0.659284  0.748506  1
  Al  Al20  1  0.664189  0.003263  0.570707  1
  Al  Al21  1  0.002404  0.663350  0.570718  1
  Co  Co22  1  0.328655  0.671346  0.000328  1
  Co  Co23  1  0.671267  0.329236  0.499932  1
  Co  Co24  1  0.671402  0.328985  0.000394  1
  Co  Co25  1  0.328687  0.671406  0.499964  1
  Co  Co26  1  0.999635  0.000060  0.499804  1
  Pd  Pd27  1  0.999877  0.996549  0.998891  1
