# generated using pymatgen
data_Rb2Li14Sn3O14
_symmetry_space_group_name_H-M   'P 1'
_cell_length_a   8.28537169
_cell_length_b   8.28537210
_cell_length_c   8.28537209
_cell_angle_alpha   127.98414557
_cell_angle_beta   123.07785293
_cell_angle_gamma   80.72219152
_symmetry_Int_Tables_number   1
_chemical_formula_structural   Rb2Li14Sn3O14
_chemical_formula_sum   'Rb2 Li14 Sn3 O14'
_cell_volume   362.26196987
_cell_formula_units_Z   1
loop_
 _symmetry_equiv_pos_site_id
 _symmetry_equiv_pos_as_xyz
  1  'x, y, z'
loop_
 _atom_site_type_symbol
 _atom_site_label
 _atom_site_symmetry_multiplicity
 _atom_site_fract_x
 _atom_site_fract_y
 _atom_site_fract_z
 _atom_site_occupancy
  Rb  Rb0  1  0.500000  0.765366  0.265366  1
  Rb  Rb1  1  0.500000  0.234634  0.734634  1
  Li  Li2  1  0.706121  0.135506  0.113775  1
  Li  Li3  1  0.978270  0.864494  0.570616  1
  Li  Li4  1  0.021730  0.592346  0.886225  1
  Li  Li5  1  0.293879  0.407654  0.429384  1
  Li  Li6  1  0.021730  0.135506  0.429384  1
  Li  Li7  1  0.840325  0.500000  0.340325  1
  Li  Li8  1  0.159675  0.500000  0.659675  1
  Li  Li9  1  0.416606  0.770785  0.645821  1
  Li  Li10  1  0.583394  0.229215  0.354179  1
  Li  Li11  1  0.875036  0.229215  0.645821  1
  Li  Li12  1  0.124964  0.770785  0.354179  1
  Li  Li13  1  0.706121  0.592346  0.570616  1
  Li  Li14  1  0.293879  0.864494  0.886225  1
  Li  Li15  1  0.978270  0.407654  0.113775  1
  Sn  Sn16  1  0.000000  0.000000  0.000000  1
  Sn  Sn17  1  0.269175  0.269175  0.000000  1
  Sn  Sn18  1  0.730825  0.730825  0.000000  1
  O  O19  1  0.052010  0.873552  0.178458  1
  O  O20  1  0.421532  0.632879  0.788653  1
  O  O21  1  0.844225  0.632879  0.211347  1
  O  O22  1  0.578468  0.367121  0.211347  1
  O  O23  1  0.155775  0.367121  0.788653  1
  O  O24  1  0.745762  0.031386  0.285624  1
  O  O25  1  0.254238  0.539863  0.285624  1
  O  O26  1  0.254238  0.968614  0.714376  1
  O  O27  1  0.745762  0.460137  0.714376  1
  O  O28  1  0.000000  0.711878  0.711878  1
  O  O29  1  0.000000  0.288122  0.288122  1
  O  O30  1  0.695095  0.873552  0.821542  1
  O  O31  1  0.304905  0.126448  0.178458  1
  O  O32  1  0.947990  0.126448  0.821542  1
