# generated using pymatgen
data_Y5ThIr18
_symmetry_space_group_name_H-M   'P 1'
_cell_length_a   5.32877300
_cell_length_b   5.32877293
_cell_length_c   17.53246800
_cell_angle_alpha   90.00000000
_cell_angle_beta   90.00000000
_cell_angle_gamma   119.99999421
_symmetry_Int_Tables_number   1
_chemical_formula_structural   Y5ThIr18
_chemical_formula_sum   'Y5 Th1 Ir18'
_cell_volume   431.14975810
_cell_formula_units_Z   1
loop_
 _symmetry_equiv_pos_site_id
 _symmetry_equiv_pos_as_xyz
  1  'x, y, z'
loop_
 _atom_site_type_symbol
 _atom_site_label
 _atom_site_symmetry_multiplicity
 _atom_site_fract_x
 _atom_site_fract_y
 _atom_site_fract_z
 _atom_site_occupancy
  Y  Y0  1  0.333333  0.666667  0.961695  1
  Y  Y1  1  0.666667  0.333333  0.041730  1
  Y  Y2  1  0.666667  0.333333  0.458270  1
  Y  Y3  1  0.333333  0.666667  0.538305  1
  Y  Y4  1  0.666667  0.333333  0.250000  1
  Th  Th5  1  0.333333  0.666667  0.750000  1
  Ir  Ir6  1  0.167145  0.832855  0.373240  1
  Ir  Ir7  1  0.167145  0.334290  0.373240  1
  Ir  Ir8  1  0.665710  0.832855  0.373240  1
  Ir  Ir9  1  0.833048  0.166952  0.625421  1
  Ir  Ir10  1  0.833048  0.666096  0.625421  1
  Ir  Ir11  1  0.333904  0.166952  0.625421  1
  Ir  Ir12  1  0.833048  0.166952  0.874579  1
  Ir  Ir13  1  0.833048  0.666096  0.874579  1
  Ir  Ir14  1  0.333904  0.166952  0.874579  1
  Ir  Ir15  1  0.167145  0.832855  0.126760  1
  Ir  Ir16  1  0.167145  0.334290  0.126760  1
  Ir  Ir17  1  0.665710  0.832855  0.126760  1
  Ir  Ir18  1  0.333333  0.666667  0.250000  1
  Ir  Ir19  1  0.666667  0.333333  0.750000  1
  Ir  Ir20  1  0.000000  0.000000  0.250000  1
  Ir  Ir21  1  0.000000  0.000000  0.750000  1
  Ir  Ir22  1  0.000000  0.000000  0.499533  1
  Ir  Ir23  1  0.000000  0.000000  0.000467  1
