# generated using pymatgen
data_Hf3ScTiV5Si8
_symmetry_space_group_name_H-M   'P 1'
_cell_length_a   6.64105484
_cell_length_b   6.64407496
_cell_length_c   12.27680177
_cell_angle_alpha   90.00666278
_cell_angle_beta   90.07673104
_cell_angle_gamma   89.95071410
_symmetry_Int_Tables_number   1
_chemical_formula_structural   Hf3ScTiV5Si8
_chemical_formula_sum   'Hf6 Sc2 Ti2 V10 Si16'
_cell_volume   541.69681339
_cell_formula_units_Z   2
loop_
 _symmetry_equiv_pos_site_id
 _symmetry_equiv_pos_as_xyz
  1  'x, y, z'
loop_
 _atom_site_type_symbol
 _atom_site_label
 _atom_site_symmetry_multiplicity
 _atom_site_fract_x
 _atom_site_fract_y
 _atom_site_fract_z
 _atom_site_occupancy
  Hf  Hf0  1  0.001793  0.660333  0.029206  1
  Hf  Hf1  1  0.837956  0.502679  0.280254  1
  Hf  Hf2  1  0.161032  0.498003  0.779220  1
  Hf  Hf3  1  0.503178  0.838172  0.719227  1
  Hf  Hf4  1  0.498921  0.161816  0.220271  1
  Hf  Hf5  1  0.995700  0.339373  0.530173  1
  Sc  Sc6  1  0.662808  0.000890  0.970463  1
  Sc  Sc7  1  0.338172  0.999501  0.471317  1
  Ti  Ti8  1  0.332053  0.334099  0.999100  1
  Ti  Ti9  1  0.166351  0.832946  0.250689  1
  V  V10  1  0.833196  0.166296  0.748681  1
  V  V11  1  0.668652  0.664441  0.501047  1
  V  V12  1  0.003707  0.159589  0.127096  1
  V  V13  1  0.342288  0.505350  0.377474  1
  V  V14  1  0.658690  0.495934  0.874982  1
  V  V15  1  0.505892  0.341512  0.623324  1
  V  V16  1  0.495785  0.657848  0.124039  1
  V  V17  1  0.994391  0.839961  0.627703  1
  V  V18  1  0.157840  0.005073  0.871645  1
  V  V19  1  0.841727  0.995918  0.374051  1
  Si  Si20  1  0.293464  0.959846  0.062555  1
  Si  Si21  1  0.541802  0.792757  0.316064  1
  Si  Si22  1  0.463429  0.206316  0.813140  1
  Si  Si23  1  0.791464  0.539758  0.685722  1
  Si  Si24  1  0.207099  0.459072  0.186770  1
  Si  Si25  1  0.707792  0.038591  0.563548  1
  Si  Si26  1  0.956308  0.290211  0.934785  1
  Si  Si27  1  0.038761  0.708746  0.437615  1
  Si  Si28  1  0.706073  0.371336  0.071533  1
  Si  Si29  1  0.128693  0.206558  0.322389  1
  Si  Si30  1  0.870893  0.796294  0.821781  1
  Si  Si31  1  0.204839  0.127686  0.678646  1
  Si  Si32  1  0.792684  0.872202  0.178319  1
  Si  Si33  1  0.296266  0.628492  0.571000  1
  Si  Si34  1  0.372997  0.707501  0.927787  1
  Si  Si35  1  0.627303  0.294901  0.428382  1
