# generated using pymatgen
data_Lu3AgPtRh3O14
_symmetry_space_group_name_H-M   'P 1'
_cell_length_a   7.24898324
_cell_length_b   7.07149807
_cell_length_c   7.24898200
_cell_angle_alpha   59.16621662
_cell_angle_beta   60.00000568
_cell_angle_gamma   59.16621738
_symmetry_Int_Tables_number   1
_chemical_formula_structural   Lu3AgPtRh3O14
_chemical_formula_sum   'Lu3 Ag1 Pt1 Rh3 O14'
_cell_volume   259.39450533
_cell_formula_units_Z   1
loop_
 _symmetry_equiv_pos_site_id
 _symmetry_equiv_pos_as_xyz
  1  'x, y, z'
loop_
 _atom_site_type_symbol
 _atom_site_label
 _atom_site_symmetry_multiplicity
 _atom_site_fract_x
 _atom_site_fract_y
 _atom_site_fract_z
 _atom_site_occupancy
  Lu  Lu0  1  0.625000  0.625000  0.125000  1
  Lu  Lu1  1  0.625000  0.625000  0.625000  1
  Lu  Lu2  1  0.125000  0.625000  0.625000  1
  Ag  Ag3  1  0.625000  0.125000  0.625000  1
  Pt  Pt4  1  0.125000  0.625000  0.125000  1
  Rh  Rh5  1  0.125000  0.125000  0.125000  1
  Rh  Rh6  1  0.625000  0.125000  0.125000  1
  Rh  Rh7  1  0.125000  0.125000  0.625000  1
  O  O8  1  0.030078  0.473100  0.466742  1
  O  O9  1  0.783258  0.776900  0.219922  1
  O  O10  1  0.795808  0.214091  0.194292  1
  O  O11  1  0.454192  0.035909  0.454192  1
  O  O12  1  0.748842  0.753475  0.748842  1
  O  O13  1  0.030078  0.473100  0.030078  1
  O  O14  1  0.055708  0.035909  0.454192  1
  O  O15  1  0.219922  0.776900  0.219922  1
  O  O16  1  0.194292  0.214091  0.795808  1
  O  O17  1  0.795808  0.214091  0.795808  1
  O  O18  1  0.501158  0.496525  0.501158  1
  O  O19  1  0.454192  0.035909  0.055708  1
  O  O20  1  0.466742  0.473100  0.030078  1
  O  O21  1  0.219922  0.776900  0.783258  1
