# generated using pymatgen
data_La3PrIn2(BiO7)2
_symmetry_space_group_name_H-M   'P 1'
_cell_length_a   7.77051369
_cell_length_b   7.78944233
_cell_length_c   7.88545200
_cell_angle_alpha   59.59141889
_cell_angle_beta   59.50947107
_cell_angle_gamma   59.38080593
_symmetry_Int_Tables_number   1
_chemical_formula_structural   La3PrIn2(BiO7)2
_chemical_formula_sum   'La3 Pr1 In2 Bi2 O14'
_cell_volume   333.60819584
_cell_formula_units_Z   1
loop_
 _symmetry_equiv_pos_site_id
 _symmetry_equiv_pos_as_xyz
  1  'x, y, z'
loop_
 _atom_site_type_symbol
 _atom_site_label
 _atom_site_symmetry_multiplicity
 _atom_site_fract_x
 _atom_site_fract_y
 _atom_site_fract_z
 _atom_site_occupancy
  La  La0  1  0.625000  0.125000  0.125000  1
  La  La1  1  0.125000  0.125000  0.125000  1
  La  La2  1  0.125000  0.125000  0.625000  1
  Pr  Pr3  1  0.125000  0.625000  0.125000  1
  In  In4  1  0.625000  0.125000  0.625000  1
  In  In5  1  0.125000  0.625000  0.625000  1
  Bi  Bi6  1  0.625000  0.625000  0.125000  1
  Bi  Bi7  1  0.625000  0.625000  0.625000  1
  O  O8  1  0.707012  0.292019  0.282307  1
  O  O9  1  0.710199  0.706385  0.291708  1
  O  O10  1  0.290425  0.706062  0.281967  1
  O  O11  1  0.998506  0.998444  0.001525  1
  O  O12  1  0.707012  0.292019  0.718662  1
  O  O13  1  0.959575  0.543938  0.528454  1
  O  O14  1  0.290425  0.706062  0.721546  1
  O  O15  1  0.542988  0.957981  0.531338  1
  O  O16  1  0.251494  0.251556  0.248475  1
  O  O17  1  0.959575  0.543938  0.968033  1
  O  O18  1  0.539801  0.543615  0.958292  1
  O  O19  1  0.969210  0.968572  0.531109  1
  O  O20  1  0.542988  0.957981  0.967693  1
  O  O21  1  0.280790  0.281428  0.718891  1
