# generated using pymatgen
data_Ho8Ta3Ti8Si16Pd
_symmetry_space_group_name_H-M   'P 1'
_cell_length_a   7.03691447
_cell_length_b   7.03691396
_cell_length_c   12.86947963
_cell_angle_alpha   90.20103780
_cell_angle_beta   89.79895931
_cell_angle_gamma   89.58399836
_symmetry_Int_Tables_number   1
_chemical_formula_structural   Ho8Ta3Ti8Si16Pd
_chemical_formula_sum   'Ho8 Ta3 Ti8 Si16 Pd1'
_cell_volume   637.24827240
_cell_formula_units_Z   1
loop_
 _symmetry_equiv_pos_site_id
 _symmetry_equiv_pos_as_xyz
  1  'x, y, z'
loop_
 _atom_site_type_symbol
 _atom_site_label
 _atom_site_symmetry_multiplicity
 _atom_site_fract_x
 _atom_site_fract_y
 _atom_site_fract_z
 _atom_site_occupancy
  Ho  Ho0  1  0.340839  0.001642  0.467464  1
  Ho  Ho1  1  0.497353  0.841694  0.717967  1
  Ho  Ho2  1  0.501966  0.157817  0.215067  1
  Ho  Ho3  1  0.841694  0.497353  0.282033  1
  Ho  Ho4  1  0.157817  0.501966  0.784933  1
  Ho  Ho5  1  0.657026  0.000181  0.968512  1
  Ho  Ho6  1  0.001642  0.340839  0.532536  1
  Ho  Ho7  1  0.000181  0.657026  0.031488  1
  Ta  Ta8  1  0.174953  0.825532  0.248623  1
  Ta  Ta9  1  0.825532  0.174953  0.751377  1
  Ta  Ta10  1  0.673397  0.673397  0.500000  1
  Ti  Ti11  1  0.147453  0.005708  0.875963  1
  Ti  Ti12  1  0.493251  0.654545  0.124543  1
  Ti  Ti13  1  0.508596  0.349548  0.626883  1
  Ti  Ti14  1  0.654545  0.493251  0.875457  1
  Ti  Ti15  1  0.349548  0.508596  0.373117  1
  Ti  Ti16  1  0.848748  0.990622  0.374234  1
  Ti  Ti17  1  0.005708  0.147453  0.124037  1
  Ti  Ti18  1  0.990622  0.848748  0.625766  1
  Si  Si19  1  0.201866  0.132785  0.684492  1
  Si  Si20  1  0.372794  0.710435  0.931629  1
  Si  Si21  1  0.630805  0.296210  0.433493  1
  Si  Si22  1  0.710435  0.372794  0.068371  1
  Si  Si23  1  0.296210  0.630805  0.566507  1
  Si  Si24  1  0.798456  0.866948  0.182985  1
  Si  Si25  1  0.132785  0.201866  0.315508  1
  Si  Si26  1  0.866948  0.798456  0.817015  1
  Si  Si27  1  0.288015  0.945664  0.062898  1
  Si  Si28  1  0.547088  0.792854  0.314231  1
  Si  Si29  1  0.450099  0.209312  0.814294  1
  Si  Si30  1  0.792854  0.547088  0.685769  1
  Si  Si31  1  0.209312  0.450099  0.185706  1
  Si  Si32  1  0.707381  0.047233  0.564253  1
  Si  Si33  1  0.945664  0.288015  0.937102  1
  Si  Si34  1  0.047233  0.707381  0.435747  1
  Pd  Pd35  1  0.331185  0.331185  0.000000  1
