# generated using pymatgen
data_Y3Sc(Si5Os3)2
_symmetry_space_group_name_H-M   'P 1'
_cell_length_a   8.11247159
_cell_length_b   8.10217156
_cell_length_c   5.78212871
_cell_angle_alpha   70.63138204
_cell_angle_beta   70.45530936
_cell_angle_gamma   94.02283998
_symmetry_Int_Tables_number   1
_chemical_formula_structural   Y3Sc(Si5Os3)2
_chemical_formula_sum   'Y3 Sc1 Si10 Os6'
_cell_volume   330.79868428
_cell_formula_units_Z   1
loop_
 _symmetry_equiv_pos_site_id
 _symmetry_equiv_pos_as_xyz
  1  'x, y, z'
loop_
 _atom_site_type_symbol
 _atom_site_label
 _atom_site_symmetry_multiplicity
 _atom_site_fract_x
 _atom_site_fract_y
 _atom_site_fract_z
 _atom_site_occupancy
  Y  Y0  1  0.869750  0.601879  0.751523  1
  Y  Y1  1  0.398423  0.131678  0.746569  1
  Y  Y2  1  0.132315  0.397515  0.246894  1
  Sc  Sc3  1  0.599302  0.869102  0.255175  1
  Si  Si4  1  0.067647  0.262419  0.833910  1
  Si  Si5  1  0.737231  0.932242  0.668511  1
  Si  Si6  1  0.925714  0.740655  0.166800  1
  Si  Si7  1  0.262329  0.065396  0.333701  1
  Si  Si8  1  0.206720  0.793979  0.749007  1
  Si  Si9  1  0.791636  0.203424  0.251514  1
  Si  Si10  1  0.514347  0.487919  0.750266  1
  Si  Si11  1  0.489540  0.516126  0.247100  1
  Si  Si12  1  0.774035  0.223279  0.751971  1
  Si  Si13  1  0.229125  0.775196  0.249474  1
  Os  Os14  1  0.258595  0.544570  0.630360  1
  Os  Os15  1  0.457000  0.745077  0.866382  1
  Os  Os16  1  0.744281  0.455834  0.368950  1
  Os  Os17  1  0.544072  0.254194  0.130897  1
  Os  Os18  1  0.001531  0.997732  0.750535  1
  Os  Os19  1  0.996411  0.001783  0.250460  1
