# generated using pymatgen
data_Nd6Tc5P12Rh13
_symmetry_space_group_name_H-M   'P 1'
_cell_length_a   4.00342400
_cell_length_b   11.34646132
_cell_length_c   12.85787015
_cell_angle_alpha   89.70265412
_cell_angle_beta   90.00000000
_cell_angle_gamma   90.00000000
_symmetry_Int_Tables_number   1
_chemical_formula_structural   Nd6Tc5P12Rh13
_chemical_formula_sum   'Nd6 Tc5 P12 Rh13'
_cell_volume   584.05697197
_cell_formula_units_Z   1
loop_
 _symmetry_equiv_pos_site_id
 _symmetry_equiv_pos_as_xyz
  1  'x, y, z'
loop_
 _atom_site_type_symbol
 _atom_site_label
 _atom_site_symmetry_multiplicity
 _atom_site_fract_x
 _atom_site_fract_y
 _atom_site_fract_z
 _atom_site_occupancy
  Nd  Nd0  1  0.000000  0.501599  0.519874  1
  Nd  Nd1  1  0.500000  0.999629  0.479896  1
  Nd  Nd2  1  0.500000  0.817060  0.202324  1
  Nd  Nd3  1  0.500000  0.179360  0.204587  1
  Nd  Nd4  1  0.000000  0.680915  0.797324  1
  Nd  Nd5  1  0.000000  0.318830  0.796040  1
  Tc  Tc6  1  0.500000  0.510070  0.158300  1
  Tc  Tc7  1  0.000000  0.995002  0.841491  1
  Tc  Tc8  1  0.000000  0.501820  0.988606  1
  Tc  Tc9  1  0.500000  0.998524  0.010448  1
  Tc  Tc10  1  0.500000  0.331803  0.998722  1
  P  P11  1  0.500000  0.496504  0.882897  1
  P  P12  1  0.000000  0.999208  0.115861  1
  P  P13  1  0.500000  0.499657  0.339231  1
  P  P14  1  0.000000  0.000229  0.660451  1
  P  P15  1  0.500000  0.308389  0.617540  1
  P  P16  1  0.500000  0.689634  0.617304  1
  P  P17  1  0.000000  0.192184  0.382760  1
  P  P18  1  0.000000  0.811018  0.382690  1
  P  P19  1  0.500000  0.850872  0.892113  1
  P  P20  1  0.500000  0.153066  0.894135  1
  P  P21  1  0.000000  0.648993  0.108497  1
  P  P22  1  0.000000  0.346451  0.105368  1
  Rh  Rh23  1  0.500000  0.498326  0.696214  1
  Rh  Rh24  1  0.000000  0.001992  0.302468  1
  Rh  Rh25  1  0.500000  0.670285  0.984181  1
  Rh  Rh26  1  0.000000  0.166577  0.006359  1
  Rh  Rh27  1  0.000000  0.828941  0.013513  1
  Rh  Rh28  1  0.500000  0.293314  0.430424  1
  Rh  Rh29  1  0.500000  0.709041  0.430740  1
  Rh  Rh30  1  0.000000  0.206546  0.569671  1
  Rh  Rh31  1  0.000000  0.793715  0.569750  1
  Rh  Rh32  1  0.500000  0.876055  0.709214  1
  Rh  Rh33  1  0.500000  0.121734  0.711060  1
  Rh  Rh34  1  0.000000  0.624470  0.292007  1
  Rh  Rh35  1  0.000000  0.378183  0.287939  1
