# generated using pymatgen
data_Hf6Re5Si6Ru
_symmetry_space_group_name_H-M   'P 1'
_cell_length_a   7.74135278
_cell_length_b   7.74608450
_cell_length_c   7.74162001
_cell_angle_alpha   126.58381550
_cell_angle_beta   127.97239665
_cell_angle_gamma   77.79014394
_symmetry_Int_Tables_number   1
_chemical_formula_structural   Hf6Re5Si6Ru
_chemical_formula_sum   'Hf6 Re5 Si6 Ru1'
_cell_volume   284.88491666
_cell_formula_units_Z   1
loop_
 _symmetry_equiv_pos_site_id
 _symmetry_equiv_pos_as_xyz
  1  'x, y, z'
loop_
 _atom_site_type_symbol
 _atom_site_label
 _atom_site_symmetry_multiplicity
 _atom_site_fract_x
 _atom_site_fract_y
 _atom_site_fract_z
 _atom_site_occupancy
  Hf  Hf0  1  0.450990  0.661008  0.707349  1
  Hf  Hf1  1  0.548113  0.253630  0.203767  1
  Hf  Hf2  1  0.748878  0.845728  0.598772  1
  Hf  Hf3  1  0.247798  0.846714  0.096368  1
  Hf  Hf4  1  0.050742  0.253296  0.703725  1
  Hf  Hf5  1  0.952416  0.659184  0.208828  1
  Re  Re6  1  0.500349  0.507613  0.007191  1
  Re  Re7  1  0.999851  0.508335  0.508964  1
  Re  Re8  1  0.126673  0.253466  0.124376  1
  Re  Re9  1  0.872970  0.998304  0.126854  1
  Re  Re10  1  0.372521  0.998975  0.625190  1
  Si  Si11  1  0.251844  0.253761  0.502448  1
  Si  Si12  1  0.750481  0.252702  0.002072  1
  Si  Si13  1  0.331860  0.585771  0.252162  1
  Si  Si14  1  0.666870  0.920852  0.254913  1
  Si  Si15  1  0.165665  0.921668  0.754606  1
  Si  Si16  1  0.832756  0.585348  0.753903  1
  Ru  Ru17  1  0.629225  0.253248  0.628116  1
