# generated using pymatgen
data_Sr4In2CuIr3
_symmetry_space_group_name_H-M   'P 1'
_cell_length_a   6.07185314
_cell_length_b   5.97028455
_cell_length_c   8.28644541
_cell_angle_alpha   79.02108991
_cell_angle_beta   78.75368924
_cell_angle_gamma   60.98597010
_symmetry_Int_Tables_number   1
_chemical_formula_structural   Sr4In2CuIr3
_chemical_formula_sum   'Sr4 In2 Cu1 Ir3'
_cell_volume   256.03255852
_cell_formula_units_Z   1
loop_
 _symmetry_equiv_pos_site_id
 _symmetry_equiv_pos_as_xyz
  1  'x, y, z'
loop_
 _atom_site_type_symbol
 _atom_site_label
 _atom_site_symmetry_multiplicity
 _atom_site_fract_x
 _atom_site_fract_y
 _atom_site_fract_z
 _atom_site_occupancy
  Sr  Sr0  1  0.509465  0.783620  0.350379  1
  Sr  Sr1  1  0.214471  0.499016  0.141275  1
  Sr  Sr2  1  0.490323  0.209642  0.648453  1
  Sr  Sr3  1  0.788443  0.508669  0.859573  1
  In  In4  1  0.890635  0.104685  0.245378  1
  In  In5  1  0.108756  0.887780  0.755619  1
  Cu  Cu6  1  0.994144  0.295923  0.490511  1
  Ir  Ir7  1  0.295608  0.997127  0.993086  1
  Ir  Ir8  1  0.007475  0.705615  0.511124  1
  Ir  Ir9  1  0.700681  0.007922  0.004603  1
