# generated using pymatgen
data_Y4TaRh3F28
_symmetry_space_group_name_H-M   'P 1'
_cell_length_a   5.61972282
_cell_length_b   8.89723038
_cell_length_c   12.00284741
_cell_angle_alpha   62.55928060
_cell_angle_beta   89.71448850
_cell_angle_gamma   90.16608374
_symmetry_Int_Tables_number   1
_chemical_formula_structural   Y4TaRh3F28
_chemical_formula_sum   'Y4 Ta1 Rh3 F28'
_cell_volume   532.60314100
_cell_formula_units_Z   1
loop_
 _symmetry_equiv_pos_site_id
 _symmetry_equiv_pos_as_xyz
  1  'x, y, z'
loop_
 _atom_site_type_symbol
 _atom_site_label
 _atom_site_symmetry_multiplicity
 _atom_site_fract_x
 _atom_site_fract_y
 _atom_site_fract_z
 _atom_site_occupancy
  Y  Y0  1  0.256409  0.812678  0.276916  1
  Y  Y1  1  0.739067  0.197646  0.726082  1
  Y  Y2  1  0.757578  0.178180  0.239768  1
  Y  Y3  1  0.238120  0.816783  0.749447  1
  Ta  Ta4  1  0.759648  0.725868  0.044090  1
  Rh  Rh5  1  0.240248  0.271351  0.957979  1
  Rh  Rh6  1  0.255146  0.277266  0.452123  1
  Rh  Rh7  1  0.740554  0.728359  0.542402  1
  F  F8  1  0.930215  0.707044  0.411886  1
  F  F9  1  0.051343  0.296221  0.578784  1
  F  F10  1  0.450287  0.291838  0.080911  1
  F  F11  1  0.561963  0.702023  0.924625  1
  F  F12  1  0.482863  0.728745  0.138110  1
  F  F13  1  0.517650  0.265913  0.859617  1
  F  F14  1  0.972680  0.276684  0.356188  1
  F  F15  1  0.033671  0.729985  0.630193  1
  F  F16  1  0.954632  0.742219  0.170777  1
  F  F17  1  0.035415  0.250858  0.832439  1
  F  F18  1  0.457078  0.261111  0.322837  1
  F  F19  1  0.559684  0.747655  0.676454  1
  F  F20  1  0.773028  0.483547  0.139411  1
  F  F21  1  0.229023  0.522363  0.859762  1
  F  F22  1  0.269222  0.525704  0.352889  1
  F  F23  1  0.730107  0.483066  0.640728  1
  F  F24  1  0.954799  0.280627  0.051197  1
  F  F25  1  0.050194  0.721369  0.958343  1
  F  F26  1  0.438588  0.720362  0.461378  1
  F  F27  1  0.543977  0.284977  0.542237  1
  F  F28  1  0.737212  0.974402  0.449144  1
  F  F29  1  0.253427  0.029771  0.545868  1
  F  F30  1  0.237610  0.021948  0.057612  1
  F  F31  1  0.755898  0.966734  0.953134  1
  F  F32  1  0.590860  0.959948  0.233236  1
  F  F33  1  0.432095  0.017689  0.768742  1
  F  F34  1  0.088046  0.029840  0.275527  1
  F  F35  1  0.921664  0.969225  0.739163  1
