# generated using pymatgen
data_Pr2B2Pd5Pt3
_symmetry_space_group_name_H-M   'P 1'
_cell_length_a   5.52041185
_cell_length_b   5.50773128
_cell_length_c   7.70050900
_cell_angle_alpha   90.00000000
_cell_angle_beta   90.00000000
_cell_angle_gamma   119.92405153
_symmetry_Int_Tables_number   1
_chemical_formula_structural   Pr2B2Pd5Pt3
_chemical_formula_sum   'Pr2 B2 Pd5 Pt3'
_cell_volume   202.92060448
_cell_formula_units_Z   1
loop_
 _symmetry_equiv_pos_site_id
 _symmetry_equiv_pos_as_xyz
  1  'x, y, z'
loop_
 _atom_site_type_symbol
 _atom_site_label
 _atom_site_symmetry_multiplicity
 _atom_site_fract_x
 _atom_site_fract_y
 _atom_site_fract_z
 _atom_site_occupancy
  Pr  Pr0  1  0.000000  0.000000  0.499298  1
  Pr  Pr1  1  0.000000  0.000000  0.998201  1
  B  B2  1  0.667864  0.333932  0.500993  1
  B  B3  1  0.332136  0.666068  0.500993  1
  Pd  Pd4  1  0.666934  0.333467  0.000613  1
  Pd  Pd5  1  0.500000  0.500000  0.300738  1
  Pd  Pd6  1  0.500000  0.000000  0.300738  1
  Pd  Pd7  1  0.000000  0.500000  0.701531  1
  Pd  Pd8  1  0.333066  0.666533  0.000613  1
  Pt  Pt9  1  0.500000  0.000000  0.694851  1
  Pt  Pt10  1  0.500000  0.500000  0.694851  1
  Pt  Pt11  1  0.000000  0.500000  0.306580  1
