# generated using pymatgen
data_Tm4Ni13Rh
_symmetry_space_group_name_H-M   'P 1'
_cell_length_a   4.90988011
_cell_length_b   4.90987843
_cell_length_c   12.51865206
_cell_angle_alpha   78.69085580
_cell_angle_beta   78.69086204
_cell_angle_gamma   59.99998680
_symmetry_Int_Tables_number   1
_chemical_formula_structural   Tm4Ni13Rh
_chemical_formula_sum   'Tm4 Ni13 Rh1'
_cell_volume   254.56573759
_cell_formula_units_Z   1
loop_
 _symmetry_equiv_pos_site_id
 _symmetry_equiv_pos_as_xyz
  1  'x, y, z'
loop_
 _atom_site_type_symbol
 _atom_site_label
 _atom_site_symmetry_multiplicity
 _atom_site_fract_x
 _atom_site_fract_y
 _atom_site_fract_z
 _atom_site_occupancy
  Tm  Tm0  1  0.949925  0.949925  0.150225  1
  Tm  Tm1  1  0.050075  0.050075  0.849775  1
  Tm  Tm2  1  0.853765  0.853765  0.438706  1
  Tm  Tm3  1  0.146235  0.146235  0.561294  1
  Ni  Ni4  1  0.720745  0.720745  0.837763  1
  Ni  Ni5  1  0.279255  0.279255  0.162237  1
  Ni  Ni6  1  0.612596  0.612596  0.162212  1
  Ni  Ni7  1  0.387404  0.387404  0.837788  1
  Ni  Ni8  1  0.000000  0.500000  0.000000  1
  Ni  Ni9  1  0.500000  0.000000  0.000000  1
  Ni  Ni10  1  0.500000  0.500000  0.000000  1
  Ni  Ni11  1  0.390752  0.390752  0.323713  1
  Ni  Ni12  1  0.894783  0.390752  0.323713  1
  Ni  Ni13  1  0.390752  0.894783  0.323713  1
  Ni  Ni14  1  0.609248  0.609248  0.676287  1
  Ni  Ni15  1  0.105217  0.609248  0.676287  1
  Ni  Ni16  1  0.609248  0.105217  0.676287  1
  Rh  Rh17  1  0.500000  0.500000  0.500000  1
