# generated using pymatgen
data_Ca3PrMg2(RuO6)2
_symmetry_space_group_name_H-M   'P 1'
_cell_length_a   5.63512550
_cell_length_b   5.46394745
_cell_length_c   9.51646390
_cell_angle_alpha   54.89800279
_cell_angle_beta   89.95023903
_cell_angle_gamma   90.02632446
_symmetry_Int_Tables_number   1
_chemical_formula_structural   Ca3PrMg2(RuO6)2
_chemical_formula_sum   'Ca3 Pr1 Mg2 Ru2 O12'
_cell_volume   239.72172453
_cell_formula_units_Z   1
loop_
 _symmetry_equiv_pos_site_id
 _symmetry_equiv_pos_as_xyz
  1  'x, y, z'
loop_
 _atom_site_type_symbol
 _atom_site_label
 _atom_site_symmetry_multiplicity
 _atom_site_fract_x
 _atom_site_fract_y
 _atom_site_fract_z
 _atom_site_occupancy
  Ca  Ca0  1  0.445591  0.234311  0.251367  1
  Ca  Ca1  1  0.554129  0.764936  0.748625  1
  Ca  Ca2  1  0.054797  0.236615  0.751126  1
  Pr  Pr3  1  0.945207  0.763274  0.249124  1
  Mg  Mg4  1  0.497953  0.002591  0.997246  1
  Mg  Mg5  1  0.000463  0.997482  0.503214  1
  Ru  Ru6  1  0.001213  0.505197  0.995655  1
  Ru  Ru7  1  0.498194  0.495383  0.503976  1
  O  O8  1  0.699520  0.835661  0.450342  1
  O  O9  1  0.198887  0.166455  0.043219  1
  O  O10  1  0.302770  0.164586  0.548039  1
  O  O11  1  0.805851  0.836214  0.957131  1
  O  O12  1  0.790097  0.264045  0.546271  1
  O  O13  1  0.285811  0.743879  0.948461  1
  O  O14  1  0.212445  0.742287  0.453393  1
  O  O15  1  0.716335  0.251764  0.052349  1
  O  O16  1  0.521082  0.651194  0.257015  1
  O  O17  1  0.028777  0.341594  0.243517  1
  O  O18  1  0.472986  0.351787  0.741840  1
  O  O19  1  0.967892  0.650745  0.758089  1
