# generated using pymatgen
data_Hf3Zr(TaSi2)2
_symmetry_space_group_name_H-M   'P 1'
_cell_length_a   6.83610645
_cell_length_b   6.83610696
_cell_length_c   3.74268600
_cell_angle_alpha   90.00000000
_cell_angle_beta   90.00000000
_cell_angle_gamma   90.01311681
_symmetry_Int_Tables_number   1
_chemical_formula_structural   Hf3Zr(TaSi2)2
_chemical_formula_sum   'Hf3 Zr1 Ta2 Si4'
_cell_volume   174.90452575
_cell_formula_units_Z   1
loop_
 _symmetry_equiv_pos_site_id
 _symmetry_equiv_pos_as_xyz
  1  'x, y, z'
loop_
 _atom_site_type_symbol
 _atom_site_label
 _atom_site_symmetry_multiplicity
 _atom_site_fract_x
 _atom_site_fract_y
 _atom_site_fract_z
 _atom_site_occupancy
  Hf  Hf0  1  0.324745  0.824987  0.500000  1
  Hf  Hf1  1  0.175674  0.324326  0.500000  1
  Hf  Hf2  1  0.675013  0.175255  0.500000  1
  Zr  Zr3  1  0.824683  0.675317  0.500000  1
  Ta  Ta4  1  0.498883  0.499340  0.000000  1
  Ta  Ta5  1  0.000660  0.001117  0.000000  1
  Si  Si6  1  0.127034  0.625550  0.000000  1
  Si  Si7  1  0.624691  0.875309  0.000000  1
  Si  Si8  1  0.374168  0.125832  0.000000  1
  Si  Si9  1  0.874450  0.372966  0.000000  1
