# generated using pymatgen
data_PrCd2P6IN12
_symmetry_space_group_name_H-M   'P 1'
_cell_length_a   7.51427112
_cell_length_b   7.50198298
_cell_length_c   7.50198237
_cell_angle_alpha   109.69003360
_cell_angle_beta   109.50207075
_cell_angle_gamma   109.50204345
_symmetry_Int_Tables_number   1
_chemical_formula_structural   PrCd2P6IN12
_chemical_formula_sum   'Pr1 Cd2 P6 I1 N12'
_cell_volume   324.41686017
_cell_formula_units_Z   1
loop_
 _symmetry_equiv_pos_site_id
 _symmetry_equiv_pos_as_xyz
  1  'x, y, z'
loop_
 _atom_site_type_symbol
 _atom_site_label
 _atom_site_symmetry_multiplicity
 _atom_site_fract_x
 _atom_site_fract_y
 _atom_site_fract_z
 _atom_site_occupancy
  Pr  Pr0  1  0.359096  0.014676  0.014676  1
  Cd  Cd1  1  0.010431  0.374874  0.005360  1
  Cd  Cd2  1  0.010431  0.005360  0.374874  1
  P  P3  1  0.508184  0.262592  0.748445  1
  P  P4  1  0.260843  0.748738  0.501711  1
  P  P5  1  0.756362  0.503791  0.255358  1
  P  P6  1  0.756362  0.255358  0.503791  1
  P  P7  1  0.508184  0.748445  0.262592  1
  P  P8  1  0.260843  0.501711  0.748738  1
  I  I9  1  0.894307  0.941696  0.941696  1
  N  N10  1  0.414416  0.699117  0.413164  1
  N  N11  1  0.685215  0.383041  0.383041  1
  N  N12  1  0.414416  0.413164  0.699117  1
  N  N13  1  0.719413  0.300360  0.714203  1
  N  N14  1  0.005570  0.583947  0.296519  1
  N  N15  1  0.299260  0.595085  0.002823  1
  N  N16  1  0.299260  0.002823  0.595085  1
  N  N17  1  0.005570  0.296519  0.583947  1
  N  N18  1  0.719413  0.714203  0.300360  1
  N  N19  1  0.589656  0.998379  0.304977  1
  N  N20  1  0.293107  0.711136  0.711136  1
  N  N21  1  0.589656  0.304977  0.998379  1
