# generated using pymatgen
data_Tm7Lu3(InBi)3
_symmetry_space_group_name_H-M   'P 1'
_cell_length_a   6.45760300
_cell_length_b   8.92694283
_cell_length_c   8.92694600
_cell_angle_alpha   119.99947066
_cell_angle_beta   89.99961828
_cell_angle_gamma   90.00223273
_symmetry_Int_Tables_number   1
_chemical_formula_structural   Tm7Lu3(InBi)3
_chemical_formula_sum   'Tm7 Lu3 In3 Bi3'
_cell_volume   445.66645977
_cell_formula_units_Z   1
loop_
 _symmetry_equiv_pos_site_id
 _symmetry_equiv_pos_as_xyz
  1  'x, y, z'
loop_
 _atom_site_type_symbol
 _atom_site_label
 _atom_site_symmetry_multiplicity
 _atom_site_fract_x
 _atom_site_fract_y
 _atom_site_fract_z
 _atom_site_occupancy
  Tm  Tm0  1  0.492050  0.333365  0.666742  1
  Tm  Tm1  1  0.749840  0.234687  0.000016  1
  Tm  Tm2  1  0.749963  0.765392  0.765323  1
  Tm  Tm3  1  0.749959  0.000040  0.234665  1
  Tm  Tm4  1  0.249867  0.763122  0.000044  1
  Tm  Tm5  1  0.249850  0.236969  0.236941  1
  Tm  Tm6  1  0.249854  0.999946  0.763015  1
  Lu  Lu7  1  0.491891  0.666628  0.333253  1
  Lu  Lu8  1  0.008144  0.666716  0.333379  1
  Lu  Lu9  1  0.008130  0.333333  0.666624  1
  In  In10  1  0.249867  0.393146  0.000104  1
  In  In11  1  0.250199  0.606766  0.606684  1
  In  In12  1  0.250200  0.999871  0.393209  1
  Bi  Bi13  1  0.750103  0.602438  0.000138  1
  Bi  Bi14  1  0.750044  0.397714  0.397570  1
  Bi  Bi15  1  0.750041  0.999871  0.602294  1
