# generated using pymatgen
data_Mg3Sc4NbRh8
_symmetry_space_group_name_H-M   'P 1'
_cell_length_a   6.32204100
_cell_length_b   6.32152500
_cell_length_c   6.50138800
_cell_angle_alpha   90.00000000
_cell_angle_beta   89.99728239
_cell_angle_gamma   90.00000000
_symmetry_Int_Tables_number   1
_chemical_formula_structural   Mg3Sc4NbRh8
_chemical_formula_sum   'Mg3 Sc4 Nb1 Rh8'
_cell_volume   259.82758270
_cell_formula_units_Z   1
loop_
 _symmetry_equiv_pos_site_id
 _symmetry_equiv_pos_as_xyz
  1  'x, y, z'
loop_
 _atom_site_type_symbol
 _atom_site_label
 _atom_site_symmetry_multiplicity
 _atom_site_fract_x
 _atom_site_fract_y
 _atom_site_fract_z
 _atom_site_occupancy
  Mg  Mg0  1  0.249951  0.750001  0.000006  1
  Mg  Mg1  1  0.750035  0.250000  0.500009  1
  Mg  Mg2  1  0.249962  0.750001  0.500025  1
  Sc  Sc3  1  0.249982  0.250000  0.999993  1
  Sc  Sc4  1  0.750025  0.750001  0.999996  1
  Sc  Sc5  1  0.249942  0.250000  0.500005  1
  Sc  Sc6  1  0.750052  0.750001  0.500005  1
  Nb  Nb7  1  0.749975  0.250000  0.000015  1
  Rh  Rh8  1  0.997260  0.002735  0.244933  1
  Rh  Rh9  1  0.997260  0.497266  0.244933  1
  Rh  Rh10  1  0.502752  0.002763  0.244898  1
  Rh  Rh11  1  0.502752  0.497238  0.244898  1
  Rh  Rh12  1  0.502758  0.002763  0.755094  1
  Rh  Rh13  1  0.502758  0.497236  0.755094  1
  Rh  Rh14  1  0.997269  0.002723  0.755049  1
  Rh  Rh15  1  0.997269  0.497276  0.755049  1
