# generated using pymatgen
data_K2ScVF7
_symmetry_space_group_name_H-M   'P 1'
_cell_length_a   7.93050594
_cell_length_b   7.93050572
_cell_length_c   7.93050481
_cell_angle_alpha   120.63978468
_cell_angle_beta   117.05117626
_cell_angle_gamma   92.03871377
_symmetry_Int_Tables_number   1
_chemical_formula_structural   K2ScVF7
_chemical_formula_sum   'K4 Sc2 V2 F14'
_cell_volume   358.17337759
_cell_formula_units_Z   2
loop_
 _symmetry_equiv_pos_site_id
 _symmetry_equiv_pos_as_xyz
  1  'x, y, z'
loop_
 _atom_site_type_symbol
 _atom_site_label
 _atom_site_symmetry_multiplicity
 _atom_site_fract_x
 _atom_site_fract_y
 _atom_site_fract_z
 _atom_site_occupancy
  K  K0  1  0.000000  0.000000  0.500000  1
  K  K1  1  0.000000  0.000000  0.000000  1
  K  K2  1  0.000000  0.500000  0.000000  1
  K  K3  1  0.500000  0.500000  0.000000  1
  Sc  Sc4  1  0.000000  0.500000  0.500000  1
  Sc  Sc5  1  0.500000  0.000000  0.500000  1
  V  V6  1  0.500000  0.500000  0.500000  1
  V  V7  1  0.500000  0.000000  0.000000  1
  F  F8  1  0.402563  0.250000  0.152563  1
  F  F9  1  0.125357  0.410965  0.714392  1
  F  F10  1  0.188429  0.425913  0.383169  1
  F  F11  1  0.542744  0.305260  0.616831  1
  F  F12  1  0.803428  0.089035  0.714392  1
  F  F13  1  0.457256  0.074087  0.762515  1
  F  F14  1  0.188429  0.805260  0.762515  1
  F  F15  1  0.542744  0.925913  0.237485  1
  F  F16  1  0.597437  0.750000  0.847437  1
  F  F17  1  0.811571  0.194740  0.237485  1
  F  F18  1  0.874643  0.589035  0.285608  1
  F  F19  1  0.811571  0.574087  0.616831  1
  F  F20  1  0.457256  0.694740  0.383169  1
  F  F21  1  0.196572  0.910965  0.285608  1
