# generated using pymatgen
data_Y4Er4B24Ir3Ru
_symmetry_space_group_name_H-M   'P 1'
_cell_length_a   3.64102800
_cell_length_b   9.16823405
_cell_length_c   11.50942506
_cell_angle_alpha   90.01157377
_cell_angle_beta   90.00000000
_cell_angle_gamma   90.00000000
_symmetry_Int_Tables_number   1
_chemical_formula_structural   Y4Er4B24Ir3Ru
_chemical_formula_sum   'Y4 Er4 B24 Ir3 Ru1'
_cell_volume   384.20528162
_cell_formula_units_Z   1
loop_
 _symmetry_equiv_pos_site_id
 _symmetry_equiv_pos_as_xyz
  1  'x, y, z'
loop_
 _atom_site_type_symbol
 _atom_site_label
 _atom_site_symmetry_multiplicity
 _atom_site_fract_x
 _atom_site_fract_y
 _atom_site_fract_z
 _atom_site_occupancy
  Y  Y0  1  0.000000  0.320227  0.413497  1
  Y  Y1  1  0.000000  0.680771  0.587794  1
  Y  Y2  1  0.000000  0.820460  0.084876  1
  Y  Y3  1  0.000000  0.177861  0.913110  1
  Er  Er4  1  0.000000  0.943729  0.373657  1
  Er  Er5  1  0.000000  0.054654  0.627310  1
  Er  Er6  1  0.000000  0.443758  0.126122  1
  Er  Er7  1  0.000000  0.557849  0.873841  1
  B  B8  1  0.500000  0.554366  0.434479  1
  B  B9  1  0.500000  0.445936  0.565826  1
  B  B10  1  0.500000  0.053940  0.065829  1
  B  B11  1  0.500000  0.945581  0.933246  1
  B  B12  1  0.500000  0.750052  0.420530  1
  B  B13  1  0.500000  0.249973  0.579679  1
  B  B14  1  0.500000  0.249622  0.079536  1
  B  B15  1  0.500000  0.751407  0.919385  1
  B  B16  1  0.500000  0.792660  0.264951  1
  B  B17  1  0.500000  0.207525  0.734433  1
  B  B18  1  0.500000  0.293049  0.235117  1
  B  B19  1  0.500000  0.708294  0.765776  1
  B  B20  1  0.500000  0.631255  0.183758  1
  B  B21  1  0.500000  0.368802  0.816135  1
  B  B22  1  0.500000  0.131773  0.316116  1
  B  B23  1  0.500000  0.868781  0.685022  1
  B  B24  1  0.500000  0.981899  0.213622  1
  B  B25  1  0.500000  0.016566  0.786300  1
  B  B26  1  0.500000  0.482099  0.286030  1
  B  B27  1  0.500000  0.517905  0.714334  1
  B  B28  1  0.500000  0.608083  0.029797  1
  B  B29  1  0.500000  0.391483  0.970534  1
  B  B30  1  0.500000  0.108067  0.470396  1
  B  B31  1  0.500000  0.891986  0.529251  1
  Ir  Ir32  1  0.000000  0.638263  0.321246  1
  Ir  Ir33  1  0.000000  0.362039  0.679043  1
  Ir  Ir34  1  0.000000  0.137497  0.178495  1
  Ru  Ru35  1  0.000000  0.861788  0.820928  1
