# generated using pymatgen
data_Y2FeCoGe2C
_symmetry_space_group_name_H-M   'P 1'
_cell_length_a   5.69145416
_cell_length_b   5.69145351
_cell_length_c   6.84543305
_cell_angle_alpha   125.32587066
_cell_angle_beta   125.32586616
_cell_angle_gamma   40.38035063
_symmetry_Int_Tables_number   1
_chemical_formula_structural   Y2FeCoGe2C
_chemical_formula_sum   'Y2 Fe1 Co1 Ge2 C1'
_cell_volume   113.15615150
_cell_formula_units_Z   1
loop_
 _symmetry_equiv_pos_site_id
 _symmetry_equiv_pos_as_xyz
  1  'x, y, z'
loop_
 _atom_site_type_symbol
 _atom_site_label
 _atom_site_symmetry_multiplicity
 _atom_site_fract_x
 _atom_site_fract_y
 _atom_site_fract_z
 _atom_site_occupancy
  Y  Y0  1  0.558223  0.558223  0.290341  1
  Y  Y1  1  0.441538  0.441538  0.709685  1
  Fe  Fe2  1  0.192677  0.192677  0.081413  1
  Co  Co3  1  0.806116  0.806116  0.916263  1
  Ge  Ge4  1  0.836538  0.836538  0.294201  1
  Ge  Ge5  1  0.162427  0.162427  0.705344  1
  C  C6  1  0.002481  0.002481  0.002753  1
