# generated using pymatgen
data_CaYb5(SmAs3)2
_symmetry_space_group_name_H-M   'P 1'
_cell_length_a   7.64656176
_cell_length_b   7.77739993
_cell_length_c   7.77933400
_cell_angle_alpha   109.82670770
_cell_angle_beta   109.13297532
_cell_angle_gamma   109.13038808
_symmetry_Int_Tables_number   1
_chemical_formula_structural   CaYb5(SmAs3)2
_chemical_formula_sum   'Ca1 Yb5 Sm2 As6'
_cell_volume   357.54232622
_cell_formula_units_Z   1
loop_
 _symmetry_equiv_pos_site_id
 _symmetry_equiv_pos_as_xyz
  1  'x, y, z'
loop_
 _atom_site_type_symbol
 _atom_site_label
 _atom_site_symmetry_multiplicity
 _atom_site_fract_x
 _atom_site_fract_y
 _atom_site_fract_z
 _atom_site_occupancy
  Ca  Ca0  1  0.500225  0.996366  0.635582  1
  Yb  Yb1  1  0.363993  0.360032  0.363730  1
  Yb  Yb2  1  0.503815  0.003566  0.139542  1
  Yb  Yb3  1  0.003046  0.639280  0.503403  1
  Yb  Yb4  1  0.864463  0.863432  0.860348  1
  Yb  Yb5  1  0.000285  0.136293  0.496501  1
  Sm  Sm6  1  0.129980  0.499969  0.000088  1
  Sm  Sm7  1  0.630365  0.500584  0.000345  1
  As  As8  1  0.375775  0.623309  0.753355  1
  As  As9  1  0.877327  0.253765  0.125157  1
  As  As10  1  0.623433  0.746335  0.370663  1
  As  As11  1  0.122251  0.870558  0.245624  1
  As  As12  1  0.252236  0.129726  0.876334  1
  As  As13  1  0.752805  0.376785  0.629332  1
