# generated using pymatgen
data_Li8B3PPt12
_symmetry_space_group_name_H-M   'P 1'
_cell_length_a   6.93336043
_cell_length_b   6.93336043
_cell_length_c   6.93336043
_cell_angle_alpha   90.84517524
_cell_angle_beta   90.84517524
_cell_angle_gamma   89.15482476
_symmetry_Int_Tables_number   1
_chemical_formula_structural   Li8B3PPt12
_chemical_formula_sum   'Li8 B3 P1 Pt12'
_cell_volume   333.18921980
_cell_formula_units_Z   1
loop_
 _symmetry_equiv_pos_site_id
 _symmetry_equiv_pos_as_xyz
  1  'x, y, z'
loop_
 _atom_site_type_symbol
 _atom_site_label
 _atom_site_symmetry_multiplicity
 _atom_site_fract_x
 _atom_site_fract_y
 _atom_site_fract_z
 _atom_site_occupancy
  Li  Li0  1  0.302925  0.303697  0.304562  1
  Li  Li1  1  0.054562  0.446303  0.552925  1
  Li  Li2  1  0.552313  0.052313  0.447687  1
  Li  Li3  1  0.447075  0.554562  0.053697  1
  Li  Li4  1  0.197687  0.697687  0.802313  1
  Li  Li5  1  0.946303  0.947075  0.945438  1
  Li  Li6  1  0.803697  0.195438  0.697075  1
  Li  Li7  1  0.695438  0.802925  0.196303  1
  B  B8  1  0.375000  0.121415  0.871415  1
  B  B9  1  0.621415  0.628585  0.625000  1
  B  B10  1  0.128585  0.875000  0.378585  1
  P  P11  1  0.875000  0.375000  0.125000  1
  Pt  Pt12  1  0.190815  0.059185  0.625000  1
  Pt  Pt13  1  0.439225  0.375000  0.689225  1
  Pt  Pt14  1  0.070118  0.637739  0.184358  1
  Pt  Pt15  1  0.934358  0.112261  0.320118  1
  Pt  Pt16  1  0.310775  0.939225  0.125000  1
  Pt  Pt17  1  0.679882  0.434358  0.387739  1
  Pt  Pt18  1  0.559185  0.875000  0.809185  1
  Pt  Pt19  1  0.612261  0.179882  0.065642  1
  Pt  Pt20  1  0.375000  0.690815  0.440815  1
  Pt  Pt21  1  0.875000  0.810775  0.560775  1
  Pt  Pt22  1  0.137739  0.315642  0.929882  1
  Pt  Pt23  1  0.815642  0.570118  0.862261  1
