# generated using pymatgen
data_RbY2CuS4
_symmetry_space_group_name_H-M   'P 1'
_cell_length_a   3.99157900
_cell_length_b   7.17316207
_cell_length_c   13.84154000
_cell_angle_alpha   90.00000000
_cell_angle_beta   90.00000000
_cell_angle_gamma   73.84540507
_symmetry_Int_Tables_number   1
_chemical_formula_structural   RbY2CuS4
_chemical_formula_sum   'Rb2 Y4 Cu2 S8'
_cell_volume   380.66565823
_cell_formula_units_Z   2
loop_
 _symmetry_equiv_pos_site_id
 _symmetry_equiv_pos_as_xyz
  1  'x, y, z'
loop_
 _atom_site_type_symbol
 _atom_site_label
 _atom_site_symmetry_multiplicity
 _atom_site_fract_x
 _atom_site_fract_y
 _atom_site_fract_z
 _atom_site_occupancy
  Rb  Rb0  1  0.892573  0.214852  0.250000  1
  Rb  Rb1  1  0.107426  0.785148  0.750000  1
  Y  Y2  1  0.634139  0.731723  0.062117  1
  Y  Y3  1  0.634139  0.731723  0.437883  1
  Y  Y4  1  0.365861  0.268277  0.562117  1
  Y  Y5  1  0.365861  0.268277  0.937883  1
  Cu  Cu6  1  0.164867  0.670267  0.250000  1
  Cu  Cu7  1  0.835133  0.329732  0.750000  1
  S  S8  1  0.000000  0.000000  0.000000  1
  S  S9  1  0.259678  0.480643  0.108493  1
  S  S10  1  0.575699  0.848599  0.250000  1
  S  S11  1  0.259678  0.480643  0.391507  1
  S  S12  1  0.000000  0.000000  0.500000  1
  S  S13  1  0.740322  0.519356  0.608493  1
  S  S14  1  0.424299  0.151402  0.750000  1
  S  S15  1  0.740322  0.519356  0.891507  1
