# generated using pymatgen
data_Yb3ZnCoO6
_symmetry_space_group_name_H-M   'P 1'
_cell_length_a   6.25154134
_cell_length_b   6.25154142
_cell_length_c   6.25154196
_cell_angle_alpha   91.21762759
_cell_angle_beta   91.21762249
_cell_angle_gamma   91.21763699
_symmetry_Int_Tables_number   1
_chemical_formula_structural   Yb3ZnCoO6
_chemical_formula_sum   'Yb6 Zn2 Co2 O12'
_cell_volume   244.15343033
_cell_formula_units_Z   2
loop_
 _symmetry_equiv_pos_site_id
 _symmetry_equiv_pos_as_xyz
  1  'x, y, z'
loop_
 _atom_site_type_symbol
 _atom_site_label
 _atom_site_symmetry_multiplicity
 _atom_site_fract_x
 _atom_site_fract_y
 _atom_site_fract_z
 _atom_site_occupancy
  Yb  Yb0  1  0.883058  0.616942  0.250000  1
  Yb  Yb1  1  0.250000  0.883058  0.616942  1
  Yb  Yb2  1  0.616942  0.250000  0.883058  1
  Yb  Yb3  1  0.750000  0.116942  0.383058  1
  Yb  Yb4  1  0.383058  0.750000  0.116942  1
  Yb  Yb5  1  0.116942  0.383058  0.750000  1
  Zn  Zn6  1  0.250000  0.250000  0.250000  1
  Zn  Zn7  1  0.750000  0.750000  0.750000  1
  Co  Co8  1  0.500000  0.500000  0.500000  1
  Co  Co9  1  0.000000  0.000000  0.000000  1
  O  O10  1  0.212214  0.551162  0.417072  1
  O  O11  1  0.417072  0.212214  0.551162  1
  O  O12  1  0.551162  0.417072  0.212214  1
  O  O13  1  0.917072  0.051162  0.712214  1
  O  O14  1  0.712214  0.917072  0.051162  1
  O  O15  1  0.051162  0.712214  0.917072  1
  O  O16  1  0.787786  0.448838  0.582928  1
  O  O17  1  0.582928  0.787786  0.448838  1
  O  O18  1  0.448838  0.582928  0.787786  1
  O  O19  1  0.082928  0.948838  0.287786  1
  O  O20  1  0.287786  0.082928  0.948838  1
  O  O21  1  0.948838  0.287786  0.082928  1
