# generated using pymatgen
data_Cs2SbP2S7
_symmetry_space_group_name_H-M   'P 1'
_cell_length_a   9.73818582
_cell_length_b   9.73818703
_cell_length_c   9.44011635
_cell_angle_alpha   73.78921979
_cell_angle_beta   73.78921807
_cell_angle_gamma   69.64672567
_symmetry_Int_Tables_number   1
_chemical_formula_structural   Cs2SbP2S7
_chemical_formula_sum   'Cs4 Sb2 P4 S14'
_cell_volume   789.30973499
_cell_formula_units_Z   2
loop_
 _symmetry_equiv_pos_site_id
 _symmetry_equiv_pos_as_xyz
  1  'x, y, z'
loop_
 _atom_site_type_symbol
 _atom_site_label
 _atom_site_symmetry_multiplicity
 _atom_site_fract_x
 _atom_site_fract_y
 _atom_site_fract_z
 _atom_site_occupancy
  Cs  Cs0  1  0.606155  0.054631  0.168022  1
  Cs  Cs1  1  0.945369  0.393845  0.831978  1
  Cs  Cs2  1  0.393845  0.945369  0.831978  1
  Cs  Cs3  1  0.054631  0.606155  0.168022  1
  Sb  Sb4  1  0.681684  0.318316  0.500000  1
  Sb  Sb5  1  0.318316  0.681684  0.500000  1
  P  P6  1  0.948168  0.948168  0.440715  1
  P  P7  1  0.051832  0.051832  0.559285  1
  P  P8  1  0.392621  0.392621  0.811306  1
  P  P9  1  0.607379  0.607379  0.188694  1
  S  S10  1  0.688575  0.379643  0.196195  1
  S  S11  1  0.620357  0.311425  0.803805  1
  S  S12  1  0.311425  0.620357  0.803805  1
  S  S13  1  0.379643  0.688575  0.196195  1
  S  S14  1  0.000713  0.000713  0.218364  1
  S  S15  1  0.999287  0.999287  0.781636  1
  S  S16  1  0.721651  0.022746  0.531883  1
  S  S17  1  0.977254  0.278349  0.468117  1
  S  S18  1  0.278349  0.977254  0.468117  1
  S  S19  1  0.022746  0.721651  0.531883  1
  S  S20  1  0.280926  0.280926  0.991897  1
  S  S21  1  0.719074  0.719074  0.008103  1
  S  S22  1  0.362423  0.362423  0.609832  1
  S  S23  1  0.637577  0.637577  0.390168  1
