# generated using pymatgen
data_NaCo4As3Rh
_symmetry_space_group_name_H-M   'P 1'
_cell_length_a   3.75130300
_cell_length_b   10.74168400
_cell_length_c   12.30749600
_cell_angle_alpha   90.00000000
_cell_angle_beta   90.00000000
_cell_angle_gamma   90.00000000
_symmetry_Int_Tables_number   1
_chemical_formula_structural   NaCo4As3Rh
_chemical_formula_sum   'Na4 Co16 As12 Rh4'
_cell_volume   495.93438405
_cell_formula_units_Z   4
loop_
 _symmetry_equiv_pos_site_id
 _symmetry_equiv_pos_as_xyz
  1  'x, y, z'
loop_
 _atom_site_type_symbol
 _atom_site_label
 _atom_site_symmetry_multiplicity
 _atom_site_fract_x
 _atom_site_fract_y
 _atom_site_fract_z
 _atom_site_occupancy
  Na  Na0  1  0.250000  0.583514  0.705025  1
  Na  Na1  1  0.250000  0.916486  0.205025  1
  Na  Na2  1  0.750000  0.416486  0.294975  1
  Na  Na3  1  0.750000  0.083514  0.794975  1
  Co  Co4  1  0.250000  0.408498  0.490474  1
  Co  Co5  1  0.250000  0.091502  0.990474  1
  Co  Co6  1  0.750000  0.591502  0.509526  1
  Co  Co7  1  0.750000  0.908498  0.009526  1
  Co  Co8  1  0.250000  0.215317  0.174891  1
  Co  Co9  1  0.250000  0.284683  0.674891  1
  Co  Co10  1  0.750000  0.784683  0.825109  1
  Co  Co11  1  0.750000  0.715317  0.325109  1
  Co  Co12  1  0.250000  0.882858  0.699075  1
  Co  Co13  1  0.250000  0.617142  0.199075  1
  Co  Co14  1  0.750000  0.117142  0.300925  1
  Co  Co15  1  0.750000  0.382858  0.800925  1
  Co  Co16  1  0.250000  0.463499  0.933108  1
  Co  Co17  1  0.250000  0.036501  0.433108  1
  Co  Co18  1  0.750000  0.536501  0.066892  1
  Co  Co19  1  0.750000  0.963499  0.566892  1
  As  As20  1  0.250000  0.419457  0.116758  1
  As  As21  1  0.250000  0.080543  0.616758  1
  As  As22  1  0.750000  0.580543  0.883242  1
  As  As23  1  0.750000  0.919457  0.383242  1
  As  As24  1  0.250000  0.265111  0.864348  1
  As  As25  1  0.250000  0.234889  0.364348  1
  As  As26  1  0.750000  0.734889  0.135652  1
  As  As27  1  0.750000  0.765111  0.635652  1
  As  As28  1  0.250000  0.591730  0.386706  1
  As  As29  1  0.250000  0.908270  0.886706  1
  As  As30  1  0.750000  0.408270  0.613294  1
  As  As31  1  0.750000  0.091730  0.113294  1
  Rh  Rh32  1  0.250000  0.713968  0.989202  1
  Rh  Rh33  1  0.250000  0.786032  0.489202  1
  Rh  Rh34  1  0.750000  0.286032  0.010798  1
  Rh  Rh35  1  0.750000  0.213968  0.510798  1
