# generated using pymatgen
data_Tb3Y2Bi2As
_symmetry_space_group_name_H-M   'P 1'
_cell_length_a   12.16416700
_cell_length_b   9.19508800
_cell_length_c   8.09934600
_cell_angle_alpha   90.00000000
_cell_angle_beta   90.00000000
_cell_angle_gamma   90.00000000
_symmetry_Int_Tables_number   1
_chemical_formula_structural   Tb3Y2Bi2As
_chemical_formula_sum   'Tb12 Y8 Bi8 As4'
_cell_volume   905.91659641
_cell_formula_units_Z   4
loop_
 _symmetry_equiv_pos_site_id
 _symmetry_equiv_pos_as_xyz
  1  'x, y, z'
loop_
 _atom_site_type_symbol
 _atom_site_label
 _atom_site_symmetry_multiplicity
 _atom_site_fract_x
 _atom_site_fract_y
 _atom_site_fract_z
 _atom_site_occupancy
  Tb  Tb0  1  0.563598  0.054378  0.316923  1
  Tb  Tb1  1  0.063598  0.445622  0.183077  1
  Tb  Tb2  1  0.436402  0.554378  0.683077  1
  Tb  Tb3  1  0.936402  0.945622  0.816923  1
  Tb  Tb4  1  0.436402  0.945622  0.683077  1
  Tb  Tb5  1  0.936402  0.554378  0.816923  1
  Tb  Tb6  1  0.563598  0.445622  0.316923  1
  Tb  Tb7  1  0.063598  0.054378  0.183077  1
  Tb  Tb8  1  0.711363  0.250000  0.656883  1
  Tb  Tb9  1  0.211363  0.250000  0.843117  1
  Tb  Tb10  1  0.288637  0.750000  0.343117  1
  Tb  Tb11  1  0.788637  0.750000  0.156883  1
  Y  Y12  1  0.499790  0.250000  0.963175  1
  Y  Y13  1  0.999790  0.250000  0.536825  1
  Y  Y14  1  0.500210  0.750000  0.036825  1
  Y  Y15  1  0.000210  0.750000  0.463175  1
  Y  Y16  1  0.794477  0.250000  0.133532  1
  Y  Y17  1  0.294477  0.250000  0.366468  1
  Y  Y18  1  0.205523  0.750000  0.866468  1
  Y  Y19  1  0.705523  0.750000  0.633532  1
  Bi  Bi20  1  0.827000  0.009589  0.426657  1
  Bi  Bi21  1  0.327000  0.490411  0.073343  1
  Bi  Bi22  1  0.173000  0.509589  0.573343  1
  Bi  Bi23  1  0.673000  0.990411  0.926657  1
  Bi  Bi24  1  0.173000  0.990411  0.573343  1
  Bi  Bi25  1  0.673000  0.509589  0.926657  1
  Bi  Bi26  1  0.827000  0.490411  0.426657  1
  Bi  Bi27  1  0.327000  0.009589  0.073343  1
  As  As28  1  0.980703  0.250000  0.915124  1
  As  As29  1  0.480703  0.250000  0.584876  1
  As  As30  1  0.019297  0.750000  0.084876  1
  As  As31  1  0.519297  0.750000  0.415124  1
