# generated using pymatgen
data_Zr10AlSn3Sb4
_symmetry_space_group_name_H-M   'P 1'
_cell_length_a   5.90778700
_cell_length_b   8.75314281
_cell_length_c   8.75313200
_cell_angle_alpha   119.99997427
_cell_angle_beta   89.99925323
_cell_angle_gamma   90.00082504
_symmetry_Int_Tables_number   1
_chemical_formula_structural   Zr10AlSn3Sb4
_chemical_formula_sum   'Zr10 Al1 Sn3 Sb4'
_cell_volume   391.99729034
_cell_formula_units_Z   1
loop_
 _symmetry_equiv_pos_site_id
 _symmetry_equiv_pos_as_xyz
  1  'x, y, z'
loop_
 _atom_site_type_symbol
 _atom_site_label
 _atom_site_symmetry_multiplicity
 _atom_site_fract_x
 _atom_site_fract_y
 _atom_site_fract_z
 _atom_site_occupancy
  Zr  Zr0  1  0.498100  0.333333  0.666664  1
  Zr  Zr1  1  0.498097  0.666667  0.333334  1
  Zr  Zr2  1  0.002109  0.666669  0.333340  1
  Zr  Zr3  1  0.002114  0.333333  0.666664  1
  Zr  Zr4  1  0.741374  0.271786  0.999993  1
  Zr  Zr5  1  0.741375  0.728209  0.728208  1
  Zr  Zr6  1  0.741373  0.999999  0.271792  1
  Zr  Zr7  1  0.259090  0.721170  0.000000  1
  Zr  Zr8  1  0.259087  0.278827  0.278834  1
  Zr  Zr9  1  0.259090  0.000004  0.721172  1
  Al  Al10  1  0.494343  0.000001  0.000000  1
  Sn  Sn11  1  0.247723  0.384356  0.000003  1
  Sn  Sn12  1  0.247724  0.615648  0.615645  1
  Sn  Sn13  1  0.247725  0.999998  0.384355  1
  Sb  Sb14  1  0.751750  0.607960  0.000001  1
  Sb  Sb15  1  0.751749  0.392038  0.392038  1
  Sb  Sb16  1  0.751750  0.000000  0.607961  1
  Sb  Sb17  1  0.005429  0.000000  0.000000  1
