# generated using pymatgen
data_Y3Hf3Sn6(IrRh2)2
_symmetry_space_group_name_H-M   'P 1'
_cell_length_a   7.47407900
_cell_length_b   7.47407850
_cell_length_c   7.56208700
_cell_angle_alpha   90.00000000
_cell_angle_beta   90.00000000
_cell_angle_gamma   119.99999777
_symmetry_Int_Tables_number   1
_chemical_formula_structural   Y3Hf3Sn6(IrRh2)2
_chemical_formula_sum   'Y3 Hf3 Sn6 Ir2 Rh4'
_cell_volume   365.83701945
_cell_formula_units_Z   1
loop_
 _symmetry_equiv_pos_site_id
 _symmetry_equiv_pos_as_xyz
  1  'x, y, z'
loop_
 _atom_site_type_symbol
 _atom_site_label
 _atom_site_symmetry_multiplicity
 _atom_site_fract_x
 _atom_site_fract_y
 _atom_site_fract_z
 _atom_site_occupancy
  Y  Y0  1  0.000519  0.407957  0.748549  1
  Y  Y1  1  0.592043  0.592560  0.748549  1
  Y  Y2  1  0.407440  0.999481  0.748549  1
  Hf  Hf3  1  0.998505  0.393088  0.250804  1
  Hf  Hf4  1  0.606912  0.605418  0.250804  1
  Hf  Hf5  1  0.394582  0.001495  0.250804  1
  Sn  Sn6  1  0.264656  0.265613  0.493006  1
  Sn  Sn7  1  0.000958  0.735344  0.493006  1
  Sn  Sn8  1  0.000927  0.734016  0.006957  1
  Sn  Sn9  1  0.734387  0.999042  0.493006  1
  Sn  Sn10  1  0.733089  0.999073  0.006957  1
  Sn  Sn11  1  0.265984  0.266911  0.006957  1
  Ir  Ir12  1  0.333333  0.666667  0.458709  1
  Ir  Ir13  1  0.666667  0.333333  0.461146  1
  Rh  Rh14  1  0.333333  0.666667  0.042593  1
  Rh  Rh15  1  0.000000  0.000000  0.749647  1
  Rh  Rh16  1  0.000000  0.000000  0.250529  1
  Rh  Rh17  1  0.666667  0.333333  0.039425  1
