# generated using pymatgen
data_LaTh2(MgAu)3
_symmetry_space_group_name_H-M   'P 1'
_cell_length_a   7.76272095
_cell_length_b   7.76272171
_cell_length_c   4.29977200
_cell_angle_alpha   90.00000000
_cell_angle_beta   90.00000000
_cell_angle_gamma   120.47946177
_symmetry_Int_Tables_number   1
_chemical_formula_structural   LaTh2(MgAu)3
_chemical_formula_sum   'La1 Th2 Mg3 Au3'
_cell_volume   223.29832775
_cell_formula_units_Z   1
loop_
 _symmetry_equiv_pos_site_id
 _symmetry_equiv_pos_as_xyz
  1  'x, y, z'
loop_
 _atom_site_type_symbol
 _atom_site_label
 _atom_site_symmetry_multiplicity
 _atom_site_fract_x
 _atom_site_fract_y
 _atom_site_fract_z
 _atom_site_occupancy
  La  La0  1  0.415017  0.415017  0.000000  1
  Th  Th1  1  0.586142  0.001031  0.000000  1
  Th  Th2  1  0.001031  0.586142  0.000000  1
  Mg  Mg3  1  0.239265  0.000567  0.500000  1
  Mg  Mg4  1  0.000567  0.239265  0.500000  1
  Mg  Mg5  1  0.759336  0.759336  0.500000  1
  Au  Au6  1  0.331401  0.674885  0.500000  1
  Au  Au7  1  0.674885  0.331401  0.500000  1
  Au  Au8  1  0.992355  0.992355  0.000000  1
