# generated using pymatgen
data_Th(SeO4)2
_symmetry_space_group_name_H-M   'P 1'
_cell_length_a   10.29533190
_cell_length_b   10.29533236
_cell_length_c   10.29533181
_cell_angle_alpha   56.55356919
_cell_angle_beta   56.55358363
_cell_angle_gamma   56.55358709
_symmetry_Int_Tables_number   1
_chemical_formula_structural   Th(SeO4)2
_chemical_formula_sum   'Th3 Se6 O24'
_cell_volume   710.17334265
_cell_formula_units_Z   3
loop_
 _symmetry_equiv_pos_site_id
 _symmetry_equiv_pos_as_xyz
  1  'x, y, z'
loop_
 _atom_site_type_symbol
 _atom_site_label
 _atom_site_symmetry_multiplicity
 _atom_site_fract_x
 _atom_site_fract_y
 _atom_site_fract_z
 _atom_site_occupancy
  Th  Th0  1  0.147026  0.147026  0.147026  1
  Th  Th1  1  0.645485  0.645485  0.645485  1
  Th  Th2  1  0.850853  0.850853  0.850853  1
  Se  Se3  1  0.046252  0.743719  0.457109  1
  Se  Se4  1  0.457109  0.046252  0.743719  1
  Se  Se5  1  0.743719  0.457109  0.046252  1
  Se  Se6  1  0.251467  0.534796  0.972742  1
  Se  Se7  1  0.534796  0.972742  0.251467  1
  Se  Se8  1  0.972742  0.251467  0.534796  1
  O  O9  1  0.128688  0.263752  0.523074  1
  O  O10  1  0.263752  0.523074  0.128688  1
  O  O11  1  0.034122  0.940964  0.317892  1
  O  O12  1  0.523074  0.128688  0.263752  1
  O  O13  1  0.002795  0.751384  0.638212  1
  O  O14  1  0.222527  0.604268  0.399382  1
  O  O15  1  0.399382  0.222527  0.604268  1
  O  O16  1  0.317892  0.034122  0.940964  1
  O  O17  1  0.604268  0.399382  0.222527  1
  O  O18  1  0.073604  0.684467  0.936433  1
  O  O19  1  0.253501  0.357892  0.993677  1
  O  O20  1  0.357892  0.993677  0.253501  1
  O  O21  1  0.638212  0.002795  0.751384  1
  O  O22  1  0.751384  0.638212  0.002795  1
  O  O23  1  0.940964  0.317892  0.034122  1
  O  O24  1  0.407619  0.581624  0.790020  1
  O  O25  1  0.684467  0.936433  0.073604  1
  O  O26  1  0.581624  0.790020  0.407619  1
  O  O27  1  0.790020  0.407619  0.581624  1
  O  O28  1  0.993677  0.253501  0.357892  1
  O  O29  1  0.491935  0.876506  0.721171  1
  O  O30  1  0.936433  0.073604  0.684467  1
  O  O31  1  0.721171  0.491935  0.876506  1
  O  O32  1  0.876506  0.721171  0.491935  1
