# generated using pymatgen
data_Tb8SnPd17Pt7
_symmetry_space_group_name_H-M   'P 1'
_cell_length_a   8.43067000
_cell_length_b   8.44127600
_cell_length_c   8.41965800
_cell_angle_alpha   90.00000000
_cell_angle_beta   90.00000000
_cell_angle_gamma   90.00000000
_symmetry_Int_Tables_number   1
_chemical_formula_structural   Tb8SnPd17Pt7
_chemical_formula_sum   'Tb8 Sn1 Pd17 Pt7'
_cell_volume   599.19011722
_cell_formula_units_Z   1
loop_
 _symmetry_equiv_pos_site_id
 _symmetry_equiv_pos_as_xyz
  1  'x, y, z'
loop_
 _atom_site_type_symbol
 _atom_site_label
 _atom_site_symmetry_multiplicity
 _atom_site_fract_x
 _atom_site_fract_y
 _atom_site_fract_z
 _atom_site_occupancy
  Tb  Tb0  1  0.252967  0.253853  0.253004  1
  Tb  Tb1  1  0.747154  0.746705  0.747376  1
  Tb  Tb2  1  0.747154  0.746705  0.252624  1
  Tb  Tb3  1  0.747154  0.253295  0.747376  1
  Tb  Tb4  1  0.252967  0.253853  0.746996  1
  Tb  Tb5  1  0.252967  0.746147  0.253004  1
  Tb  Tb6  1  0.252967  0.746147  0.746996  1
  Tb  Tb7  1  0.747154  0.253295  0.252624  1
  Sn  Sn8  1  0.000167  0.000000  0.000000  1
  Pd  Pd9  1  0.500080  0.000000  0.265176  1
  Pd  Pd10  1  0.265264  0.000000  0.500000  1
  Pd  Pd11  1  0.500080  0.000000  0.734824  1
  Pd  Pd12  1  0.734583  0.000000  0.500000  1
  Pd  Pd13  1  0.999815  0.500000  0.264691  1
  Pd  Pd14  1  0.999815  0.500000  0.735309  1
  Pd  Pd15  1  0.745842  0.500000  0.500000  1
  Pd  Pd16  1  0.499922  0.254546  0.500000  1
  Pd  Pd17  1  0.499922  0.745454  0.500000  1
  Pd  Pd18  1  0.500018  0.500000  0.254904  1
  Pd  Pd19  1  0.500018  0.500000  0.745096  1
  Pd  Pd20  1  0.308629  0.000000  0.000000  1
  Pd  Pd21  1  0.691703  0.000000  0.000000  1
  Pd  Pd22  1  0.999940  0.308160  0.000000  1
  Pd  Pd23  1  0.999940  0.691840  0.000000  1
  Pd  Pd24  1  0.999906  0.000000  0.308489  1
  Pd  Pd25  1  0.999906  0.000000  0.691511  1
  Pt  Pt26  1  0.264189  0.500000  0.000000  1
  Pt  Pt27  1  0.735580  0.500000  0.000000  1
  Pt  Pt28  1  0.000093  0.264280  0.500000  1
  Pt  Pt29  1  0.500073  0.263980  0.000000  1
  Pt  Pt30  1  0.000093  0.735720  0.500000  1
  Pt  Pt31  1  0.500073  0.736020  0.000000  1
  Pt  Pt32  1  0.253864  0.500000  0.500000  1
