# generated using pymatgen
data_SmNp7(GePt)8
_symmetry_space_group_name_H-M   'P 1'
_cell_length_a   4.37968100
_cell_length_b   7.49806000
_cell_length_c   14.22847600
_cell_angle_alpha   90.00000000
_cell_angle_beta   90.00000000
_cell_angle_gamma   90.00000000
_symmetry_Int_Tables_number   1
_chemical_formula_structural   SmNp7(GePt)8
_chemical_formula_sum   'Sm1 Np7 Ge8 Pt8'
_cell_volume   467.25050157
_cell_formula_units_Z   1
loop_
 _symmetry_equiv_pos_site_id
 _symmetry_equiv_pos_as_xyz
  1  'x, y, z'
loop_
 _atom_site_type_symbol
 _atom_site_label
 _atom_site_symmetry_multiplicity
 _atom_site_fract_x
 _atom_site_fract_y
 _atom_site_fract_z
 _atom_site_occupancy
  Sm  Sm0  1  0.000000  0.296619  0.500000  1
  Np  Np1  1  0.500000  0.796952  0.749556  1
  Np  Np2  1  0.000000  0.206063  0.754805  1
  Np  Np3  1  0.500000  0.796952  0.250444  1
  Np  Np4  1  0.000000  0.206063  0.245195  1
  Np  Np5  1  0.500000  0.696639  0.000000  1
  Np  Np6  1  0.500000  0.703897  0.500000  1
  Np  Np7  1  0.000000  0.302079  0.000000  1
  Ge  Ge8  1  0.500000  0.411176  0.648434  1
  Ge  Ge9  1  0.000000  0.590791  0.851084  1
  Ge  Ge10  1  0.500000  0.411176  0.351566  1
  Ge  Ge11  1  0.000000  0.590791  0.148916  1
  Ge  Ge12  1  0.500000  0.087504  0.094684  1
  Ge  Ge13  1  0.000000  0.910488  0.403750  1
  Ge  Ge14  1  0.500000  0.087504  0.905316  1
  Ge  Ge15  1  0.000000  0.910488  0.596250  1
  Pt  Pt16  1  0.500000  0.078323  0.609530  1
  Pt  Pt17  1  0.000000  0.919093  0.894278  1
  Pt  Pt18  1  0.500000  0.078323  0.390470  1
  Pt  Pt19  1  0.000000  0.919093  0.105722  1
  Pt  Pt20  1  0.500000  0.414999  0.149909  1
  Pt  Pt21  1  0.000000  0.584995  0.345490  1
  Pt  Pt22  1  0.500000  0.414999  0.850091  1
  Pt  Pt23  1  0.000000  0.584995  0.654510  1
