# generated using pymatgen
data_Dy4V3FeB16
_symmetry_space_group_name_H-M   'P 1'
_cell_length_a   3.43912900
_cell_length_b   5.98024801
_cell_length_c   11.56048602
_cell_angle_alpha   90.00077218
_cell_angle_beta   90.00000000
_cell_angle_gamma   90.00000000
_symmetry_Int_Tables_number   1
_chemical_formula_structural   Dy4V3FeB16
_chemical_formula_sum   'Dy4 V3 Fe1 B16'
_cell_volume   237.76271668
_cell_formula_units_Z   1
loop_
 _symmetry_equiv_pos_site_id
 _symmetry_equiv_pos_as_xyz
  1  'x, y, z'
loop_
 _atom_site_type_symbol
 _atom_site_label
 _atom_site_symmetry_multiplicity
 _atom_site_fract_x
 _atom_site_fract_y
 _atom_site_fract_z
 _atom_site_occupancy
  Dy  Dy0  1  0.500000  0.375742  0.151288  1
  Dy  Dy1  1  0.500000  0.626042  0.849029  1
  Dy  Dy2  1  0.500000  0.124445  0.650328  1
  Dy  Dy3  1  0.500000  0.875637  0.348994  1
  V  V4  1  0.500000  0.373085  0.414206  1
  V  V5  1  0.500000  0.626838  0.582673  1
  V  V6  1  0.500000  0.127007  0.920088  1
  Fe  Fe7  1  0.500000  0.873768  0.081777  1
  B  B8  1  0.000000  0.108882  0.049823  1
  B  B9  1  0.000000  0.883512  0.955845  1
  B  B10  1  0.000000  0.385188  0.546234  1
  B  B11  1  0.000000  0.614266  0.452017  1
  B  B12  1  0.000000  0.135136  0.466700  1
  B  B13  1  0.000000  0.864889  0.532485  1
  B  B14  1  0.000000  0.364641  0.969903  1
  B  B15  1  0.000000  0.638727  0.033221  1
  B  B16  1  0.000000  0.021096  0.190792  1
  B  B17  1  0.000000  0.975450  0.809289  1
  B  B18  1  0.000000  0.474740  0.692534  1
  B  B19  1  0.000000  0.527182  0.305874  1
  B  B20  1  0.000000  0.213430  0.312425  1
  B  B21  1  0.000000  0.785582  0.686407  1
  B  B22  1  0.000000  0.283849  0.815707  1
  B  B23  1  0.000000  0.720866  0.182359  1
