# generated using pymatgen
data_Cs9K5Ta2(In3As5)2
_symmetry_space_group_name_H-M   'P 1'
_cell_length_a   8.66332169
_cell_length_b   9.62332324
_cell_length_c   15.07073282
_cell_angle_alpha   84.74804908
_cell_angle_beta   84.20280025
_cell_angle_gamma   88.70729481
_symmetry_Int_Tables_number   1
_chemical_formula_structural   Cs9K5Ta2(In3As5)2
_chemical_formula_sum   'Cs9 K5 Ta2 In6 As10'
_cell_volume   1244.66002167
_cell_formula_units_Z   1
loop_
 _symmetry_equiv_pos_site_id
 _symmetry_equiv_pos_as_xyz
  1  'x, y, z'
loop_
 _atom_site_type_symbol
 _atom_site_label
 _atom_site_symmetry_multiplicity
 _atom_site_fract_x
 _atom_site_fract_y
 _atom_site_fract_z
 _atom_site_occupancy
  Cs  Cs0  1  0.253859  0.494789  0.026217  1
  Cs  Cs1  1  0.690180  0.078309  0.888290  1
  Cs  Cs2  1  0.310527  0.922912  0.110914  1
  Cs  Cs3  1  0.688395  0.661057  0.398568  1
  Cs  Cs4  1  0.314852  0.340040  0.601524  1
  Cs  Cs5  1  0.754260  0.984986  0.534566  1
  Cs  Cs6  1  0.244450  0.014352  0.465630  1
  Cs  Cs7  1  0.825894  0.363767  0.645759  1
  Cs  Cs8  1  0.177029  0.635785  0.354598  1
  K  K9  1  0.815934  0.806722  0.138372  1
  K  K10  1  0.187281  0.191777  0.859243  1
  K  K11  1  0.272053  0.260704  0.247501  1
  K  K12  1  0.728415  0.735433  0.755365  1
  K  K13  1  0.734927  0.494751  0.977482  1
  Ta  Ta14  1  0.651593  0.394876  0.222953  1
  Ta  Ta15  1  0.350131  0.608236  0.776115  1
  In  In16  1  0.910886  0.274350  0.370518  1
  In  In17  1  0.086827  0.724586  0.630335  1
  In  In18  1  0.944695  0.186699  0.127395  1
  In  In19  1  0.053727  0.811695  0.873200  1
  In  In20  1  0.633463  0.043726  0.292330  1
  In  In21  1  0.365764  0.958162  0.704644  1
  As  As22  1  0.498109  0.601505  0.184887  1
  As  As23  1  0.511402  0.406346  0.815147  1
  As  As24  1  0.934046  0.454686  0.207538  1
  As  As25  1  0.067767  0.543242  0.794743  1
  As  As26  1  0.579617  0.294659  0.383323  1
  As  As27  1  0.418094  0.706460  0.615222  1
  As  As28  1  0.616098  0.202192  0.122497  1
  As  As29  1  0.382214  0.805017  0.874027  1
  As  As30  1  0.971016  0.003201  0.292309  1
  As  As31  1  0.026496  0.994978  0.708789  1
