# generated using pymatgen
data_Zr6Zn17Si(Ag2Au)2
_symmetry_space_group_name_H-M   'P 1'
_cell_length_a   8.89487571
_cell_length_b   8.90461058
_cell_length_c   8.90462687
_cell_angle_alpha   60.03879177
_cell_angle_beta   60.05492672
_cell_angle_gamma   60.05490342
_symmetry_Int_Tables_number   1
_chemical_formula_structural   Zr6Zn17Si(Ag2Au)2
_chemical_formula_sum   'Zr6 Zn17 Si1 Ag4 Au2'
_cell_volume   499.27853857
_cell_formula_units_Z   1
loop_
 _symmetry_equiv_pos_site_id
 _symmetry_equiv_pos_as_xyz
  1  'x, y, z'
loop_
 _atom_site_type_symbol
 _atom_site_label
 _atom_site_symmetry_multiplicity
 _atom_site_fract_x
 _atom_site_fract_y
 _atom_site_fract_z
 _atom_site_occupancy
  Zr  Zr0  1  0.709541  0.290472  0.290472  1
  Zr  Zr1  1  0.295028  0.704942  0.704942  1
  Zr  Zr2  1  0.289997  0.707196  0.295301  1
  Zr  Zr3  1  0.707406  0.295140  0.707301  1
  Zr  Zr4  1  0.289996  0.295301  0.707196  1
  Zr  Zr5  1  0.707406  0.707301  0.295140  1
  Zn  Zn6  1  0.632586  0.121969  0.121970  1
  Zn  Zn7  1  0.366718  0.877843  0.877843  1
  Zn  Zn8  1  0.500305  0.999823  0.999823  1
  Zn  Zn9  1  0.001008  0.499193  0.499193  1
  Zn  Zn10  1  0.999746  0.500488  0.000653  1
  Zn  Zn11  1  0.498811  0.000744  0.500654  1
  Zn  Zn12  1  0.999746  0.000654  0.500488  1
  Zn  Zn13  1  0.498811  0.500654  0.000744  1
  Zn  Zn14  1  0.337648  0.336106  0.336106  1
  Zn  Zn15  1  0.662527  0.664416  0.664416  1
  Zn  Zn16  1  0.337345  0.336053  0.990534  1
  Zn  Zn17  1  0.337345  0.990534  0.336053  1
  Zn  Zn18  1  0.661827  0.663845  0.010982  1
  Zn  Zn19  1  0.661826  0.010983  0.663844  1
  Zn  Zn20  1  0.991455  0.336184  0.336183  1
  Zn  Zn21  1  0.007266  0.664383  0.664383  1
  Zn  Zn22  1  0.000306  0.999982  0.999982  1
  Si  Si23  1  0.502072  0.497916  0.497915  1
  Ag  Ag24  1  0.124460  0.119944  0.119944  1
  Ag  Ag25  1  0.877602  0.879644  0.879643  1
  Ag  Ag26  1  0.123016  0.118441  0.637492  1
  Ag  Ag27  1  0.123016  0.637492  0.118441  1
  Au  Au28  1  0.877591  0.880289  0.362071  1
  Au  Au29  1  0.877591  0.362070  0.880289  1
