# generated using pymatgen
data_La5Pr5Tl6
_symmetry_space_group_name_H-M   'P 1'
_cell_length_a   9.58554918
_cell_length_b   9.58554841
_cell_length_c   9.61001619
_cell_angle_alpha   96.39737181
_cell_angle_beta   96.29538356
_cell_angle_gamma   141.11048570
_symmetry_Int_Tables_number   1
_chemical_formula_structural   La5Pr5Tl6
_chemical_formula_sum   'La5 Pr5 Tl6'
_cell_volume   522.90844666
_cell_formula_units_Z   1
loop_
 _symmetry_equiv_pos_site_id
 _symmetry_equiv_pos_as_xyz
  1  'x, y, z'
loop_
 _atom_site_type_symbol
 _atom_site_label
 _atom_site_symmetry_multiplicity
 _atom_site_fract_x
 _atom_site_fract_y
 _atom_site_fract_z
 _atom_site_occupancy
  La  La0  1  0.586801  0.279595  0.866396  1
  La  La1  1  0.414293  0.720750  0.135043  1
  La  La2  1  0.280730  0.414314  0.695044  1
  La  La3  1  0.914572  0.780215  0.694787  1
  La  La4  1  0.780201  0.086565  0.866765  1
  Pr  Pr5  1  0.249265  0.749547  0.499189  1
  Pr  Pr6  1  0.749644  0.249924  0.499189  1
  Pr  Pr7  1  0.085927  0.218308  0.304236  1
  Pr  Pr8  1  0.718791  0.585407  0.304199  1
  Pr  Pr9  1  0.219190  0.914796  0.133985  1
  Tl  Tl10  1  0.337609  0.158736  0.496345  1
  Tl  Tl11  1  0.160087  0.661031  0.821118  1
  Tl  Tl12  1  0.752222  0.751086  0.002490  1
  Tl  Tl13  1  0.839631  0.341064  0.180695  1
  Tl  Tl14  1  0.659633  0.838393  0.498026  1
  Tl  Tl15  1  0.251403  0.250267  0.002490  1
