# generated using pymatgen
data_Rb3AsIrBr9
_symmetry_space_group_name_H-M   'P 1'
_cell_length_a   7.58689400
_cell_length_b   7.58689405
_cell_length_c   19.65996600
_cell_angle_alpha   90.00000000
_cell_angle_beta   90.00000000
_cell_angle_gamma   119.99999977
_symmetry_Int_Tables_number   1
_chemical_formula_structural   Rb3AsIrBr9
_chemical_formula_sum   'Rb6 As2 Ir2 Br18'
_cell_volume   980.03465005
_cell_formula_units_Z   2
loop_
 _symmetry_equiv_pos_site_id
 _symmetry_equiv_pos_as_xyz
  1  'x, y, z'
loop_
 _atom_site_type_symbol
 _atom_site_label
 _atom_site_symmetry_multiplicity
 _atom_site_fract_x
 _atom_site_fract_y
 _atom_site_fract_z
 _atom_site_occupancy
  Rb  Rb0  1  0.333333  0.666667  0.067070  1
  Rb  Rb1  1  0.666667  0.333333  0.932930  1
  Rb  Rb2  1  0.666667  0.333333  0.561351  1
  Rb  Rb3  1  0.333333  0.666667  0.438649  1
  Rb  Rb4  1  0.000000  0.000000  0.273052  1
  Rb  Rb5  1  0.000000  0.000000  0.726948  1
  As  As6  1  0.666667  0.333333  0.156991  1
  As  As7  1  0.333333  0.666667  0.843009  1
  Ir  Ir8  1  0.333333  0.666667  0.665235  1
  Ir  Ir9  1  0.666667  0.333333  0.334765  1
  Br  Br10  1  0.178398  0.356796  0.591508  1
  Br  Br11  1  0.821602  0.643204  0.408492  1
  Br  Br12  1  0.643204  0.821602  0.591508  1
  Br  Br13  1  0.829368  0.658734  0.086747  1
  Br  Br14  1  0.356796  0.178398  0.408492  1
  Br  Br15  1  0.170632  0.341266  0.913253  1
  Br  Br16  1  0.178398  0.821602  0.591508  1
  Br  Br17  1  0.341266  0.170632  0.086747  1
  Br  Br18  1  0.821602  0.178398  0.408492  1
  Br  Br19  1  0.658734  0.829368  0.913253  1
  Br  Br20  1  0.829368  0.170632  0.086747  1
  Br  Br21  1  0.170632  0.829368  0.913253  1
  Br  Br22  1  0.510216  0.020431  0.258029  1
  Br  Br23  1  0.489784  0.979569  0.741971  1
  Br  Br24  1  0.979569  0.489784  0.258029  1
  Br  Br25  1  0.020431  0.510216  0.741971  1
  Br  Br26  1  0.510216  0.489784  0.258029  1
  Br  Br27  1  0.489784  0.510216  0.741971  1
