# generated using pymatgen
data_Tm8Ta11Ge16Mo
_symmetry_space_group_name_H-M   'P 1'
_cell_length_a   6.94599914
_cell_length_b   7.10757315
_cell_length_c   13.46827500
_cell_angle_alpha   90.00000000
_cell_angle_beta   90.00000000
_cell_angle_gamma   89.97682653
_symmetry_Int_Tables_number   1
_chemical_formula_structural   Tm8Ta11Ge16Mo
_chemical_formula_sum   'Tm8 Ta11 Ge16 Mo1'
_cell_volume   664.91786693
_cell_formula_units_Z   1
loop_
 _symmetry_equiv_pos_site_id
 _symmetry_equiv_pos_as_xyz
  1  'x, y, z'
loop_
 _atom_site_type_symbol
 _atom_site_label
 _atom_site_symmetry_multiplicity
 _atom_site_fract_x
 _atom_site_fract_y
 _atom_site_fract_z
 _atom_site_occupancy
  Tm  Tm0  1  0.493494  0.674213  0.593653  1
  Tm  Tm1  1  0.993251  0.825630  0.906367  1
  Tm  Tm2  1  0.506399  0.325646  0.093744  1
  Tm  Tm3  1  0.006287  0.174157  0.406197  1
  Tm  Tm4  1  0.506399  0.325646  0.406256  1
  Tm  Tm5  1  0.006287  0.174157  0.093803  1
  Tm  Tm6  1  0.493494  0.674213  0.906347  1
  Tm  Tm7  1  0.993251  0.825630  0.593633  1
  Ta  Ta8  1  0.659505  0.168560  0.626278  1
  Ta  Ta9  1  0.158431  0.332291  0.873509  1
  Ta  Ta10  1  0.340885  0.831483  0.126079  1
  Ta  Ta11  1  0.840740  0.668519  0.374134  1
  Ta  Ta12  1  0.340885  0.831483  0.373921  1
  Ta  Ta13  1  0.840740  0.668519  0.125866  1
  Ta  Ta14  1  0.659505  0.168560  0.873722  1
  Ta  Ta15  1  0.158431  0.332291  0.626491  1
  Ta  Ta16  1  0.334389  0.013312  0.750000  1
  Ta  Ta17  1  0.164434  0.512952  0.250000  1
  Ta  Ta18  1  0.664850  0.987266  0.250000  1
  Ge  Ge19  1  0.678626  0.962129  0.458061  1
  Ge  Ge20  1  0.178482  0.537982  0.041754  1
  Ge  Ge21  1  0.321901  0.038170  0.958157  1
  Ge  Ge22  1  0.821995  0.461211  0.542130  1
  Ge  Ge23  1  0.321901  0.038170  0.541843  1
  Ge  Ge24  1  0.821995  0.461211  0.957870  1
  Ge  Ge25  1  0.678626  0.962129  0.041939  1
  Ge  Ge26  1  0.178482  0.537982  0.458246  1
  Ge  Ge27  1  0.461932  0.381195  0.750000  1
  Ge  Ge28  1  0.959042  0.120037  0.750000  1
  Ge  Ge29  1  0.540661  0.619131  0.250000  1
  Ge  Ge30  1  0.040250  0.881334  0.250000  1
  Ge  Ge31  1  0.693521  0.854323  0.750000  1
  Ge  Ge32  1  0.192267  0.643598  0.750000  1
  Ge  Ge33  1  0.306436  0.144606  0.250000  1
  Ge  Ge34  1  0.806304  0.355468  0.250000  1
  Mo  Mo35  1  0.835923  0.486797  0.750000  1
