# generated using pymatgen
data_Nd2DyCo6Cu7B2
_symmetry_space_group_name_H-M   'P 1'
_cell_length_a   5.04754114
_cell_length_b   5.04632863
_cell_length_c   11.06380711
_cell_angle_alpha   89.99715923
_cell_angle_beta   90.00566882
_cell_angle_gamma   120.00794204
_symmetry_Int_Tables_number   1
_chemical_formula_structural   Nd2DyCo6Cu7B2
_chemical_formula_sum   'Nd2 Dy1 Co6 Cu7 B2'
_cell_volume   244.03710282
_cell_formula_units_Z   1
loop_
 _symmetry_equiv_pos_site_id
 _symmetry_equiv_pos_as_xyz
  1  'x, y, z'
loop_
 _atom_site_type_symbol
 _atom_site_label
 _atom_site_symmetry_multiplicity
 _atom_site_fract_x
 _atom_site_fract_y
 _atom_site_fract_z
 _atom_site_occupancy
  Nd  Nd0  1  0.000072  0.000000  0.303663  1
  Nd  Nd1  1  0.999792  0.000000  0.696577  1
  Dy  Dy2  1  0.000062  0.000000  0.999978  1
  Co  Co3  1  0.500111  0.000000  0.127921  1
  Co  Co4  1  0.500108  0.500013  0.127838  1
  Co  Co5  1  0.000094  0.499987  0.127838  1
  Co  Co6  1  0.499980  0.000000  0.872045  1
  Co  Co7  1  0.499984  0.499996  0.872128  1
  Co  Co8  1  0.999989  0.500004  0.872128  1
  Cu  Cu9  1  0.499931  0.000000  0.500038  1
  Cu  Cu10  1  0.499933  0.499999  0.500032  1
  Cu  Cu11  1  0.999934  0.500001  0.500032  1
  Cu  Cu12  1  0.333435  0.666714  0.313440  1
  Cu  Cu13  1  0.666720  0.333286  0.313440  1
  Cu  Cu14  1  0.666519  0.333358  0.686523  1
  Cu  Cu15  1  0.333160  0.666642  0.686523  1
  B  B16  1  0.333466  0.666854  0.999926  1
  B  B17  1  0.666611  0.333146  0.999926  1
