# generated using pymatgen
data_Dy12Ni4SnRh
_symmetry_space_group_name_H-M   'P 1'
_cell_length_a   8.32125377
_cell_length_b   8.32125338
_cell_length_c   8.32125420
_cell_angle_alpha   111.56761144
_cell_angle_beta   109.87576273
_cell_angle_gamma   107.00286189
_symmetry_Int_Tables_number   1
_chemical_formula_structural   Dy12Ni4SnRh
_chemical_formula_sum   'Dy12 Ni4 Sn1 Rh1'
_cell_volume   442.83660599
_cell_formula_units_Z   1
loop_
 _symmetry_equiv_pos_site_id
 _symmetry_equiv_pos_as_xyz
  1  'x, y, z'
loop_
 _atom_site_type_symbol
 _atom_site_label
 _atom_site_symmetry_multiplicity
 _atom_site_fract_x
 _atom_site_fract_y
 _atom_site_fract_z
 _atom_site_occupancy
  Dy  Dy0  1  0.019111  0.710966  0.308145  1
  Dy  Dy1  1  0.980889  0.289034  0.691855  1
  Dy  Dy2  1  0.597179  0.289034  0.308145  1
  Dy  Dy3  1  0.402821  0.710966  0.691855  1
  Dy  Dy4  1  0.679789  0.874641  0.194852  1
  Dy  Dy5  1  0.320211  0.515062  0.194852  1
  Dy  Dy6  1  0.320211  0.125359  0.805148  1
  Dy  Dy7  1  0.679789  0.484938  0.805148  1
  Dy  Dy8  1  0.183104  0.203300  0.386405  1
  Dy  Dy9  1  0.816896  0.203300  0.020194  1
  Dy  Dy10  1  0.183104  0.796700  0.979806  1
  Dy  Dy11  1  0.816896  0.796700  0.613595  1
  Ni  Ni12  1  0.633765  0.500000  0.133765  1
  Ni  Ni13  1  0.366235  0.500000  0.866235  1
  Ni  Ni14  1  0.875558  0.875558  0.000000  1
  Ni  Ni15  1  0.124442  0.124442  0.000000  1
  Sn  Sn16  1  0.500000  0.000000  0.500000  1
  Rh  Rh17  1  0.000000  0.500000  0.500000  1
