# generated using pymatgen
data_SmDy2Ho3(Si3Ru)8
_symmetry_space_group_name_H-M   'P 1'
_cell_length_a   10.12465744
_cell_length_b   10.12465663
_cell_length_c   8.14835661
_cell_angle_alpha   90.08856487
_cell_angle_beta   89.91142862
_cell_angle_gamma   132.53358575
_symmetry_Int_Tables_number   1
_chemical_formula_structural   SmDy2Ho3(Si3Ru)8
_chemical_formula_sum   'Sm1 Dy2 Ho3 Si24 Ru8'
_cell_volume   615.49924053
_cell_formula_units_Z   1
loop_
 _symmetry_equiv_pos_site_id
 _symmetry_equiv_pos_as_xyz
  1  'x, y, z'
loop_
 _atom_site_type_symbol
 _atom_site_label
 _atom_site_symmetry_multiplicity
 _atom_site_fract_x
 _atom_site_fract_y
 _atom_site_fract_z
 _atom_site_occupancy
  Sm  Sm0  1  0.502794  0.002794  0.750000  1
  Dy  Dy1  1  0.497328  0.997328  0.250000  1
  Dy  Dy2  1  0.002786  0.502786  0.750000  1
  Ho  Ho3  1  0.500022  0.500059  0.499947  1
  Ho  Ho4  1  0.000059  0.000022  0.000053  1
  Ho  Ho5  1  0.997838  0.497838  0.250000  1
  Si  Si6  1  0.795452  0.206356  0.498886  1
  Si  Si7  1  0.293874  0.704652  0.001223  1
  Si  Si8  1  0.204652  0.793874  0.498777  1
  Si  Si9  1  0.706356  0.295452  0.001114  1
  Si  Si10  1  0.332504  0.332279  0.832997  1
  Si  Si11  1  0.667615  0.667683  0.166811  1
  Si  Si12  1  0.167683  0.167615  0.333189  1
  Si  Si13  1  0.832279  0.832504  0.667003  1
  Si  Si14  1  0.121464  0.887163  0.728302  1
  Si  Si15  1  0.113083  0.879243  0.271739  1
  Si  Si16  1  0.611211  0.377313  0.227969  1
  Si  Si17  1  0.622385  0.388004  0.771024  1
  Si  Si18  1  0.877313  0.111211  0.272031  1
  Si  Si19  1  0.888004  0.122385  0.728976  1
  Si  Si20  1  0.387163  0.621464  0.771698  1
  Si  Si21  1  0.379243  0.613083  0.228261  1
  Si  Si22  1  0.345706  0.112127  0.503674  1
  Si  Si23  1  0.888637  0.655921  0.495494  1
  Si  Si24  1  0.387823  0.153736  0.006196  1
  Si  Si25  1  0.844186  0.611518  0.995054  1
  Si  Si26  1  0.653736  0.887823  0.493804  1
  Si  Si27  1  0.111518  0.344186  0.504946  1
  Si  Si28  1  0.612127  0.845706  0.996326  1
  Si  Si29  1  0.155921  0.388637  0.004506  1
  Ru  Ru30  1  0.671525  0.334002  0.497897  1
  Ru  Ru31  1  0.165810  0.828402  0.001004  1
  Ru  Ru32  1  0.328402  0.665810  0.498996  1
  Ru  Ru33  1  0.834002  0.171525  0.002103  1
  Ru  Ru34  1  0.126097  0.125773  0.627177  1
  Ru  Ru35  1  0.873792  0.873832  0.373184  1
  Ru  Ru36  1  0.373832  0.373792  0.126816  1
  Ru  Ru37  1  0.625773  0.626097  0.872823  1
