# generated using pymatgen
data_HfPa2Ga5
_symmetry_space_group_name_H-M   'P 1'
_cell_length_a   5.93328200
_cell_length_b   5.93328335
_cell_length_c   9.37189700
_cell_angle_alpha   90.00000000
_cell_angle_beta   90.00000000
_cell_angle_gamma   103.02224707
_symmetry_Int_Tables_number   1
_chemical_formula_structural   HfPa2Ga5
_chemical_formula_sum   'Hf2 Pa4 Ga10'
_cell_volume   321.44194919
_cell_formula_units_Z   2
loop_
 _symmetry_equiv_pos_site_id
 _symmetry_equiv_pos_as_xyz
  1  'x, y, z'
loop_
 _atom_site_type_symbol
 _atom_site_label
 _atom_site_symmetry_multiplicity
 _atom_site_fract_x
 _atom_site_fract_y
 _atom_site_fract_z
 _atom_site_occupancy
  Hf  Hf0  1  0.643852  0.643852  0.250000  1
  Hf  Hf1  1  0.356148  0.356148  0.750000  1
  Pa  Pa2  1  0.794059  0.205941  0.000000  1
  Pa  Pa3  1  0.205941  0.794059  0.000000  1
  Pa  Pa4  1  0.205941  0.794059  0.500000  1
  Pa  Pa5  1  0.794059  0.205941  0.500000  1
  Ga  Ga6  1  0.075672  0.484857  0.250000  1
  Ga  Ga7  1  0.924328  0.515143  0.750000  1
  Ga  Ga8  1  0.484857  0.075672  0.250000  1
  Ga  Ga9  1  0.515143  0.924328  0.750000  1
  Ga  Ga10  1  0.020895  0.020895  0.250000  1
  Ga  Ga11  1  0.979105  0.979105  0.750000  1
  Ga  Ga12  1  0.319207  0.319207  0.050627  1
  Ga  Ga13  1  0.680793  0.680793  0.949373  1
  Ga  Ga14  1  0.680793  0.680793  0.550627  1
  Ga  Ga15  1  0.319207  0.319207  0.449373  1
