# generated using pymatgen
data_Dy7Tm13(Cd3Ru)2
_symmetry_space_group_name_H-M   'P 1'
_cell_length_a   9.50592342
_cell_length_b   9.50592375
_cell_length_c   9.73634939
_cell_angle_alpha   89.97204578
_cell_angle_beta   90.02795176
_cell_angle_gamma   119.98028748
_symmetry_Int_Tables_number   1
_chemical_formula_structural   Dy7Tm13(Cd3Ru)2
_chemical_formula_sum   'Dy7 Tm13 Cd6 Ru2'
_cell_volume   762.08178796
_cell_formula_units_Z   1
loop_
 _symmetry_equiv_pos_site_id
 _symmetry_equiv_pos_as_xyz
  1  'x, y, z'
loop_
 _atom_site_type_symbol
 _atom_site_label
 _atom_site_symmetry_multiplicity
 _atom_site_fract_x
 _atom_site_fract_y
 _atom_site_fract_z
 _atom_site_occupancy
  Dy  Dy0  1  0.209947  0.790053  0.440017  1
  Dy  Dy1  1  0.540117  0.459883  0.250069  1
  Dy  Dy2  1  0.540822  0.080907  0.249594  1
  Dy  Dy3  1  0.919093  0.459178  0.249594  1
  Dy  Dy4  1  0.459772  0.540228  0.750120  1
  Dy  Dy5  1  0.460257  0.919949  0.750467  1
  Dy  Dy6  1  0.080051  0.539743  0.750467  1
  Tm  Tm7  1  0.999671  0.000329  0.500134  1
  Tm  Tm8  1  0.999941  0.000059  0.000124  1
  Tm  Tm9  1  0.210141  0.419517  0.440183  1
  Tm  Tm10  1  0.580483  0.789859  0.440183  1
  Tm  Tm11  1  0.789730  0.210270  0.559901  1
  Tm  Tm12  1  0.789366  0.579442  0.560063  1
  Tm  Tm13  1  0.420558  0.210634  0.560063  1
  Tm  Tm14  1  0.789774  0.210226  0.940122  1
  Tm  Tm15  1  0.789807  0.579621  0.940140  1
  Tm  Tm16  1  0.420379  0.210193  0.940140  1
  Tm  Tm17  1  0.210067  0.789933  0.059256  1
  Tm  Tm18  1  0.210400  0.420359  0.059851  1
  Tm  Tm19  1  0.579641  0.789600  0.059851  1
  Cd  Cd20  1  0.886304  0.113696  0.250022  1
  Cd  Cd21  1  0.885830  0.772438  0.249837  1
  Cd  Cd22  1  0.227562  0.114170  0.249837  1
  Cd  Cd23  1  0.113568  0.886432  0.750377  1
  Cd  Cd24  1  0.113914  0.227583  0.750127  1
  Cd  Cd25  1  0.772417  0.886086  0.750127  1
  Ru  Ru26  1  0.333657  0.666343  0.249388  1
  Ru  Ru27  1  0.666729  0.333271  0.749948  1
