# generated using pymatgen
data_Cs4Bi4PdPt
_symmetry_space_group_name_H-M   'P 1'
_cell_length_a   8.60234097
_cell_length_b   8.60234066
_cell_length_c   7.18486776
_cell_angle_alpha   89.87190709
_cell_angle_beta   90.12809467
_cell_angle_gamma   124.81396237
_symmetry_Int_Tables_number   1
_chemical_formula_structural   Cs4Bi4PdPt
_chemical_formula_sum   'Cs4 Bi4 Pd1 Pt1'
_cell_volume   436.51501947
_cell_formula_units_Z   1
loop_
 _symmetry_equiv_pos_site_id
 _symmetry_equiv_pos_as_xyz
  1  'x, y, z'
loop_
 _atom_site_type_symbol
 _atom_site_label
 _atom_site_symmetry_multiplicity
 _atom_site_fract_x
 _atom_site_fract_y
 _atom_site_fract_z
 _atom_site_occupancy
  Cs  Cs0  1  0.602691  0.397309  0.750743  1
  Cs  Cs1  1  0.397309  0.602691  0.249257  1
  Cs  Cs2  1  0.194260  0.805740  0.750569  1
  Cs  Cs3  1  0.805740  0.194260  0.249431  1
  Bi  Bi4  1  0.712472  0.911523  0.750307  1
  Bi  Bi5  1  0.911523  0.712472  0.249693  1
  Bi  Bi6  1  0.287528  0.088477  0.249693  1
  Bi  Bi7  1  0.088477  0.287528  0.750307  1
  Pd  Pd8  1  0.000000  0.000000  0.500000  1
  Pt  Pt9  1  0.000000  0.000000  0.000000  1
