# generated using pymatgen
data_Ho2Tm10OsRh3
_symmetry_space_group_name_H-M   'P 1'
_cell_length_a   6.30903101
_cell_length_b   7.18094805
_cell_length_c   9.09555900
_cell_angle_alpha   90.00000000
_cell_angle_beta   90.00000000
_cell_angle_gamma   90.14174475
_symmetry_Int_Tables_number   1
_chemical_formula_structural   Ho2Tm10OsRh3
_chemical_formula_sum   'Ho2 Tm10 Os1 Rh3'
_cell_volume   412.07143778
_cell_formula_units_Z   1
loop_
 _symmetry_equiv_pos_site_id
 _symmetry_equiv_pos_as_xyz
  1  'x, y, z'
loop_
 _atom_site_type_symbol
 _atom_site_label
 _atom_site_symmetry_multiplicity
 _atom_site_fract_x
 _atom_site_fract_y
 _atom_site_fract_z
 _atom_site_occupancy
  Ho  Ho0  1  0.873299  0.536672  0.250000  1
  Ho  Ho1  1  0.630350  0.035082  0.250000  1
  Tm  Tm2  1  0.332698  0.677115  0.058107  1
  Tm  Tm3  1  0.171436  0.178429  0.437251  1
  Tm  Tm4  1  0.672153  0.323790  0.564064  1
  Tm  Tm5  1  0.824725  0.819250  0.934910  1
  Tm  Tm6  1  0.672153  0.323790  0.935936  1
  Tm  Tm7  1  0.824725  0.819250  0.565090  1
  Tm  Tm8  1  0.332698  0.677115  0.441893  1
  Tm  Tm9  1  0.171436  0.178429  0.062749  1
  Tm  Tm10  1  0.127793  0.464347  0.750000  1
  Tm  Tm11  1  0.371866  0.966016  0.750000  1
  Os  Os12  1  0.536512  0.614971  0.750000  1
  Rh  Rh13  1  0.046925  0.886305  0.250000  1
  Rh  Rh14  1  0.455343  0.385400  0.250000  1
  Rh  Rh15  1  0.955890  0.114039  0.750000  1
