# generated using pymatgen
data_Tb11Y5(In3Os)2
_symmetry_space_group_name_H-M   'P 1'
_cell_length_a   10.43464500
_cell_length_b   10.44348247
_cell_length_c   7.11871685
_cell_angle_alpha   90.08842318
_cell_angle_beta   90.00000000
_cell_angle_gamma   119.97201443
_symmetry_Int_Tables_number   1
_chemical_formula_structural   Tb11Y5(In3Os)2
_chemical_formula_sum   'Tb11 Y5 In6 Os2'
_cell_volume   672.01208733
_cell_formula_units_Z   1
loop_
 _symmetry_equiv_pos_site_id
 _symmetry_equiv_pos_as_xyz
  1  'x, y, z'
loop_
 _atom_site_type_symbol
 _atom_site_label
 _atom_site_symmetry_multiplicity
 _atom_site_fract_x
 _atom_site_fract_y
 _atom_site_fract_z
 _atom_site_occupancy
  Tb  Tb0  1  0.466147  0.534203  0.480841  1
  Tb  Tb1  1  0.068056  0.534203  0.480841  1
  Tb  Tb2  1  0.466199  0.932398  0.480628  1
  Tb  Tb3  1  0.534027  0.466064  0.980812  1
  Tb  Tb4  1  0.932037  0.466064  0.980812  1
  Tb  Tb5  1  0.533918  0.067835  0.980879  1
  Tb  Tb6  1  0.822865  0.177169  0.275594  1
  Tb  Tb7  1  0.354303  0.177169  0.275594  1
  Tb  Tb8  1  0.822851  0.645703  0.275793  1
  Tb  Tb9  1  0.177162  0.822866  0.775750  1
  Tb  Tb10  1  0.645705  0.822866  0.775750  1
  Y  Y11  1  0.176850  0.353699  0.775531  1
  Y  Y12  1  0.333235  0.666471  0.104120  1
  Y  Y13  1  0.666714  0.333426  0.604609  1
  Y  Y14  1  0.999891  0.999781  0.495510  1
  Y  Y15  1  0.999733  0.999466  0.995576  1
  In  In16  1  0.162973  0.837011  0.232887  1
  In  In17  1  0.674038  0.837011  0.232887  1
  In  In18  1  0.162984  0.325968  0.232738  1
  In  In19  1  0.837356  0.163028  0.733205  1
  In  In20  1  0.325672  0.163028  0.733205  1
  In  In21  1  0.836947  0.673894  0.732897  1
  Os  Os22  1  0.333735  0.667470  0.703872  1
  Os  Os23  1  0.666605  0.333209  0.204229  1
