# generated using pymatgen
data_Lu3U2O10
_symmetry_space_group_name_H-M   'P 1'
_cell_length_a   6.36321189
_cell_length_b   6.36321139
_cell_length_c   8.24634105
_cell_angle_alpha   51.46589226
_cell_angle_beta   51.46589290
_cell_angle_gamma   48.98338231
_symmetry_Int_Tables_number   1
_chemical_formula_structural   Lu3U2O10
_chemical_formula_sum   'Lu3 U2 O10'
_cell_volume   183.64370916
_cell_formula_units_Z   1
loop_
 _symmetry_equiv_pos_site_id
 _symmetry_equiv_pos_as_xyz
  1  'x, y, z'
loop_
 _atom_site_type_symbol
 _atom_site_label
 _atom_site_symmetry_multiplicity
 _atom_site_fract_x
 _atom_site_fract_y
 _atom_site_fract_z
 _atom_site_occupancy
  Lu  Lu0  1  0.103160  0.103160  0.595657  1
  Lu  Lu1  1  0.500000  0.500000  0.000000  1
  Lu  Lu2  1  0.896840  0.896840  0.404343  1
  U  U3  1  0.301463  0.301463  0.794581  1
  U  U4  1  0.698537  0.698537  0.205419  1
  O  O5  1  0.551881  0.043396  0.293394  1
  O  O6  1  0.956604  0.448119  0.706606  1
  O  O7  1  0.043396  0.551881  0.293394  1
  O  O8  1  0.352842  0.852169  0.106219  1
  O  O9  1  0.448119  0.956604  0.706606  1
  O  O10  1  0.740056  0.259944  0.500000  1
  O  O11  1  0.852169  0.352842  0.106219  1
  O  O12  1  0.147831  0.647158  0.893781  1
  O  O13  1  0.259944  0.740056  0.500000  1
  O  O14  1  0.647158  0.147831  0.893781  1
