# generated using pymatgen
data_Y2HoEr2Re2C7
_symmetry_space_group_name_H-M   'P 1'
_cell_length_a   8.32457006
_cell_length_b   8.29384609
_cell_length_c   3.40889300
_cell_angle_alpha   90.00000000
_cell_angle_beta   90.00000000
_cell_angle_gamma   122.45919884
_symmetry_Int_Tables_number   1
_chemical_formula_structural   Y2HoEr2Re2C7
_chemical_formula_sum   'Y2 Ho1 Er2 Re2 C7'
_cell_volume   198.58992710
_cell_formula_units_Z   1
loop_
 _symmetry_equiv_pos_site_id
 _symmetry_equiv_pos_as_xyz
  1  'x, y, z'
loop_
 _atom_site_type_symbol
 _atom_site_label
 _atom_site_symmetry_multiplicity
 _atom_site_fract_x
 _atom_site_fract_y
 _atom_site_fract_z
 _atom_site_occupancy
  Y  Y0  1  0.499689  0.499589  0.000000  1
  Y  Y1  1  0.924466  0.667754  0.500000  1
  Ho  Ho2  1  0.076329  0.333784  0.500000  1
  Er  Er3  1  0.662211  0.923159  0.500000  1
  Er  Er4  1  0.337747  0.076878  0.500000  1
  Re  Re5  1  0.715719  0.284955  0.000000  1
  Re  Re6  1  0.284745  0.714718  0.000000  1
  C  C7  1  0.626968  0.372345  0.500000  1
  C  C8  1  0.372303  0.626226  0.500000  1
  C  C9  1  0.999857  0.000418  0.000000  1
  C  C10  1  0.171384  0.168005  0.000000  1
  C  C11  1  0.828024  0.833160  0.000000  1
  C  C12  1  0.000508  0.499046  0.000000  1
  C  C13  1  0.500048  0.999964  0.000000  1
