# generated using pymatgen
data_Pr6Tm2Sc12Si15Rh
_symmetry_space_group_name_H-M   'P 1'
_cell_length_a   7.23703831
_cell_length_b   7.45954201
_cell_length_c   14.16367539
_cell_angle_alpha   89.74160918
_cell_angle_beta   89.99500884
_cell_angle_gamma   90.41367332
_symmetry_Int_Tables_number   1
_chemical_formula_structural   Pr6Tm2Sc12Si15Rh
_chemical_formula_sum   'Pr6 Tm2 Sc12 Si15 Rh1'
_cell_volume   764.59818298
_cell_formula_units_Z   1
loop_
 _symmetry_equiv_pos_site_id
 _symmetry_equiv_pos_as_xyz
  1  'x, y, z'
loop_
 _atom_site_type_symbol
 _atom_site_label
 _atom_site_symmetry_multiplicity
 _atom_site_fract_x
 _atom_site_fract_y
 _atom_site_fract_z
 _atom_site_occupancy
  Pr  Pr0  1  0.012207  0.172149  0.099236  1
  Pr  Pr1  1  0.987927  0.827982  0.900649  1
  Pr  Pr2  1  0.486456  0.672948  0.902805  1
  Pr  Pr3  1  0.989663  0.821710  0.594733  1
  Pr  Pr4  1  0.512329  0.329150  0.095748  1
  Pr  Pr5  1  0.012264  0.178844  0.405454  1
  Tm  Tm6  1  0.509145  0.324249  0.402810  1
  Tm  Tm7  1  0.485688  0.669273  0.597892  1
  Sc  Sc8  1  0.163083  0.500219  0.743078  1
  Sc  Sc9  1  0.837888  0.498839  0.253619  1
  Sc  Sc10  1  0.340012  0.997274  0.252493  1
  Sc  Sc11  1  0.661635  0.000196  0.747232  1
  Sc  Sc12  1  0.332348  0.189818  0.620198  1
  Sc  Sc13  1  0.667291  0.822764  0.374961  1
  Sc  Sc14  1  0.172480  0.663009  0.379247  1
  Sc  Sc15  1  0.671266  0.825147  0.128259  1
  Sc  Sc16  1  0.829862  0.328909  0.622074  1
  Sc  Sc17  1  0.328377  0.175909  0.874139  1
  Sc  Sc18  1  0.830956  0.323124  0.873851  1
  Sc  Sc19  1  0.171250  0.675600  0.126745  1
  Si  Si20  1  0.035915  0.124510  0.747787  1
  Si  Si21  1  0.968972  0.873703  0.253530  1
  Si  Si22  1  0.466921  0.618643  0.251204  1
  Si  Si23  1  0.537946  0.379558  0.750372  1
  Si  Si24  1  0.291309  0.883469  0.746741  1
  Si  Si25  1  0.708003  0.123713  0.252504  1
  Si  Si26  1  0.218357  0.377684  0.251934  1
  Si  Si27  1  0.781322  0.619921  0.748578  1
  Si  Si28  1  0.832196  0.534394  0.459221  1
  Si  Si29  1  0.351183  0.962254  0.460883  1
  Si  Si30  1  0.850423  0.538469  0.039442  1
  Si  Si31  1  0.648293  0.034875  0.539172  1
  Si  Si32  1  0.148922  0.462856  0.960862  1
  Si  Si33  1  0.651446  0.036741  0.961200  1
  Si  Si34  1  0.349235  0.962396  0.039549  1
  Rh  Rh35  1  0.157430  0.469704  0.541798  1
