# generated using pymatgen
data_YbDy2Er2(ReO6)2
_symmetry_space_group_name_H-M   'P 1'
_cell_length_a   6.79116198
_cell_length_b   6.79116149
_cell_length_c   7.56949751
_cell_angle_alpha   73.73496251
_cell_angle_beta   73.73496703
_cell_angle_gamma   49.34309109
_symmetry_Int_Tables_number   1
_chemical_formula_structural   YbDy2Er2(ReO6)2
_chemical_formula_sum   'Yb1 Dy2 Er2 Re2 O12'
_cell_volume   251.94574932
_cell_formula_units_Z   1
loop_
 _symmetry_equiv_pos_site_id
 _symmetry_equiv_pos_as_xyz
  1  'x, y, z'
loop_
 _atom_site_type_symbol
 _atom_site_label
 _atom_site_symmetry_multiplicity
 _atom_site_fract_x
 _atom_site_fract_y
 _atom_site_fract_z
 _atom_site_occupancy
  Yb  Yb0  1  0.683049  0.683049  0.179622  1
  Dy  Dy1  1  0.696915  0.696915  0.636043  1
  Dy  Dy2  1  0.302473  0.302473  0.361954  1
  Er  Er3  1  0.315985  0.315985  0.817286  1
  Er  Er4  1  0.004440  0.004440  0.501199  1
  Re  Re5  1  0.783484  0.214866  0.002496  1
  Re  Re6  1  0.214866  0.783484  0.002496  1
  O  O7  1  0.000804  0.000804  0.208144  1
  O  O8  1  0.995795  0.995795  0.797250  1
  O  O9  1  0.585517  0.089887  0.077929  1
  O  O10  1  0.405912  0.917628  0.910042  1
  O  O11  1  0.917628  0.405912  0.910042  1
  O  O12  1  0.089887  0.585517  0.077929  1
  O  O13  1  0.498142  0.498142  0.175739  1
  O  O14  1  0.500558  0.500558  0.823059  1
  O  O15  1  0.401519  0.906363  0.433770  1
  O  O16  1  0.595191  0.101472  0.575615  1
  O  O17  1  0.101472  0.595191  0.575615  1
  O  O18  1  0.906363  0.401519  0.433770  1
