# generated using pymatgen
data_LaYEr4Ta2O14
_symmetry_space_group_name_H-M   'P 1'
_cell_length_a   6.45810026
_cell_length_b   6.45810184
_cell_length_c   7.54173103
_cell_angle_alpha   89.88189525
_cell_angle_beta   90.11810564
_cell_angle_gamma   109.00985164
_symmetry_Int_Tables_number   1
_chemical_formula_structural   LaYEr4Ta2O14
_chemical_formula_sum   'La1 Y1 Er4 Ta2 O14'
_cell_volume   297.38815488
_cell_formula_units_Z   1
loop_
 _symmetry_equiv_pos_site_id
 _symmetry_equiv_pos_as_xyz
  1  'x, y, z'
loop_
 _atom_site_type_symbol
 _atom_site_label
 _atom_site_symmetry_multiplicity
 _atom_site_fract_x
 _atom_site_fract_y
 _atom_site_fract_z
 _atom_site_occupancy
  La  La0  1  0.500000  0.500000  0.500000  1
  Y  Y1  1  0.500000  0.500000  0.000000  1
  Er  Er2  1  0.533485  0.001176  0.753792  1
  Er  Er3  1  0.001176  0.533485  0.246208  1
  Er  Er4  1  0.466515  0.998824  0.246208  1
  Er  Er5  1  0.998824  0.466515  0.753792  1
  Ta  Ta6  1  0.000000  0.000000  0.500000  1
  Ta  Ta7  1  0.000000  0.000000  0.000000  1
  O  O8  1  0.678952  0.932949  0.465821  1
  O  O9  1  0.932949  0.678952  0.534179  1
  O  O10  1  0.679063  0.930099  0.033154  1
  O  O11  1  0.930099  0.679063  0.966846  1
  O  O12  1  0.321048  0.067051  0.534179  1
  O  O13  1  0.067051  0.321048  0.465821  1
  O  O14  1  0.320937  0.069901  0.966846  1
  O  O15  1  0.069901  0.320937  0.033154  1
  O  O16  1  0.933123  0.066877  0.749882  1
  O  O17  1  0.066877  0.933123  0.250118  1
  O  O18  1  0.364970  0.635030  0.760908  1
  O  O19  1  0.635030  0.364970  0.239092  1
  O  O20  1  0.642513  0.357487  0.759444  1
  O  O21  1  0.357487  0.642513  0.240556  1
