# generated using pymatgen
data_SmErTmTaO7
_symmetry_space_group_name_H-M   'P 1'
_cell_length_a   6.44304059
_cell_length_b   6.44304076
_cell_length_c   7.52392300
_cell_angle_alpha   90.00000000
_cell_angle_beta   90.00000000
_cell_angle_gamma   109.23670459
_symmetry_Int_Tables_number   1
_chemical_formula_structural   SmErTmTaO7
_chemical_formula_sum   'Sm2 Er2 Tm2 Ta2 O14'
_cell_volume   294.89962147
_cell_formula_units_Z   2
loop_
 _symmetry_equiv_pos_site_id
 _symmetry_equiv_pos_as_xyz
  1  'x, y, z'
loop_
 _atom_site_type_symbol
 _atom_site_label
 _atom_site_symmetry_multiplicity
 _atom_site_fract_x
 _atom_site_fract_y
 _atom_site_fract_z
 _atom_site_occupancy
  Sm  Sm0  1  0.500784  0.500784  0.500000  1
  Sm  Sm1  1  0.500784  0.500784  0.000000  1
  Er  Er2  1  0.466518  0.998683  0.250000  1
  Er  Er3  1  0.998683  0.466518  0.750000  1
  Tm  Tm4  1  0.532959  0.001627  0.750000  1
  Tm  Tm5  1  0.001627  0.532959  0.250000  1
  Ta  Ta6  1  0.000017  0.000017  0.500000  1
  Ta  Ta7  1  0.000017  0.000017  0.000000  1
  O  O8  1  0.677035  0.929481  0.467925  1
  O  O9  1  0.929481  0.677035  0.532075  1
  O  O10  1  0.677035  0.929481  0.032075  1
  O  O11  1  0.929481  0.677035  0.967925  1
  O  O12  1  0.322114  0.069971  0.534279  1
  O  O13  1  0.069971  0.322114  0.465721  1
  O  O14  1  0.322114  0.069971  0.965721  1
  O  O15  1  0.069971  0.322114  0.034279  1
  O  O16  1  0.932677  0.067121  0.750000  1
  O  O17  1  0.067121  0.932677  0.250000  1
  O  O18  1  0.365674  0.637332  0.750000  1
  O  O19  1  0.637332  0.365674  0.250000  1
  O  O20  1  0.642177  0.356429  0.750000  1
  O  O21  1  0.356429  0.642177  0.250000  1
