# generated using pymatgen
data_LaY7(HgRh)2
_symmetry_space_group_name_H-M   'P 1'
_cell_length_a   9.68198983
_cell_length_b   9.68198992
_cell_length_c   9.67758900
_cell_angle_alpha   60.01503856
_cell_angle_beta   60.01503827
_cell_angle_gamma   60.28210527
_symmetry_Int_Tables_number   1
_chemical_formula_structural   LaY7(HgRh)2
_chemical_formula_sum   'La2 Y14 Hg4 Rh4'
_cell_volume   642.98064625
_cell_formula_units_Z   2
loop_
 _symmetry_equiv_pos_site_id
 _symmetry_equiv_pos_as_xyz
  1  'x, y, z'
loop_
 _atom_site_type_symbol
 _atom_site_label
 _atom_site_symmetry_multiplicity
 _atom_site_fract_x
 _atom_site_fract_y
 _atom_site_fract_z
 _atom_site_occupancy
  La  La0  1  0.599855  0.599855  0.601485  1
  La  La1  1  0.599855  0.599855  0.198807  1
  Y  Y2  1  0.605684  0.187350  0.603483  1
  Y  Y3  1  0.187350  0.605684  0.603483  1
  Y  Y4  1  0.062447  0.437286  0.439710  1
  Y  Y5  1  0.437286  0.062447  0.060557  1
  Y  Y6  1  0.437286  0.062447  0.439710  1
  Y  Y7  1  0.062447  0.437286  0.060557  1
  Y  Y8  1  0.437291  0.437291  0.062709  1
  Y  Y9  1  0.060397  0.060397  0.439603  1
  Y  Y10  1  0.186603  0.814161  0.814171  1
  Y  Y11  1  0.814161  0.186603  0.185064  1
  Y  Y12  1  0.814161  0.186603  0.814171  1
  Y  Y13  1  0.186603  0.814161  0.185064  1
  Y  Y14  1  0.816175  0.816175  0.183825  1
  Y  Y15  1  0.189149  0.189149  0.810851  1
  Hg  Hg16  1  0.837886  0.837886  0.831010  1
  Hg  Hg17  1  0.837886  0.837886  0.493217  1
  Hg  Hg18  1  0.840923  0.490533  0.834271  1
  Hg  Hg19  1  0.490533  0.840923  0.834271  1
  Rh  Rh20  1  0.390781  0.390781  0.396789  1
  Rh  Rh21  1  0.390781  0.390781  0.821650  1
  Rh  Rh22  1  0.389361  0.825098  0.392771  1
  Rh  Rh23  1  0.825098  0.389361  0.392771  1
