# generated using pymatgen
data_LiDy6Er10In3Ir4
_symmetry_space_group_name_H-M   'P 1'
_cell_length_a   9.61375495
_cell_length_b   9.61375504
_cell_length_c   9.61375542
_cell_angle_alpha   59.81671261
_cell_angle_beta   59.81671574
_cell_angle_gamma   59.81671232
_symmetry_Int_Tables_number   1
_chemical_formula_structural   LiDy6Er10In3Ir4
_chemical_formula_sum   'Li1 Dy6 Er10 In3 Ir4'
_cell_volume   625.68190499
_cell_formula_units_Z   1
loop_
 _symmetry_equiv_pos_site_id
 _symmetry_equiv_pos_as_xyz
  1  'x, y, z'
loop_
 _atom_site_type_symbol
 _atom_site_label
 _atom_site_symmetry_multiplicity
 _atom_site_fract_x
 _atom_site_fract_y
 _atom_site_fract_z
 _atom_site_occupancy
  Li  Li0  1  0.821133  0.821133  0.821133  1
  Dy  Dy1  1  0.189537  0.810714  0.810714  1
  Dy  Dy2  1  0.809669  0.190186  0.190186  1
  Dy  Dy3  1  0.810714  0.189537  0.810714  1
  Dy  Dy4  1  0.190186  0.809669  0.190186  1
  Dy  Dy5  1  0.810714  0.810714  0.189537  1
  Dy  Dy6  1  0.190186  0.190186  0.809669  1
  Er  Er7  1  0.599420  0.599420  0.599420  1
  Er  Er8  1  0.598476  0.598476  0.205227  1
  Er  Er9  1  0.598476  0.205227  0.598476  1
  Er  Er10  1  0.205227  0.598476  0.598476  1
  Er  Er11  1  0.058664  0.441741  0.441741  1
  Er  Er12  1  0.436641  0.062130  0.062130  1
  Er  Er13  1  0.441741  0.058664  0.441741  1
  Er  Er14  1  0.062130  0.436641  0.062130  1
  Er  Er15  1  0.441741  0.441741  0.058664  1
  Er  Er16  1  0.062130  0.062130  0.436641  1
  In  In17  1  0.832933  0.832933  0.504438  1
  In  In18  1  0.832933  0.504438  0.832933  1
  In  In19  1  0.504438  0.832933  0.832933  1
  Ir  Ir20  1  0.392033  0.392033  0.392033  1
  Ir  Ir21  1  0.392252  0.392252  0.826374  1
  Ir  Ir22  1  0.392252  0.826374  0.392252  1
  Ir  Ir23  1  0.826374  0.392252  0.392252  1
