# generated using pymatgen
data_Yb5Si8Ni17
_symmetry_space_group_name_H-M   'P 1'
_cell_length_a   12.98520674
_cell_length_b   12.98520701
_cell_length_c   3.93876400
_cell_angle_alpha   90.00000000
_cell_angle_beta   90.00000000
_cell_angle_gamma   141.10402761
_symmetry_Int_Tables_number   1
_chemical_formula_structural   Yb5Si8Ni17
_chemical_formula_sum   'Yb5 Si8 Ni17'
_cell_volume   417.01719605
_cell_formula_units_Z   1
loop_
 _symmetry_equiv_pos_site_id
 _symmetry_equiv_pos_as_xyz
  1  'x, y, z'
loop_
 _atom_site_type_symbol
 _atom_site_label
 _atom_site_symmetry_multiplicity
 _atom_site_fract_x
 _atom_site_fract_y
 _atom_site_fract_z
 _atom_site_occupancy
  Yb  Yb0  1  0.819433  0.606562  0.000000  1
  Yb  Yb1  1  0.606562  0.819433  0.000000  1
  Yb  Yb2  1  0.184635  0.794568  0.500000  1
  Yb  Yb3  1  0.794568  0.184635  0.500000  1
  Yb  Yb4  1  0.220047  0.220047  0.500000  1
  Si  Si5  1  0.155792  0.988522  0.000000  1
  Si  Si6  1  0.988522  0.155792  0.000000  1
  Si  Si7  1  0.479406  0.959792  0.000000  1
  Si  Si8  1  0.959792  0.479406  0.000000  1
  Si  Si9  1  0.586973  0.310216  0.500000  1
  Si  Si10  1  0.310216  0.586973  0.500000  1
  Si  Si11  1  0.493842  0.493842  0.000000  1
  Si  Si12  1  0.757935  0.757935  0.500000  1
  Ni  Ni13  1  0.372992  0.039924  0.000000  1
  Ni  Ni14  1  0.039924  0.372992  0.000000  1
  Ni  Ni15  1  0.673107  0.278658  0.000000  1
  Ni  Ni16  1  0.278658  0.673107  0.000000  1
  Ni  Ni17  1  0.449245  0.283100  0.000000  1
  Ni  Ni18  1  0.283100  0.449245  0.000000  1
  Ni  Ni19  1  0.007366  0.877619  0.500000  1
  Ni  Ni20  1  0.877619  0.007366  0.500000  1
  Ni  Ni21  1  0.306473  0.085877  0.500000  1
  Ni  Ni22  1  0.085877  0.306473  0.500000  1
  Ni  Ni23  1  0.518160  0.086176  0.500000  1
  Ni  Ni24  1  0.086176  0.518160  0.500000  1
  Ni  Ni25  1  0.848450  0.451977  0.500000  1
  Ni  Ni26  1  0.451977  0.848450  0.500000  1
  Ni  Ni27  1  0.577328  0.477600  0.500000  1
  Ni  Ni28  1  0.477600  0.577328  0.500000  1
  Ni  Ni29  1  0.924466  0.924466  0.000000  1
