# generated using pymatgen
data_Tb4Al18MoPd5
_symmetry_space_group_name_H-M   'P 1'
_cell_length_a   7.64088022
_cell_length_b   7.64088032
_cell_length_c   9.55973325
_cell_angle_alpha   89.66759797
_cell_angle_beta   89.66759852
_cell_angle_gamma   118.98587510
_symmetry_Int_Tables_number   1
_chemical_formula_structural   Tb4Al18MoPd5
_chemical_formula_sum   'Tb4 Al18 Mo1 Pd5'
_cell_volume   488.18315462
_cell_formula_units_Z   1
loop_
 _symmetry_equiv_pos_site_id
 _symmetry_equiv_pos_as_xyz
  1  'x, y, z'
loop_
 _atom_site_type_symbol
 _atom_site_label
 _atom_site_symmetry_multiplicity
 _atom_site_fract_x
 _atom_site_fract_y
 _atom_site_fract_z
 _atom_site_occupancy
  Tb  Tb0  1  0.995246  0.676237  0.247970  1
  Tb  Tb1  1  0.004754  0.323763  0.752030  1
  Tb  Tb2  1  0.676237  0.995246  0.247970  1
  Tb  Tb3  1  0.323763  0.004754  0.752030  1
  Al  Al4  1  0.132966  0.132966  0.248274  1
  Al  Al5  1  0.867034  0.867034  0.751726  1
  Al  Al6  1  0.002801  0.334073  0.074910  1
  Al  Al7  1  0.997199  0.665927  0.925090  1
  Al  Al8  1  0.998057  0.661701  0.577903  1
  Al  Al9  1  0.338299  0.001943  0.422097  1
  Al  Al10  1  0.001943  0.338299  0.422097  1
  Al  Al11  1  0.661701  0.998057  0.577903  1
  Al  Al12  1  0.665927  0.997199  0.925090  1
  Al  Al13  1  0.334073  0.002801  0.074910  1
  Al  Al14  1  0.333776  0.333776  0.554938  1
  Al  Al15  1  0.666224  0.666224  0.445062  1
  Al  Al16  1  0.667680  0.667680  0.052614  1
  Al  Al17  1  0.332320  0.332320  0.947386  1
  Al  Al18  1  0.341616  0.549217  0.250035  1
  Al  Al19  1  0.658384  0.450783  0.749965  1
  Al  Al20  1  0.549217  0.341616  0.250035  1
  Al  Al21  1  0.450783  0.658384  0.749965  1
  Mo  Mo22  1  0.000000  0.000000  0.000000  1
  Pd  Pd23  1  0.672018  0.327982  0.000000  1
  Pd  Pd24  1  0.327982  0.672018  0.000000  1
  Pd  Pd25  1  0.328392  0.671608  0.500000  1
  Pd  Pd26  1  0.671608  0.328392  0.500000  1
  Pd  Pd27  1  0.000000  0.000000  0.500000  1
