# generated using pymatgen
data_Tb5Er5Si5Pb
_symmetry_space_group_name_H-M   'P 1'
_cell_length_a   8.52343700
_cell_length_b   8.55687037
_cell_length_c   6.40689200
_cell_angle_alpha   90.00000000
_cell_angle_beta   90.00000000
_cell_angle_gamma   119.81687094
_symmetry_Int_Tables_number   1
_chemical_formula_structural   Tb5Er5Si5Pb
_chemical_formula_sum   'Tb5 Er5 Si5 Pb1'
_cell_volume   405.42096750
_cell_formula_units_Z   1
loop_
 _symmetry_equiv_pos_site_id
 _symmetry_equiv_pos_as_xyz
  1  'x, y, z'
loop_
 _atom_site_type_symbol
 _atom_site_label
 _atom_site_symmetry_multiplicity
 _atom_site_fract_x
 _atom_site_fract_y
 _atom_site_fract_z
 _atom_site_occupancy
  Tb  Tb0  1  0.987914  0.746734  0.750000  1
  Tb  Tb1  1  0.998482  0.243297  0.250000  1
  Tb  Tb2  1  0.754237  0.756095  0.250000  1
  Tb  Tb3  1  0.766716  0.000189  0.750000  1
  Tb  Tb4  1  0.241237  0.000354  0.250000  1
  Er  Er5  1  0.241529  0.253853  0.750000  1
  Er  Er6  1  0.330875  0.655496  0.496340  1
  Er  Er7  1  0.675049  0.344235  0.003774  1
  Er  Er8  1  0.675049  0.344235  0.496226  1
  Er  Er9  1  0.330875  0.655496  0.003660  1
  Si  Si10  1  0.394577  0.392932  0.250000  1
  Si  Si11  1  0.001823  0.607492  0.250000  1
  Si  Si12  1  0.999160  0.394689  0.750000  1
  Si  Si13  1  0.602178  0.604052  0.750000  1
  Si  Si14  1  0.604911  0.000192  0.250000  1
  Pb  Pb15  1  0.395392  0.000660  0.750000  1
