# generated using pymatgen
data_GaFeCl6
_symmetry_space_group_name_H-M   'P 1'
_cell_length_a   7.36785694
_cell_length_b   7.36785631
_cell_length_c   7.43397973
_cell_angle_alpha   59.22688508
_cell_angle_beta   59.22688435
_cell_angle_gamma   61.83331315
_symmetry_Int_Tables_number   1
_chemical_formula_structural   GaFeCl6
_chemical_formula_sum   'Ga1 Fe1 Cl6'
_cell_volume   285.57540145
_cell_formula_units_Z   1
loop_
 _symmetry_equiv_pos_site_id
 _symmetry_equiv_pos_as_xyz
  1  'x, y, z'
loop_
 _atom_site_type_symbol
 _atom_site_label
 _atom_site_symmetry_multiplicity
 _atom_site_fract_x
 _atom_site_fract_y
 _atom_site_fract_z
 _atom_site_occupancy
  Ga  Ga0  1  0.653124  0.653124  0.917621  1
  Fe  Fe1  1  0.349691  0.349691  0.080819  1
  Cl  Cl2  1  0.281498  0.721914  0.999587  1
  Cl  Cl3  1  0.721914  0.281498  0.999587  1
  Cl  Cl4  1  0.688432  0.688432  0.165578  1
  Cl  Cl5  1  0.307517  0.307517  0.840774  1
  Cl  Cl6  1  0.812249  0.812249  0.569491  1
  Cl  Cl7  1  0.185576  0.185576  0.426543  1
