# generated using pymatgen
data_Tb5Dy7TlZnCo4
_symmetry_space_group_name_H-M   'P 1'
_cell_length_a   8.28054316
_cell_length_b   8.27979174
_cell_length_c   8.28054400
_cell_angle_alpha   106.91908248
_cell_angle_beta   109.39614441
_cell_angle_gamma   112.14440009
_symmetry_Int_Tables_number   1
_chemical_formula_structural   Tb5Dy7TlZnCo4
_chemical_formula_sum   'Tb5 Dy7 Tl1 Zn1 Co4'
_cell_volume   436.10343602
_cell_formula_units_Z   1
loop_
 _symmetry_equiv_pos_site_id
 _symmetry_equiv_pos_as_xyz
  1  'x, y, z'
loop_
 _atom_site_type_symbol
 _atom_site_label
 _atom_site_symmetry_multiplicity
 _atom_site_fract_x
 _atom_site_fract_y
 _atom_site_fract_z
 _atom_site_occupancy
  Tb  Tb0  1  0.301880  0.266529  0.568713  1
  Tb  Tb1  1  0.698510  0.733329  0.431636  1
  Tb  Tb2  1  0.301694  0.733329  0.034819  1
  Tb  Tb3  1  0.697813  0.266529  0.964649  1
  Tb  Tb4  1  0.187502  0.513033  0.325531  1
  Dy  Dy5  1  0.187016  0.861683  0.674667  1
  Dy  Dy6  1  0.813137  0.487601  0.674464  1
  Dy  Dy7  1  0.812706  0.138303  0.325597  1
  Dy  Dy8  1  0.397889  0.218475  0.179071  1
  Dy  Dy9  1  0.039404  0.218475  0.820586  1
  Dy  Dy10  1  0.960349  0.781529  0.179083  1
  Dy  Dy11  1  0.602446  0.781529  0.821182  1
  Tl  Tl12  1  0.500321  0.000423  0.500102  1
  Zn  Zn13  1  0.499984  0.500042  0.000058  1
  Co  Co14  1  0.163379  0.499817  0.663759  1
  Co  Co15  1  0.836057  0.499817  0.336438  1
  Co  Co16  1  0.999789  0.113915  0.114125  1
  Co  Co17  1  0.000124  0.885642  0.885518  1
