# generated using pymatgen
data_Er4ScSiNiBi
_symmetry_space_group_name_H-M   'P 1'
_cell_length_a   8.36651771
_cell_length_b   8.36651782
_cell_length_c   8.64829009
_cell_angle_alpha   125.75808714
_cell_angle_beta   125.75808711
_cell_angle_gamma   77.98957215
_symmetry_Int_Tables_number   1
_chemical_formula_structural   Er4ScSiNiBi
_chemical_formula_sum   'Er8 Sc2 Si2 Ni2 Bi2'
_cell_volume   390.38196504
_cell_formula_units_Z   2
loop_
 _symmetry_equiv_pos_site_id
 _symmetry_equiv_pos_as_xyz
  1  'x, y, z'
loop_
 _atom_site_type_symbol
 _atom_site_label
 _atom_site_symmetry_multiplicity
 _atom_site_fract_x
 _atom_site_fract_y
 _atom_site_fract_z
 _atom_site_occupancy
  Er  Er0  1  0.779478  0.279478  0.793668  1
  Er  Er1  1  0.220522  0.720522  0.206332  1
  Er  Er2  1  0.485808  0.985808  0.206332  1
  Er  Er3  1  0.297406  0.464901  0.500000  1
  Er  Er4  1  0.035099  0.202594  0.500000  1
  Er  Er5  1  0.514192  0.014192  0.793668  1
  Er  Er6  1  0.702594  0.535099  0.500000  1
  Er  Er7  1  0.964901  0.797406  0.500000  1
  Sc  Sc8  1  0.000000  0.000000  0.000000  1
  Sc  Sc9  1  0.500000  0.500000  0.000000  1
  Si  Si10  1  0.152113  0.652113  0.804228  1
  Si  Si11  1  0.847887  0.347887  0.195772  1
  Ni  Ni12  1  0.634710  0.865290  0.500000  1
  Ni  Ni13  1  0.365290  0.134710  0.500000  1
  Bi  Bi14  1  0.250000  0.250000  0.000000  1
  Bi  Bi15  1  0.750000  0.750000  0.000000  1
