# generated using pymatgen
data_YThU(AlIr)3
_symmetry_space_group_name_H-M   'P 1'
_cell_length_a   7.12682700
_cell_length_b   7.20187727
_cell_length_c   4.05752000
_cell_angle_alpha   90.00000000
_cell_angle_beta   90.00000000
_cell_angle_gamma   121.16050786
_symmetry_Int_Tables_number   1
_chemical_formula_structural   YThU(AlIr)3
_chemical_formula_sum   'Y1 Th1 U1 Al3 Ir3'
_cell_volume   178.21114113
_cell_formula_units_Z   1
loop_
 _symmetry_equiv_pos_site_id
 _symmetry_equiv_pos_as_xyz
  1  'x, y, z'
loop_
 _atom_site_type_symbol
 _atom_site_label
 _atom_site_symmetry_multiplicity
 _atom_site_fract_x
 _atom_site_fract_y
 _atom_site_fract_z
 _atom_site_occupancy
  Y  Y0  1  0.415857  0.416188  0.500000  1
  Th  Th1  1  0.579612  0.001588  0.500000  1
  U  U2  1  0.001843  0.581995  0.500000  1
  Al  Al3  1  0.755515  0.750659  0.000000  1
  Al  Al4  1  0.232037  0.006440  0.000000  1
  Al  Al5  1  0.011010  0.235545  0.000000  1
  Ir  Ir6  1  0.706431  0.350882  0.000000  1
  Ir  Ir7  1  0.307733  0.676989  0.000000  1
  Ir  Ir8  1  0.989961  0.979712  0.500000  1
