# generated using pymatgen
data_MgZr4B4Ru10W
_symmetry_space_group_name_H-M   'P 1'
_cell_length_a   9.46382600
_cell_length_b   9.46382600
_cell_length_c   3.10865600
_cell_angle_alpha   90.00000000
_cell_angle_beta   90.00000000
_cell_angle_gamma   90.00000000
_symmetry_Int_Tables_number   1
_chemical_formula_structural   MgZr4B4Ru10W
_chemical_formula_sum   'Mg1 Zr4 B4 Ru10 W1'
_cell_volume   278.42367394
_cell_formula_units_Z   1
loop_
 _symmetry_equiv_pos_site_id
 _symmetry_equiv_pos_as_xyz
  1  'x, y, z'
loop_
 _atom_site_type_symbol
 _atom_site_label
 _atom_site_symmetry_multiplicity
 _atom_site_fract_x
 _atom_site_fract_y
 _atom_site_fract_z
 _atom_site_occupancy
  Mg  Mg0  1  0.000000  0.000000  0.000000  1
  Zr  Zr1  1  0.678524  0.173564  0.000000  1
  Zr  Zr2  1  0.321476  0.826436  0.000000  1
  Zr  Zr3  1  0.173564  0.321476  0.000000  1
  Zr  Zr4  1  0.826436  0.678524  0.000000  1
  B  B5  1  0.117733  0.626424  0.000000  1
  B  B6  1  0.882267  0.373576  0.000000  1
  B  B7  1  0.626424  0.882267  0.000000  1
  B  B8  1  0.373576  0.117733  0.000000  1
  Ru  Ru9  1  0.219924  0.074447  0.500000  1
  Ru  Ru10  1  0.780076  0.925553  0.500000  1
  Ru  Ru11  1  0.074447  0.780076  0.500000  1
  Ru  Ru12  1  0.715431  0.431733  0.500000  1
  Ru  Ru13  1  0.925553  0.219924  0.500000  1
  Ru  Ru14  1  0.284569  0.568267  0.500000  1
  Ru  Ru15  1  0.568267  0.715431  0.500000  1
  Ru  Ru16  1  0.431733  0.284569  0.500000  1
  Ru  Ru17  1  0.500000  0.000000  0.500000  1
  Ru  Ru18  1  0.000000  0.500000  0.500000  1
  W  W19  1  0.500000  0.500000  0.000000  1
