# generated using pymatgen
data_Nd12ZnCo4Sn
_symmetry_space_group_name_H-M   'P 1'
_cell_length_a   8.62897976
_cell_length_b   8.62898116
_cell_length_c   8.62897973
_cell_angle_alpha   112.64603069
_cell_angle_beta   108.66043119
_cell_angle_gamma   107.15780088
_symmetry_Int_Tables_number   1
_chemical_formula_structural   Nd12ZnCo4Sn
_chemical_formula_sum   'Nd12 Zn1 Co4 Sn1'
_cell_volume   493.37686120
_cell_formula_units_Z   1
loop_
 _symmetry_equiv_pos_site_id
 _symmetry_equiv_pos_as_xyz
  1  'x, y, z'
loop_
 _atom_site_type_symbol
 _atom_site_label
 _atom_site_symmetry_multiplicity
 _atom_site_fract_x
 _atom_site_fract_y
 _atom_site_fract_z
 _atom_site_occupancy
  Nd  Nd0  1  0.425306  0.226759  0.198546  1
  Nd  Nd1  1  0.574694  0.773241  0.801454  1
  Nd  Nd2  1  0.028212  0.226759  0.801454  1
  Nd  Nd3  1  0.971788  0.773241  0.198546  1
  Nd  Nd4  1  0.179978  0.286034  0.466011  1
  Nd  Nd5  1  0.820022  0.713966  0.533989  1
  Nd  Nd6  1  0.179978  0.713966  0.893945  1
  Nd  Nd7  1  0.820022  0.286034  0.106055  1
  Nd  Nd8  1  0.323706  0.637044  0.313338  1
  Nd  Nd9  1  0.676294  0.362956  0.686662  1
  Nd  Nd10  1  0.323706  0.010368  0.686662  1
  Nd  Nd11  1  0.676294  0.989632  0.313338  1
  Zn  Zn12  1  0.000000  0.000000  0.000000  1
  Co  Co13  1  0.346910  0.000000  0.346910  1
  Co  Co14  1  0.653090  0.000000  0.653090  1
  Co  Co15  1  0.111109  0.611109  0.500000  1
  Co  Co16  1  0.888891  0.388891  0.500000  1
  Sn  Sn17  1  0.500000  0.500000  0.000000  1
