# generated using pymatgen
data_Ce12Si6Os5Ru
_symmetry_space_group_name_H-M   'P 1'
_cell_length_a   7.65515297
_cell_length_b   7.65515128
_cell_length_c   9.80846100
_cell_angle_alpha   89.86913158
_cell_angle_beta   89.86913161
_cell_angle_gamma   119.92293435
_symmetry_Int_Tables_number   1
_chemical_formula_structural   Ce12Si6Os5Ru
_chemical_formula_sum   'Ce12 Si6 Os5 Ru1'
_cell_volume   498.16288243
_cell_formula_units_Z   1
loop_
 _symmetry_equiv_pos_site_id
 _symmetry_equiv_pos_as_xyz
  1  'x, y, z'
loop_
 _atom_site_type_symbol
 _atom_site_label
 _atom_site_symmetry_multiplicity
 _atom_site_fract_x
 _atom_site_fract_y
 _atom_site_fract_z
 _atom_site_occupancy
  Ce  Ce0  1  0.000057  0.602536  0.504121  1
  Ce  Ce1  1  0.602536  0.000057  0.504121  1
  Ce  Ce2  1  0.397200  0.397200  0.503849  1
  Ce  Ce3  1  0.998008  0.396314  0.004472  1
  Ce  Ce4  1  0.396314  0.998008  0.004472  1
  Ce  Ce5  1  0.596047  0.596047  0.000946  1
  Ce  Ce6  1  0.999860  0.730499  0.169709  1
  Ce  Ce7  1  0.730499  0.999860  0.169709  1
  Ce  Ce8  1  0.269185  0.269185  0.169763  1
  Ce  Ce9  1  0.004500  0.270229  0.670316  1
  Ce  Ce10  1  0.270229  0.004500  0.670316  1
  Ce  Ce11  1  0.730691  0.730691  0.669470  1
  Si  Si12  1  0.666674  0.333291  0.283592  1
  Si  Si13  1  0.333291  0.666674  0.283592  1
  Si  Si14  1  0.332866  0.670758  0.781911  1
  Si  Si15  1  0.670758  0.332866  0.781911  1
  Si  Si16  1  0.999942  0.999942  0.413286  1
  Si  Si17  1  0.996343  0.996343  0.914030  1
  Os  Os18  1  0.000245  0.336948  0.338472  1
  Os  Os19  1  0.336948  0.000245  0.338472  1
  Os  Os20  1  0.662974  0.662974  0.337542  1
  Os  Os21  1  0.000065  0.663623  0.837951  1
  Os  Os22  1  0.663623  0.000065  0.837951  1
  Ru  Ru23  1  0.341146  0.341146  0.839276  1
