# generated using pymatgen
data_Er5Np(SnRu2)6
_symmetry_space_group_name_H-M   'P 1'
_cell_length_a   4.62856200
_cell_length_b   6.60578200
_cell_length_c   13.80965200
_cell_angle_alpha   89.99947091
_cell_angle_beta   89.99798226
_cell_angle_gamma   89.99999998
_symmetry_Int_Tables_number   1
_chemical_formula_structural   Er5Np(SnRu2)6
_chemical_formula_sum   'Er5 Np1 Sn6 Ru12'
_cell_volume   422.23385985
_cell_formula_units_Z   1
loop_
 _symmetry_equiv_pos_site_id
 _symmetry_equiv_pos_as_xyz
  1  'x, y, z'
loop_
 _atom_site_type_symbol
 _atom_site_label
 _atom_site_symmetry_multiplicity
 _atom_site_fract_x
 _atom_site_fract_y
 _atom_site_fract_z
 _atom_site_occupancy
  Er  Er0  1  0.500111  0.500008  0.167225  1
  Er  Er1  1  0.000021  0.000013  0.335368  1
  Er  Er2  1  0.499959  0.499968  0.500028  1
  Er  Er3  1  0.999991  0.999971  0.664598  1
  Er  Er4  1  0.499965  0.499922  0.832804  1
  Np  Np5  1  0.999993  0.999986  0.999990  1
  Sn  Sn6  1  0.000023  0.500000  0.000017  1
  Sn  Sn7  1  0.499900  0.000167  0.174310  1
  Sn  Sn8  1  0.999975  0.500078  0.334578  1
  Sn  Sn9  1  0.500014  0.000004  0.499971  1
  Sn  Sn10  1  0.999942  0.500001  0.665427  1
  Sn  Sn11  1  0.499906  0.000017  0.825577  1
  Ru  Ru12  1  0.500096  0.237201  0.000037  1
  Ru  Ru13  1  0.499867  0.762813  0.000017  1
  Ru  Ru14  1  0.000224  0.233908  0.153837  1
  Ru  Ru15  1  0.000100  0.766159  0.153809  1
  Ru  Ru16  1  0.499910  0.252361  0.331600  1
  Ru  Ru17  1  0.500048  0.747634  0.331588  1
  Ru  Ru18  1  0.000209  0.250860  0.499979  1
  Ru  Ru19  1  0.999723  0.749165  0.499988  1
  Ru  Ru20  1  0.499974  0.252324  0.668454  1
  Ru  Ru21  1  0.500176  0.747544  0.668472  1
  Ru  Ru22  1  0.000002  0.233859  0.846158  1
  Ru  Ru23  1  0.999864  0.766044  0.846169  1
