# generated using pymatgen
data_Zr6Pa4Fe2BiSb5
_symmetry_space_group_name_H-M   'P 1'
_cell_length_a   8.98031919
_cell_length_b   8.98031881
_cell_length_c   5.93845700
_cell_angle_alpha   90.00000000
_cell_angle_beta   90.00000000
_cell_angle_gamma   121.49832227
_symmetry_Int_Tables_number   1
_chemical_formula_structural   Zr6Pa4Fe2BiSb5
_chemical_formula_sum   'Zr6 Pa4 Fe2 Bi1 Sb5'
_cell_volume   408.34827309
_cell_formula_units_Z   1
loop_
 _symmetry_equiv_pos_site_id
 _symmetry_equiv_pos_as_xyz
  1  'x, y, z'
loop_
 _atom_site_type_symbol
 _atom_site_label
 _atom_site_symmetry_multiplicity
 _atom_site_fract_x
 _atom_site_fract_y
 _atom_site_fract_z
 _atom_site_occupancy
  Zr  Zr0  1  0.742106  0.014225  0.250000  1
  Zr  Zr1  1  0.014225  0.742106  0.250000  1
  Zr  Zr2  1  0.666560  0.332922  0.998684  1
  Zr  Zr3  1  0.332922  0.666560  0.998684  1
  Zr  Zr4  1  0.332922  0.666560  0.501316  1
  Zr  Zr5  1  0.666560  0.332922  0.501316  1
  Pa  Pa6  1  0.773372  0.773372  0.750000  1
  Pa  Pa7  1  0.245783  0.002716  0.750000  1
  Pa  Pa8  1  0.002716  0.245783  0.750000  1
  Pa  Pa9  1  0.222180  0.222180  0.250000  1
  Fe  Fe10  1  0.994516  0.994516  0.016268  1
  Fe  Fe11  1  0.994516  0.994516  0.483732  1
  Bi  Bi12  1  0.613998  0.613998  0.250000  1
  Sb  Sb13  1  0.404666  0.404666  0.750000  1
  Sb  Sb14  1  0.601110  0.000523  0.750000  1
  Sb  Sb15  1  0.000523  0.601110  0.750000  1
  Sb  Sb16  1  0.395583  0.995738  0.250000  1
  Sb  Sb17  1  0.995738  0.395583  0.250000  1
