# generated using pymatgen
data_Er4Co2ReRu5
_symmetry_space_group_name_H-M   'P 1'
_cell_length_a   5.13241842
_cell_length_b   5.31294104
_cell_length_c   8.84456300
_cell_angle_alpha   90.00000000
_cell_angle_beta   90.00000000
_cell_angle_gamma   120.98128957
_symmetry_Int_Tables_number   1
_chemical_formula_structural   Er4Co2ReRu5
_chemical_formula_sum   'Er4 Co2 Re1 Ru5'
_cell_volume   206.76842060
_cell_formula_units_Z   1
loop_
 _symmetry_equiv_pos_site_id
 _symmetry_equiv_pos_as_xyz
  1  'x, y, z'
loop_
 _atom_site_type_symbol
 _atom_site_label
 _atom_site_symmetry_multiplicity
 _atom_site_fract_x
 _atom_site_fract_y
 _atom_site_fract_z
 _atom_site_occupancy
  Er  Er0  1  0.327680  0.663130  0.432653  1
  Er  Er1  1  0.658648  0.328206  0.564693  1
  Er  Er2  1  0.658648  0.328206  0.935307  1
  Er  Er3  1  0.327680  0.663130  0.067347  1
  Co  Co4  1  0.836671  0.164623  0.250000  1
  Co  Co5  1  0.182792  0.836745  0.750000  1
  Re  Re6  1  0.680357  0.839932  0.750000  1
  Ru  Ru7  1  0.978674  0.987325  0.500387  1
  Ru  Ru8  1  0.978674  0.987325  0.999613  1
  Ru  Ru9  1  0.830345  0.665415  0.250000  1
  Ru  Ru10  1  0.350645  0.175420  0.250000  1
  Ru  Ru11  1  0.189184  0.360545  0.750000  1
