# generated using pymatgen
data_Ho11Tm9(Bi2Ru)4
_symmetry_space_group_name_H-M   'P 1'
_cell_length_a   7.90793294
_cell_length_b   8.96937000
_cell_length_c   12.39379208
_cell_angle_alpha   90.00000000
_cell_angle_beta   90.06376666
_cell_angle_gamma   90.00000000
_symmetry_Int_Tables_number   1
_chemical_formula_structural   Ho11Tm9(Bi2Ru)4
_chemical_formula_sum   'Ho11 Tm9 Bi8 Ru4'
_cell_volume   879.08092141
_cell_formula_units_Z   1
loop_
 _symmetry_equiv_pos_site_id
 _symmetry_equiv_pos_as_xyz
  1  'x, y, z'
loop_
 _atom_site_type_symbol
 _atom_site_label
 _atom_site_symmetry_multiplicity
 _atom_site_fract_x
 _atom_site_fract_y
 _atom_site_fract_z
 _atom_site_occupancy
  Ho  Ho0  1  0.656448  0.250000  0.292955  1
  Ho  Ho1  1  0.842949  0.250000  0.792633  1
  Ho  Ho2  1  0.156732  0.750000  0.207316  1
  Ho  Ho3  1  0.879198  0.750000  0.809038  1
  Ho  Ho4  1  0.121428  0.250000  0.190930  1
  Ho  Ho5  1  0.379007  0.250000  0.690812  1
  Ho  Ho6  1  0.621370  0.750000  0.309101  1
  Ho  Ho7  1  0.055112  0.750000  0.496261  1
  Ho  Ho8  1  0.945505  0.250000  0.504290  1
  Ho  Ho9  1  0.554096  0.250000  0.003674  1
  Ho  Ho10  1  0.445125  0.750000  0.995823  1
  Tm  Tm11  1  0.343994  0.750000  0.706139  1
  Tm  Tm12  1  0.673786  0.542599  0.564355  1
  Tm  Tm13  1  0.325949  0.457939  0.436227  1
  Tm  Tm14  1  0.173948  0.457901  0.935920  1
  Tm  Tm15  1  0.325949  0.042061  0.436227  1
  Tm  Tm16  1  0.826001  0.542074  0.063929  1
  Tm  Tm17  1  0.673786  0.957401  0.564355  1
  Tm  Tm18  1  0.826001  0.957926  0.063929  1
  Tm  Tm19  1  0.173948  0.042099  0.935920  1
  Bi  Bi20  1  0.568963  0.507903  0.827323  1
  Bi  Bi21  1  0.430498  0.492754  0.172241  1
  Bi  Bi22  1  0.070264  0.493137  0.672585  1
  Bi  Bi23  1  0.430498  0.007246  0.172241  1
  Bi  Bi24  1  0.930318  0.507184  0.327729  1
  Bi  Bi25  1  0.568963  0.992097  0.827323  1
  Bi  Bi26  1  0.930318  0.992816  0.327729  1
  Bi  Bi27  1  0.070264  0.006863  0.672585  1
  Ru  Ru28  1  0.071633  0.750000  0.990697  1
  Ru  Ru29  1  0.928232  0.250000  0.009285  1
  Ru  Ru30  1  0.571779  0.250000  0.509544  1
  Ru  Ru31  1  0.427942  0.750000  0.490883  1
