# generated using pymatgen
data_Lu3ScMn4(Fe4P3)4
_symmetry_space_group_name_H-M   'P 1'
_cell_length_a   3.63310000
_cell_length_b   10.25407169
_cell_length_c   11.78907703
_cell_angle_alpha   89.82145024
_cell_angle_beta   90.00000000
_cell_angle_gamma   90.00000000
_symmetry_Int_Tables_number   1
_chemical_formula_structural   Lu3ScMn4(Fe4P3)4
_chemical_formula_sum   'Lu3 Sc1 Mn4 Fe16 P12'
_cell_volume   439.18894328
_cell_formula_units_Z   1
loop_
 _symmetry_equiv_pos_site_id
 _symmetry_equiv_pos_as_xyz
  1  'x, y, z'
loop_
 _atom_site_type_symbol
 _atom_site_label
 _atom_site_symmetry_multiplicity
 _atom_site_fract_x
 _atom_site_fract_y
 _atom_site_fract_z
 _atom_site_occupancy
  Lu  Lu0  1  0.250000  0.920557  0.206039  1
  Lu  Lu1  1  0.750000  0.422231  0.293997  1
  Lu  Lu2  1  0.750000  0.079222  0.794418  1
  Sc  Sc3  1  0.250000  0.577937  0.704726  1
  Mn  Mn4  1  0.250000  0.702010  0.988298  1
  Mn  Mn5  1  0.250000  0.796809  0.489962  1
  Mn  Mn6  1  0.750000  0.298310  0.010905  1
  Mn  Mn7  1  0.750000  0.202754  0.512415  1
  Fe  Fe8  1  0.250000  0.405773  0.487961  1
  Fe  Fe9  1  0.250000  0.095584  0.986995  1
  Fe  Fe10  1  0.750000  0.595443  0.514665  1
  Fe  Fe11  1  0.750000  0.904621  0.013213  1
  Fe  Fe12  1  0.250000  0.221045  0.171418  1
  Fe  Fe13  1  0.250000  0.279231  0.671171  1
  Fe  Fe14  1  0.750000  0.778736  0.828334  1
  Fe  Fe15  1  0.750000  0.721313  0.329543  1
  Fe  Fe16  1  0.250000  0.871501  0.702116  1
  Fe  Fe17  1  0.250000  0.625167  0.200778  1
  Fe  Fe18  1  0.750000  0.127073  0.298672  1
  Fe  Fe19  1  0.750000  0.375529  0.797367  1
  Fe  Fe20  1  0.250000  0.462852  0.930471  1
  Fe  Fe21  1  0.250000  0.038182  0.433120  1
  Fe  Fe22  1  0.750000  0.538498  0.065233  1
  Fe  Fe23  1  0.750000  0.960219  0.568357  1
  P  P24  1  0.250000  0.425751  0.113474  1
  P  P25  1  0.250000  0.074278  0.615213  1
  P  P26  1  0.750000  0.575040  0.881890  1
  P  P27  1  0.750000  0.924938  0.385923  1
  P  P28  1  0.250000  0.264612  0.863475  1
  P  P29  1  0.250000  0.236747  0.364972  1
  P  P30  1  0.750000  0.734752  0.136936  1
  P  P31  1  0.750000  0.760380  0.636912  1
  P  P32  1  0.250000  0.598019  0.392154  1
  P  P33  1  0.250000  0.902607  0.893157  1
  P  P34  1  0.750000  0.404688  0.608539  1
  P  P35  1  0.750000  0.097591  0.107182  1
