# generated using pymatgen
data_Sc4Al18CuIr5
_symmetry_space_group_name_H-M   'P 1'
_cell_length_a   7.48480805
_cell_length_b   7.48480634
_cell_length_c   9.28407127
_cell_angle_alpha   90.16509151
_cell_angle_beta   90.16508676
_cell_angle_gamma   120.05528495
_symmetry_Int_Tables_number   1
_chemical_formula_structural   Sc4Al18CuIr5
_chemical_formula_sum   'Sc4 Al18 Cu1 Ir5'
_cell_volume   450.17450934
_cell_formula_units_Z   1
loop_
 _symmetry_equiv_pos_site_id
 _symmetry_equiv_pos_as_xyz
  1  'x, y, z'
loop_
 _atom_site_type_symbol
 _atom_site_label
 _atom_site_symmetry_multiplicity
 _atom_site_fract_x
 _atom_site_fract_y
 _atom_site_fract_z
 _atom_site_occupancy
  Sc  Sc0  1  0.995784  0.670340  0.750596  1
  Sc  Sc1  1  0.004216  0.329660  0.249404  1
  Sc  Sc2  1  0.670340  0.995784  0.750596  1
  Sc  Sc3  1  0.329660  0.004216  0.249404  1
  Al  Al4  1  0.122634  0.122634  0.749054  1
  Al  Al5  1  0.877366  0.877366  0.250946  1
  Al  Al6  1  0.997304  0.336961  0.579337  1
  Al  Al7  1  0.002696  0.663039  0.420663  1
  Al  Al8  1  0.003005  0.666491  0.076602  1
  Al  Al9  1  0.333509  0.996995  0.923398  1
  Al  Al10  1  0.996995  0.333509  0.923398  1
  Al  Al11  1  0.666491  0.003005  0.076602  1
  Al  Al12  1  0.663039  0.002696  0.420663  1
  Al  Al13  1  0.336961  0.997304  0.579337  1
  Al  Al14  1  0.330924  0.330924  0.057535  1
  Al  Al15  1  0.669076  0.669076  0.942465  1
  Al  Al16  1  0.668126  0.668126  0.559165  1
  Al  Al17  1  0.331874  0.331874  0.440835  1
  Al  Al18  1  0.339543  0.552323  0.750132  1
  Al  Al19  1  0.660457  0.447677  0.249868  1
  Al  Al20  1  0.552323  0.339543  0.750132  1
  Al  Al21  1  0.447677  0.660457  0.249868  1
  Cu  Cu22  1  0.000000  0.000000  0.500000  1
  Ir  Ir23  1  0.672013  0.327987  0.500000  1
  Ir  Ir24  1  0.327987  0.672013  0.500000  1
  Ir  Ir25  1  0.327866  0.672134  0.000000  1
  Ir  Ir26  1  0.672134  0.327866  0.000000  1
  Ir  Ir27  1  0.000000  0.000000  0.000000  1
