# generated using pymatgen
data_Hf4TiNb3SiP3
_symmetry_space_group_name_H-M   'P 1'
_cell_length_a   3.54696000
_cell_length_b   6.87866466
_cell_length_c   8.34361052
_cell_angle_alpha   90.00534750
_cell_angle_beta   90.00000000
_cell_angle_gamma   90.00000000
_symmetry_Int_Tables_number   1
_chemical_formula_structural   Hf4TiNb3SiP3
_chemical_formula_sum   'Hf4 Ti1 Nb3 Si1 P3'
_cell_volume   203.57031548
_cell_formula_units_Z   1
loop_
 _symmetry_equiv_pos_site_id
 _symmetry_equiv_pos_as_xyz
  1  'x, y, z'
loop_
 _atom_site_type_symbol
 _atom_site_label
 _atom_site_symmetry_multiplicity
 _atom_site_fract_x
 _atom_site_fract_y
 _atom_site_fract_z
 _atom_site_occupancy
  Hf  Hf0  1  0.250000  0.034177  0.668292  1
  Hf  Hf1  1  0.250000  0.533151  0.832719  1
  Hf  Hf2  1  0.750000  0.467703  0.164137  1
  Hf  Hf3  1  0.750000  0.961548  0.330428  1
  Ti  Ti4  1  0.750000  0.861713  0.940016  1
  Nb  Nb5  1  0.250000  0.641765  0.441753  1
  Nb  Nb6  1  0.750000  0.363138  0.564004  1
  Nb  Nb7  1  0.250000  0.136119  0.056892  1
  Si  Si8  1  0.250000  0.262010  0.357073  1
  P  P9  1  0.250000  0.762845  0.138079  1
  P  P10  1  0.750000  0.740610  0.648055  1
  P  P11  1  0.750000  0.235222  0.858552  1
