# generated using pymatgen
data_Yb3Co7(As3Rh)2
_symmetry_space_group_name_H-M   'P 1'
_cell_length_a   3.86511500
_cell_length_b   11.13439000
_cell_length_c   12.87564500
_cell_angle_alpha   90.00000000
_cell_angle_beta   90.00000000
_cell_angle_gamma   90.00000000
_symmetry_Int_Tables_number   1
_chemical_formula_structural   Yb3Co7(As3Rh)2
_chemical_formula_sum   'Yb6 Co14 As12 Rh4'
_cell_volume   554.11236726
_cell_formula_units_Z   2
loop_
 _symmetry_equiv_pos_site_id
 _symmetry_equiv_pos_as_xyz
  1  'x, y, z'
loop_
 _atom_site_type_symbol
 _atom_site_label
 _atom_site_symmetry_multiplicity
 _atom_site_fract_x
 _atom_site_fract_y
 _atom_site_fract_z
 _atom_site_occupancy
  Yb  Yb0  1  0.000000  0.500000  0.527560  1
  Yb  Yb1  1  0.500000  0.000000  0.472440  1
  Yb  Yb2  1  0.500000  0.821465  0.206871  1
  Yb  Yb3  1  0.500000  0.178535  0.206871  1
  Yb  Yb4  1  0.000000  0.678535  0.793129  1
  Yb  Yb5  1  0.000000  0.321465  0.793129  1
  Co  Co6  1  0.000000  0.500000  0.992100  1
  Co  Co7  1  0.500000  0.000000  0.007900  1
  Co  Co8  1  0.500000  0.331270  0.996102  1
  Co  Co9  1  0.500000  0.668730  0.996102  1
  Co  Co10  1  0.000000  0.168730  0.003898  1
  Co  Co11  1  0.000000  0.831270  0.003898  1
  Co  Co12  1  0.500000  0.301632  0.432014  1
  Co  Co13  1  0.500000  0.698368  0.432014  1
  Co  Co14  1  0.000000  0.198368  0.567986  1
  Co  Co15  1  0.000000  0.801632  0.567986  1
  Co  Co16  1  0.500000  0.882334  0.707547  1
  Co  Co17  1  0.500000  0.117666  0.707547  1
  Co  Co18  1  0.000000  0.617666  0.292453  1
  Co  Co19  1  0.000000  0.382334  0.292453  1
  As  As20  1  0.500000  0.500000  0.889530  1
  As  As21  1  0.000000  0.000000  0.110470  1
  As  As22  1  0.500000  0.500000  0.348951  1
  As  As23  1  0.000000  0.000000  0.651049  1
  As  As24  1  0.500000  0.301101  0.615309  1
  As  As25  1  0.500000  0.698899  0.615309  1
  As  As26  1  0.000000  0.198899  0.384691  1
  As  As27  1  0.000000  0.801101  0.384691  1
  As  As28  1  0.500000  0.842643  0.891098  1
  As  As29  1  0.500000  0.157357  0.891098  1
  As  As30  1  0.000000  0.657357  0.108902  1
  As  As31  1  0.000000  0.342643  0.108902  1
  Rh  Rh32  1  0.500000  0.500000  0.155836  1
  Rh  Rh33  1  0.000000  0.000000  0.844164  1
  Rh  Rh34  1  0.500000  0.500000  0.699791  1
  Rh  Rh35  1  0.000000  0.000000  0.300209  1
