# generated using pymatgen
data_Sr15Pr2Nd3Pt16
_symmetry_space_group_name_H-M   'P 1'
_cell_length_a   7.93061320
_cell_length_b   8.08995334
_cell_length_c   15.57976081
_cell_angle_alpha   90.08497208
_cell_angle_beta   90.09440518
_cell_angle_gamma   90.06942137
_symmetry_Int_Tables_number   1
_chemical_formula_structural   Sr15Pr2Nd3Pt16
_chemical_formula_sum   'Sr15 Pr2 Nd3 Pt16'
_cell_volume   999.56763098
_cell_formula_units_Z   1
loop_
 _symmetry_equiv_pos_site_id
 _symmetry_equiv_pos_as_xyz
  1  'x, y, z'
loop_
 _atom_site_type_symbol
 _atom_site_label
 _atom_site_symmetry_multiplicity
 _atom_site_fract_x
 _atom_site_fract_y
 _atom_site_fract_z
 _atom_site_occupancy
  Sr  Sr0  1  0.164181  0.328396  0.379764  1
  Sr  Sr1  1  0.337236  0.828138  0.619452  1
  Sr  Sr2  1  0.838051  0.671603  0.882155  1
  Sr  Sr3  1  0.492323  0.323278  0.903987  1
  Sr  Sr4  1  0.990902  0.178578  0.597504  1
  Sr  Sr5  1  0.508459  0.679712  0.402154  1
  Sr  Sr6  1  0.008742  0.821104  0.095977  1
  Sr  Sr7  1  0.505212  0.678683  0.095205  1
  Sr  Sr8  1  0.005304  0.819647  0.407059  1
  Sr  Sr9  1  0.495275  0.319645  0.593820  1
  Sr  Sr10  1  0.994243  0.180131  0.905795  1
  Sr  Sr11  1  0.175030  0.487216  0.749921  1
  Sr  Sr12  1  0.675934  0.013860  0.751275  1
  Sr  Sr13  1  0.827402  0.516175  0.249877  1
  Sr  Sr14  1  0.321080  0.985338  0.250373  1
  Pr  Pr15  1  0.336489  0.832662  0.878143  1
  Pr  Pr16  1  0.834499  0.670547  0.624063  1
  Nd  Nd17  1  0.664695  0.170162  0.374916  1
  Nd  Nd18  1  0.163415  0.329189  0.122273  1
  Nd  Nd19  1  0.661976  0.170828  0.121359  1
  Pt  Pt20  1  0.329635  0.043662  0.039358  1
  Pt  Pt21  1  0.818599  0.458829  0.463518  1
  Pt  Pt22  1  0.680996  0.958928  0.534611  1
  Pt  Pt23  1  0.176323  0.542003  0.965281  1
  Pt  Pt24  1  0.651309  0.973971  0.961638  1
  Pt  Pt25  1  0.139794  0.531310  0.543635  1
  Pt  Pt26  1  0.359336  0.031618  0.455093  1
  Pt  Pt27  1  0.845675  0.453314  0.044709  1
  Pt  Pt28  1  0.544114  0.625671  0.754333  1
  Pt  Pt29  1  0.045486  0.877139  0.749147  1
  Pt  Pt30  1  0.460875  0.370383  0.244805  1
  Pt  Pt31  1  0.949925  0.126591  0.243355  1
  Pt  Pt32  1  0.288189  0.120194  0.756140  1
  Pt  Pt33  1  0.785681  0.381410  0.744753  1
  Pt  Pt34  1  0.706853  0.884687  0.249819  1
  Pt  Pt35  1  0.216761  0.615399  0.244733  1
