# generated using pymatgen
data_SrLaAsPt8
_symmetry_space_group_name_H-M   'P 1'
_cell_length_a   9.36335183
_cell_length_b   9.42464600
_cell_length_c   4.33686200
_cell_angle_alpha   90.00000000
_cell_angle_beta   90.00000000
_cell_angle_gamma   145.76666407
_symmetry_Int_Tables_number   1
_chemical_formula_structural   SrLaAsPt8
_chemical_formula_sum   'Sr1 La1 As1 Pt8'
_cell_volume   215.30013990
_cell_formula_units_Z   1
loop_
 _symmetry_equiv_pos_site_id
 _symmetry_equiv_pos_as_xyz
  1  'x, y, z'
loop_
 _atom_site_type_symbol
 _atom_site_label
 _atom_site_symmetry_multiplicity
 _atom_site_fract_x
 _atom_site_fract_y
 _atom_site_fract_z
 _atom_site_occupancy
  Sr  Sr0  1  0.618317  0.374949  0.500000  1
  La  La1  1  0.370986  0.624667  0.500000  1
  As  As2  1  0.229154  0.223535  0.000000  1
  Pt  Pt3  1  0.102321  0.872799  0.000000  1
  Pt  Pt4  1  0.885390  0.110840  0.000000  1
  Pt  Pt5  1  0.491107  0.983035  0.000000  1
  Pt  Pt6  1  0.991623  0.489335  0.000000  1
  Pt  Pt7  1  0.196909  0.789328  0.500000  1
  Pt  Pt8  1  0.792759  0.196161  0.500000  1
  Pt  Pt9  1  0.991320  0.993497  0.500000  1
  Pt  Pt10  1  0.643712  0.655455  0.000000  1
