# generated using pymatgen
data_Lu4Tc3Os4Ru
_symmetry_space_group_name_H-M   'P 1'
_cell_length_a   5.25822536
_cell_length_b   5.24558535
_cell_length_c   8.91221701
_cell_angle_alpha   89.99999808
_cell_angle_beta   90.00388847
_cell_angle_gamma   119.92049751
_symmetry_Int_Tables_number   1
_chemical_formula_structural   Lu4Tc3Os4Ru
_chemical_formula_sum   'Lu4 Tc3 Os4 Ru1'
_cell_volume   213.05753645
_cell_formula_units_Z   1
loop_
 _symmetry_equiv_pos_site_id
 _symmetry_equiv_pos_as_xyz
  1  'x, y, z'
loop_
 _atom_site_type_symbol
 _atom_site_label
 _atom_site_symmetry_multiplicity
 _atom_site_fract_x
 _atom_site_fract_y
 _atom_site_fract_z
 _atom_site_occupancy
  Lu  Lu0  1  0.336124  0.668062  0.434256  1
  Lu  Lu1  1  0.669031  0.334515  0.564766  1
  Lu  Lu2  1  0.669183  0.334592  0.935216  1
  Lu  Lu3  1  0.336110  0.668056  0.065368  1
  Tc  Tc4  1  0.168167  0.339352  0.750277  1
  Tc  Tc5  1  0.168167  0.828817  0.750277  1
  Tc  Tc6  1  0.333319  0.166658  0.250111  1
  Os  Os7  1  0.824166  0.652012  0.249241  1
  Os  Os8  1  0.649500  0.824750  0.751042  1
  Os  Os9  1  0.010121  0.005060  0.000886  1
  Os  Os10  1  0.824166  0.172153  0.249241  1
  Ru  Ru11  1  0.011946  0.005973  0.499318  1
