# generated using pymatgen
data_Y3Tm7(SnSb)3
_symmetry_space_group_name_H-M   'P 1'
_cell_length_a   6.34916200
_cell_length_b   8.90852559
_cell_length_c   8.90838100
_cell_angle_alpha   120.00053985
_cell_angle_beta   89.99983911
_cell_angle_gamma   90.00032313
_symmetry_Int_Tables_number   1
_chemical_formula_structural   Y3Tm7(SnSb)3
_chemical_formula_sum   'Y3 Tm7 Sn3 Sb3'
_cell_volume   436.36437988
_cell_formula_units_Z   1
loop_
 _symmetry_equiv_pos_site_id
 _symmetry_equiv_pos_as_xyz
  1  'x, y, z'
loop_
 _atom_site_type_symbol
 _atom_site_label
 _atom_site_symmetry_multiplicity
 _atom_site_fract_x
 _atom_site_fract_y
 _atom_site_fract_z
 _atom_site_occupancy
  Y  Y0  1  0.249999  0.757518  0.000000  1
  Y  Y1  1  0.249999  0.242472  0.242474  1
  Y  Y2  1  0.249999  0.999998  0.757526  1
  Tm  Tm3  1  0.501747  0.333333  0.666667  1
  Tm  Tm4  1  0.501747  0.666666  0.333333  1
  Tm  Tm5  1  0.998254  0.666669  0.333334  1
  Tm  Tm6  1  0.998254  0.333335  0.666666  1
  Tm  Tm7  1  0.749999  0.240400  0.000000  1
  Tm  Tm8  1  0.750000  0.759620  0.759612  1
  Tm  Tm9  1  0.750000  0.000008  0.240388  1
  Sn  Sn10  1  0.749998  0.606412  0.000000  1
  Sn  Sn11  1  0.750001  0.393579  0.393585  1
  Sn  Sn12  1  0.750001  0.999993  0.606415  1
  Sb  Sb13  1  0.249998  0.392822  0.000000  1
  Sb  Sb14  1  0.250003  0.607177  0.607178  1
  Sb  Sb15  1  0.250003  0.999999  0.392822  1
