# generated using pymatgen
data_NaFe2CoNiP12
_symmetry_space_group_name_H-M   'P 1'
_cell_length_a   6.74912009
_cell_length_b   6.73784002
_cell_length_c   6.73507104
_cell_angle_alpha   109.34692463
_cell_angle_beta   109.45301487
_cell_angle_gamma   109.50037475
_symmetry_Int_Tables_number   1
_chemical_formula_structural   NaFe2CoNiP12
_chemical_formula_sum   'Na1 Fe2 Co1 Ni1 P12'
_cell_volume   236.09868176
_cell_formula_units_Z   1
loop_
 _symmetry_equiv_pos_site_id
 _symmetry_equiv_pos_as_xyz
  1  'x, y, z'
loop_
 _atom_site_type_symbol
 _atom_site_label
 _atom_site_symmetry_multiplicity
 _atom_site_fract_x
 _atom_site_fract_y
 _atom_site_fract_z
 _atom_site_occupancy
  Na  Na0  1  0.000000  0.000000  0.000000  1
  Fe  Fe1  1  0.000000  0.000000  0.500000  1
  Fe  Fe2  1  0.000000  0.500000  0.000000  1
  Co  Co3  1  0.500000  0.500000  0.500000  1
  Ni  Ni4  1  0.500000  0.000000  0.000000  1
  P  P5  1  0.500349  0.850263  0.642685  1
  P  P6  1  0.199538  0.851447  0.348331  1
  P  P7  1  0.800462  0.148553  0.651669  1
  P  P8  1  0.146297  0.347965  0.497425  1
  P  P9  1  0.347429  0.497774  0.145805  1
  P  P10  1  0.499651  0.149737  0.357315  1
  P  P11  1  0.140881  0.642140  0.793828  1
  P  P12  1  0.346538  0.205952  0.847599  1
  P  P13  1  0.853703  0.652035  0.502575  1
  P  P14  1  0.653462  0.794048  0.152401  1
  P  P15  1  0.859119  0.357860  0.206172  1
  P  P16  1  0.652571  0.502226  0.854195  1
