# generated using pymatgen
data_Dy2Er6Re3OsC8
_symmetry_space_group_name_H-M   'P 1'
_cell_length_a   5.07762700
_cell_length_b   6.52703724
_cell_length_c   9.77371702
_cell_angle_alpha   89.83532992
_cell_angle_beta   90.00000000
_cell_angle_gamma   90.00000000
_symmetry_Int_Tables_number   1
_chemical_formula_structural   Dy2Er6Re3OsC8
_chemical_formula_sum   'Dy2 Er6 Re3 Os1 C8'
_cell_volume   323.91782864
_cell_formula_units_Z   1
loop_
 _symmetry_equiv_pos_site_id
 _symmetry_equiv_pos_as_xyz
  1  'x, y, z'
loop_
 _atom_site_type_symbol
 _atom_site_label
 _atom_site_symmetry_multiplicity
 _atom_site_fract_x
 _atom_site_fract_y
 _atom_site_fract_z
 _atom_site_occupancy
  Dy  Dy0  1  0.750000  0.531831  0.785820  1
  Dy  Dy1  1  0.250000  0.967467  0.283148  1
  Er  Er2  1  0.750000  0.677349  0.443158  1
  Er  Er3  1  0.250000  0.825004  0.944189  1
  Er  Er4  1  0.750000  0.178376  0.056700  1
  Er  Er5  1  0.250000  0.322254  0.556893  1
  Er  Er6  1  0.250000  0.467157  0.216269  1
  Er  Er7  1  0.750000  0.034262  0.716277  1
  Re  Re8  1  0.250000  0.781481  0.633146  1
  Re  Re9  1  0.750000  0.218557  0.368168  1
  Re  Re10  1  0.750000  0.719275  0.132106  1
  Os  Os11  1  0.250000  0.280422  0.866425  1
  C  C12  1  0.250000  0.673383  0.448659  1
  C  C13  1  0.250000  0.547285  0.757852  1
  C  C14  1  0.750000  0.451829  0.240591  1
  C  C15  1  0.750000  0.826268  0.946912  1
  C  C16  1  0.250000  0.047488  0.740783  1
  C  C17  1  0.250000  0.174083  0.050714  1
  C  C18  1  0.750000  0.324398  0.553041  1
  C  C19  1  0.750000  0.951829  0.259152  1
