# generated using pymatgen
data_Dy2Cu2BRh4
_symmetry_space_group_name_H-M   'P 1'
_cell_length_a   5.81044861
_cell_length_b   5.81044826
_cell_length_c   5.67008300
_cell_angle_alpha   60.79594801
_cell_angle_beta   60.79594994
_cell_angle_gamma   59.80813527
_symmetry_Int_Tables_number   1
_chemical_formula_structural   Dy2Cu2BRh4
_chemical_formula_sum   'Dy2 Cu2 B1 Rh4'
_cell_volume   136.76244337
_cell_formula_units_Z   1
loop_
 _symmetry_equiv_pos_site_id
 _symmetry_equiv_pos_as_xyz
  1  'x, y, z'
loop_
 _atom_site_type_symbol
 _atom_site_label
 _atom_site_symmetry_multiplicity
 _atom_site_fract_x
 _atom_site_fract_y
 _atom_site_fract_z
 _atom_site_occupancy
  Dy  Dy0  1  0.247520  0.247520  0.253325  1
  Dy  Dy1  1  0.752480  0.752480  0.748365  1
  Cu  Cu2  1  0.733975  0.266026  0.259728  1
  Cu  Cu3  1  0.266026  0.733975  0.259728  1
  B  B4  1  0.000000  0.000000  0.991749  1
  Rh  Rh5  1  0.748366  0.748366  0.253352  1
  Rh  Rh6  1  0.251634  0.251634  0.750085  1
  Rh  Rh7  1  0.740497  0.259504  0.741835  1
  Rh  Rh8  1  0.259504  0.740497  0.741835  1
