# generated using pymatgen
data_Ho19Th(Ir2Ru)4
_symmetry_space_group_name_H-M   'P 1'
_cell_length_a   10.82252889
_cell_length_b   10.80689848
_cell_length_c   6.42343459
_cell_angle_alpha   90.13896941
_cell_angle_beta   89.76193440
_cell_angle_gamma   90.03673173
_symmetry_Int_Tables_number   1
_chemical_formula_structural   Ho19Th(Ir2Ru)4
_chemical_formula_sum   'Ho19 Th1 Ir8 Ru4'
_cell_volume   751.26303281
_cell_formula_units_Z   1
loop_
 _symmetry_equiv_pos_site_id
 _symmetry_equiv_pos_as_xyz
  1  'x, y, z'
loop_
 _atom_site_type_symbol
 _atom_site_label
 _atom_site_symmetry_multiplicity
 _atom_site_fract_x
 _atom_site_fract_y
 _atom_site_fract_z
 _atom_site_occupancy
  Ho  Ho0  1  0.293060  0.911067  0.877741  1
  Ho  Ho1  1  0.706932  0.086938  0.878383  1
  Ho  Ho2  1  0.707007  0.912492  0.378699  1
  Ho  Ho3  1  0.587066  0.793023  0.878637  1
  Ho  Ho4  1  0.591612  0.208762  0.378060  1
  Ho  Ho5  1  0.414948  0.789240  0.377001  1
  Ho  Ho6  1  0.414957  0.208326  0.877629  1
  Ho  Ho7  1  0.206207  0.414367  0.622179  1
  Ho  Ho8  1  0.205831  0.586232  0.121450  1
  Ho  Ho9  1  0.793257  0.413889  0.121384  1
  Ho  Ho10  1  0.793360  0.586427  0.622017  1
  Ho  Ho11  1  0.913462  0.705933  0.121323  1
  Ho  Ho12  1  0.913199  0.293887  0.620781  1
  Ho  Ho13  1  0.086303  0.706026  0.623317  1
  Ho  Ho14  1  0.084488  0.294918  0.121005  1
  Ho  Ho15  1  0.996616  0.998955  0.501353  1
  Ho  Ho16  1  0.000051  0.999951  0.000861  1
  Ho  Ho17  1  0.499970  0.500487  0.000981  1
  Ho  Ho18  1  0.501085  0.499763  0.501160  1
  Th  Th19  1  0.295010  0.086655  0.378728  1
  Ir  Ir20  1  0.847144  0.153037  0.249160  1
  Ir  Ir21  1  0.847121  0.847495  0.751284  1
  Ir  Ir22  1  0.153071  0.151508  0.745532  1
  Ir  Ir23  1  0.153417  0.849165  0.252047  1
  Ir  Ir24  1  0.652909  0.347875  0.750647  1
  Ir  Ir25  1  0.652335  0.652745  0.249233  1
  Ir  Ir26  1  0.347139  0.346505  0.251829  1
  Ir  Ir27  1  0.347996  0.651924  0.750574  1
  Ru  Ru28  1  0.496382  0.000758  0.124908  1
  Ru  Ru29  1  0.498763  0.000657  0.619181  1
  Ru  Ru30  1  0.999609  0.500194  0.876420  1
  Ru  Ru31  1  0.999690  0.500799  0.376495  1
