# generated using pymatgen
data_Li2Pr8Y10Si15Sn
_symmetry_space_group_name_H-M   'P 1'
_cell_length_a   7.44282993
_cell_length_b   7.84438622
_cell_length_c   14.96224200
_cell_angle_alpha   90.00000000
_cell_angle_beta   90.00000000
_cell_angle_gamma   90.27664088
_symmetry_Int_Tables_number   1
_chemical_formula_structural   Li2Pr8Y10Si15Sn
_chemical_formula_sum   'Li2 Pr8 Y10 Si15 Sn1'
_cell_volume   873.55182539
_cell_formula_units_Z   1
loop_
 _symmetry_equiv_pos_site_id
 _symmetry_equiv_pos_as_xyz
  1  'x, y, z'
loop_
 _atom_site_type_symbol
 _atom_site_label
 _atom_site_symmetry_multiplicity
 _atom_site_fract_x
 _atom_site_fract_y
 _atom_site_fract_z
 _atom_site_occupancy
  Li  Li0  1  0.661689  0.988692  0.750000  1
  Li  Li1  1  0.844839  0.488318  0.250000  1
  Pr  Pr2  1  0.017888  0.189022  0.398193  1
  Pr  Pr3  1  0.528437  0.323623  0.396849  1
  Pr  Pr4  1  0.488751  0.678078  0.906558  1
  Pr  Pr5  1  0.488751  0.678078  0.593442  1
  Pr  Pr6  1  0.968234  0.824012  0.599207  1
  Pr  Pr7  1  0.968234  0.824012  0.900793  1
  Pr  Pr8  1  0.528437  0.323623  0.103151  1
  Pr  Pr9  1  0.017888  0.189022  0.101807  1
  Y  Y10  1  0.333260  0.181147  0.621110  1
  Y  Y11  1  0.681127  0.811777  0.373773  1
  Y  Y12  1  0.167703  0.674110  0.375131  1
  Y  Y13  1  0.815960  0.312176  0.875632  1
  Y  Y14  1  0.815960  0.312176  0.624368  1
  Y  Y15  1  0.346091  0.009071  0.250000  1
  Y  Y16  1  0.333260  0.181147  0.878890  1
  Y  Y17  1  0.167703  0.674110  0.124869  1
  Y  Y18  1  0.681127  0.811777  0.126227  1
  Y  Y19  1  0.148650  0.496630  0.750000  1
  Si  Si20  1  0.464895  0.606863  0.250000  1
  Si  Si21  1  0.027407  0.117307  0.750000  1
  Si  Si22  1  0.525852  0.401540  0.750000  1
  Si  Si23  1  0.144965  0.472453  0.540966  1
  Si  Si24  1  0.973148  0.901226  0.250000  1
  Si  Si25  1  0.726834  0.112485  0.250000  1
  Si  Si26  1  0.849359  0.535071  0.030543  1
  Si  Si27  1  0.352600  0.969982  0.041782  1
  Si  Si28  1  0.144965  0.472453  0.959034  1
  Si  Si29  1  0.647825  0.034395  0.528998  1
  Si  Si30  1  0.352600  0.969982  0.458218  1
  Si  Si31  1  0.849359  0.535071  0.469457  1
  Si  Si32  1  0.773640  0.612119  0.750000  1
  Si  Si33  1  0.230227  0.380836  0.250000  1
  Si  Si34  1  0.647825  0.034395  0.971002  1
  Sn  Sn35  1  0.284513  0.873217  0.750000  1
