# generated using pymatgen
data_TbLu3Re3Os5
_symmetry_space_group_name_H-M   'P 1'
_cell_length_a   5.28460852
_cell_length_b   5.32551661
_cell_length_c   8.90637502
_cell_angle_alpha   90.00000101
_cell_angle_beta   90.00662761
_cell_angle_gamma   120.25637511
_symmetry_Int_Tables_number   1
_chemical_formula_structural   TbLu3Re3Os5
_chemical_formula_sum   'Tb1 Lu3 Re3 Os5'
_cell_volume   216.51022121
_cell_formula_units_Z   1
loop_
 _symmetry_equiv_pos_site_id
 _symmetry_equiv_pos_as_xyz
  1  'x, y, z'
loop_
 _atom_site_type_symbol
 _atom_site_label
 _atom_site_symmetry_multiplicity
 _atom_site_fract_x
 _atom_site_fract_y
 _atom_site_fract_z
 _atom_site_occupancy
  Tb  Tb0  1  0.338952  0.669476  0.434923  1
  Lu  Lu1  1  0.667996  0.333998  0.564052  1
  Lu  Lu2  1  0.668239  0.334119  0.936926  1
  Lu  Lu3  1  0.339192  0.669596  0.064679  1
  Re  Re4  1  0.161715  0.337002  0.751184  1
  Re  Re5  1  0.161715  0.824714  0.751184  1
  Re  Re6  1  0.336116  0.168058  0.248673  1
  Os  Os7  1  0.821118  0.651322  0.247849  1
  Os  Os8  1  0.643028  0.821515  0.751800  1
  Os  Os9  1  0.020088  0.010044  0.000962  1
  Os  Os10  1  0.821118  0.169795  0.247849  1
  Os  Os11  1  0.020722  0.010362  0.499921  1
