# generated using pymatgen
data_Li3DyY2Si2Sn
_symmetry_space_group_name_H-M   'P 1'
_cell_length_a   7.09970200
_cell_length_b   7.09993692
_cell_length_c   4.33419400
_cell_angle_alpha   90.00000000
_cell_angle_beta   90.00000000
_cell_angle_gamma   120.00110134
_symmetry_Int_Tables_number   1
_chemical_formula_structural   Li3DyY2Si2Sn
_chemical_formula_sum   'Li3 Dy1 Y2 Si2 Sn1'
_cell_volume   189.20332694
_cell_formula_units_Z   1
loop_
 _symmetry_equiv_pos_site_id
 _symmetry_equiv_pos_as_xyz
  1  'x, y, z'
loop_
 _atom_site_type_symbol
 _atom_site_label
 _atom_site_symmetry_multiplicity
 _atom_site_fract_x
 _atom_site_fract_y
 _atom_site_fract_z
 _atom_site_occupancy
  Li  Li0  1  0.241422  0.999983  0.500000  1
  Li  Li1  1  0.758578  0.758561  0.500000  1
  Li  Li2  1  0.000000  0.241456  0.500000  1
  Dy  Dy3  1  0.000000  0.553072  0.000000  1
  Y  Y4  1  0.552994  0.999995  0.000000  1
  Y  Y5  1  0.447006  0.447001  0.000000  1
  Si  Si6  1  0.333193  0.666610  0.500000  1
  Si  Si7  1  0.666807  0.333416  0.500000  1
  Sn  Sn8  1  0.000000  0.999905  0.000000  1
