# generated using pymatgen
data_Tm4Sc(GeB4)2
_symmetry_space_group_name_H-M   'P 1'
_cell_length_a   7.13333800
_cell_length_b   7.13333800
_cell_length_c   7.88379000
_cell_angle_alpha   90.00000000
_cell_angle_beta   90.00000000
_cell_angle_gamma   90.00000000
_symmetry_Int_Tables_number   1
_chemical_formula_structural   Tm4Sc(GeB4)2
_chemical_formula_sum   'Tm8 Sc2 Ge4 B16'
_cell_volume   401.16279915
_cell_formula_units_Z   2
loop_
 _symmetry_equiv_pos_site_id
 _symmetry_equiv_pos_as_xyz
  1  'x, y, z'
loop_
 _atom_site_type_symbol
 _atom_site_label
 _atom_site_symmetry_multiplicity
 _atom_site_fract_x
 _atom_site_fract_y
 _atom_site_fract_z
 _atom_site_occupancy
  Tm  Tm0  1  0.680307  0.180307  0.223725  1
  Tm  Tm1  1  0.319693  0.819693  0.776275  1
  Tm  Tm2  1  0.319693  0.819693  0.223725  1
  Tm  Tm3  1  0.819693  0.680307  0.223725  1
  Tm  Tm4  1  0.819693  0.680307  0.776275  1
  Tm  Tm5  1  0.680307  0.180307  0.776275  1
  Tm  Tm6  1  0.180307  0.319693  0.776275  1
  Tm  Tm7  1  0.180307  0.319693  0.223725  1
  Sc  Sc8  1  0.000000  0.000000  0.500000  1
  Sc  Sc9  1  0.500000  0.500000  0.500000  1
  Ge  Ge10  1  0.123453  0.623453  0.500000  1
  Ge  Ge11  1  0.876547  0.376547  0.500000  1
  Ge  Ge12  1  0.376547  0.123453  0.500000  1
  Ge  Ge13  1  0.623453  0.876547  0.500000  1
  B  B14  1  0.172981  0.039589  0.000000  1
  B  B15  1  0.827019  0.960411  0.000000  1
  B  B16  1  0.960411  0.172981  0.000000  1
  B  B17  1  0.327019  0.539589  0.000000  1
  B  B18  1  0.039589  0.827019  0.000000  1
  B  B19  1  0.672981  0.460411  0.000000  1
  B  B20  1  0.539589  0.672981  0.000000  1
  B  B21  1  0.460411  0.327019  0.000000  1
  B  B22  1  0.089583  0.589583  0.000000  1
  B  B23  1  0.910417  0.410417  0.000000  1
  B  B24  1  0.410417  0.089583  0.000000  1
  B  B25  1  0.589583  0.910417  0.000000  1
  B  B26  1  0.000000  0.000000  0.168264  1
  B  B27  1  0.000000  0.000000  0.831736  1
  B  B28  1  0.500000  0.500000  0.831736  1
  B  B29  1  0.500000  0.500000  0.168264  1
