# generated using pymatgen
data_Hf9(NiP2)2
_symmetry_space_group_name_H-M   'P 1'
_cell_length_a   12.03975500
_cell_length_b   12.03975500
_cell_length_c   3.59802700
_cell_angle_alpha   90.00000000
_cell_angle_beta   90.00000000
_cell_angle_gamma   90.00000000
_symmetry_Int_Tables_number   1
_chemical_formula_structural   Hf9(NiP2)2
_chemical_formula_sum   'Hf18 Ni4 P8'
_cell_volume   521.55452406
_cell_formula_units_Z   2
loop_
 _symmetry_equiv_pos_site_id
 _symmetry_equiv_pos_as_xyz
  1  'x, y, z'
loop_
 _atom_site_type_symbol
 _atom_site_label
 _atom_site_symmetry_multiplicity
 _atom_site_fract_x
 _atom_site_fract_y
 _atom_site_fract_z
 _atom_site_occupancy
  Hf  Hf0  1  0.000000  0.000000  0.000000  1
  Hf  Hf1  1  0.500000  0.500000  0.000000  1
  Hf  Hf2  1  0.102804  0.183054  0.500000  1
  Hf  Hf3  1  0.183054  0.897196  0.500000  1
  Hf  Hf4  1  0.816946  0.102804  0.500000  1
  Hf  Hf5  1  0.897196  0.816946  0.500000  1
  Hf  Hf6  1  0.397196  0.683054  0.500000  1
  Hf  Hf7  1  0.602804  0.316946  0.500000  1
  Hf  Hf8  1  0.683054  0.602804  0.500000  1
  Hf  Hf9  1  0.316946  0.397196  0.500000  1
  Hf  Hf10  1  0.093712  0.406288  0.000000  1
  Hf  Hf11  1  0.406288  0.906288  0.000000  1
  Hf  Hf12  1  0.593712  0.093712  0.000000  1
  Hf  Hf13  1  0.906288  0.593712  0.000000  1
  Hf  Hf14  1  0.380358  0.119642  0.500000  1
  Hf  Hf15  1  0.119642  0.619642  0.500000  1
  Hf  Hf16  1  0.880358  0.380358  0.500000  1
  Hf  Hf17  1  0.619642  0.880358  0.500000  1
  Ni  Ni18  1  0.252973  0.247027  0.000000  1
  Ni  Ni19  1  0.247027  0.747027  0.000000  1
  Ni  Ni20  1  0.752973  0.252973  0.000000  1
  Ni  Ni21  1  0.747027  0.752973  0.000000  1
  P  P22  1  0.222968  0.056289  0.000000  1
  P  P23  1  0.056289  0.777032  0.000000  1
  P  P24  1  0.943711  0.222968  0.000000  1
  P  P25  1  0.777032  0.943711  0.000000  1
  P  P26  1  0.277032  0.556289  0.000000  1
  P  P27  1  0.722968  0.443711  0.000000  1
  P  P28  1  0.556289  0.722968  0.000000  1
  P  P29  1  0.443711  0.277032  0.000000  1
