# generated using pymatgen
data_Nd3Lu2P12Ru17Rh2
_symmetry_space_group_name_H-M   'P 1'
_cell_length_a   12.61189300
_cell_length_b   12.56375903
_cell_length_c   4.00304700
_cell_angle_alpha   90.00000000
_cell_angle_beta   90.00000000
_cell_angle_gamma   120.12682332
_symmetry_Int_Tables_number   1
_chemical_formula_structural   Nd3Lu2P12Ru17Rh2
_chemical_formula_sum   'Nd3 Lu2 P12 Ru17 Rh2'
_cell_volume   548.61132382
_cell_formula_units_Z   1
loop_
 _symmetry_equiv_pos_site_id
 _symmetry_equiv_pos_as_xyz
  1  'x, y, z'
loop_
 _atom_site_type_symbol
 _atom_site_label
 _atom_site_symmetry_multiplicity
 _atom_site_fract_x
 _atom_site_fract_y
 _atom_site_fract_z
 _atom_site_occupancy
  Nd  Nd0  1  0.001309  0.184287  0.500000  1
  Nd  Nd1  1  0.817022  0.815713  0.500000  1
  Nd  Nd2  1  0.184469  0.000000  0.500000  1
  Lu  Lu3  1  0.665241  0.330424  0.000000  1
  Lu  Lu4  1  0.334817  0.669576  0.000000  1
  P  P5  1  0.998898  0.809737  0.000000  1
  P  P6  1  0.189161  0.190263  0.000000  1
  P  P7  1  0.812935  0.000000  0.000000  1
  P  P8  1  0.695232  0.174004  0.500000  1
  P  P9  1  0.819693  0.517469  0.500000  1
  P  P10  1  0.479256  0.301292  0.500000  1
  P  P11  1  0.177964  0.698708  0.500000  1
  P  P12  1  0.521229  0.825996  0.500000  1
  P  P13  1  0.302223  0.482531  0.500000  1
  P  P14  1  0.999944  0.371661  0.000000  1
  P  P15  1  0.628282  0.628339  0.000000  1
  P  P16  1  0.374314  0.000000  0.000000  1
  Ru  Ru17  1  0.554232  0.000000  0.000000  1
  Ru  Ru18  1  0.998693  0.709680  0.500000  1
  Ru  Ru19  1  0.289012  0.290320  0.500000  1
  Ru  Ru20  1  0.714277  0.000000  0.500000  1
  Ru  Ru21  1  0.804744  0.185982  0.000000  1
  Ru  Ru22  1  0.812298  0.615932  0.000000  1
  Ru  Ru23  1  0.381214  0.195669  0.000000  1
  Ru  Ru24  1  0.185546  0.804331  0.000000  1
  Ru  Ru25  1  0.618762  0.814018  0.000000  1
  Ru  Ru26  1  0.196366  0.384068  0.000000  1
  Ru  Ru27  1  0.872777  0.367670  0.500000  1
  Ru  Ru28  1  0.629347  0.504479  0.500000  1
  Ru  Ru29  1  0.494841  0.125668  0.500000  1
  Ru  Ru30  1  0.369174  0.874332  0.500000  1
  Ru  Ru31  1  0.505106  0.632330  0.500000  1
  Ru  Ru32  1  0.124868  0.495521  0.500000  1
  Ru  Ru33  1  0.001104  0.000000  0.000000  1
  Rh  Rh34  1  0.998806  0.551963  0.000000  1
  Rh  Rh35  1  0.446844  0.448037  0.000000  1
