# generated using pymatgen
data_Dy4YHf5(Si5Ir2)4
_symmetry_space_group_name_H-M   'P 1'
_cell_length_a   12.49555700
_cell_length_b   12.49574000
_cell_length_c   4.16878300
_cell_angle_alpha   90.00000000
_cell_angle_beta   90.00000000
_cell_angle_gamma   89.99806502
_symmetry_Int_Tables_number   1
_chemical_formula_structural   Dy4YHf5(Si5Ir2)4
_chemical_formula_sum   'Dy4 Y1 Hf5 Si20 Ir8'
_cell_volume   650.91891099
_cell_formula_units_Z   1
loop_
 _symmetry_equiv_pos_site_id
 _symmetry_equiv_pos_as_xyz
  1  'x, y, z'
loop_
 _atom_site_type_symbol
 _atom_site_label
 _atom_site_symmetry_multiplicity
 _atom_site_fract_x
 _atom_site_fract_y
 _atom_site_fract_z
 _atom_site_occupancy
  Dy  Dy0  1  0.000006  0.000002  0.000000  1
  Dy  Dy1  1  0.884279  0.384976  0.500000  1
  Dy  Dy2  1  0.115725  0.615018  0.500000  1
  Dy  Dy3  1  0.384947  0.115760  0.500000  1
  Y  Y4  1  0.615011  0.884276  0.500000  1
  Hf  Hf5  1  0.499998  0.499997  0.000000  1
  Hf  Hf6  1  0.673571  0.175565  0.500000  1
  Hf  Hf7  1  0.326432  0.824433  0.500000  1
  Hf  Hf8  1  0.175548  0.326447  0.500000  1
  Hf  Hf9  1  0.824487  0.673517  0.500000  1
  Si  Si10  1  0.565851  0.068207  0.000000  1
  Si  Si11  1  0.434041  0.931899  0.000000  1
  Si  Si12  1  0.068119  0.434127  0.000000  1
  Si  Si13  1  0.931881  0.565870  0.000000  1
  Si  Si14  1  0.665271  0.701503  0.000000  1
  Si  Si15  1  0.334720  0.298396  0.000000  1
  Si  Si16  1  0.163780  0.800145  0.000000  1
  Si  Si17  1  0.836225  0.199865  0.000000  1
  Si  Si18  1  0.298395  0.665260  0.000000  1
  Si  Si19  1  0.701592  0.334733  0.000000  1
  Si  Si20  1  0.199864  0.163794  0.000000  1
  Si  Si21  1  0.800235  0.836217  0.000000  1
  Si  Si22  1  0.650975  0.508232  0.500000  1
  Si  Si23  1  0.349024  0.491766  0.500000  1
  Si  Si24  1  0.157258  0.992398  0.500000  1
  Si  Si25  1  0.842789  0.007633  0.500000  1
  Si  Si26  1  0.491740  0.650924  0.500000  1
  Si  Si27  1  0.508231  0.349027  0.500000  1
  Si  Si28  1  0.007605  0.157262  0.500000  1
  Si  Si29  1  0.992397  0.842740  0.500000  1
  Ir  Ir30  1  0.741595  0.521998  0.000000  1
  Ir  Ir31  1  0.258411  0.477998  0.000000  1
  Ir  Ir32  1  0.246650  0.977437  0.000000  1
  Ir  Ir33  1  0.753395  0.022624  0.000000  1
  Ir  Ir34  1  0.477940  0.741561  0.000000  1
  Ir  Ir35  1  0.522008  0.258399  0.000000  1
  Ir  Ir36  1  0.022554  0.246645  0.000000  1
  Ir  Ir37  1  0.977450  0.753347  0.000000  1
