# generated using pymatgen
data_DyY3MnCo13B6
_symmetry_space_group_name_H-M   'P 1'
_cell_length_a   5.05644808
_cell_length_b   5.05644803
_cell_length_c   12.69545600
_cell_angle_alpha   89.99861350
_cell_angle_beta   90.00138615
_cell_angle_gamma   119.98015634
_symmetry_Int_Tables_number   1
_chemical_formula_structural   DyY3MnCo13B6
_chemical_formula_sum   'Dy1 Y3 Mn1 Co13 B6'
_cell_volume   281.16214118
_cell_formula_units_Z   1
loop_
 _symmetry_equiv_pos_site_id
 _symmetry_equiv_pos_as_xyz
  1  'x, y, z'
loop_
 _atom_site_type_symbol
 _atom_site_label
 _atom_site_symmetry_multiplicity
 _atom_site_fract_x
 _atom_site_fract_y
 _atom_site_fract_z
 _atom_site_occupancy
  Dy  Dy0  1  0.000000  0.000000  0.739276  1
  Y  Y1  1  0.000000  0.000000  0.260972  1
  Y  Y2  1  0.000000  0.000000  0.500261  1
  Y  Y3  1  0.000002  0.999998  0.999674  1
  Mn  Mn4  1  0.333342  0.666658  0.999880  1
  Co  Co5  1  0.499936  0.999874  0.614905  1
  Co  Co6  1  0.500999  0.001984  0.842846  1
  Co  Co7  1  0.500996  0.499004  0.842846  1
  Co  Co8  1  0.499940  0.500060  0.385295  1
  Co  Co9  1  0.000126  0.500064  0.614905  1
  Co  Co10  1  0.998038  0.499026  0.156845  1
  Co  Co11  1  0.998016  0.499001  0.842846  1
  Co  Co12  1  0.500976  0.499024  0.156834  1
  Co  Co13  1  0.499941  0.999882  0.385296  1
  Co  Co14  1  0.500974  0.001962  0.156845  1
  Co  Co15  1  0.499936  0.500064  0.614923  1
  Co  Co16  1  0.666664  0.333336  0.999973  1
  Co  Co17  1  0.000118  0.500059  0.385296  1
  B  B18  1  0.666686  0.333314  0.730388  1
  B  B19  1  0.333311  0.666689  0.731225  1
  B  B20  1  0.333383  0.666617  0.268867  1
  B  B21  1  0.666635  0.333365  0.500067  1
  B  B22  1  0.666614  0.333386  0.269666  1
  B  B23  1  0.333365  0.666635  0.500067  1
