# generated using pymatgen
data_DyHo3Ga2SiGe
_symmetry_space_group_name_H-M   'P 1'
_cell_length_a   3.96917600
_cell_length_b   4.30211200
_cell_length_c   10.71519400
_cell_angle_alpha   90.00000000
_cell_angle_beta   90.00000000
_cell_angle_gamma   90.00000000
_symmetry_Int_Tables_number   1
_chemical_formula_structural   DyHo3Ga2SiGe
_chemical_formula_sum   'Dy1 Ho3 Ga2 Si1 Ge1'
_cell_volume   182.97093510
_cell_formula_units_Z   1
loop_
 _symmetry_equiv_pos_site_id
 _symmetry_equiv_pos_as_xyz
  1  'x, y, z'
loop_
 _atom_site_type_symbol
 _atom_site_label
 _atom_site_symmetry_multiplicity
 _atom_site_fract_x
 _atom_site_fract_y
 _atom_site_fract_z
 _atom_site_occupancy
  Dy  Dy0  1  0.500000  0.000000  0.860419  1
  Ho  Ho1  1  0.000000  0.000000  0.141758  1
  Ho  Ho2  1  0.000000  0.500000  0.636736  1
  Ho  Ho3  1  0.500000  0.500000  0.360442  1
  Ga  Ga4  1  0.500000  0.500000  0.080274  1
  Ga  Ga5  1  0.500000  0.000000  0.577287  1
  Si  Si6  1  0.000000  0.000000  0.423393  1
  Ge  Ge7  1  0.000000  0.500000  0.919690  1
