# generated using pymatgen
data_Ac4LaSm(RuBr3)2
_symmetry_space_group_name_H-M   'P 1'
_cell_length_a   4.42563100
_cell_length_b   9.80571615
_cell_length_c   12.38557700
_cell_angle_alpha   88.19914057
_cell_angle_beta   90.00000000
_cell_angle_gamma   90.00000000
_symmetry_Int_Tables_number   1
_chemical_formula_structural   Ac4LaSm(RuBr3)2
_chemical_formula_sum   'Ac4 La1 Sm1 Ru2 Br6'
_cell_volume   537.22498915
_cell_formula_units_Z   1
loop_
 _symmetry_equiv_pos_site_id
 _symmetry_equiv_pos_as_xyz
  1  'x, y, z'
loop_
 _atom_site_type_symbol
 _atom_site_label
 _atom_site_symmetry_multiplicity
 _atom_site_fract_x
 _atom_site_fract_y
 _atom_site_fract_z
 _atom_site_occupancy
  Ac  Ac0  1  0.250000  0.322263  0.372260  1
  Ac  Ac1  1  0.750000  0.672417  0.626620  1
  Ac  Ac2  1  0.250000  0.902764  0.385414  1
  Ac  Ac3  1  0.750000  0.099799  0.609095  1
  La  La4  1  0.250000  0.884603  0.837205  1
  Sm  Sm5  1  0.750000  0.117227  0.160356  1
  Ru  Ru6  1  0.250000  0.883478  0.640745  1
  Ru  Ru7  1  0.750000  0.114916  0.370133  1
  Br  Br8  1  0.250000  0.398817  0.628797  1
  Br  Br9  1  0.750000  0.603579  0.372952  1
  Br  Br10  1  0.250000  0.909881  0.113258  1
  Br  Br11  1  0.750000  0.103372  0.886466  1
  Br  Br12  1  0.250000  0.321387  0.115909  1
  Br  Br13  1  0.750000  0.665498  0.880788  1
