# generated using pymatgen
data_NdDyCu2(Ni3B)2
_symmetry_space_group_name_H-M   'P 1'
_cell_length_a   5.07826400
_cell_length_b   5.07831801
_cell_length_c   6.94271200
_cell_angle_alpha   90.00000000
_cell_angle_beta   90.00000000
_cell_angle_gamma   119.99964816
_symmetry_Int_Tables_number   1
_chemical_formula_structural   NdDyCu2(Ni3B)2
_chemical_formula_sum   'Nd1 Dy1 Cu2 Ni6 B2'
_cell_volume   155.05882534
_cell_formula_units_Z   1
loop_
 _symmetry_equiv_pos_site_id
 _symmetry_equiv_pos_as_xyz
  1  'x, y, z'
loop_
 _atom_site_type_symbol
 _atom_site_label
 _atom_site_symmetry_multiplicity
 _atom_site_fract_x
 _atom_site_fract_y
 _atom_site_fract_z
 _atom_site_occupancy
  Nd  Nd0  1  0.500000  0.000000  0.000000  1
  Dy  Dy1  1  0.500000  0.000000  0.500000  1
  Cu  Cu2  1  0.833324  0.666646  0.000000  1
  Cu  Cu3  1  0.166676  0.333354  0.000000  1
  Ni  Ni4  1  0.000000  0.000000  0.701484  1
  Ni  Ni5  1  0.500000  0.500000  0.701460  1
  Ni  Ni6  1  0.000000  0.500000  0.701460  1
  Ni  Ni7  1  0.000000  0.000000  0.298516  1
  Ni  Ni8  1  0.500000  0.500000  0.298540  1
  Ni  Ni9  1  0.000000  0.500000  0.298540  1
  B  B10  1  0.833330  0.666661  0.500000  1
  B  B11  1  0.166670  0.333339  0.500000  1
