# generated using pymatgen
data_HoEr3Pt4F28
_symmetry_space_group_name_H-M   'P 1'
_cell_length_a   5.52843101
_cell_length_b   8.83480270
_cell_length_c   11.94538022
_cell_angle_alpha   62.57040355
_cell_angle_beta   89.99227445
_cell_angle_gamma   89.99430330
_symmetry_Int_Tables_number   1
_chemical_formula_structural   HoEr3Pt4F28
_chemical_formula_sum   'Ho1 Er3 Pt4 F28'
_cell_volume   517.85125251
_cell_formula_units_Z   1
loop_
 _symmetry_equiv_pos_site_id
 _symmetry_equiv_pos_as_xyz
  1  'x, y, z'
loop_
 _atom_site_type_symbol
 _atom_site_label
 _atom_site_symmetry_multiplicity
 _atom_site_fract_x
 _atom_site_fract_y
 _atom_site_fract_z
 _atom_site_occupancy
  Ho  Ho0  1  0.760876  0.814656  0.764402  1
  Er  Er1  1  0.260952  0.186256  0.735580  1
  Er  Er2  1  0.239039  0.185451  0.235641  1
  Er  Er3  1  0.739267  0.814431  0.264410  1
  Pt  Pt4  1  0.758937  0.271700  0.957140  1
  Pt  Pt5  1  0.258973  0.727774  0.542590  1
  Pt  Pt6  1  0.241136  0.727610  0.043575  1
  Pt  Pt7  1  0.740590  0.272578  0.456669  1
  F  F8  1  0.437744  0.702790  0.915840  1
  F  F9  1  0.937926  0.297378  0.584225  1
  F  F10  1  0.561658  0.296959  0.084518  1
  F  F11  1  0.062590  0.702702  0.414897  1
  F  F12  1  0.439321  0.278043  0.543504  1
  F  F13  1  0.939713  0.721873  0.957176  1
  F  F14  1  0.561165  0.722496  0.456326  1
  F  F15  1  0.060441  0.277233  0.043759  1
  F  F16  1  0.774842  0.521951  0.857783  1
  F  F17  1  0.274640  0.477366  0.641938  1
  F  F18  1  0.225476  0.477128  0.142581  1
  F  F19  1  0.724866  0.522888  0.357759  1
  F  F20  1  0.754368  0.021708  0.051224  1
  F  F21  1  0.254381  0.977795  0.448774  1
  F  F22  1  0.245503  0.977645  0.949348  1
  F  F23  1  0.745378  0.022561  0.550574  1
  F  F24  1  0.965341  0.725260  0.636334  1
  F  F25  1  0.465694  0.274348  0.862961  1
  F  F26  1  0.033518  0.274562  0.362493  1
  F  F27  1  0.534407  0.725549  0.137517  1
  F  F28  1  0.050076  0.746286  0.176106  1
  F  F29  1  0.549214  0.253885  0.324176  1
  F  F30  1  0.950122  0.252954  0.824577  1
  F  F31  1  0.448892  0.746253  0.675522  1
  F  F32  1  0.417926  0.970857  0.232960  1
  F  F33  1  0.917966  0.028969  0.267147  1
  F  F34  1  0.582777  0.030725  0.767258  1
  F  F35  1  0.084284  0.971378  0.732713  1
