# generated using pymatgen
data_Lu17Sc3(SiSb3)3
_symmetry_space_group_name_H-M   'P 1'
_cell_length_a   7.76091948
_cell_length_b   8.95886400
_cell_length_c   11.45417801
_cell_angle_alpha   90.00000000
_cell_angle_beta   89.85109851
_cell_angle_gamma   90.00000000
_symmetry_Int_Tables_number   1
_chemical_formula_structural   Lu17Sc3(SiSb3)3
_chemical_formula_sum   'Lu17 Sc3 Si3 Sb9'
_cell_volume   796.39510658
_cell_formula_units_Z   1
loop_
 _symmetry_equiv_pos_site_id
 _symmetry_equiv_pos_as_xyz
  1  'x, y, z'
loop_
 _atom_site_type_symbol
 _atom_site_label
 _atom_site_symmetry_multiplicity
 _atom_site_fract_x
 _atom_site_fract_y
 _atom_site_fract_z
 _atom_site_occupancy
  Lu  Lu0  1  0.186102  0.555531  0.442385  1
  Lu  Lu1  1  0.691653  0.932341  0.056780  1
  Lu  Lu2  1  0.813132  0.056431  0.556461  1
  Lu  Lu3  1  0.304911  0.450772  0.939209  1
  Lu  Lu4  1  0.813132  0.443569  0.556461  1
  Lu  Lu5  1  0.304911  0.049228  0.939209  1
  Lu  Lu6  1  0.186102  0.944469  0.442385  1
  Lu  Lu7  1  0.691653  0.567659  0.056780  1
  Lu  Lu8  1  0.537482  0.750000  0.509019  1
  Lu  Lu9  1  0.174615  0.750000  0.715230  1
  Lu  Lu10  1  0.676684  0.750000  0.785643  1
  Lu  Lu11  1  0.828432  0.250000  0.286645  1
  Lu  Lu12  1  0.307722  0.250000  0.225347  1
  Lu  Lu13  1  0.851872  0.750000  0.293649  1
  Lu  Lu14  1  0.352748  0.750000  0.207044  1
  Lu  Lu15  1  0.148251  0.250000  0.706178  1
  Lu  Lu16  1  0.651565  0.250000  0.785830  1
  Sc  Sc17  1  0.040997  0.750000  0.988520  1
  Sc  Sc18  1  0.972420  0.250000  0.010443  1
  Sc  Sc19  1  0.463760  0.250000  0.491243  1
  Si  Si20  1  0.913112  0.750000  0.538205  1
  Si  Si21  1  0.412675  0.750000  0.963562  1
  Si  Si22  1  0.092037  0.250000  0.462888  1
  Sb  Sb23  1  0.936790  0.497436  0.827976  1
  Sb  Sb24  1  0.436962  0.003557  0.673549  1
  Sb  Sb25  1  0.061503  0.995735  0.170930  1
  Sb  Sb26  1  0.562019  0.498462  0.326470  1
  Sb  Sb27  1  0.061503  0.504265  0.170930  1
  Sb  Sb28  1  0.562019  0.001538  0.326470  1
  Sb  Sb29  1  0.936790  0.002564  0.827976  1
  Sb  Sb30  1  0.436962  0.496443  0.673549  1
  Sb  Sb31  1  0.589487  0.250000  0.043037  1
