# generated using pymatgen
data_Dy16MgCd3TcNi3
_symmetry_space_group_name_H-M   'P 1'
_cell_length_a   9.62290410
_cell_length_b   9.62290446
_cell_length_c   9.62290476
_cell_angle_alpha   59.35463010
_cell_angle_beta   59.35462581
_cell_angle_gamma   59.35462347
_symmetry_Int_Tables_number   1
_chemical_formula_structural   Dy16MgCd3TcNi3
_chemical_formula_sum   'Dy16 Mg1 Cd3 Tc1 Ni3'
_cell_volume   620.83505757
_cell_formula_units_Z   1
loop_
 _symmetry_equiv_pos_site_id
 _symmetry_equiv_pos_as_xyz
  1  'x, y, z'
loop_
 _atom_site_type_symbol
 _atom_site_label
 _atom_site_symmetry_multiplicity
 _atom_site_fract_x
 _atom_site_fract_y
 _atom_site_fract_z
 _atom_site_occupancy
  Dy  Dy0  1  0.597652  0.597652  0.597652  1
  Dy  Dy1  1  0.600529  0.600529  0.206078  1
  Dy  Dy2  1  0.600529  0.206078  0.600529  1
  Dy  Dy3  1  0.206078  0.600529  0.600529  1
  Dy  Dy4  1  0.060351  0.438374  0.438374  1
  Dy  Dy5  1  0.437066  0.061880  0.061880  1
  Dy  Dy6  1  0.438374  0.060351  0.438374  1
  Dy  Dy7  1  0.061880  0.437066  0.061880  1
  Dy  Dy8  1  0.438374  0.438374  0.060351  1
  Dy  Dy9  1  0.061880  0.061880  0.437066  1
  Dy  Dy10  1  0.186151  0.816101  0.816101  1
  Dy  Dy11  1  0.805790  0.189382  0.189382  1
  Dy  Dy12  1  0.816101  0.186151  0.816101  1
  Dy  Dy13  1  0.189382  0.805790  0.189382  1
  Dy  Dy14  1  0.816101  0.816101  0.186151  1
  Dy  Dy15  1  0.189382  0.189382  0.805790  1
  Mg  Mg16  1  0.825118  0.825118  0.825118  1
  Cd  Cd17  1  0.829818  0.829818  0.504787  1
  Cd  Cd18  1  0.829818  0.504787  0.829818  1
  Cd  Cd19  1  0.504787  0.829818  0.829818  1
  Tc  Tc20  1  0.393823  0.393823  0.393823  1
  Ni  Ni21  1  0.392899  0.392899  0.825215  1
  Ni  Ni22  1  0.392899  0.825215  0.392899  1
  Ni  Ni23  1  0.825215  0.392899  0.392899  1
