# generated using pymatgen
data_Ba3Sn4Te
_symmetry_space_group_name_H-M   'P 1'
_cell_length_a   9.30995625
_cell_length_b   9.30995640
_cell_length_c   9.42012847
_cell_angle_alpha   119.61387062
_cell_angle_beta   119.61387637
_cell_angle_gamma   90.00000072
_symmetry_Int_Tables_number   1
_chemical_formula_structural   Ba3Sn4Te
_chemical_formula_sum   'Ba6 Sn8 Te2'
_cell_volume   584.02140705
_cell_formula_units_Z   2
loop_
 _symmetry_equiv_pos_site_id
 _symmetry_equiv_pos_as_xyz
  1  'x, y, z'
loop_
 _atom_site_type_symbol
 _atom_site_label
 _atom_site_symmetry_multiplicity
 _atom_site_fract_x
 _atom_site_fract_y
 _atom_site_fract_z
 _atom_site_occupancy
  Ba  Ba0  1  0.250000  0.250000  0.500000  1
  Ba  Ba1  1  0.750000  0.750000  0.500000  1
  Ba  Ba2  1  0.664735  0.164735  0.000000  1
  Ba  Ba3  1  0.335265  0.835265  0.000000  1
  Ba  Ba4  1  0.835265  0.664735  0.000000  1
  Ba  Ba5  1  0.164735  0.335265  0.000000  1
  Sn  Sn6  1  0.333747  0.833747  0.388399  1
  Sn  Sn7  1  0.666253  0.166253  0.611601  1
  Sn  Sn8  1  0.054653  0.554653  0.388399  1
  Sn  Sn9  1  0.554653  0.333747  0.388399  1
  Sn  Sn10  1  0.166253  0.945347  0.611601  1
  Sn  Sn11  1  0.945347  0.445347  0.611601  1
  Sn  Sn12  1  0.445347  0.666253  0.611601  1
  Sn  Sn13  1  0.833747  0.054653  0.388399  1
  Te  Te14  1  0.000000  0.000000  0.000000  1
  Te  Te15  1  0.500000  0.500000  0.000000  1
