# generated using pymatgen
data_Sc20SiSb11
_symmetry_space_group_name_H-M   'P 1'
_cell_length_a   7.57017662
_cell_length_b   8.75643400
_cell_length_c   11.13071198
_cell_angle_alpha   90.00000000
_cell_angle_beta   89.79954127
_cell_angle_gamma   90.00000000
_symmetry_Int_Tables_number   1
_chemical_formula_structural   Sc20SiSb11
_chemical_formula_sum   'Sc20 Si1 Sb11'
_cell_volume   737.82535868
_cell_formula_units_Z   1
loop_
 _symmetry_equiv_pos_site_id
 _symmetry_equiv_pos_as_xyz
  1  'x, y, z'
loop_
 _atom_site_type_symbol
 _atom_site_label
 _atom_site_symmetry_multiplicity
 _atom_site_fract_x
 _atom_site_fract_y
 _atom_site_fract_z
 _atom_site_occupancy
  Sc  Sc0  1  0.037346  0.250000  0.511188  1
  Sc  Sc1  1  0.976167  0.750000  0.490067  1
  Sc  Sc2  1  0.473531  0.750000  0.010532  1
  Sc  Sc3  1  0.527296  0.250000  0.988826  1
  Sc  Sc4  1  0.354854  0.250000  0.293783  1
  Sc  Sc5  1  0.649112  0.750000  0.716047  1
  Sc  Sc6  1  0.148647  0.750000  0.782896  1
  Sc  Sc7  1  0.851606  0.250000  0.216167  1
  Sc  Sc8  1  0.190772  0.250000  0.774256  1
  Sc  Sc9  1  0.812443  0.750000  0.221881  1
  Sc  Sc10  1  0.313381  0.750000  0.277901  1
  Sc  Sc11  1  0.674262  0.250000  0.712926  1
  Sc  Sc12  1  0.197069  0.062244  0.061808  1
  Sc  Sc13  1  0.802985  0.938315  0.939133  1
  Sc  Sc14  1  0.306659  0.951769  0.560252  1
  Sc  Sc15  1  0.802985  0.561685  0.939133  1
  Sc  Sc16  1  0.687932  0.069018  0.443339  1
  Sc  Sc17  1  0.197069  0.437756  0.061808  1
  Sc  Sc18  1  0.687932  0.430982  0.443339  1
  Sc  Sc19  1  0.306659  0.548231  0.560252  1
  Si  Si20  1  0.414183  0.250000  0.536316  1
  Sb  Sb21  1  0.586117  0.750000  0.460818  1
  Sb  Sb22  1  0.086745  0.750000  0.039113  1
  Sb  Sb23  1  0.914809  0.250000  0.959107  1
  Sb  Sb24  1  0.065686  0.004073  0.326735  1
  Sb  Sb25  1  0.933850  0.997074  0.673354  1
  Sb  Sb26  1  0.434045  0.996159  0.825664  1
  Sb  Sb27  1  0.933850  0.502926  0.673354  1
  Sb  Sb28  1  0.566137  0.004683  0.173803  1
  Sb  Sb29  1  0.065686  0.495927  0.326735  1
  Sb  Sb30  1  0.566137  0.495317  0.173803  1
  Sb  Sb31  1  0.434045  0.503841  0.825664  1
