# generated using pymatgen
data_K7ZrPa3TlTe12
_symmetry_space_group_name_H-M   'P 1'
_cell_length_a   14.80686561
_cell_length_b   7.26416684
_cell_length_c   9.23677090
_cell_angle_alpha   73.97226365
_cell_angle_beta   89.89985495
_cell_angle_gamma   90.27977556
_symmetry_Int_Tables_number   1
_chemical_formula_structural   K7ZrPa3TlTe12
_chemical_formula_sum   'K7 Zr1 Pa3 Tl1 Te12'
_cell_volume   954.86721664
_cell_formula_units_Z   1
loop_
 _symmetry_equiv_pos_site_id
 _symmetry_equiv_pos_as_xyz
  1  'x, y, z'
loop_
 _atom_site_type_symbol
 _atom_site_label
 _atom_site_symmetry_multiplicity
 _atom_site_fract_x
 _atom_site_fract_y
 _atom_site_fract_z
 _atom_site_occupancy
  K  K0  1  0.471401  0.853954  0.322623  1
  K  K1  1  0.026416  0.346337  0.332292  1
  K  K2  1  0.536144  0.157224  0.668948  1
  K  K3  1  0.871828  0.072716  0.892995  1
  K  K4  1  0.374148  0.428652  0.104310  1
  K  K5  1  0.126180  0.933570  0.109692  1
  K  K6  1  0.639832  0.554318  0.886142  1
  Zr  Zr7  1  0.747803  0.180302  0.290426  1
  Pa  Pa8  1  0.748675  0.678237  0.291722  1
  Pa  Pa9  1  0.250960  0.817186  0.714558  1
  Pa  Pa10  1  0.249156  0.316624  0.714103  1
  Tl  Tl11  1  0.970691  0.673765  0.641354  1
  Te  Te12  1  0.911843  0.940667  0.286835  1
  Te  Te13  1  0.418287  0.569676  0.711878  1
  Te  Te14  1  0.081723  0.062304  0.718826  1
  Te  Te15  1  0.585924  0.424724  0.276642  1
  Te  Te16  1  0.814351  0.340588  0.534929  1
  Te  Te17  1  0.325031  0.154835  0.467159  1
  Te  Te18  1  0.168154  0.652634  0.471261  1
  Te  Te19  1  0.677237  0.856610  0.529160  1
  Te  Te20  1  0.843894  0.499830  0.069987  1
  Te  Te21  1  0.343025  0.985234  0.951600  1
  Te  Te22  1  0.157361  0.483090  0.951601  1
  Te  Te23  1  0.659938  0.016923  0.060961  1
