# generated using pymatgen
data_CsNbH5
_symmetry_space_group_name_H-M   'P 1'
_cell_length_a   11.56180500
_cell_length_b   7.70796100
_cell_length_c   5.28908400
_cell_angle_alpha   90.00000000
_cell_angle_beta   90.00000000
_cell_angle_gamma   90.00000000
_symmetry_Int_Tables_number   1
_chemical_formula_structural   CsNbH5
_chemical_formula_sum   'Cs4 Nb4 H20'
_cell_volume   471.35228130
_cell_formula_units_Z   4
loop_
 _symmetry_equiv_pos_site_id
 _symmetry_equiv_pos_as_xyz
  1  'x, y, z'
loop_
 _atom_site_type_symbol
 _atom_site_label
 _atom_site_symmetry_multiplicity
 _atom_site_fract_x
 _atom_site_fract_y
 _atom_site_fract_z
 _atom_site_occupancy
  Cs  Cs0  1  0.670949  0.062045  0.349969  1
  Cs  Cs1  1  0.170949  0.437954  0.349969  1
  Cs  Cs2  1  0.829051  0.562045  0.849969  1
  Cs  Cs3  1  0.329051  0.937955  0.849969  1
  Nb  Nb4  1  0.518763  0.553550  0.301183  1
  Nb  Nb5  1  0.018763  0.946450  0.301183  1
  Nb  Nb6  1  0.981237  0.053549  0.801182  1
  Nb  Nb7  1  0.481237  0.446451  0.801182  1
  H  H8  1  0.337021  0.350858  0.823032  1
  H  H9  1  0.837021  0.149142  0.823032  1
  H  H10  1  0.992648  0.713674  0.300810  1
  H  H11  1  0.492648  0.786325  0.300810  1
  H  H12  1  0.587385  0.385279  0.070473  1
  H  H13  1  0.087384  0.114721  0.070473  1
  H  H14  1  0.390828  0.559218  0.060098  1
  H  H15  1  0.890828  0.940783  0.060098  1
  H  H16  1  0.941921  0.142326  0.461432  1
  H  H17  1  0.441921  0.357675  0.461432  1
  H  H18  1  0.162979  0.850858  0.323031  1
  H  H19  1  0.662979  0.649141  0.323031  1
  H  H20  1  0.507353  0.213674  0.800812  1
  H  H21  1  0.007353  0.286325  0.800812  1
  H  H22  1  0.912616  0.885278  0.570473  1
  H  H23  1  0.412616  0.614722  0.570473  1
  H  H24  1  0.109172  0.059217  0.560098  1
  H  H25  1  0.609172  0.440783  0.560098  1
  H  H26  1  0.558079  0.642326  0.961434  1
  H  H27  1  0.058079  0.857675  0.961434  1
