# generated using pymatgen
data_Tb4LuRu3
_symmetry_space_group_name_H-M   'P 1'
_cell_length_a   10.81898600
_cell_length_b   10.81898600
_cell_length_c   6.35431000
_cell_angle_alpha   90.00000000
_cell_angle_beta   90.00000000
_cell_angle_gamma   90.00000000
_symmetry_Int_Tables_number   1
_chemical_formula_structural   Tb4LuRu3
_chemical_formula_sum   'Tb16 Lu4 Ru12'
_cell_volume   743.77489621
_cell_formula_units_Z   4
loop_
 _symmetry_equiv_pos_site_id
 _symmetry_equiv_pos_as_xyz
  1  'x, y, z'
loop_
 _atom_site_type_symbol
 _atom_site_label
 _atom_site_symmetry_multiplicity
 _atom_site_fract_x
 _atom_site_fract_y
 _atom_site_fract_z
 _atom_site_occupancy
  Tb  Tb0  1  0.290603  0.086884  0.377939  1
  Tb  Tb1  1  0.290603  0.913116  0.877939  1
  Tb  Tb2  1  0.709397  0.086884  0.877939  1
  Tb  Tb3  1  0.709397  0.913116  0.377939  1
  Tb  Tb4  1  0.586884  0.790603  0.877939  1
  Tb  Tb5  1  0.586884  0.209397  0.377939  1
  Tb  Tb6  1  0.413116  0.790603  0.377939  1
  Tb  Tb7  1  0.413116  0.209397  0.877939  1
  Tb  Tb8  1  0.209397  0.413116  0.622061  1
  Tb  Tb9  1  0.209397  0.586884  0.122061  1
  Tb  Tb10  1  0.790603  0.413116  0.122061  1
  Tb  Tb11  1  0.790603  0.586884  0.622061  1
  Tb  Tb12  1  0.913116  0.709397  0.122061  1
  Tb  Tb13  1  0.913116  0.290603  0.622061  1
  Tb  Tb14  1  0.086884  0.709397  0.622061  1
  Tb  Tb15  1  0.086884  0.290603  0.122061  1
  Lu  Lu16  1  0.000000  0.000000  0.500000  1
  Lu  Lu17  1  0.000000  0.000000  0.000000  1
  Lu  Lu18  1  0.500000  0.500000  0.000000  1
  Lu  Lu19  1  0.500000  0.500000  0.500000  1
  Ru  Ru20  1  0.849156  0.150844  0.250000  1
  Ru  Ru21  1  0.849156  0.849156  0.750000  1
  Ru  Ru22  1  0.150844  0.150844  0.750000  1
  Ru  Ru23  1  0.150844  0.849156  0.250000  1
  Ru  Ru24  1  0.650844  0.349156  0.750000  1
  Ru  Ru25  1  0.650844  0.650844  0.250000  1
  Ru  Ru26  1  0.349156  0.349156  0.250000  1
  Ru  Ru27  1  0.349156  0.650844  0.750000  1
  Ru  Ru28  1  0.500000  0.000000  0.123123  1
  Ru  Ru29  1  0.500000  0.000000  0.623123  1
  Ru  Ru30  1  0.000000  0.500000  0.876877  1
  Ru  Ru31  1  0.000000  0.500000  0.376877  1
