# generated using pymatgen
data_YbPa3(AlTc)4
_symmetry_space_group_name_H-M   'P 1'
_cell_length_a   3.89330400
_cell_length_b   6.98844635
_cell_length_c   8.45276706
_cell_angle_alpha   89.96296405
_cell_angle_beta   90.00000000
_cell_angle_gamma   90.00000000
_symmetry_Int_Tables_number   1
_chemical_formula_structural   YbPa3(AlTc)4
_chemical_formula_sum   'Yb1 Pa3 Al4 Tc4'
_cell_volume   229.98407346
_cell_formula_units_Z   1
loop_
 _symmetry_equiv_pos_site_id
 _symmetry_equiv_pos_as_xyz
  1  'x, y, z'
loop_
 _atom_site_type_symbol
 _atom_site_label
 _atom_site_symmetry_multiplicity
 _atom_site_fract_x
 _atom_site_fract_y
 _atom_site_fract_z
 _atom_site_occupancy
  Yb  Yb0  1  0.750000  0.463349  0.819723  1
  Pa  Pa1  1  0.250000  0.028476  0.316537  1
  Pa  Pa2  1  0.250000  0.528983  0.184118  1
  Pa  Pa3  1  0.750000  0.969953  0.691682  1
  Al  Al4  1  0.250000  0.141560  0.946567  1
  Al  Al5  1  0.250000  0.628605  0.557176  1
  Al  Al6  1  0.750000  0.869323  0.050654  1
  Al  Al7  1  0.750000  0.365471  0.449090  1
  Tc  Tc8  1  0.250000  0.232270  0.622390  1
  Tc  Tc9  1  0.250000  0.772527  0.857861  1
  Tc  Tc10  1  0.750000  0.749393  0.354488  1
  Tc  Tc11  1  0.750000  0.250092  0.149713  1
