# generated using pymatgen
data_SmYRh2O7
_symmetry_space_group_name_H-M   'P 1'
_cell_length_a   7.28624555
_cell_length_b   7.28624641
_cell_length_c   7.28624466
_cell_angle_alpha   119.92990214
_cell_angle_beta   120.08650186
_cell_angle_gamma   89.98584766
_symmetry_Int_Tables_number   1
_chemical_formula_structural   SmYRh2O7
_chemical_formula_sum   'Sm2 Y2 Rh4 O14'
_cell_volume   273.49005432
_cell_formula_units_Z   2
loop_
 _symmetry_equiv_pos_site_id
 _symmetry_equiv_pos_as_xyz
  1  'x, y, z'
loop_
 _atom_site_type_symbol
 _atom_site_label
 _atom_site_symmetry_multiplicity
 _atom_site_fract_x
 _atom_site_fract_y
 _atom_site_fract_z
 _atom_site_occupancy
  Sm  Sm0  1  0.000000  0.500000  0.000000  1
  Sm  Sm1  1  0.000000  0.000000  0.500000  1
  Y  Y2  1  0.000000  0.500000  0.500000  1
  Y  Y3  1  0.500000  0.500000  0.000000  1
  Rh  Rh4  1  0.500000  0.000000  0.000000  1
  Rh  Rh5  1  0.500000  0.500000  0.500000  1
  Rh  Rh6  1  0.500000  0.000000  0.500000  1
  Rh  Rh7  1  0.000000  0.000000  0.000000  1
  O  O8  1  0.870612  0.620612  0.250000  1
  O  O9  1  0.129388  0.379388  0.750000  1
  O  O10  1  0.835491  0.085491  0.750000  1
  O  O11  1  0.415757  0.665757  0.750000  1
  O  O12  1  0.834984  0.664401  0.746485  1
  O  O13  1  0.417916  0.088500  0.753515  1
  O  O14  1  0.834984  0.088500  0.170584  1
  O  O15  1  0.417916  0.664401  0.329416  1
  O  O16  1  0.164509  0.914509  0.250000  1
  O  O17  1  0.584243  0.334243  0.250000  1
  O  O18  1  0.165016  0.335599  0.253515  1
  O  O19  1  0.582084  0.911500  0.246485  1
  O  O20  1  0.165016  0.911500  0.829416  1
  O  O21  1  0.582084  0.335599  0.670584  1
