# generated using pymatgen
data_TbEr3GaSb5Rh7
_symmetry_space_group_name_H-M   'P 1'
_cell_length_a   7.55324675
_cell_length_b   7.55260896
_cell_length_c   7.55260873
_cell_angle_alpha   109.13999435
_cell_angle_beta   109.73348640
_cell_angle_gamma   109.73349124
_symmetry_Int_Tables_number   1
_chemical_formula_structural   TbEr3GaSb5Rh7
_chemical_formula_sum   'Tb1 Er3 Ga1 Sb5 Rh7'
_cell_volume   330.86719132
_cell_formula_units_Z   1
loop_
 _symmetry_equiv_pos_site_id
 _symmetry_equiv_pos_as_xyz
  1  'x, y, z'
loop_
 _atom_site_type_symbol
 _atom_site_label
 _atom_site_symmetry_multiplicity
 _atom_site_fract_x
 _atom_site_fract_y
 _atom_site_fract_z
 _atom_site_occupancy
  Tb  Tb0  1  0.480493  0.488499  0.488499  1
  Er  Er1  1  0.522072  0.009210  0.009210  1
  Er  Er2  1  0.000000  0.487653  0.009360  1
  Er  Er3  1  0.000000  0.009360  0.487653  1
  Ga  Ga4  1  0.999743  0.329324  0.329324  1
  Sb  Sb5  1  0.684758  0.997265  0.681167  1
  Sb  Sb6  1  0.684758  0.681167  0.997265  1
  Sb  Sb7  1  0.000888  0.683899  0.683899  1
  Sb  Sb8  1  0.314731  0.995785  0.311320  1
  Sb  Sb9  1  0.314731  0.311320  0.995785  1
  Rh  Rh10  1  0.998958  0.018161  0.018161  1
  Rh  Rh11  1  0.500009  0.749403  0.247544  1
  Rh  Rh12  1  0.752071  0.497627  0.248742  1
  Rh  Rh13  1  0.247354  0.747131  0.497911  1
  Rh  Rh14  1  0.247354  0.497911  0.747131  1
  Rh  Rh15  1  0.500009  0.247544  0.749403  1
  Rh  Rh16  1  0.752071  0.248742  0.497627  1
