# generated using pymatgen
data_Hf3Zr7Ga2Sn5Sb
_symmetry_space_group_name_H-M   'P 1'
_cell_length_a   8.70875142
_cell_length_b   8.71201519
_cell_length_c   5.86296803
_cell_angle_alpha   89.98769285
_cell_angle_beta   90.00519165
_cell_angle_gamma   119.97510823
_symmetry_Int_Tables_number   1
_chemical_formula_structural   Hf3Zr7Ga2Sn5Sb
_chemical_formula_sum   'Hf3 Zr7 Ga2 Sn5 Sb1'
_cell_volume   385.32886587
_cell_formula_units_Z   1
loop_
 _symmetry_equiv_pos_site_id
 _symmetry_equiv_pos_as_xyz
  1  'x, y, z'
loop_
 _atom_site_type_symbol
 _atom_site_label
 _atom_site_symmetry_multiplicity
 _atom_site_fract_x
 _atom_site_fract_y
 _atom_site_fract_z
 _atom_site_occupancy
  Hf  Hf0  1  0.333334  0.666001  0.000326  1
  Hf  Hf1  1  0.333345  0.665980  0.499722  1
  Hf  Hf2  1  0.666118  0.333305  0.499530  1
  Zr  Zr3  1  0.731857  0.732378  0.750405  1
  Zr  Zr4  1  0.267153  0.000981  0.750252  1
  Zr  Zr5  1  0.002142  0.267674  0.750208  1
  Zr  Zr6  1  0.268034  0.268541  0.249923  1
  Zr  Zr7  1  0.731913  0.998543  0.249677  1
  Zr  Zr8  1  0.999520  0.732381  0.249723  1
  Zr  Zr9  1  0.665727  0.333395  0.000155  1
  Ga  Ga10  1  0.999540  0.999561  0.001029  1
  Ga  Ga11  1  0.999549  0.999580  0.498965  1
  Sn  Sn12  1  0.611565  0.999592  0.749576  1
  Sn  Sn13  1  0.000730  0.612137  0.749602  1
  Sn  Sn14  1  0.612056  0.612630  0.250449  1
  Sn  Sn15  1  0.387672  0.998564  0.250490  1
  Sn  Sn16  1  0.999548  0.388150  0.250375  1
  Sb  Sb17  1  0.390200  0.390609  0.749594  1
