# generated using pymatgen
data_Lu2ZrGa5Co
_symmetry_space_group_name_H-M   'P 1'
_cell_length_a   6.76681300
_cell_length_b   6.73884877
_cell_length_c   4.09314200
_cell_angle_alpha   90.00000000
_cell_angle_beta   90.00000000
_cell_angle_gamma   120.13737121
_symmetry_Int_Tables_number   1
_chemical_formula_structural   Lu2ZrGa5Co
_chemical_formula_sum   'Lu2 Zr1 Ga5 Co1'
_cell_volume   161.41894092
_cell_formula_units_Z   1
loop_
 _symmetry_equiv_pos_site_id
 _symmetry_equiv_pos_as_xyz
  1  'x, y, z'
loop_
 _atom_site_type_symbol
 _atom_site_label
 _atom_site_symmetry_multiplicity
 _atom_site_fract_x
 _atom_site_fract_y
 _atom_site_fract_z
 _atom_site_occupancy
  Lu  Lu0  1  0.003232  0.599009  0.000000  1
  Lu  Lu1  1  0.404223  0.400991  0.000000  1
  Zr  Zr2  1  0.604251  0.000000  0.000000  1
  Ga  Ga3  1  0.235468  0.000000  0.500000  1
  Ga  Ga4  1  0.000053  0.236244  0.500000  1
  Ga  Ga5  1  0.763809  0.763756  0.500000  1
  Ga  Ga6  1  0.339475  0.674858  0.500000  1
  Ga  Ga7  1  0.664618  0.325142  0.500000  1
  Co  Co8  1  0.984872  0.000000  0.000000  1
