# generated using pymatgen
data_DyPa5(Ni3As4)2
_symmetry_space_group_name_H-M   'P 1'
_cell_length_a   7.77822354
_cell_length_b   7.78048863
_cell_length_c   7.78655252
_cell_angle_alpha   109.30281348
_cell_angle_beta   109.58770036
_cell_angle_gamma   109.54109370
_symmetry_Int_Tables_number   1
_chemical_formula_structural   DyPa5(Ni3As4)2
_chemical_formula_sum   'Dy1 Pa5 Ni6 As8'
_cell_volume   362.67037521
_cell_formula_units_Z   1
loop_
 _symmetry_equiv_pos_site_id
 _symmetry_equiv_pos_as_xyz
  1  'x, y, z'
loop_
 _atom_site_type_symbol
 _atom_site_label
 _atom_site_symmetry_multiplicity
 _atom_site_fract_x
 _atom_site_fract_y
 _atom_site_fract_z
 _atom_site_occupancy
  Dy  Dy0  1  0.750123  0.375107  0.625202  1
  Pa  Pa1  1  0.127535  0.875960  0.250597  1
  Pa  Pa2  1  0.372404  0.622937  0.748365  1
  Pa  Pa3  1  0.874721  0.251557  0.124186  1
  Pa  Pa4  1  0.625349  0.749396  0.376993  1
  Pa  Pa5  1  0.250082  0.125068  0.875060  1
  Ni  Ni6  1  0.622927  0.373007  0.242787  1
  Ni  Ni7  1  0.876747  0.119740  0.749908  1
  Ni  Ni8  1  0.369682  0.249645  0.626852  1
  Ni  Ni9  1  0.130589  0.757342  0.879732  1
  Ni  Ni10  1  0.250032  0.624975  0.374925  1
  Ni  Ni11  1  0.749850  0.875281  0.124824  1
  As  As12  1  0.338081  0.334526  0.335209  1
  As  As13  1  0.161888  0.497043  0.996536  1
  As  As14  1  0.999541  0.163983  0.498810  1
  As  As15  1  0.834679  0.835520  0.835996  1
  As  As16  1  0.500391  0.999168  0.164616  1
  As  As17  1  0.665501  0.501488  0.001132  1
  As  As18  1  0.500573  0.003450  0.665487  1
  As  As19  1  0.999305  0.664809  0.502782  1
