# generated using pymatgen
data_TbY3AlGa17Ir6
_symmetry_space_group_name_H-M   'P 1'
_cell_length_a   7.58396126
_cell_length_b   7.58396243
_cell_length_c   9.51922200
_cell_angle_alpha   89.98501116
_cell_angle_beta   89.98507159
_cell_angle_gamma   119.75868503
_symmetry_Int_Tables_number   1
_chemical_formula_structural   TbY3AlGa17Ir6
_chemical_formula_sum   'Tb1 Y3 Al1 Ga17 Ir6'
_cell_volume   475.30811731
_cell_formula_units_Z   1
loop_
 _symmetry_equiv_pos_site_id
 _symmetry_equiv_pos_as_xyz
  1  'x, y, z'
loop_
 _atom_site_type_symbol
 _atom_site_label
 _atom_site_symmetry_multiplicity
 _atom_site_fract_x
 _atom_site_fract_y
 _atom_site_fract_z
 _atom_site_occupancy
  Tb  Tb0  1  0.329934  0.001178  0.749334  1
  Y  Y1  1  0.998241  0.669261  0.249623  1
  Y  Y2  1  0.001179  0.329934  0.749334  1
  Y  Y3  1  0.669261  0.998241  0.249623  1
  Al  Al4  1  0.335502  0.335502  0.949637  1
  Ga  Ga5  1  0.127861  0.127861  0.249385  1
  Ga  Ga6  1  0.871910  0.871909  0.749400  1
  Ga  Ga7  1  0.999299  0.334694  0.078966  1
  Ga  Ga8  1  0.999878  0.664760  0.919232  1
  Ga  Ga9  1  0.999450  0.664673  0.580552  1
  Ga  Ga10  1  0.334982  0.000373  0.419068  1
  Ga  Ga11  1  0.000373  0.334982  0.419068  1
  Ga  Ga12  1  0.664673  0.999450  0.580552  1
  Ga  Ga13  1  0.664759  0.999878  0.919233  1
  Ga  Ga14  1  0.334694  0.999299  0.078966  1
  Ga  Ga15  1  0.331700  0.331700  0.563678  1
  Ga  Ga16  1  0.667563  0.667562  0.437248  1
  Ga  Ga17  1  0.670829  0.670829  0.062601  1
  Ga  Ga18  1  0.339978  0.547075  0.249892  1
  Ga  Ga19  1  0.656553  0.451658  0.750186  1
  Ga  Ga20  1  0.547075  0.339978  0.249892  1
  Ga  Ga21  1  0.451659  0.656553  0.750186  1
  Ir  Ir22  1  0.669424  0.328436  0.999244  1
  Ir  Ir23  1  0.328436  0.669424  0.999244  1
  Ir  Ir24  1  0.328607  0.672123  0.499576  1
  Ir  Ir25  1  0.672122  0.328607  0.499576  1
  Ir  Ir26  1  0.004404  0.004404  0.997575  1
  Ir  Ir27  1  0.999654  0.999654  0.499130  1
