# generated using pymatgen
data_Ti3Re2SiGe2Ru
_symmetry_space_group_name_H-M   'P 1'
_cell_length_a   6.87141969
_cell_length_b   6.87141998
_cell_length_c   3.27091300
_cell_angle_alpha   90.00000000
_cell_angle_beta   90.00000000
_cell_angle_gamma   120.13382448
_symmetry_Int_Tables_number   1
_chemical_formula_structural   Ti3Re2SiGe2Ru
_chemical_formula_sum   'Ti3 Re2 Si1 Ge2 Ru1'
_cell_volume   133.56890456
_cell_formula_units_Z   1
loop_
 _symmetry_equiv_pos_site_id
 _symmetry_equiv_pos_as_xyz
  1  'x, y, z'
loop_
 _atom_site_type_symbol
 _atom_site_label
 _atom_site_symmetry_multiplicity
 _atom_site_fract_x
 _atom_site_fract_y
 _atom_site_fract_z
 _atom_site_occupancy
  Ti  Ti0  1  0.385548  0.385548  0.500000  1
  Ti  Ti1  1  0.600830  0.011540  0.500000  1
  Ti  Ti2  1  0.011540  0.600830  0.500000  1
  Re  Re3  1  0.255689  0.000470  0.000000  1
  Re  Re4  1  0.000470  0.255689  0.000000  1
  Si  Si5  1  0.989293  0.989293  0.500000  1
  Ge  Ge6  1  0.669409  0.342467  0.000000  1
  Ge  Ge7  1  0.342467  0.669409  0.000000  1
  Ru  Ru8  1  0.744754  0.744754  0.000000  1
