# generated using pymatgen
data_Dy19HoBi12
_symmetry_space_group_name_H-M   'P 1'
_cell_length_a   8.27012606
_cell_length_b   9.53289200
_cell_length_c   12.05517009
_cell_angle_alpha   89.99959112
_cell_angle_beta   90.01382951
_cell_angle_gamma   90.00267744
_symmetry_Int_Tables_number   1
_chemical_formula_structural   Dy19HoBi12
_chemical_formula_sum   'Dy19 Ho1 Bi12'
_cell_volume   950.40810593
_cell_formula_units_Z   1
loop_
 _symmetry_equiv_pos_site_id
 _symmetry_equiv_pos_as_xyz
  1  'x, y, z'
loop_
 _atom_site_type_symbol
 _atom_site_label
 _atom_site_symmetry_multiplicity
 _atom_site_fract_x
 _atom_site_fract_y
 _atom_site_fract_z
 _atom_site_occupancy
  Dy  Dy0  1  0.352629  0.749918  0.215105  1
  Dy  Dy1  1  0.852468  0.749921  0.284797  1
  Dy  Dy2  1  0.647386  0.249975  0.784811  1
  Dy  Dy3  1  0.147410  0.250005  0.715193  1
  Dy  Dy4  1  0.192646  0.936176  0.441552  1
  Dy  Dy5  1  0.307324  0.063852  0.941550  1
  Dy  Dy6  1  0.807317  0.436179  0.558448  1
  Dy  Dy7  1  0.307280  0.436177  0.941539  1
  Dy  Dy8  1  0.807326  0.063835  0.558450  1
  Dy  Dy9  1  0.692719  0.936055  0.058428  1
  Dy  Dy10  1  0.192659  0.563825  0.441559  1
  Dy  Dy11  1  0.475293  0.249948  0.488148  1
  Dy  Dy12  1  0.975241  0.250002  0.011821  1
  Dy  Dy13  1  0.524713  0.750022  0.511864  1
  Dy  Dy14  1  0.024579  0.749965  0.988179  1
  Dy  Dy15  1  0.312602  0.249999  0.218690  1
  Dy  Dy16  1  0.812631  0.249987  0.281305  1
  Dy  Dy17  1  0.687373  0.749955  0.781333  1
  Dy  Dy18  1  0.187383  0.749999  0.718719  1
  Ho  Ho19  1  0.692689  0.564077  0.058477  1
  Bi  Bi20  1  0.407499  0.749889  0.956811  1
  Bi  Bi21  1  0.907355  0.750001  0.543222  1
  Bi  Bi22  1  0.592760  0.250328  0.043292  1
  Bi  Bi23  1  0.092670  0.250001  0.456751  1
  Bi  Bi24  1  0.564759  0.995552  0.325196  1
  Bi  Bi25  1  0.064684  0.504435  0.174753  1
  Bi  Bi26  1  0.435282  0.495560  0.674822  1
  Bi  Bi27  1  0.935247  0.004399  0.825215  1
  Bi  Bi28  1  0.435275  0.004413  0.674797  1
  Bi  Bi29  1  0.935263  0.495556  0.825252  1
  Bi  Bi30  1  0.564792  0.504438  0.325146  1
  Bi  Bi31  1  0.064747  0.995556  0.174776  1
