# generated using pymatgen
data_Ho2LuTh(Al8Pt3)3
_symmetry_space_group_name_H-M   'P 1'
_cell_length_a   7.55239214
_cell_length_b   7.56962361
_cell_length_c   13.15711003
_cell_angle_alpha   84.53002221
_cell_angle_beta   78.97931586
_cell_angle_gamma   59.92620039
_symmetry_Int_Tables_number   1
_chemical_formula_structural   Ho2LuTh(Al8Pt3)3
_chemical_formula_sum   'Ho2 Lu1 Th1 Al24 Pt9'
_cell_volume   638.91416179
_cell_formula_units_Z   1
loop_
 _symmetry_equiv_pos_site_id
 _symmetry_equiv_pos_as_xyz
  1  'x, y, z'
loop_
 _atom_site_type_symbol
 _atom_site_label
 _atom_site_symmetry_multiplicity
 _atom_site_fract_x
 _atom_site_fract_y
 _atom_site_fract_z
 _atom_site_occupancy
  Ho  Ho0  1  0.605390  0.831218  0.194215  1
  Ho  Ho1  1  0.733555  0.499307  0.807180  1
  Lu  Lu2  1  0.265754  0.501214  0.194802  1
  Th  Th3  1  0.393830  0.167831  0.807863  1
  Al  Al4  1  0.687210  0.830260  0.947634  1
  Al  Al5  1  0.315689  0.166584  0.060116  1
  Al  Al6  1  0.147061  0.832641  0.559981  1
  Al  Al7  1  0.854244  0.167599  0.437088  1
  Al  Al8  1  0.481100  0.166543  0.556313  1
  Al  Al9  1  0.520352  0.832450  0.440418  1
  Al  Al10  1  0.217732  0.165800  0.327634  1
  Al  Al11  1  0.787602  0.831063  0.667194  1
  Al  Al12  1  0.437957  0.510292  0.667870  1
  Al  Al13  1  0.563256  0.493223  0.327487  1
  Al  Al14  1  0.107047  0.159729  0.666048  1
  Al  Al15  1  0.891106  0.839956  0.328822  1
  Al  Al16  1  0.351744  0.503036  0.947673  1
  Al  Al17  1  0.644782  0.502194  0.057517  1
  Al  Al18  1  0.011185  0.167397  0.956838  1
  Al  Al19  1  0.983651  0.830453  0.050856  1
  Al  Al20  1  0.185926  0.500060  0.440429  1
  Al  Al21  1  0.813673  0.500460  0.557827  1
  Al  Al22  1  0.733266  0.164582  0.183214  1
  Al  Al23  1  0.265418  0.831370  0.816766  1
  Al  Al24  1  0.057187  0.635535  0.815614  1
  Al  Al25  1  0.938116  0.369867  0.184608  1
  Al  Al26  1  0.859911  0.041727  0.816488  1
  Al  Al27  1  0.144779  0.957165  0.184025  1
  Pt  Pt28  1  0.121027  0.490748  0.638755  1
  Pt  Pt29  1  0.880631  0.508924  0.360163  1
  Pt  Pt30  1  0.656274  0.171799  0.000249  1
  Pt  Pt31  1  0.342927  0.829542  0.000403  1
  Pt  Pt32  1  0.536729  0.167220  0.360180  1
  Pt  Pt33  1  0.462633  0.833861  0.638535  1
  Pt  Pt34  1  0.778080  0.175323  0.637123  1
  Pt  Pt35  1  0.222016  0.823973  0.361670  1
  Pt  Pt36  1  0.001161  0.499053  0.000398  1
