# generated using pymatgen
data_GdTm(LuSb5)2
_symmetry_space_group_name_H-M   'P 1'
_cell_length_a   4.20541600
_cell_length_b   13.13908708
_cell_length_c   14.49144100
_cell_angle_alpha   78.57528768
_cell_angle_beta   90.00000000
_cell_angle_gamma   90.00000000
_symmetry_Int_Tables_number   1
_chemical_formula_structural   GdTm(LuSb5)2
_chemical_formula_sum   'Gd2 Tm2 Lu4 Sb20'
_cell_volume   784.86352644
_cell_formula_units_Z   2
loop_
 _symmetry_equiv_pos_site_id
 _symmetry_equiv_pos_as_xyz
  1  'x, y, z'
loop_
 _atom_site_type_symbol
 _atom_site_label
 _atom_site_symmetry_multiplicity
 _atom_site_fract_x
 _atom_site_fract_y
 _atom_site_fract_z
 _atom_site_occupancy
  Gd  Gd0  1  0.250000  0.954056  0.358930  1
  Gd  Gd1  1  0.750000  0.045944  0.641070  1
  Tm  Tm2  1  0.250000  0.668212  0.576125  1
  Tm  Tm3  1  0.750000  0.331788  0.423875  1
  Lu  Lu4  1  0.250000  0.395930  0.770757  1
  Lu  Lu5  1  0.750000  0.604070  0.229243  1
  Lu  Lu6  1  0.250000  0.661156  0.856183  1
  Lu  Lu7  1  0.750000  0.338844  0.143817  1
  Sb  Sb8  1  0.250000  0.145786  0.779339  1
  Sb  Sb9  1  0.750000  0.854214  0.220661  1
  Sb  Sb10  1  0.250000  0.146742  0.481767  1
  Sb  Sb11  1  0.750000  0.853258  0.518233  1
  Sb  Sb12  1  0.250000  0.155248  0.169159  1
  Sb  Sb13  1  0.750000  0.844752  0.830841  1
  Sb  Sb14  1  0.250000  0.420894  0.975350  1
  Sb  Sb15  1  0.750000  0.579106  0.024650  1
  Sb  Sb16  1  0.750000  0.029057  0.910743  1
  Sb  Sb17  1  0.250000  0.970943  0.089257  1
  Sb  Sb18  1  0.750000  0.142278  0.321399  1
  Sb  Sb19  1  0.250000  0.857722  0.678601  1
  Sb  Sb20  1  0.750000  0.279351  0.936268  1
  Sb  Sb21  1  0.250000  0.720649  0.063732  1
  Sb  Sb22  1  0.750000  0.286630  0.653791  1
  Sb  Sb23  1  0.250000  0.713370  0.346209  1
  Sb  Sb24  1  0.750000  0.576176  0.735234  1
  Sb  Sb25  1  0.250000  0.423824  0.264766  1
  Sb  Sb26  1  0.750000  0.571353  0.446634  1
  Sb  Sb27  1  0.250000  0.428647  0.553366  1
