# generated using pymatgen
data_Nb4CrFe(P2Rh)2
_symmetry_space_group_name_H-M   'P 1'
_cell_length_a   3.67940700
_cell_length_b   6.30233497
_cell_length_c   7.18598412
_cell_angle_alpha   90.90536990
_cell_angle_beta   90.00000000
_cell_angle_gamma   90.00000000
_symmetry_Int_Tables_number   1
_chemical_formula_structural   Nb4CrFe(P2Rh)2
_chemical_formula_sum   'Nb4 Cr1 Fe1 P4 Rh2'
_cell_volume   166.61394329
_cell_formula_units_Z   1
loop_
 _symmetry_equiv_pos_site_id
 _symmetry_equiv_pos_as_xyz
  1  'x, y, z'
loop_
 _atom_site_type_symbol
 _atom_site_label
 _atom_site_symmetry_multiplicity
 _atom_site_fract_x
 _atom_site_fract_y
 _atom_site_fract_z
 _atom_site_occupancy
  Nb  Nb0  1  0.250000  0.529112  0.162446  1
  Nb  Nb1  1  0.750000  0.471462  0.834092  1
  Nb  Nb2  1  0.750000  0.978073  0.681459  1
  Nb  Nb3  1  0.250000  0.020902  0.320453  1
  Cr  Cr4  1  0.750000  0.859324  0.059138  1
  Fe  Fe5  1  0.250000  0.140989  0.942408  1
  P  P6  1  0.250000  0.780408  0.883630  1
  P  P7  1  0.750000  0.221527  0.112920  1
  P  P8  1  0.750000  0.735199  0.366079  1
  P  P9  1  0.250000  0.261601  0.637781  1
  Rh  Rh10  1  0.250000  0.648686  0.565617  1
  Rh  Rh11  1  0.750000  0.352717  0.433979  1
