# generated using pymatgen
data_Er6C2Cl7
_symmetry_space_group_name_H-M   'P 1'
_cell_length_a   3.68914241
_cell_length_b   10.06497026
_cell_length_c   10.31865441
_cell_angle_alpha   107.08739465
_cell_angle_beta   100.29758521
_cell_angle_gamma   100.56007756
_symmetry_Int_Tables_number   1
_chemical_formula_structural   Er6C2Cl7
_chemical_formula_sum   'Er6 C2 Cl7'
_cell_volume   348.82219558
_cell_formula_units_Z   1
loop_
 _symmetry_equiv_pos_site_id
 _symmetry_equiv_pos_as_xyz
  1  'x, y, z'
loop_
 _atom_site_type_symbol
 _atom_site_label
 _atom_site_symmetry_multiplicity
 _atom_site_fract_x
 _atom_site_fract_y
 _atom_site_fract_z
 _atom_site_occupancy
  Er  Er0  1  0.930214  0.700928  0.159500  1
  Er  Er1  1  0.677144  0.993459  0.360828  1
  Er  Er2  1  0.574094  0.701217  0.446970  1
  Er  Er3  1  0.425906  0.298784  0.553029  1
  Er  Er4  1  0.322856  0.006540  0.639171  1
  Er  Er5  1  0.069786  0.299073  0.840499  1
  C  C6  1  0.113553  0.832950  0.394156  1
  C  C7  1  0.886446  0.167050  0.605844  1
  Cl  Cl8  1  0.456595  0.842430  0.070761  1
  Cl  Cl9  1  0.335113  0.501734  0.168492  1
  Cl  Cl10  1  0.222425  0.163800  0.281051  1
  Cl  Cl11  1  0.999999  0.499999  0.500000  1
  Cl  Cl12  1  0.777576  0.836201  0.718950  1
  Cl  Cl13  1  0.664886  0.498265  0.831507  1
  Cl  Cl14  1  0.543405  0.157571  0.929239  1
