# generated using pymatgen
data_Hf2TaGa3
_symmetry_space_group_name_H-M   'P 1'
_cell_length_a   5.55132800
_cell_length_b   8.49565100
_cell_length_c   9.11938700
_cell_angle_alpha   90.00000000
_cell_angle_beta   90.00000000
_cell_angle_gamma   90.00000000
_symmetry_Int_Tables_number   1
_chemical_formula_structural   Hf2TaGa3
_chemical_formula_sum   'Hf8 Ta4 Ga12'
_cell_volume   430.08985451
_cell_formula_units_Z   4
loop_
 _symmetry_equiv_pos_site_id
 _symmetry_equiv_pos_as_xyz
  1  'x, y, z'
loop_
 _atom_site_type_symbol
 _atom_site_label
 _atom_site_symmetry_multiplicity
 _atom_site_fract_x
 _atom_site_fract_y
 _atom_site_fract_z
 _atom_site_occupancy
  Hf  Hf0  1  0.750000  0.470433  0.621376  1
  Hf  Hf1  1  0.250000  0.529567  0.378624  1
  Hf  Hf2  1  0.750000  0.970433  0.378624  1
  Hf  Hf3  1  0.250000  0.029567  0.621376  1
  Hf  Hf4  1  0.750000  0.366429  0.182652  1
  Hf  Hf5  1  0.250000  0.633571  0.817348  1
  Hf  Hf6  1  0.750000  0.866429  0.817348  1
  Hf  Hf7  1  0.250000  0.133571  0.182652  1
  Ta  Ta8  1  0.000000  0.750000  0.109643  1
  Ta  Ta9  1  0.500000  0.250000  0.890357  1
  Ta  Ta10  1  0.000000  0.250000  0.890357  1
  Ta  Ta11  1  0.500000  0.750000  0.109643  1
  Ga  Ga12  1  0.000000  0.750000  0.570077  1
  Ga  Ga13  1  0.500000  0.250000  0.429923  1
  Ga  Ga14  1  0.000000  0.250000  0.429923  1
  Ga  Ga15  1  0.500000  0.750000  0.570077  1
  Ga  Ga16  1  0.750000  0.044750  0.080512  1
  Ga  Ga17  1  0.250000  0.955250  0.919488  1
  Ga  Ga18  1  0.750000  0.544750  0.919488  1
  Ga  Ga19  1  0.250000  0.455250  0.080512  1
  Ga  Ga20  1  0.750000  0.133111  0.654197  1
  Ga  Ga21  1  0.250000  0.866889  0.345803  1
  Ga  Ga22  1  0.750000  0.633111  0.345803  1
  Ga  Ga23  1  0.250000  0.366889  0.654197  1
