# generated using pymatgen
data_La4Nd4Bi3O8
_symmetry_space_group_name_H-M   'P 1'
_cell_length_a   7.34322867
_cell_length_b   7.34322933
_cell_length_c   15.87467554
_cell_angle_alpha   73.08199740
_cell_angle_beta   73.08199655
_cell_angle_gamma   31.73645480
_symmetry_Int_Tables_number   1
_chemical_formula_structural   La4Nd4Bi3O8
_chemical_formula_sum   'La4 Nd4 Bi3 O8'
_cell_volume   429.17243049
_cell_formula_units_Z   1
loop_
 _symmetry_equiv_pos_site_id
 _symmetry_equiv_pos_as_xyz
  1  'x, y, z'
loop_
 _atom_site_type_symbol
 _atom_site_label
 _atom_site_symmetry_multiplicity
 _atom_site_fract_x
 _atom_site_fract_y
 _atom_site_fract_z
 _atom_site_occupancy
  La  La0  1  0.879370  0.881499  0.651077  1
  La  La1  1  0.118501  0.120630  0.348923  1
  La  La2  1  0.450737  0.457491  0.830862  1
  La  La3  1  0.542509  0.549263  0.169138  1
  Nd  Nd4  1  0.716396  0.725457  0.912621  1
  Nd  Nd5  1  0.274543  0.283604  0.087379  1
  Nd  Nd6  1  0.643552  0.644138  0.567524  1
  Nd  Nd7  1  0.355862  0.356448  0.432476  1
  Bi  Bi8  1  0.170682  0.172375  0.733064  1
  Bi  Bi9  1  0.827625  0.829318  0.266936  1
  Bi  Bi10  1  0.991105  0.008895  0.000000  1
  O  O11  1  0.470370  0.472425  0.632373  1
  O  O12  1  0.527575  0.529630  0.367627  1
  O  O13  1  0.877578  0.884636  0.800204  1
  O  O14  1  0.115364  0.122422  0.199796  1
  O  O15  1  0.164668  0.165239  0.488045  1
  O  O16  1  0.834761  0.835332  0.511955  1
  O  O17  1  0.290028  0.299227  0.934397  1
  O  O18  1  0.700773  0.709972  0.065603  1
