# generated using pymatgen
data_Tb10Sn5Te
_symmetry_space_group_name_H-M   'P 1'
_cell_length_a   9.03446500
_cell_length_b   9.03446554
_cell_length_c   6.50309600
_cell_angle_alpha   90.00000000
_cell_angle_beta   90.00000000
_cell_angle_gamma   120.00379458
_symmetry_Int_Tables_number   1
_chemical_formula_structural   Tb10Sn5Te
_chemical_formula_sum   'Tb10 Sn5 Te1'
_cell_volume   459.66252200
_cell_formula_units_Z   1
loop_
 _symmetry_equiv_pos_site_id
 _symmetry_equiv_pos_as_xyz
  1  'x, y, z'
loop_
 _atom_site_type_symbol
 _atom_site_label
 _atom_site_symmetry_multiplicity
 _atom_site_fract_x
 _atom_site_fract_y
 _atom_site_fract_z
 _atom_site_occupancy
  Tb  Tb0  1  0.668491  0.332451  0.001234  1
  Tb  Tb1  1  0.332451  0.668491  0.001234  1
  Tb  Tb2  1  0.332451  0.668491  0.498766  1
  Tb  Tb3  1  0.668491  0.332451  0.498766  1
  Tb  Tb4  1  0.762183  0.762183  0.750000  1
  Tb  Tb5  1  0.238663  0.995970  0.750000  1
  Tb  Tb6  1  0.995970  0.238663  0.750000  1
  Tb  Tb7  1  0.239997  0.239997  0.250000  1
  Tb  Tb8  1  0.760506  0.001202  0.250000  1
  Tb  Tb9  1  0.001202  0.760506  0.250000  1
  Sn  Sn10  1  0.604686  0.000019  0.750000  1
  Sn  Sn11  1  0.000019  0.604686  0.750000  1
  Sn  Sn12  1  0.606197  0.606197  0.250000  1
  Sn  Sn13  1  0.395486  0.001345  0.250000  1
  Sn  Sn14  1  0.001345  0.395486  0.250000  1
  Te  Te15  1  0.391862  0.391862  0.750000  1
