# generated using pymatgen
data_Al16V5Ir7Au
_symmetry_space_group_name_H-M   'P 1'
_cell_length_a   8.50013945
_cell_length_b   8.56174427
_cell_length_c   8.56174400
_cell_angle_alpha   59.52453731
_cell_angle_beta   60.23773608
_cell_angle_gamma   60.23774088
_symmetry_Int_Tables_number   1
_chemical_formula_structural   Al16V5Ir7Au
_chemical_formula_sum   'Al16 V5 Ir7 Au1'
_cell_volume   440.54567235
_cell_formula_units_Z   1
loop_
 _symmetry_equiv_pos_site_id
 _symmetry_equiv_pos_as_xyz
  1  'x, y, z'
loop_
 _atom_site_type_symbol
 _atom_site_label
 _atom_site_symmetry_multiplicity
 _atom_site_fract_x
 _atom_site_fract_y
 _atom_site_fract_z
 _atom_site_occupancy
  Al  Al0  1  0.888803  0.852282  0.851960  1
  Al  Al1  1  0.869626  0.845024  0.415586  1
  Al  Al2  1  0.406979  0.852298  0.851861  1
  Al  Al3  1  0.869898  0.415163  0.844984  1
  Al  Al4  1  0.154958  0.130397  0.129979  1
  Al  Al5  1  0.147732  0.111277  0.593217  1
  Al  Al6  1  0.147968  0.592855  0.111054  1
  Al  Al7  1  0.584556  0.130372  0.130037  1
  Al  Al8  1  0.618124  0.620465  0.620763  1
  Al  Al9  1  0.634453  0.620548  0.110777  1
  Al  Al10  1  0.140647  0.620413  0.620882  1
  Al  Al11  1  0.634113  0.111038  0.620730  1
  Al  Al12  1  0.379410  0.365503  0.366001  1
  Al  Al13  1  0.379493  0.381770  0.859246  1
  Al  Al14  1  0.379333  0.859466  0.382049  1
  Al  Al15  1  0.889104  0.365663  0.365925  1
  V  V16  1  0.769124  0.230858  0.230874  1
  V  V17  1  0.764532  0.235438  0.749785  1
  V  V18  1  0.764618  0.749909  0.235337  1
  V  V19  1  0.250180  0.749800  0.235413  1
  V  V20  1  0.250137  0.235387  0.749841  1
  Ir  Ir21  1  0.514954  0.485008  0.485111  1
  Ir  Ir22  1  0.010602  0.489369  0.489532  1
  Ir  Ir23  1  0.510529  0.989516  0.989392  1
  Ir  Ir24  1  0.511136  0.993397  0.488815  1
  Ir  Ir25  1  0.511167  0.488907  0.993328  1
  Ir  Ir26  1  0.006655  0.488869  0.993293  1
  Ir  Ir27  1  0.006704  0.993370  0.488786  1
  Au  Au28  1  0.004461  0.995641  0.995444  1
