# generated using pymatgen
data_YAlF6
_symmetry_space_group_name_H-M   'P 1'
_cell_length_a   5.69210925
_cell_length_b   5.69210953
_cell_length_c   5.69210900
_cell_angle_alpha   59.99999728
_cell_angle_beta   59.99999567
_cell_angle_gamma   60.00000208
_symmetry_Int_Tables_number   1
_chemical_formula_structural   YAlF6
_chemical_formula_sum   'Y1 Al1 F6'
_cell_volume   130.40813070
_cell_formula_units_Z   1
loop_
 _symmetry_equiv_pos_site_id
 _symmetry_equiv_pos_as_xyz
  1  'x, y, z'
loop_
 _atom_site_type_symbol
 _atom_site_label
 _atom_site_symmetry_multiplicity
 _atom_site_fract_x
 _atom_site_fract_y
 _atom_site_fract_z
 _atom_site_occupancy
  Y  Y0  1  0.500000  0.500000  0.500000  1
  Al  Al1  1  0.000000  0.000000  0.000000  1
  F  F2  1  0.227121  0.772878  0.227121  1
  F  F3  1  0.772879  0.772879  0.227120  1
  F  F4  1  0.772878  0.227121  0.227121  1
  F  F5  1  0.772879  0.227120  0.772879  1
  F  F6  1  0.227121  0.227121  0.772878  1
  F  F7  1  0.227120  0.772879  0.772879  1
