# generated using pymatgen
data_V2Re4O17F
_symmetry_space_group_name_H-M   'P 1'
_cell_length_a   8.20945162
_cell_length_b   8.20945048
_cell_length_c   9.12075436
_cell_angle_alpha   89.66673043
_cell_angle_beta   90.33326913
_cell_angle_gamma   138.50094892
_symmetry_Int_Tables_number   1
_chemical_formula_structural   V2Re4O17F
_chemical_formula_sum   'V2 Re4 O17 F1'
_cell_volume   407.29308318
_cell_formula_units_Z   1
loop_
 _symmetry_equiv_pos_site_id
 _symmetry_equiv_pos_as_xyz
  1  'x, y, z'
loop_
 _atom_site_type_symbol
 _atom_site_label
 _atom_site_symmetry_multiplicity
 _atom_site_fract_x
 _atom_site_fract_y
 _atom_site_fract_z
 _atom_site_occupancy
  V  V0  1  0.874140  0.125860  0.762697  1
  V  V1  1  0.119914  0.880086  0.279301  1
  Re  Re2  1  0.517353  0.482647  0.690087  1
  Re  Re3  1  0.483870  0.516130  0.188122  1
  Re  Re4  1  0.228316  0.771684  0.872005  1
  Re  Re5  1  0.771022  0.228978  0.372427  1
  O  O6  1  0.069954  0.930046  0.433695  1
  O  O7  1  0.574413  0.425587  0.853902  1
  O  O8  1  0.426877  0.573123  0.350999  1
  O  O9  1  0.591936  0.408064  0.548173  1
  O  O10  1  0.408675  0.591325  0.046572  1
  O  O11  1  0.963124  0.538927  0.327574  1
  O  O12  1  0.036912  0.461531  0.828350  1
  O  O13  1  0.461073  0.036876  0.327574  1
  O  O14  1  0.538469  0.963088  0.828350  1
  O  O15  1  0.804004  0.195996  0.558175  1
  O  O16  1  0.196909  0.803091  0.056468  1
  O  O17  1  0.862878  0.137122  0.265859  1
  O  O18  1  0.135953  0.864047  0.763963  1
  O  O19  1  0.800734  0.699818  0.178552  1
  O  O20  1  0.201774  0.300648  0.678597  1
  O  O21  1  0.300182  0.199266  0.178552  1
  O  O22  1  0.699352  0.798226  0.678597  1
  F  F23  1  0.932168  0.067832  0.937350  1
