# generated using pymatgen
data_Pr4GePd28Se
_symmetry_space_group_name_H-M   'P 1'
_cell_length_a   9.03499300
_cell_length_b   9.03499300
_cell_length_c   7.23060200
_cell_angle_alpha   90.00000000
_cell_angle_beta   90.00000000
_cell_angle_gamma   90.00000000
_symmetry_Int_Tables_number   1
_chemical_formula_structural   Pr4GePd28Se
_chemical_formula_sum   'Pr4 Ge1 Pd28 Se1'
_cell_volume   590.24198415
_cell_formula_units_Z   1
loop_
 _symmetry_equiv_pos_site_id
 _symmetry_equiv_pos_as_xyz
  1  'x, y, z'
loop_
 _atom_site_type_symbol
 _atom_site_label
 _atom_site_symmetry_multiplicity
 _atom_site_fract_x
 _atom_site_fract_y
 _atom_site_fract_z
 _atom_site_occupancy
  Pr  Pr0  1  0.500000  0.000000  0.935073  1
  Pr  Pr1  1  0.000000  0.500000  0.065224  1
  Pr  Pr2  1  0.000000  0.000000  0.500063  1
  Pr  Pr3  1  0.500000  0.500000  0.500063  1
  Ge  Ge4  1  0.000000  0.500000  0.549484  1
  Pd  Pd5  1  0.328751  0.828751  0.623936  1
  Pd  Pd6  1  0.328751  0.171249  0.623936  1
  Pd  Pd7  1  0.671249  0.828751  0.623936  1
  Pd  Pd8  1  0.671249  0.171249  0.623936  1
  Pd  Pd9  1  0.169208  0.669208  0.378395  1
  Pd  Pd10  1  0.169208  0.330792  0.378395  1
  Pd  Pd11  1  0.830792  0.669208  0.378395  1
  Pd  Pd12  1  0.830792  0.330792  0.378395  1
  Pd  Pd13  1  0.500000  0.764589  0.251583  1
  Pd  Pd14  1  0.500000  0.235411  0.251583  1
  Pd  Pd15  1  0.264589  0.000000  0.251583  1
  Pd  Pd16  1  0.735411  0.000000  0.251583  1
  Pd  Pd17  1  0.000000  0.732984  0.746490  1
  Pd  Pd18  1  0.000000  0.267016  0.746490  1
  Pd  Pd19  1  0.232984  0.500000  0.746490  1
  Pd  Pd20  1  0.767016  0.500000  0.746490  1
  Pd  Pd21  1  0.500000  0.347659  0.858291  1
  Pd  Pd22  1  0.500000  0.652341  0.858291  1
  Pd  Pd23  1  0.847659  0.000000  0.858291  1
  Pd  Pd24  1  0.152341  0.000000  0.858291  1
  Pd  Pd25  1  0.000000  0.150895  0.141325  1
  Pd  Pd26  1  0.000000  0.849105  0.141325  1
  Pd  Pd27  1  0.650895  0.500000  0.141325  1
  Pd  Pd28  1  0.349105  0.500000  0.141325  1
  Pd  Pd29  1  0.248419  0.748419  0.999882  1
  Pd  Pd30  1  0.248419  0.251581  0.999882  1
  Pd  Pd31  1  0.751581  0.748419  0.999882  1
  Pd  Pd32  1  0.751581  0.251581  0.999882  1
  Se  Se33  1  0.500000  0.000000  0.450480  1
