# generated using pymatgen
data_RbNaZnO2
_symmetry_space_group_name_H-M   'P 1'
_cell_length_a   6.10699090
_cell_length_b   6.10698984
_cell_length_c   5.67657774
_cell_angle_alpha   71.57206208
_cell_angle_beta   71.57207091
_cell_angle_gamma   110.79246817
_symmetry_Int_Tables_number   1
_chemical_formula_structural   RbNaZnO2
_chemical_formula_sum   'Rb2 Na2 Zn2 O4'
_cell_volume   164.42490653
_cell_formula_units_Z   2
loop_
 _symmetry_equiv_pos_site_id
 _symmetry_equiv_pos_as_xyz
  1  'x, y, z'
loop_
 _atom_site_type_symbol
 _atom_site_label
 _atom_site_symmetry_multiplicity
 _atom_site_fract_x
 _atom_site_fract_y
 _atom_site_fract_z
 _atom_site_occupancy
  Rb  Rb0  1  0.126288  0.873712  0.750000  1
  Rb  Rb1  1  0.873712  0.126288  0.250000  1
  Na  Na2  1  0.231909  0.768091  0.250000  1
  Na  Na3  1  0.768091  0.231909  0.750000  1
  Zn  Zn4  1  0.491566  0.508434  0.750000  1
  Zn  Zn5  1  0.508434  0.491566  0.250000  1
  O  O6  1  0.564697  0.779918  0.886481  1
  O  O7  1  0.220082  0.435303  0.613519  1
  O  O8  1  0.779918  0.564697  0.386481  1
  O  O9  1  0.435303  0.220082  0.113519  1
