# generated using pymatgen
data_Cs4DySi4Bi3Se16
_symmetry_space_group_name_H-M   'P 1'
_cell_length_a   7.21054621
_cell_length_b   6.83504316
_cell_length_c   19.73564146
_cell_angle_alpha   71.39479174
_cell_angle_beta   89.78992210
_cell_angle_gamma   89.92615703
_symmetry_Int_Tables_number   1
_chemical_formula_structural   Cs4DySi4Bi3Se16
_chemical_formula_sum   'Cs4 Dy1 Si4 Bi3 Se16'
_cell_volume   921.82119799
_cell_formula_units_Z   1
loop_
 _symmetry_equiv_pos_site_id
 _symmetry_equiv_pos_as_xyz
  1  'x, y, z'
loop_
 _atom_site_type_symbol
 _atom_site_label
 _atom_site_symmetry_multiplicity
 _atom_site_fract_x
 _atom_site_fract_y
 _atom_site_fract_z
 _atom_site_occupancy
  Cs  Cs0  1  0.750790  0.723312  0.034929  1
  Cs  Cs1  1  0.249177  0.282214  0.967067  1
  Cs  Cs2  1  0.752111  0.721227  0.531763  1
  Cs  Cs3  1  0.247263  0.281580  0.466244  1
  Dy  Dy4  1  0.233949  0.228058  0.227924  1
  Si  Si5  1  0.721998  0.200004  0.837050  1
  Si  Si6  1  0.778106  0.206801  0.332109  1
  Si  Si7  1  0.222405  0.800504  0.662881  1
  Si  Si8  1  0.264319  0.792592  0.165943  1
  Bi  Bi9  1  0.710224  0.754376  0.272784  1
  Bi  Bi10  1  0.795815  0.760538  0.775616  1
  Bi  Bi11  1  0.297229  0.240150  0.724473  1
  Se  Se12  1  0.496970  0.035617  0.144781  1
  Se  Se13  1  0.753138  0.404977  0.405921  1
  Se  Se14  1  0.984978  0.002478  0.849573  1
  Se  Se15  1  0.842220  0.417199  0.218551  1
  Se  Se16  1  0.980851  0.026387  0.639617  1
  Se  Se17  1  0.260179  0.584018  0.096237  1
  Se  Se18  1  0.745175  0.405609  0.907967  1
  Se  Se19  1  0.328284  0.576984  0.280113  1
  Se  Se20  1  0.247186  0.593980  0.592262  1
  Se  Se21  1  0.480675  0.973263  0.860447  1
  Se  Se22  1  0.670559  0.407620  0.720439  1
  Se  Se23  1  0.169949  0.593154  0.779464  1
  Se  Se24  1  0.016321  0.976361  0.357126  1
  Se  Se25  1  0.007376  0.996303  0.155453  1
  Se  Se26  1  0.507154  0.016927  0.343189  1
  Se  Se27  1  0.485602  0.997763  0.650077  1
