# generated using pymatgen
data_Zr4CoReOs6
_symmetry_space_group_name_H-M   'P 1'
_cell_length_a   5.16752404
_cell_length_b   5.16752325
_cell_length_c   8.60012100
_cell_angle_alpha   90.00000000
_cell_angle_beta   90.00000000
_cell_angle_gamma   118.74158207
_symmetry_Int_Tables_number   1
_chemical_formula_structural   Zr4CoReOs6
_chemical_formula_sum   'Zr4 Co1 Re1 Os6'
_cell_volume   201.35794351
_cell_formula_units_Z   1
loop_
 _symmetry_equiv_pos_site_id
 _symmetry_equiv_pos_as_xyz
  1  'x, y, z'
loop_
 _atom_site_type_symbol
 _atom_site_label
 _atom_site_symmetry_multiplicity
 _atom_site_fract_x
 _atom_site_fract_y
 _atom_site_fract_z
 _atom_site_occupancy
  Zr  Zr0  1  0.333829  0.666171  0.431551  1
  Zr  Zr1  1  0.669368  0.330632  0.561551  1
  Zr  Zr2  1  0.669368  0.330632  0.938449  1
  Zr  Zr3  1  0.333829  0.666171  0.068449  1
  Co  Co4  1  0.828928  0.171072  0.250000  1
  Re  Re5  1  0.167774  0.832226  0.750000  1
  Os  Os6  1  0.000300  0.999700  0.494445  1
  Os  Os7  1  0.000300  0.999700  0.005555  1
  Os  Os8  1  0.825507  0.653283  0.250000  1
  Os  Os9  1  0.346717  0.174493  0.250000  1
  Os  Os10  1  0.171233  0.347155  0.750000  1
  Os  Os11  1  0.652845  0.828767  0.750000  1
