# generated using pymatgen
data_Ta3Ga3CoIr2
_symmetry_space_group_name_H-M   'P 1'
_cell_length_a   7.36443000
_cell_length_b   7.36443146
_cell_length_c   2.92320100
_cell_angle_alpha   90.00000000
_cell_angle_beta   90.00000000
_cell_angle_gamma   120.00001139
_symmetry_Int_Tables_number   1
_chemical_formula_structural   Ta3Ga3CoIr2
_chemical_formula_sum   'Ta3 Ga3 Co1 Ir2'
_cell_volume   137.29907891
_cell_formula_units_Z   1
loop_
 _symmetry_equiv_pos_site_id
 _symmetry_equiv_pos_as_xyz
  1  'x, y, z'
loop_
 _atom_site_type_symbol
 _atom_site_label
 _atom_site_symmetry_multiplicity
 _atom_site_fract_x
 _atom_site_fract_y
 _atom_site_fract_z
 _atom_site_occupancy
  Ta  Ta0  1  0.365359  0.365359  0.500000  1
  Ta  Ta1  1  0.634641  0.000000  0.500000  1
  Ta  Ta2  1  0.000000  0.634641  0.500000  1
  Ga  Ga3  1  0.720220  0.720220  0.000000  1
  Ga  Ga4  1  0.279780  0.000000  0.000000  1
  Ga  Ga5  1  0.000000  0.279780  0.000000  1
  Co  Co6  1  0.000000  0.000000  0.500000  1
  Ir  Ir7  1  0.666667  0.333333  0.000000  1
  Ir  Ir8  1  0.333333  0.666667  0.000000  1
