# generated using pymatgen
data_Y3MgCd2Si2Au
_symmetry_space_group_name_H-M   'P 1'
_cell_length_a   7.25428453
_cell_length_b   7.25428382
_cell_length_c   4.34741200
_cell_angle_alpha   90.00000000
_cell_angle_beta   90.00000000
_cell_angle_gamma   120.60925068
_symmetry_Int_Tables_number   1
_chemical_formula_structural   Y3MgCd2Si2Au
_chemical_formula_sum   'Y3 Mg1 Cd2 Si2 Au1'
_cell_volume   196.90260472
_cell_formula_units_Z   1
loop_
 _symmetry_equiv_pos_site_id
 _symmetry_equiv_pos_as_xyz
  1  'x, y, z'
loop_
 _atom_site_type_symbol
 _atom_site_label
 _atom_site_symmetry_multiplicity
 _atom_site_fract_x
 _atom_site_fract_y
 _atom_site_fract_z
 _atom_site_occupancy
  Y  Y0  1  0.580743  0.001071  0.000000  1
  Y  Y1  1  0.001071  0.580743  0.000000  1
  Y  Y2  1  0.417396  0.417396  0.000000  1
  Mg  Mg3  1  0.759037  0.759037  0.500000  1
  Cd  Cd4  1  0.253462  0.998651  0.500000  1
  Cd  Cd5  1  0.998651  0.253462  0.500000  1
  Si  Si6  1  0.337477  0.666745  0.500000  1
  Si  Si7  1  0.666745  0.337477  0.500000  1
  Au  Au8  1  0.985419  0.985419  0.000000  1
