# generated using pymatgen
data_Sr4SmY(MoO6)2
_symmetry_space_group_name_H-M   'P 1'
_cell_length_a   5.84815280
_cell_length_b   8.38571675
_cell_length_c   5.96204122
_cell_angle_alpha   90.13330288
_cell_angle_beta   89.95565859
_cell_angle_gamma   90.69060164
_symmetry_Int_Tables_number   1
_chemical_formula_structural   Sr4SmY(MoO6)2
_chemical_formula_sum   'Sr4 Sm1 Y1 Mo2 O12'
_cell_volume   292.36207153
_cell_formula_units_Z   1
loop_
 _symmetry_equiv_pos_site_id
 _symmetry_equiv_pos_as_xyz
  1  'x, y, z'
loop_
 _atom_site_type_symbol
 _atom_site_label
 _atom_site_symmetry_multiplicity
 _atom_site_fract_x
 _atom_site_fract_y
 _atom_site_fract_z
 _atom_site_occupancy
  Sr  Sr0  1  0.492506  0.254951  0.541908  1
  Sr  Sr1  1  0.008060  0.251594  0.043337  1
  Sr  Sr2  1  0.991940  0.748407  0.956662  1
  Sr  Sr3  1  0.507495  0.745048  0.458094  1
  Sm  Sm4  1  0.500000  0.000000  0.999999  1
  Y  Y5  1  0.999999  0.500000  0.500000  1
  Mo  Mo6  1  0.000002  0.000000  0.500000  1
  Mo  Mo7  1  0.499999  0.499998  0.999999  1
  O  O8  1  0.769480  0.538173  0.191880  1
  O  O9  1  0.230521  0.461827  0.808120  1
  O  O10  1  0.270951  0.041095  0.315866  1
  O  O11  1  0.729049  0.958904  0.684134  1
  O  O12  1  0.586104  0.267350  0.973039  1
  O  O13  1  0.916283  0.237005  0.472594  1
  O  O14  1  0.083717  0.762995  0.527406  1
  O  O15  1  0.413896  0.732650  0.026961  1
  O  O16  1  0.303768  0.452725  0.278265  1
  O  O17  1  0.811340  0.950577  0.220084  1
  O  O18  1  0.188660  0.049423  0.779916  1
  O  O19  1  0.696232  0.547277  0.721736  1
