# generated using pymatgen
data_Tm6Lu10Cd4Ru3Pt
_symmetry_space_group_name_H-M   'P 1'
_cell_length_a   9.43893820
_cell_length_b   9.50399100
_cell_length_c   9.50399200
_cell_angle_alpha   60.00000347
_cell_angle_beta   59.77175619
_cell_angle_gamma   59.77175582
_symmetry_Int_Tables_number   1
_chemical_formula_structural   Tm6Lu10Cd4Ru3Pt
_chemical_formula_sum   'Tm6 Lu10 Cd4 Ru3 Pt1'
_cell_volume   600.77701994
_cell_formula_units_Z   1
loop_
 _symmetry_equiv_pos_site_id
 _symmetry_equiv_pos_as_xyz
  1  'x, y, z'
loop_
 _atom_site_type_symbol
 _atom_site_label
 _atom_site_symmetry_multiplicity
 _atom_site_fract_x
 _atom_site_fract_y
 _atom_site_fract_z
 _atom_site_occupancy
  Tm  Tm0  1  0.936627  0.562222  0.562222  1
  Tm  Tm1  1  0.558486  0.938080  0.938080  1
  Tm  Tm2  1  0.558486  0.938080  0.565354  1
  Tm  Tm3  1  0.936627  0.562222  0.938929  1
  Tm  Tm4  1  0.558486  0.565354  0.938080  1
  Tm  Tm5  1  0.936627  0.938929  0.562222  1
  Lu  Lu6  1  0.346504  0.350247  0.350247  1
  Lu  Lu7  1  0.346504  0.350247  0.953003  1
  Lu  Lu8  1  0.346504  0.953003  0.350247  1
  Lu  Lu9  1  0.963455  0.345516  0.345516  1
  Lu  Lu10  1  0.815475  0.188780  0.188780  1
  Lu  Lu11  1  0.186045  0.812515  0.812515  1
  Lu  Lu12  1  0.186045  0.812515  0.188925  1
  Lu  Lu13  1  0.815475  0.188780  0.806966  1
  Lu  Lu14  1  0.186045  0.188925  0.812515  1
  Lu  Lu15  1  0.815475  0.806966  0.188780  1
  Cd  Cd16  1  0.579854  0.579920  0.579920  1
  Cd  Cd17  1  0.579854  0.579920  0.260307  1
  Cd  Cd18  1  0.579854  0.260307  0.579920  1
  Cd  Cd19  1  0.255600  0.581467  0.581467  1
  Ru  Ru20  1  0.145859  0.139482  0.139482  1
  Ru  Ru21  1  0.145859  0.139482  0.575177  1
  Ru  Ru22  1  0.145859  0.575177  0.139482  1
  Pt  Pt23  1  0.574402  0.141866  0.141866  1
