# generated using pymatgen
data_Pr2YHf(Co4P3)2
_symmetry_space_group_name_H-M   'P 1'
_cell_length_a   3.76534500
_cell_length_b   10.79328800
_cell_length_c   12.53859100
_cell_angle_alpha   90.00000000
_cell_angle_beta   90.00000000
_cell_angle_gamma   90.00000000
_symmetry_Int_Tables_number   1
_chemical_formula_structural   Pr2YHf(Co4P3)2
_chemical_formula_sum   'Pr4 Y2 Hf2 Co16 P12'
_cell_volume   509.57401828
_cell_formula_units_Z   2
loop_
 _symmetry_equiv_pos_site_id
 _symmetry_equiv_pos_as_xyz
  1  'x, y, z'
loop_
 _atom_site_type_symbol
 _atom_site_label
 _atom_site_symmetry_multiplicity
 _atom_site_fract_x
 _atom_site_fract_y
 _atom_site_fract_z
 _atom_site_occupancy
  Pr  Pr0  1  0.000000  0.500000  0.530290  1
  Pr  Pr1  1  0.500000  0.000000  0.471737  1
  Pr  Pr2  1  0.500000  0.820976  0.205165  1
  Pr  Pr3  1  0.500000  0.179024  0.205165  1
  Y  Y4  1  0.000000  0.678562  0.795960  1
  Y  Y5  1  0.000000  0.321438  0.795960  1
  Hf  Hf6  1  0.500000  0.500000  0.154096  1
  Hf  Hf7  1  0.000000  0.000000  0.844838  1
  Co  Co8  1  0.500000  0.500000  0.707328  1
  Co  Co9  1  0.000000  0.000000  0.294477  1
  Co  Co10  1  0.000000  0.500000  0.984322  1
  Co  Co11  1  0.500000  0.000000  0.009288  1
  Co  Co12  1  0.500000  0.332941  0.990597  1
  Co  Co13  1  0.500000  0.667059  0.990597  1
  Co  Co14  1  0.000000  0.169232  0.002916  1
  Co  Co15  1  0.000000  0.830768  0.002916  1
  Co  Co16  1  0.500000  0.296660  0.435336  1
  Co  Co17  1  0.500000  0.703340  0.435336  1
  Co  Co18  1  0.000000  0.205101  0.570802  1
  Co  Co19  1  0.000000  0.794899  0.570802  1
  Co  Co20  1  0.500000  0.878532  0.706180  1
  Co  Co21  1  0.500000  0.121468  0.706180  1
  Co  Co22  1  0.000000  0.619183  0.297203  1
  Co  Co23  1  0.000000  0.380817  0.297203  1
  P  P24  1  0.500000  0.500000  0.883209  1
  P  P25  1  0.000000  0.000000  0.109801  1
  P  P26  1  0.500000  0.500000  0.357083  1
  P  P27  1  0.000000  0.000000  0.643510  1
  P  P28  1  0.500000  0.306656  0.618688  1
  P  P29  1  0.500000  0.693344  0.618688  1
  P  P30  1  0.000000  0.196602  0.388207  1
  P  P31  1  0.000000  0.803398  0.388207  1
  P  P32  1  0.500000  0.838587  0.892599  1
  P  P33  1  0.500000  0.161413  0.892599  1
  P  P34  1  0.000000  0.658501  0.101358  1
  P  P35  1  0.000000  0.341499  0.101358  1
