# generated using pymatgen
data_Y2ScV2Si7Pt9
_symmetry_space_group_name_H-M   'P 1'
_cell_length_a   9.92819580
_cell_length_b   9.94515295
_cell_length_c   3.94035300
_cell_angle_alpha   90.00000000
_cell_angle_beta   90.00000000
_cell_angle_gamma   120.13481980
_symmetry_Int_Tables_number   1
_chemical_formula_structural   Y2ScV2Si7Pt9
_chemical_formula_sum   'Y2 Sc1 V2 Si7 Pt9'
_cell_volume   336.47744229
_cell_formula_units_Z   1
loop_
 _symmetry_equiv_pos_site_id
 _symmetry_equiv_pos_as_xyz
  1  'x, y, z'
loop_
 _atom_site_type_symbol
 _atom_site_label
 _atom_site_symmetry_multiplicity
 _atom_site_fract_x
 _atom_site_fract_y
 _atom_site_fract_z
 _atom_site_occupancy
  Y  Y0  1  0.997567  0.996025  0.000000  1
  Y  Y1  1  0.332923  0.668413  0.500000  1
  Sc  Sc2  1  0.548589  0.434624  0.500000  1
  V  V3  1  0.882508  0.448767  0.500000  1
  V  V4  1  0.570211  0.118239  0.500000  1
  Si  Si5  1  0.245369  0.201419  0.500000  1
  Si  Si6  1  0.789075  0.046987  0.500000  1
  Si  Si7  1  0.954858  0.739221  0.500000  1
  Si  Si8  1  0.554034  0.642634  0.000000  1
  Si  Si9  1  0.366477  0.920931  0.000000  1
  Si  Si10  1  0.081442  0.447993  0.000000  1
  Si  Si11  1  0.671218  0.328325  0.000000  1
  Pt  Pt12  1  0.224430  0.942239  0.500000  1
  Pt  Pt13  1  0.056273  0.282323  0.500000  1
  Pt  Pt14  1  0.722923  0.779468  0.500000  1
  Pt  Pt15  1  0.306450  0.410201  0.000000  1
  Pt  Pt16  1  0.592225  0.901184  0.000000  1
  Pt  Pt17  1  0.101245  0.694489  0.000000  1
  Pt  Pt18  1  0.389479  0.176225  0.000000  1
  Pt  Pt19  1  0.827677  0.212918  0.000000  1
  Pt  Pt20  1  0.785023  0.607379  0.000000  1
