# generated using pymatgen
data_Sc8Nb12Si15Ni
_symmetry_space_group_name_H-M   'P 1'
_cell_length_a   6.73644244
_cell_length_b   6.89209167
_cell_length_c   13.19672921
_cell_angle_alpha   90.27335529
_cell_angle_beta   89.92645290
_cell_angle_gamma   89.98764166
_symmetry_Int_Tables_number   1
_chemical_formula_structural   Sc8Nb12Si15Ni
_chemical_formula_sum   'Sc8 Nb12 Si15 Ni1'
_cell_volume   612.69261062
_cell_formula_units_Z   1
loop_
 _symmetry_equiv_pos_site_id
 _symmetry_equiv_pos_as_xyz
  1  'x, y, z'
loop_
 _atom_site_type_symbol
 _atom_site_label
 _atom_site_symmetry_multiplicity
 _atom_site_fract_x
 _atom_site_fract_y
 _atom_site_fract_z
 _atom_site_occupancy
  Sc  Sc0  1  0.502520  0.672355  0.597285  1
  Sc  Sc1  1  0.001887  0.824546  0.904607  1
  Sc  Sc2  1  0.499971  0.327199  0.094365  1
  Sc  Sc3  1  0.992802  0.171676  0.405310  1
  Sc  Sc4  1  0.498127  0.326266  0.403311  1
  Sc  Sc5  1  0.998903  0.174843  0.094753  1
  Sc  Sc6  1  0.502388  0.672032  0.904694  1
  Sc  Sc7  1  0.004658  0.824976  0.598418  1
  Nb  Nb8  1  0.668091  0.168765  0.620951  1
  Nb  Nb9  1  0.163784  0.322940  0.874700  1
  Nb  Nb10  1  0.338682  0.823463  0.124875  1
  Nb  Nb11  1  0.837512  0.687994  0.375995  1
  Nb  Nb12  1  0.335088  0.829173  0.375004  1
  Nb  Nb13  1  0.837965  0.676181  0.125196  1
  Nb  Nb14  1  0.660959  0.175065  0.874082  1
  Nb  Nb15  1  0.160460  0.323884  0.625388  1
  Nb  Nb16  1  0.838203  0.492290  0.749866  1
  Nb  Nb17  1  0.338116  0.005309  0.750771  1
  Nb  Nb18  1  0.160990  0.509240  0.250768  1
  Nb  Nb19  1  0.662738  0.996574  0.246927  1
  Si  Si20  1  0.168202  0.531704  0.039333  1
  Si  Si21  1  0.332558  0.031148  0.960786  1
  Si  Si22  1  0.832135  0.467932  0.539021  1
  Si  Si23  1  0.334252  0.032301  0.539271  1
  Si  Si24  1  0.831935  0.466971  0.960505  1
  Si  Si25  1  0.668097  0.968524  0.038933  1
  Si  Si26  1  0.167578  0.535330  0.461381  1
  Si  Si27  1  0.461187  0.383887  0.748186  1
  Si  Si28  1  0.960109  0.111081  0.749860  1
  Si  Si29  1  0.541126  0.616429  0.250922  1
  Si  Si30  1  0.040610  0.890948  0.248892  1
  Si  Si31  1  0.706152  0.861359  0.750401  1
  Si  Si32  1  0.207151  0.635506  0.750650  1
  Si  Si33  1  0.294141  0.139556  0.250292  1
  Si  Si34  1  0.792894  0.365080  0.250332  1
  Ni  Ni35  1  0.658030  0.957475  0.463968  1
