# generated using pymatgen
data_La8SmHoIn6
_symmetry_space_group_name_H-M   'P 1'
_cell_length_a   6.23210809
_cell_length_b   9.58934447
_cell_length_c   9.58934431
_cell_angle_alpha   83.93870876
_cell_angle_beta   71.03748449
_cell_angle_gamma   71.03748684
_symmetry_Int_Tables_number   1
_chemical_formula_structural   La8SmHoIn6
_chemical_formula_sum   'La8 Sm1 Ho1 In6'
_cell_volume   512.56435865
_cell_formula_units_Z   1
loop_
 _symmetry_equiv_pos_site_id
 _symmetry_equiv_pos_as_xyz
  1  'x, y, z'
loop_
 _atom_site_type_symbol
 _atom_site_label
 _atom_site_symmetry_multiplicity
 _atom_site_fract_x
 _atom_site_fract_y
 _atom_site_fract_z
 _atom_site_occupancy
  La  La0  1  0.724485  0.863947  0.688470  1
  La  La1  1  0.276903  0.136053  0.311530  1
  La  La2  1  0.775515  0.311530  0.136053  1
  La  La3  1  0.223097  0.688470  0.863947  1
  La  La4  1  0.587044  0.688470  0.136053  1
  La  La5  1  0.411568  0.311530  0.863947  1
  La  La6  1  0.088432  0.136053  0.688470  1
  La  La7  1  0.912956  0.863947  0.311530  1
  Sm  Sm8  1  0.750000  0.500000  0.500000  1
  Ho  Ho9  1  0.250000  0.500000  0.500000  1
  In  In10  1  0.157728  0.500000  0.186275  1
  In  In11  1  0.844002  0.500000  0.813725  1
  In  In12  1  0.342272  0.813725  0.500000  1
  In  In13  1  0.655998  0.186275  0.500000  1
  In  In14  1  0.250000  0.000000  0.000000  1
  In  In15  1  0.750000  0.000000  0.000000  1
