# generated using pymatgen
data_Er12In2CuSi3
_symmetry_space_group_name_H-M   'P 1'
_cell_length_a   8.48900182
_cell_length_b   8.48900190
_cell_length_c   8.48900100
_cell_angle_alpha   113.00653841
_cell_angle_beta   111.70195483
_cell_angle_gamma   103.85025938
_symmetry_Int_Tables_number   1
_chemical_formula_structural   Er12In2CuSi3
_chemical_formula_sum   'Er12 In2 Cu1 Si3'
_cell_volume   467.49922149
_cell_formula_units_Z   1
loop_
 _symmetry_equiv_pos_site_id
 _symmetry_equiv_pos_as_xyz
  1  'x, y, z'
loop_
 _atom_site_type_symbol
 _atom_site_label
 _atom_site_symmetry_multiplicity
 _atom_site_fract_x
 _atom_site_fract_y
 _atom_site_fract_z
 _atom_site_occupancy
  Er  Er0  1  0.186187  0.284769  0.469024  1
  Er  Er1  1  0.815744  0.717163  0.530976  1
  Er  Er2  1  0.186187  0.717163  0.901418  1
  Er  Er3  1  0.815744  0.284769  0.098582  1
  Er  Er4  1  0.318214  0.623747  0.305533  1
  Er  Er5  1  0.678151  0.379479  0.701328  1
  Er  Er6  1  0.318214  0.012681  0.694467  1
  Er  Er7  1  0.678151  0.976825  0.298672  1
  Er  Er8  1  0.441958  0.239795  0.202164  1
  Er  Er9  1  0.561910  0.763458  0.798452  1
  Er  Er10  1  0.037631  0.239795  0.797836  1
  Er  Er11  1  0.965006  0.763458  0.201548  1
  In  In12  1  0.499970  0.499970  0.000000  1
  In  In13  1  0.000845  0.000845  0.000000  1
  Cu  Cu14  1  0.114122  0.614122  0.500000  1
  Si  Si15  1  0.879395  0.379395  0.500000  1
  Si  Si16  1  0.360181  0.001284  0.358897  1
  Si  Si17  1  0.642387  0.001284  0.641103  1
