# generated using pymatgen
data_YbEr2Co7C2
_symmetry_space_group_name_H-M   'P 1'
_cell_length_a   5.01560800
_cell_length_b   5.01560682
_cell_length_c   13.64920900
_cell_angle_alpha   90.00000000
_cell_angle_beta   90.00000000
_cell_angle_gamma   120.00002099
_symmetry_Int_Tables_number   1
_chemical_formula_structural   YbEr2Co7C2
_chemical_formula_sum   'Yb2 Er4 Co14 C4'
_cell_volume   297.36174322
_cell_formula_units_Z   2
loop_
 _symmetry_equiv_pos_site_id
 _symmetry_equiv_pos_as_xyz
  1  'x, y, z'
loop_
 _atom_site_type_symbol
 _atom_site_label
 _atom_site_symmetry_multiplicity
 _atom_site_fract_x
 _atom_site_fract_y
 _atom_site_fract_z
 _atom_site_occupancy
  Yb  Yb0  1  0.666667  0.333333  0.750000  1
  Yb  Yb1  1  0.333333  0.666667  0.250000  1
  Er  Er2  1  0.666667  0.333333  0.536512  1
  Er  Er3  1  0.333333  0.666667  0.463488  1
  Er  Er4  1  0.333333  0.666667  0.036512  1
  Er  Er5  1  0.666667  0.333333  0.963488  1
  Co  Co6  1  0.164593  0.329186  0.654477  1
  Co  Co7  1  0.329186  0.164593  0.345523  1
  Co  Co8  1  0.329186  0.164593  0.154477  1
  Co  Co9  1  0.164593  0.835407  0.845523  1
  Co  Co10  1  0.835407  0.670814  0.345523  1
  Co  Co11  1  0.835407  0.164593  0.154477  1
  Co  Co12  1  0.670814  0.835407  0.654477  1
  Co  Co13  1  0.670814  0.835407  0.845523  1
  Co  Co14  1  0.164593  0.835407  0.654477  1
  Co  Co15  1  0.835407  0.670814  0.154477  1
  Co  Co16  1  0.000000  0.000000  0.000000  1
  Co  Co17  1  0.164593  0.329186  0.845523  1
  Co  Co18  1  0.835407  0.164593  0.345523  1
  Co  Co19  1  0.000000  0.000000  0.500000  1
  C  C20  1  0.666667  0.333333  0.250000  1
  C  C21  1  0.000000  0.000000  0.750000  1
  C  C22  1  0.333333  0.666667  0.750000  1
  C  C23  1  0.000000  0.000000  0.250000  1
