# generated using pymatgen
data_YbUF7
_symmetry_space_group_name_H-M   'P 1'
_cell_length_a   5.95867800
_cell_length_b   9.23738198
_cell_length_c   12.43567891
_cell_angle_alpha   63.47504742
_cell_angle_beta   90.00000000
_cell_angle_gamma   90.00000000
_symmetry_Int_Tables_number   1
_chemical_formula_structural   YbUF7
_chemical_formula_sum   'Yb4 U4 F28'
_cell_volume   612.44226209
_cell_formula_units_Z   4
loop_
 _symmetry_equiv_pos_site_id
 _symmetry_equiv_pos_as_xyz
  1  'x, y, z'
loop_
 _atom_site_type_symbol
 _atom_site_label
 _atom_site_symmetry_multiplicity
 _atom_site_fract_x
 _atom_site_fract_y
 _atom_site_fract_z
 _atom_site_occupancy
  Yb  Yb0  1  0.254734  0.826660  0.268271  1
  Yb  Yb1  1  0.745266  0.173340  0.731729  1
  Yb  Yb2  1  0.754734  0.173340  0.231729  1
  Yb  Yb3  1  0.245266  0.826660  0.768271  1
  U  U4  1  0.754436  0.727787  0.046842  1
  U  U5  1  0.245564  0.272213  0.953158  1
  U  U6  1  0.254436  0.272213  0.453158  1
  U  U7  1  0.745564  0.727787  0.546842  1
  F  F8  1  0.982111  0.704084  0.431191  1
  F  F9  1  0.017889  0.295916  0.568809  1
  F  F10  1  0.482111  0.295916  0.068809  1
  F  F11  1  0.517889  0.704084  0.931191  1
  F  F12  1  0.491938  0.736575  0.155943  1
  F  F13  1  0.508062  0.263425  0.844057  1
  F  F14  1  0.991938  0.263425  0.344057  1
  F  F15  1  0.008062  0.736575  0.655943  1
  F  F16  1  0.979010  0.744854  0.170531  1
  F  F17  1  0.020990  0.255146  0.829469  1
  F  F18  1  0.479010  0.255146  0.329469  1
  F  F19  1  0.520990  0.744854  0.670531  1
  F  F20  1  0.757802  0.477102  0.147769  1
  F  F21  1  0.242198  0.522898  0.852231  1
  F  F22  1  0.257802  0.522898  0.352231  1
  F  F23  1  0.742198  0.477102  0.647769  1
  F  F24  1  0.968479  0.294428  0.049471  1
  F  F25  1  0.031521  0.705572  0.950529  1
  F  F26  1  0.468479  0.705572  0.450529  1
  F  F27  1  0.531521  0.294428  0.549471  1
  F  F28  1  0.745637  0.979152  0.451453  1
  F  F29  1  0.254363  0.020848  0.548547  1
  F  F30  1  0.245637  0.020848  0.048547  1
  F  F31  1  0.754363  0.979152  0.951453  1
  F  F32  1  0.541013  0.980365  0.243918  1
  F  F33  1  0.458987  0.019635  0.756082  1
  F  F34  1  0.041013  0.019635  0.256082  1
  F  F35  1  0.958987  0.980365  0.743918  1
