# generated using pymatgen
data_Nb4Si2B4IrRu9
_symmetry_space_group_name_H-M   'P 1'
_cell_length_a   9.34042316
_cell_length_b   9.32587916
_cell_length_c   2.94505200
_cell_angle_alpha   90.00000000
_cell_angle_beta   90.00000000
_cell_angle_gamma   90.05716598
_symmetry_Int_Tables_number   1
_chemical_formula_structural   Nb4Si2B4IrRu9
_chemical_formula_sum   'Nb4 Si2 B4 Ir1 Ru9'
_cell_volume   256.53645389
_cell_formula_units_Z   1
loop_
 _symmetry_equiv_pos_site_id
 _symmetry_equiv_pos_as_xyz
  1  'x, y, z'
loop_
 _atom_site_type_symbol
 _atom_site_label
 _atom_site_symmetry_multiplicity
 _atom_site_fract_x
 _atom_site_fract_y
 _atom_site_fract_z
 _atom_site_occupancy
  Nb  Nb0  1  0.826361  0.677162  0.000000  1
  Nb  Nb1  1  0.177444  0.322255  0.000000  1
  Nb  Nb2  1  0.318629  0.824756  0.000000  1
  Nb  Nb3  1  0.677520  0.177994  0.000000  1
  Si  Si4  1  0.498415  0.494307  0.000000  1
  Si  Si5  1  0.000531  0.000649  0.000000  1
  B  B6  1  0.626130  0.880082  0.000000  1
  B  B7  1  0.374065  0.124004  0.000000  1
  B  B8  1  0.124527  0.624560  0.000000  1
  B  B9  1  0.875760  0.375196  0.000000  1
  Ir  Ir10  1  0.566437  0.711361  0.500000  1
  Ru  Ru11  1  0.433758  0.286820  0.500000  1
  Ru  Ru12  1  0.066201  0.788535  0.500000  1
  Ru  Ru13  1  0.932665  0.211514  0.500000  1
  Ru  Ru14  1  0.289975  0.567612  0.500000  1
  Ru  Ru15  1  0.711350  0.435691  0.500000  1
  Ru  Ru16  1  0.211265  0.066443  0.500000  1
  Ru  Ru17  1  0.788474  0.932421  0.500000  1
  Ru  Ru18  1  0.499391  0.999090  0.500000  1
  Ru  Ru19  1  0.001102  0.499547  0.500000  1
