# generated using pymatgen
data_BaCr2(Sb6Ru)2
_symmetry_space_group_name_H-M   'P 1'
_cell_length_a   8.23154749
_cell_length_b   8.23154666
_cell_length_c   8.27312417
_cell_angle_alpha   109.30578791
_cell_angle_beta   109.44027305
_cell_angle_gamma   109.46404339
_symmetry_Int_Tables_number   1
_chemical_formula_structural   BaCr2(Sb6Ru)2
_chemical_formula_sum   'Ba1 Cr2 Sb12 Ru2'
_cell_volume   432.60955468
_cell_formula_units_Z   1
loop_
 _symmetry_equiv_pos_site_id
 _symmetry_equiv_pos_as_xyz
  1  'x, y, z'
loop_
 _atom_site_type_symbol
 _atom_site_label
 _atom_site_symmetry_multiplicity
 _atom_site_fract_x
 _atom_site_fract_y
 _atom_site_fract_z
 _atom_site_occupancy
  Ba  Ba0  1  0.000000  0.000000  0.000000  1
  Cr  Cr1  1  0.500000  0.000000  0.000000  1
  Cr  Cr2  1  0.000000  0.500000  0.000000  1
  Sb  Sb3  1  0.152347  0.813056  0.651902  1
  Sb  Sb4  1  0.161155  0.500445  0.348098  1
  Sb  Sb5  1  0.499816  0.651563  0.838232  1
  Sb  Sb6  1  0.347327  0.845292  0.192619  1
  Sb  Sb7  1  0.813332  0.661584  0.161768  1
  Sb  Sb8  1  0.660442  0.841260  0.501703  1
  Sb  Sb9  1  0.186668  0.338416  0.838232  1
  Sb  Sb10  1  0.652673  0.154708  0.807381  1
  Sb  Sb11  1  0.339558  0.158740  0.498297  1
  Sb  Sb12  1  0.500184  0.348437  0.161768  1
  Sb  Sb13  1  0.838845  0.499555  0.651902  1
  Sb  Sb14  1  0.847653  0.186944  0.348098  1
  Ru  Ru15  1  0.500000  0.500000  0.500000  1
  Ru  Ru16  1  0.000000  0.000000  0.500000  1
