# generated using pymatgen
data_YEr7(LuBi)12
_symmetry_space_group_name_H-M   'P 1'
_cell_length_a   8.15687100
_cell_length_b   9.40448500
_cell_length_c   11.90709200
_cell_angle_alpha   90.00000000
_cell_angle_beta   89.99740390
_cell_angle_gamma   90.00000000
_symmetry_Int_Tables_number   1
_chemical_formula_structural   YEr7(LuBi)12
_chemical_formula_sum   'Y1 Er7 Lu12 Bi12'
_cell_volume   913.40696966
_cell_formula_units_Z   1
loop_
 _symmetry_equiv_pos_site_id
 _symmetry_equiv_pos_as_xyz
  1  'x, y, z'
loop_
 _atom_site_type_symbol
 _atom_site_label
 _atom_site_symmetry_multiplicity
 _atom_site_fract_x
 _atom_site_fract_y
 _atom_site_fract_z
 _atom_site_occupancy
  Y  Y0  1  0.146525  0.250000  0.716642  1
  Er  Er1  1  0.186294  0.750000  0.718452  1
  Er  Er2  1  0.686576  0.750000  0.781689  1
  Er  Er3  1  0.813521  0.250000  0.281656  1
  Er  Er4  1  0.313618  0.250000  0.218409  1
  Er  Er5  1  0.353575  0.750000  0.216897  1
  Er  Er6  1  0.853475  0.750000  0.283187  1
  Er  Er7  1  0.646622  0.250000  0.783126  1
  Lu  Lu8  1  0.023497  0.750000  0.989459  1
  Lu  Lu9  1  0.523659  0.750000  0.510489  1
  Lu  Lu10  1  0.976323  0.250000  0.010661  1
  Lu  Lu11  1  0.476431  0.250000  0.489440  1
  Lu  Lu12  1  0.307388  0.433440  0.940867  1
  Lu  Lu13  1  0.807388  0.066683  0.559265  1
  Lu  Lu14  1  0.692634  0.933396  0.059237  1
  Lu  Lu15  1  0.192591  0.566527  0.440745  1
  Lu  Lu16  1  0.692634  0.566604  0.059237  1
  Lu  Lu17  1  0.192591  0.933473  0.440745  1
  Lu  Lu18  1  0.307388  0.066560  0.940867  1
  Lu  Lu19  1  0.807388  0.433317  0.559265  1
  Bi  Bi20  1  0.433957  0.003686  0.672244  1
  Bi  Bi21  1  0.933485  0.496557  0.827785  1
  Bi  Bi22  1  0.566356  0.503760  0.327691  1
  Bi  Bi23  1  0.066308  0.996283  0.172307  1
  Bi  Bi24  1  0.566356  0.996240  0.327691  1
  Bi  Bi25  1  0.066308  0.503717  0.172307  1
  Bi  Bi26  1  0.433957  0.496314  0.672244  1
  Bi  Bi27  1  0.933485  0.003443  0.827785  1
  Bi  Bi28  1  0.404467  0.750000  0.957178  1
  Bi  Bi29  1  0.904458  0.750000  0.542858  1
  Bi  Bi30  1  0.595502  0.250000  0.042780  1
  Bi  Bi31  1  0.095243  0.250000  0.456795  1
