# generated using pymatgen
data_Sm2(ThOs)3
_symmetry_space_group_name_H-M   'P 1'
_cell_length_a   6.48865500
_cell_length_b   8.42094406
_cell_length_c   8.41974802
_cell_angle_alpha   120.00470168
_cell_angle_beta   89.99987013
_cell_angle_gamma   90.00025959
_symmetry_Int_Tables_number   1
_chemical_formula_structural   Sm2(ThOs)3
_chemical_formula_sum   'Sm4 Th6 Os6'
_cell_volume   398.40484741
_cell_formula_units_Z   2
loop_
 _symmetry_equiv_pos_site_id
 _symmetry_equiv_pos_as_xyz
  1  'x, y, z'
loop_
 _atom_site_type_symbol
 _atom_site_label
 _atom_site_symmetry_multiplicity
 _atom_site_fract_x
 _atom_site_fract_y
 _atom_site_fract_z
 _atom_site_occupancy
  Sm  Sm0  1  0.500004  0.333332  0.666669  1
  Sm  Sm1  1  0.500004  0.666662  0.333331  1
  Sm  Sm2  1  0.000001  0.666665  0.333330  1
  Sm  Sm3  1  0.000001  0.333335  0.666670  1
  Th  Th4  1  0.750005  0.252121  0.000000  1
  Th  Th5  1  0.750000  0.747782  0.747594  1
  Th  Th6  1  0.750000  0.000189  0.252406  1
  Th  Th7  1  0.250006  0.747864  0.000000  1
  Th  Th8  1  0.250000  0.252222  0.252389  1
  Th  Th9  1  0.250000  0.999833  0.747611  1
  Os  Os10  1  0.749991  0.622628  0.000000  1
  Os  Os11  1  0.749998  0.377360  0.377378  1
  Os  Os12  1  0.749998  0.999983  0.622622  1
  Os  Os13  1  0.249998  0.377363  0.000000  1
  Os  Os14  1  0.249998  0.622648  0.622633  1
  Os  Os15  1  0.249998  0.000014  0.377367  1
