# generated using pymatgen
data_Hf4Si4PtRh3
_symmetry_space_group_name_H-M   'P 1'
_cell_length_a   3.92160700
_cell_length_b   6.54278658
_cell_length_c   7.49446225
_cell_angle_alpha   89.73400474
_cell_angle_beta   90.00000000
_cell_angle_gamma   90.00000000
_symmetry_Int_Tables_number   1
_chemical_formula_structural   Hf4Si4PtRh3
_chemical_formula_sum   'Hf4 Si4 Pt1 Rh3'
_cell_volume   192.29262111
_cell_formula_units_Z   1
loop_
 _symmetry_equiv_pos_site_id
 _symmetry_equiv_pos_as_xyz
  1  'x, y, z'
loop_
 _atom_site_type_symbol
 _atom_site_label
 _atom_site_symmetry_multiplicity
 _atom_site_fract_x
 _atom_site_fract_y
 _atom_site_fract_z
 _atom_site_occupancy
  Hf  Hf0  1  0.250000  0.520614  0.181872  1
  Hf  Hf1  1  0.750000  0.477218  0.817620  1
  Hf  Hf2  1  0.250000  0.023489  0.319992  1
  Hf  Hf3  1  0.750000  0.981092  0.680651  1
  Si  Si4  1  0.250000  0.769940  0.875379  1
  Si  Si5  1  0.750000  0.232161  0.118732  1
  Si  Si6  1  0.250000  0.273394  0.618684  1
  Si  Si7  1  0.750000  0.727249  0.386362  1
  Pt  Pt8  1  0.750000  0.847866  0.066483  1
  Rh  Rh9  1  0.250000  0.147579  0.935387  1
  Rh  Rh10  1  0.750000  0.350052  0.435113  1
  Rh  Rh11  1  0.250000  0.649346  0.563723  1
