# generated using pymatgen
data_Ca4Yb3Mn2NbN9
_symmetry_space_group_name_H-M   'P 1'
_cell_length_a   9.87588923
_cell_length_b   6.04628720
_cell_length_c   8.97602384
_cell_angle_alpha   87.68375957
_cell_angle_beta   89.93113250
_cell_angle_gamma   89.94390799
_symmetry_Int_Tables_number   1
_chemical_formula_structural   Ca4Yb3Mn2NbN9
_chemical_formula_sum   'Ca8 Yb6 Mn4 Nb2 N18'
_cell_volume   535.54196200
_cell_formula_units_Z   2
loop_
 _symmetry_equiv_pos_site_id
 _symmetry_equiv_pos_as_xyz
  1  'x, y, z'
loop_
 _atom_site_type_symbol
 _atom_site_label
 _atom_site_symmetry_multiplicity
 _atom_site_fract_x
 _atom_site_fract_y
 _atom_site_fract_z
 _atom_site_occupancy
  Ca  Ca0  1  0.250471  0.082087  0.799382  1
  Ca  Ca1  1  0.419097  0.929293  0.172037  1
  Ca  Ca2  1  0.417475  0.246827  0.493584  1
  Ca  Ca3  1  0.080472  0.934638  0.174948  1
  Ca  Ca4  1  0.918962  0.755492  0.507459  1
  Ca  Ca5  1  0.067328  0.576439  0.839075  1
  Ca  Ca6  1  0.750430  0.915855  0.195294  1
  Ca  Ca7  1  0.566360  0.430294  0.162855  1
  Yb  Yb8  1  0.944334  0.438720  0.171438  1
  Yb  Yb9  1  0.081040  0.247424  0.495870  1
  Yb  Yb10  1  0.441124  0.569352  0.832259  1
  Yb  Yb11  1  0.579269  0.754828  0.505030  1
  Yb  Yb12  1  0.581752  0.061458  0.827091  1
  Yb  Yb13  1  0.918001  0.067154  0.830589  1
  Mn  Mn14  1  0.250354  0.323720  0.064224  1
  Mn  Mn15  1  0.748215  0.460779  0.723683  1
  Mn  Mn16  1  0.750517  0.670062  0.933551  1
  Mn  Mn17  1  0.248981  0.534056  0.272937  1
  Nb  Nb18  1  0.750446  0.279858  0.440457  1
  Nb  Nb19  1  0.249835  0.717222  0.554967  1
  N  N20  1  0.401652  0.230345  0.979695  1
  N  N21  1  0.247786  0.225698  0.264248  1
  N  N22  1  0.904601  0.120832  0.342265  1
  N  N23  1  0.602347  0.370816  0.632134  1
  N  N24  1  0.751054  0.556475  0.331204  1
  N  N25  1  0.248954  0.629454  0.068079  1
  N  N26  1  0.892420  0.362334  0.630408  1
  N  N27  1  0.393030  0.641463  0.374650  1
  N  N28  1  0.747996  0.359425  0.922847  1
  N  N29  1  0.095553  0.891617  0.659096  1
  N  N30  1  0.747653  0.767725  0.730884  1
  N  N31  1  0.102576  0.633231  0.373400  1
  N  N32  1  0.594766  0.772601  0.019630  1
  N  N33  1  0.250472  0.442104  0.666858  1
  N  N34  1  0.405184  0.883593  0.660828  1
  N  N35  1  0.596865  0.113505  0.344345  1
  N  N36  1  0.097614  0.230650  0.981282  1
  N  N37  1  0.905015  0.772573  0.021418  1
