# generated using pymatgen
data_Ce2Sm4TaCr(Co4P3)4
_symmetry_space_group_name_H-M   'P 1'
_cell_length_a   3.73480400
_cell_length_b   10.64110500
_cell_length_c   12.26298100
_cell_angle_alpha   90.00000000
_cell_angle_beta   90.00000000
_cell_angle_gamma   90.00000000
_symmetry_Int_Tables_number   1
_chemical_formula_structural   Ce2Sm4TaCr(Co4P3)4
_chemical_formula_sum   'Ce2 Sm4 Ta1 Cr1 Co16 P12'
_cell_volume   487.36080523
_cell_formula_units_Z   1
loop_
 _symmetry_equiv_pos_site_id
 _symmetry_equiv_pos_as_xyz
  1  'x, y, z'
loop_
 _atom_site_type_symbol
 _atom_site_label
 _atom_site_symmetry_multiplicity
 _atom_site_fract_x
 _atom_site_fract_y
 _atom_site_fract_z
 _atom_site_occupancy
  Ce  Ce0  1  0.000000  0.500000  0.531098  1
  Ce  Ce1  1  0.500000  0.000000  0.474029  1
  Sm  Sm2  1  0.500000  0.818746  0.205003  1
  Sm  Sm3  1  0.500000  0.181254  0.205003  1
  Sm  Sm4  1  0.000000  0.683979  0.796294  1
  Sm  Sm5  1  0.000000  0.316021  0.796294  1
  Ta  Ta6  1  0.500000  0.500000  0.152327  1
  Cr  Cr7  1  0.000000  0.000000  0.844457  1
  Co  Co8  1  0.500000  0.500000  0.697075  1
  Co  Co9  1  0.000000  0.000000  0.302050  1
  Co  Co10  1  0.000000  0.500000  0.985035  1
  Co  Co11  1  0.500000  0.000000  0.013043  1
  Co  Co12  1  0.500000  0.330676  0.990134  1
  Co  Co13  1  0.500000  0.669324  0.990134  1
  Co  Co14  1  0.000000  0.164481  0.004928  1
  Co  Co15  1  0.000000  0.835519  0.004928  1
  Co  Co16  1  0.500000  0.296734  0.432681  1
  Co  Co17  1  0.500000  0.703266  0.432681  1
  Co  Co18  1  0.000000  0.201283  0.569104  1
  Co  Co19  1  0.000000  0.798717  0.569104  1
  Co  Co20  1  0.500000  0.881906  0.708976  1
  Co  Co21  1  0.500000  0.118094  0.708976  1
  Co  Co22  1  0.000000  0.620127  0.292938  1
  Co  Co23  1  0.000000  0.379873  0.292938  1
  P  P24  1  0.500000  0.500000  0.880797  1
  P  P25  1  0.000000  0.000000  0.116686  1
  P  P26  1  0.500000  0.500000  0.353682  1
  P  P27  1  0.000000  0.000000  0.657527  1
  P  P28  1  0.500000  0.305468  0.615987  1
  P  P29  1  0.500000  0.694532  0.615987  1
  P  P30  1  0.000000  0.192830  0.385966  1
  P  P31  1  0.000000  0.807170  0.385966  1
  P  P32  1  0.500000  0.850843  0.891973  1
  P  P33  1  0.500000  0.149157  0.891973  1
  P  P34  1  0.000000  0.659073  0.102113  1
  P  P35  1  0.000000  0.340927  0.102113  1
