# generated using pymatgen
data_KReO3F2
_symmetry_space_group_name_H-M   'P 1'
_cell_length_a   3.96212720
_cell_length_b   11.23264300
_cell_length_c   6.24681593
_cell_angle_alpha   90.00000000
_cell_angle_beta   109.40467883
_cell_angle_gamma   90.00000000
_symmetry_Int_Tables_number   1
_chemical_formula_structural   KReO3F2
_chemical_formula_sum   'K2 Re2 O6 F4'
_cell_volume   262.22301897
_cell_formula_units_Z   2
loop_
 _symmetry_equiv_pos_site_id
 _symmetry_equiv_pos_as_xyz
  1  'x, y, z'
loop_
 _atom_site_type_symbol
 _atom_site_label
 _atom_site_symmetry_multiplicity
 _atom_site_fract_x
 _atom_site_fract_y
 _atom_site_fract_z
 _atom_site_occupancy
  K  K0  1  0.000000  0.000000  0.000000  1
  K  K1  1  0.000000  0.500000  0.000000  1
  Re  Re2  1  0.787583  0.250000  0.420227  1
  Re  Re3  1  0.212417  0.750000  0.579772  1
  O  O4  1  0.176357  0.630464  0.396931  1
  O  O5  1  0.176357  0.869536  0.396931  1
  O  O6  1  0.211063  0.250000  0.382769  1
  O  O7  1  0.788937  0.750000  0.617230  1
  O  O8  1  0.823643  0.130465  0.603068  1
  O  O9  1  0.823643  0.369536  0.603068  1
  F  F10  1  0.576351  0.137854  0.155076  1
  F  F11  1  0.576351  0.362146  0.155076  1
  F  F12  1  0.423649  0.637853  0.844925  1
  F  F13  1  0.423649  0.862147  0.844925  1
