# generated using pymatgen
data_Rb4ErUTe6
_symmetry_space_group_name_H-M   'P 1'
_cell_length_a   8.18683094
_cell_length_b   8.18683087
_cell_length_c   8.97378980
_cell_angle_alpha   81.13143680
_cell_angle_beta   81.13144200
_cell_angle_gamma   120.04716749
_symmetry_Int_Tables_number   1
_chemical_formula_structural   Rb4ErUTe6
_chemical_formula_sum   'Rb4 Er1 U1 Te6'
_cell_volume   495.22908195
_cell_formula_units_Z   1
loop_
 _symmetry_equiv_pos_site_id
 _symmetry_equiv_pos_as_xyz
  1  'x, y, z'
loop_
 _atom_site_type_symbol
 _atom_site_label
 _atom_site_symmetry_multiplicity
 _atom_site_fract_x
 _atom_site_fract_y
 _atom_site_fract_z
 _atom_site_occupancy
  Rb  Rb0  1  0.500097  0.499903  0.000000  1
  Rb  Rb1  1  0.654946  0.345054  0.500000  1
  Rb  Rb2  1  0.344540  0.655460  0.500000  1
  Rb  Rb3  1  0.000516  0.999484  0.500000  1
  Er  Er4  1  0.831986  0.168014  0.000000  1
  U  U5  1  0.167836  0.832164  0.000000  1
  Te  Te6  1  0.814230  0.806795  0.199272  1
  Te  Te7  1  0.193205  0.185770  0.800728  1
  Te  Te8  1  0.423800  0.048552  0.202464  1
  Te  Te9  1  0.560945  0.943550  0.797170  1
  Te  Te10  1  0.951448  0.576200  0.797536  1
  Te  Te11  1  0.056450  0.439055  0.202830  1
