# generated using pymatgen
data_Pr12Co3AuBr12
_symmetry_space_group_name_H-M   'P 1'
_cell_length_a   10.58475017
_cell_length_b   10.58475056
_cell_length_c   10.58475028
_cell_angle_alpha   109.97455521
_cell_angle_beta   109.97455720
_cell_angle_gamma   109.97455162
_symmetry_Int_Tables_number   1
_chemical_formula_structural   Pr12Co3AuBr12
_chemical_formula_sum   'Pr12 Co3 Au1 Br12'
_cell_volume   895.47728367
_cell_formula_units_Z   1
loop_
 _symmetry_equiv_pos_site_id
 _symmetry_equiv_pos_as_xyz
  1  'x, y, z'
loop_
 _atom_site_type_symbol
 _atom_site_label
 _atom_site_symmetry_multiplicity
 _atom_site_fract_x
 _atom_site_fract_y
 _atom_site_fract_z
 _atom_site_occupancy
  Pr  Pr0  1  0.468542  0.495662  0.224475  1
  Pr  Pr1  1  0.750000  0.230246  0.269754  1
  Pr  Pr2  1  0.750000  0.016634  0.483366  1
  Pr  Pr3  1  0.224475  0.468542  0.495662  1
  Pr  Pr4  1  0.269754  0.750000  0.230246  1
  Pr  Pr5  1  0.031458  0.275525  0.004338  1
  Pr  Pr6  1  0.004338  0.031458  0.275525  1
  Pr  Pr7  1  0.483366  0.750000  0.016634  1
  Pr  Pr8  1  0.495662  0.224475  0.468542  1
  Pr  Pr9  1  0.016634  0.483366  0.750000  1
  Pr  Pr10  1  0.275525  0.004338  0.031458  1
  Pr  Pr11  1  0.230246  0.269754  0.750000  1
  Co  Co12  1  0.502078  0.997922  0.250000  1
  Co  Co13  1  0.997922  0.250000  0.502078  1
  Co  Co14  1  0.250000  0.502078  0.997922  1
  Au  Au15  1  0.250000  0.250000  0.250000  1
  Br  Br16  1  0.250000  0.757112  0.742888  1
  Br  Br17  1  0.507199  0.503465  0.753380  1
  Br  Br18  1  0.992801  0.746620  0.996535  1
  Br  Br19  1  0.742888  0.250000  0.757112  1
  Br  Br20  1  0.996535  0.992801  0.746620  1
  Br  Br21  1  0.250000  0.997649  0.502351  1
  Br  Br22  1  0.753380  0.507199  0.503465  1
  Br  Br23  1  0.502351  0.250000  0.997649  1
  Br  Br24  1  0.757112  0.742888  0.250000  1
  Br  Br25  1  0.746620  0.996535  0.992801  1
  Br  Br26  1  0.997649  0.502351  0.250000  1
  Br  Br27  1  0.503465  0.753380  0.507199  1
