# generated using pymatgen
data_Yb4As6Pd2Rh5
_symmetry_space_group_name_H-M   'P 1'
_cell_length_a   7.31938909
_cell_length_b   7.31954582
_cell_length_c   7.31956239
_cell_angle_alpha   108.80864377
_cell_angle_beta   109.81102510
_cell_angle_gamma   109.79827713
_symmetry_Int_Tables_number   1
_chemical_formula_structural   Yb4As6Pd2Rh5
_chemical_formula_sum   'Yb4 As6 Pd2 Rh5'
_cell_volume   301.83285083
_cell_formula_units_Z   1
loop_
 _symmetry_equiv_pos_site_id
 _symmetry_equiv_pos_as_xyz
  1  'x, y, z'
loop_
 _atom_site_type_symbol
 _atom_site_label
 _atom_site_symmetry_multiplicity
 _atom_site_fract_x
 _atom_site_fract_y
 _atom_site_fract_z
 _atom_site_occupancy
  Yb  Yb0  1  0.500004  0.499326  0.500677  1
  Yb  Yb1  1  0.998644  0.499322  0.999320  1
  Yb  Yb2  1  0.499994  0.000674  0.999317  1
  Yb  Yb3  1  0.001355  0.000672  0.500680  1
  As  As4  1  0.675233  0.003932  0.679172  1
  As  As5  1  0.675218  0.671333  0.996110  1
  As  As6  1  0.324785  0.320861  0.996092  1
  As  As7  1  0.000004  0.670375  0.670372  1
  As  As8  1  0.000000  0.329617  0.329614  1
  As  As9  1  0.324769  0.003914  0.328676  1
  Pd  Pd10  1  0.500004  0.749968  0.249984  1
  Pd  Pd11  1  0.999999  0.999970  0.999983  1
  Rh  Rh12  1  0.748414  0.248396  0.500004  1
  Rh  Rh13  1  0.251591  0.751564  0.499969  1
  Rh  Rh14  1  0.251548  0.499993  0.751551  1
  Rh  Rh15  1  0.499988  0.250044  0.750002  1
  Rh  Rh16  1  0.748451  0.500039  0.248479  1
