# generated using pymatgen
data_Np4Al24SiPt8
_symmetry_space_group_name_H-M   'P 1'
_cell_length_a   7.55658864
_cell_length_b   7.59004409
_cell_length_c   13.18288043
_cell_angle_alpha   84.41107737
_cell_angle_beta   78.95154982
_cell_angle_gamma   59.84935463
_symmetry_Int_Tables_number   1
_chemical_formula_structural   Np4Al24SiPt8
_chemical_formula_sum   'Np4 Al24 Si1 Pt8'
_cell_volume   641.68871602
_cell_formula_units_Z   1
loop_
 _symmetry_equiv_pos_site_id
 _symmetry_equiv_pos_as_xyz
  1  'x, y, z'
loop_
 _atom_site_type_symbol
 _atom_site_label
 _atom_site_symmetry_multiplicity
 _atom_site_fract_x
 _atom_site_fract_y
 _atom_site_fract_z
 _atom_site_occupancy
  Np  Np0  1  0.382590  0.180060  0.803767  1
  Np  Np1  1  0.604587  0.832192  0.193158  1
  Np  Np2  1  0.748489  0.497262  0.803791  1
  Np  Np3  1  0.267044  0.501497  0.191620  1
  Al  Al4  1  0.677686  0.836312  0.947232  1
  Al  Al5  1  0.318124  0.166684  0.054319  1
  Al  Al6  1  0.146391  0.844598  0.557388  1
  Al  Al7  1  0.856560  0.165683  0.433417  1
  Al  Al8  1  0.497171  0.151290  0.556146  1
  Al  Al9  1  0.520334  0.833158  0.436466  1
  Al  Al10  1  0.218434  0.163400  0.327416  1
  Al  Al11  1  0.776403  0.839681  0.677488  1
  Al  Al12  1  0.439056  0.508192  0.677794  1
  Al  Al13  1  0.564692  0.493042  0.327588  1
  Al  Al14  1  0.108064  0.149116  0.675460  1
  Al  Al15  1  0.888692  0.841659  0.328650  1
  Al  Al16  1  0.357542  0.496455  0.946727  1
  Al  Al17  1  0.646761  0.502942  0.054118  1
  Al  Al18  1  0.015004  0.169408  0.955169  1
  Al  Al19  1  0.983325  0.830938  0.048511  1
  Al  Al20  1  0.187818  0.498851  0.436752  1
  Al  Al21  1  0.799402  0.498930  0.555976  1
  Al  Al22  1  0.733728  0.164606  0.182799  1
  Al  Al23  1  0.270276  0.834139  0.818138  1
  Al  Al24  1  0.058810  0.635498  0.822459  1
  Al  Al25  1  0.938581  0.369137  0.184414  1
  Al  Al26  1  0.850080  0.044460  0.817988  1
  Al  Al27  1  0.144527  0.958899  0.182820  1
  Si  Si28  1  0.119018  0.487389  0.643207  1
  Pt  Pt29  1  0.881437  0.506052  0.363226  1
  Pt  Pt30  1  0.661578  0.169467  0.999346  1
  Pt  Pt31  1  0.338828  0.830516  0.999414  1
  Pt  Pt32  1  0.536403  0.169268  0.363622  1
  Pt  Pt33  1  0.460811  0.833055  0.634381  1
  Pt  Pt34  1  0.783190  0.171721  0.633865  1
  Pt  Pt35  1  0.218782  0.823548  0.363495  1
  Pt  Pt36  1  0.999781  0.500894  0.001872  1
