# generated using pymatgen
data_Dy5Ho3Re2(B12Ru)2
_symmetry_space_group_name_H-M   'P 1'
_cell_length_a   3.66937300
_cell_length_b   9.15099974
_cell_length_c   11.53911018
_cell_angle_alpha   90.21073305
_cell_angle_beta   90.00000000
_cell_angle_gamma   90.00000000
_symmetry_Int_Tables_number   1
_chemical_formula_structural   Dy5Ho3Re2(B12Ru)2
_chemical_formula_sum   'Dy5 Ho3 Re2 B24 Ru2'
_cell_volume   387.46259849
_cell_formula_units_Z   1
loop_
 _symmetry_equiv_pos_site_id
 _symmetry_equiv_pos_as_xyz
  1  'x, y, z'
loop_
 _atom_site_type_symbol
 _atom_site_label
 _atom_site_symmetry_multiplicity
 _atom_site_fract_x
 _atom_site_fract_y
 _atom_site_fract_z
 _atom_site_occupancy
  Dy  Dy0  1  0.000000  0.320924  0.412653  1
  Dy  Dy1  1  0.000000  0.679043  0.587461  1
  Dy  Dy2  1  0.000000  0.824443  0.084293  1
  Dy  Dy3  1  0.000000  0.175652  0.915562  1
  Dy  Dy4  1  0.000000  0.942255  0.370412  1
  Ho  Ho5  1  0.000000  0.057768  0.629860  1
  Ho  Ho6  1  0.000000  0.442514  0.129342  1
  Ho  Ho7  1  0.000000  0.557543  0.870532  1
  Re  Re8  1  0.000000  0.138579  0.179572  1
  Re  Re9  1  0.000000  0.861692  0.820286  1
  B  B10  1  0.500000  0.553530  0.432859  1
  B  B11  1  0.500000  0.446126  0.567198  1
  B  B12  1  0.500000  0.053175  0.066849  1
  B  B13  1  0.500000  0.946956  0.932998  1
  B  B14  1  0.500000  0.748007  0.418564  1
  B  B15  1  0.500000  0.251514  0.581559  1
  B  B16  1  0.500000  0.248950  0.081250  1
  B  B17  1  0.500000  0.751192  0.918650  1
  B  B18  1  0.500000  0.789774  0.265605  1
  B  B19  1  0.500000  0.209889  0.734370  1
  B  B20  1  0.500000  0.291447  0.234781  1
  B  B21  1  0.500000  0.708722  0.765138  1
  B  B22  1  0.500000  0.630205  0.185820  1
  B  B23  1  0.500000  0.369714  0.814108  1
  B  B24  1  0.500000  0.130994  0.314780  1
  B  B25  1  0.500000  0.869328  0.685140  1
  B  B26  1  0.500000  0.982477  0.212099  1
  B  B27  1  0.500000  0.017778  0.787684  1
  B  B28  1  0.500000  0.482804  0.288037  1
  B  B29  1  0.500000  0.517073  0.711906  1
  B  B30  1  0.500000  0.602328  0.028443  1
  B  B31  1  0.500000  0.397739  0.971450  1
  B  B32  1  0.500000  0.103356  0.471860  1
  B  B33  1  0.500000  0.896893  0.528769  1
  Ru  Ru34  1  0.000000  0.637185  0.321314  1
  Ru  Ru35  1  0.000000  0.362427  0.678797  1
