# generated using pymatgen
data_Ho19ErSi15Au
_symmetry_space_group_name_H-M   'P 1'
_cell_length_a   7.41002102
_cell_length_b   7.66066507
_cell_length_c   14.56693442
_cell_angle_alpha   89.88809290
_cell_angle_beta   89.49301558
_cell_angle_gamma   90.17926477
_symmetry_Int_Tables_number   1
_chemical_formula_structural   Ho19ErSi15Au
_chemical_formula_sum   'Ho19 Er1 Si15 Au1'
_cell_volume   826.86403095
_cell_formula_units_Z   1
loop_
 _symmetry_equiv_pos_site_id
 _symmetry_equiv_pos_as_xyz
  1  'x, y, z'
loop_
 _atom_site_type_symbol
 _atom_site_label
 _atom_site_symmetry_multiplicity
 _atom_site_fract_x
 _atom_site_fract_y
 _atom_site_fract_z
 _atom_site_occupancy
  Ho  Ho0  1  0.151210  0.511065  0.248305  1
  Ho  Ho1  1  0.847166  0.488506  0.751085  1
  Ho  Ho2  1  0.349358  0.011541  0.750344  1
  Ho  Ho3  1  0.975575  0.820658  0.100587  1
  Ho  Ho4  1  0.472281  0.683899  0.401272  1
  Ho  Ho5  1  0.522950  0.318119  0.900251  1
  Ho  Ho6  1  0.028805  0.182271  0.598114  1
  Ho  Ho7  1  0.028057  0.178875  0.900456  1
  Ho  Ho8  1  0.528447  0.316793  0.597845  1
  Ho  Ho9  1  0.475909  0.682053  0.100763  1
  Ho  Ho10  1  0.970330  0.816995  0.400510  1
  Ho  Ho11  1  0.676216  0.822362  0.877164  1
  Ho  Ho12  1  0.180698  0.680236  0.621667  1
  Ho  Ho13  1  0.820025  0.326043  0.123616  1
  Ho  Ho14  1  0.318170  0.177836  0.376865  1
  Ho  Ho15  1  0.322650  0.178030  0.124066  1
  Ho  Ho16  1  0.820082  0.320805  0.377129  1
  Ho  Ho17  1  0.179899  0.675007  0.877249  1
  Ho  Ho18  1  0.681227  0.821301  0.622238  1
  Er  Er19  1  0.649065  0.991520  0.249957  1
  Si  Si20  1  0.767788  0.630515  0.252639  1
  Si  Si21  1  0.268155  0.871962  0.251385  1
  Si  Si22  1  0.732589  0.125680  0.748432  1
  Si  Si23  1  0.230231  0.372686  0.746663  1
  Si  Si24  1  0.021138  0.104807  0.250274  1
  Si  Si25  1  0.523657  0.395674  0.252492  1
  Si  Si26  1  0.474225  0.605184  0.747139  1
  Si  Si27  1  0.976861  0.893152  0.748092  1
  Si  Si28  1  0.353498  0.971583  0.540044  1
  Si  Si29  1  0.650317  0.028574  0.041921  1
  Si  Si30  1  0.147824  0.469967  0.459909  1
  Si  Si31  1  0.160252  0.471113  0.042472  1
  Si  Si32  1  0.646392  0.029138  0.459162  1
  Si  Si33  1  0.350338  0.968393  0.961494  1
  Si  Si34  1  0.854066  0.529823  0.539269  1
  Au  Au35  1  0.844547  0.527833  0.959125  1
