# generated using pymatgen
data_Tb2MgSi3P3Pd20
_symmetry_space_group_name_H-M   'P 1'
_cell_length_a   8.66956756
_cell_length_b   8.66700848
_cell_length_c   8.66829438
_cell_angle_alpha   60.01469109
_cell_angle_beta   59.98526473
_cell_angle_gamma   60.00020117
_symmetry_Int_Tables_number   1
_chemical_formula_structural   Tb2MgSi3P3Pd20
_chemical_formula_sum   'Tb2 Mg1 Si3 P3 Pd20'
_cell_volume   460.55952472
_cell_formula_units_Z   1
loop_
 _symmetry_equiv_pos_site_id
 _symmetry_equiv_pos_as_xyz
  1  'x, y, z'
loop_
 _atom_site_type_symbol
 _atom_site_label
 _atom_site_symmetry_multiplicity
 _atom_site_fract_x
 _atom_site_fract_y
 _atom_site_fract_z
 _atom_site_occupancy
  Tb  Tb0  1  0.249569  0.250437  0.249564  1
  Tb  Tb1  1  0.749565  0.750429  0.749570  1
  Mg  Mg2  1  0.001175  0.998825  0.001175  1
  Si  Si3  1  0.735225  0.264775  0.263441  1
  Si  Si4  1  0.263440  0.736560  0.735223  1
  Si  Si5  1  0.264788  0.735212  0.264789  1
  P  P6  1  0.736200  0.263800  0.736199  1
  P  P7  1  0.263592  0.265121  0.734879  1
  P  P8  1  0.734879  0.736408  0.263592  1
  Pd  Pd9  1  0.383775  0.383497  0.385713  1
  Pd  Pd10  1  0.616416  0.614681  0.614835  1
  Pd  Pd11  1  0.385317  0.383585  0.845932  1
  Pd  Pd12  1  0.385710  0.847021  0.383773  1
  Pd  Pd13  1  0.616505  0.616224  0.152985  1
  Pd  Pd14  1  0.614838  0.154062  0.616417  1
  Pd  Pd15  1  0.845938  0.385162  0.385317  1
  Pd  Pd16  1  0.152979  0.614289  0.616505  1
  Pd  Pd17  1  0.344040  0.001788  0.998211  1
  Pd  Pd18  1  0.656874  0.000108  0.999893  1
  Pd  Pd19  1  0.999891  0.343127  0.656875  1
  Pd  Pd20  1  0.998212  0.655959  0.344039  1
  Pd  Pd21  1  0.002467  0.343644  0.998726  1
  Pd  Pd22  1  0.656357  0.997532  0.344838  1
  Pd  Pd23  1  0.998728  0.655161  0.002469  1
  Pd  Pd24  1  0.344838  0.001273  0.656358  1
  Pd  Pd25  1  0.000051  0.999949  0.345342  1
  Pd  Pd26  1  0.998090  0.001910  0.655199  1
  Pd  Pd27  1  0.655200  0.344803  0.998089  1
  Pd  Pd28  1  0.345340  0.654657  0.000052  1
