# generated using pymatgen
data_La2Pr2Al17GaIr6
_symmetry_space_group_name_H-M   'P 1'
_cell_length_a   7.63408838
_cell_length_b   7.63408743
_cell_length_c   9.66241500
_cell_angle_alpha   90.00000000
_cell_angle_beta   90.00000000
_cell_angle_gamma   119.18625677
_symmetry_Int_Tables_number   1
_chemical_formula_structural   La2Pr2Al17GaIr6
_chemical_formula_sum   'La2 Pr2 Al17 Ga1 Ir6'
_cell_volume   491.62468405
_cell_formula_units_Z   1
loop_
 _symmetry_equiv_pos_site_id
 _symmetry_equiv_pos_as_xyz
  1  'x, y, z'
loop_
 _atom_site_type_symbol
 _atom_site_label
 _atom_site_symmetry_multiplicity
 _atom_site_fract_x
 _atom_site_fract_y
 _atom_site_fract_z
 _atom_site_occupancy
  La  La0  1  0.993386  0.674835  0.250000  1
  La  La1  1  0.674835  0.993386  0.250000  1
  Pr  Pr2  1  0.003826  0.327977  0.750000  1
  Pr  Pr3  1  0.327977  0.003826  0.750000  1
  Al  Al4  1  0.868753  0.868753  0.750000  1
  Al  Al5  1  0.004794  0.337072  0.070915  1
  Al  Al6  1  0.996952  0.663651  0.925445  1
  Al  Al7  1  0.996952  0.663651  0.574555  1
  Al  Al8  1  0.337072  0.004794  0.429085  1
  Al  Al9  1  0.004794  0.337072  0.429085  1
  Al  Al10  1  0.663651  0.996952  0.574555  1
  Al  Al11  1  0.663651  0.996952  0.925445  1
  Al  Al12  1  0.337072  0.004794  0.070915  1
  Al  Al13  1  0.333009  0.333009  0.550195  1
  Al  Al14  1  0.664169  0.664169  0.461419  1
  Al  Al15  1  0.664169  0.664169  0.038581  1
  Al  Al16  1  0.333009  0.333009  0.949805  1
  Al  Al17  1  0.338040  0.545928  0.250000  1
  Al  Al18  1  0.660042  0.452030  0.750000  1
  Al  Al19  1  0.545928  0.338040  0.250000  1
  Al  Al20  1  0.452030  0.660042  0.750000  1
  Ga  Ga21  1  0.139820  0.139820  0.250000  1
  Ir  Ir22  1  0.670250  0.328916  0.000026  1
  Ir  Ir23  1  0.328916  0.670250  0.000026  1
  Ir  Ir24  1  0.328916  0.670250  0.499974  1
  Ir  Ir25  1  0.670250  0.328916  0.499974  1
  Ir  Ir26  1  0.998871  0.998871  0.997623  1
  Ir  Ir27  1  0.998871  0.998871  0.502377  1
