# generated using pymatgen
data_AcZn10Ag
_symmetry_space_group_name_H-M   'P 1'
_cell_length_a   8.43083825
_cell_length_b   8.43083885
_cell_length_c   8.43083781
_cell_angle_alpha   99.86758029
_cell_angle_beta   99.86756968
_cell_angle_gamma   131.09098369
_symmetry_Int_Tables_number   1
_chemical_formula_structural   AcZn10Ag
_chemical_formula_sum   'Ac2 Zn20 Ag2'
_cell_volume   411.12285444
_cell_formula_units_Z   2
loop_
 _symmetry_equiv_pos_site_id
 _symmetry_equiv_pos_as_xyz
  1  'x, y, z'
loop_
 _atom_site_type_symbol
 _atom_site_label
 _atom_site_symmetry_multiplicity
 _atom_site_fract_x
 _atom_site_fract_y
 _atom_site_fract_z
 _atom_site_occupancy
  Ac  Ac0  1  0.000000  0.000000  0.000000  1
  Ac  Ac1  1  0.250000  0.750000  0.500000  1
  Zn  Zn2  1  0.125000  0.375000  0.750000  1
  Zn  Zn3  1  0.625000  0.875000  0.250000  1
  Zn  Zn4  1  0.625000  0.375000  0.750000  1
  Zn  Zn5  1  0.625000  0.375000  0.250000  1
  Zn  Zn6  1  0.182694  0.512890  0.084745  1
  Zn  Zn7  1  0.182694  0.097949  0.669804  1
  Zn  Zn8  1  0.762890  0.932694  0.584745  1
  Zn  Zn9  1  0.762890  0.178146  0.830196  1
  Zn  Zn10  1  0.428146  0.512890  0.330196  1
  Zn  Zn11  1  0.428146  0.097949  0.915255  1
  Zn  Zn12  1  0.347949  0.932694  0.169804  1
  Zn  Zn13  1  0.347949  0.178146  0.415255  1
  Zn  Zn14  1  0.067306  0.237110  0.415255  1
  Zn  Zn15  1  0.067306  0.652051  0.830196  1
  Zn  Zn16  1  0.487110  0.817306  0.915255  1
  Zn  Zn17  1  0.487110  0.571854  0.669804  1
  Zn  Zn18  1  0.821854  0.237110  0.169804  1
  Zn  Zn19  1  0.821854  0.652051  0.584745  1
  Zn  Zn20  1  0.902051  0.817306  0.330196  1
  Zn  Zn21  1  0.902051  0.571854  0.084745  1
  Ag  Ag22  1  0.750000  0.250000  0.500000  1
  Ag  Ag23  1  0.500000  0.500000  0.000000  1
