# generated using pymatgen
data_Hf6TiNb3(Ga2Ge)2
_symmetry_space_group_name_H-M   'P 1'
_cell_length_a   7.93098406
_cell_length_b   7.91496655
_cell_length_c   5.42027404
_cell_angle_alpha   89.99289736
_cell_angle_beta   90.01418381
_cell_angle_gamma   120.06696605
_symmetry_Int_Tables_number   1
_chemical_formula_structural   Hf6TiNb3(Ga2Ge)2
_chemical_formula_sum   'Hf6 Ti1 Nb3 Ga4 Ge2'
_cell_volume   294.46560093
_cell_formula_units_Z   1
loop_
 _symmetry_equiv_pos_site_id
 _symmetry_equiv_pos_as_xyz
  1  'x, y, z'
loop_
 _atom_site_type_symbol
 _atom_site_label
 _atom_site_symmetry_multiplicity
 _atom_site_fract_x
 _atom_site_fract_y
 _atom_site_fract_z
 _atom_site_occupancy
  Hf  Hf0  1  0.251349  0.001286  0.248997  1
  Hf  Hf1  1  0.749936  0.001286  0.751003  1
  Hf  Hf2  1  0.000861  0.247547  0.248660  1
  Hf  Hf3  1  0.996493  0.751064  0.750869  1
  Hf  Hf4  1  0.754571  0.751064  0.249131  1
  Hf  Hf5  1  0.246686  0.247547  0.751340  1
  Ti  Ti6  1  0.334434  0.668869  0.500000  1
  Nb  Nb7  1  0.334529  0.669058  0.000000  1
  Nb  Nb8  1  0.665611  0.331221  0.000000  1
  Nb  Nb9  1  0.665665  0.331329  0.500000  1
  Ga  Ga10  1  0.002441  0.602660  0.252044  1
  Ga  Ga11  1  0.002293  0.399722  0.748091  1
  Ga  Ga12  1  0.397429  0.399722  0.251909  1
  Ga  Ga13  1  0.600219  0.602660  0.747956  1
  Ge  Ge14  1  0.605932  0.997482  0.251938  1
  Ge  Ge15  1  0.391551  0.997482  0.748062  1
