# generated using pymatgen
data_Y7Er13Cd6CoRu
_symmetry_space_group_name_H-M   'P 1'
_cell_length_a   9.54960994
_cell_length_b   9.54728495
_cell_length_c   9.72959714
_cell_angle_alpha   89.99999973
_cell_angle_beta   90.04822485
_cell_angle_gamma   119.99194896
_symmetry_Int_Tables_number   1
_chemical_formula_structural   Y7Er13Cd6CoRu
_chemical_formula_sum   'Y7 Er13 Cd6 Co1 Ru1'
_cell_volume   768.29150385
_cell_formula_units_Z   1
loop_
 _symmetry_equiv_pos_site_id
 _symmetry_equiv_pos_as_xyz
  1  'x, y, z'
loop_
 _atom_site_type_symbol
 _atom_site_label
 _atom_site_symmetry_multiplicity
 _atom_site_fract_x
 _atom_site_fract_y
 _atom_site_fract_z
 _atom_site_occupancy
  Y  Y0  1  0.576662  0.788331  0.063684  1
  Y  Y1  1  0.541313  0.458244  0.250309  1
  Y  Y2  1  0.541313  0.083069  0.250309  1
  Y  Y3  1  0.917480  0.458740  0.250021  1
  Y  Y4  1  0.458586  0.541000  0.749572  1
  Y  Y5  1  0.458586  0.917587  0.749572  1
  Y  Y6  1  0.082730  0.541366  0.750007  1
  Er  Er7  1  0.999977  0.999988  0.499743  1
  Er  Er8  1  0.000687  0.000343  0.000098  1
  Er  Er9  1  0.212187  0.787842  0.435767  1
  Er  Er10  1  0.212187  0.424347  0.435767  1
  Er  Er11  1  0.575730  0.787866  0.436344  1
  Er  Er12  1  0.790636  0.209480  0.560077  1
  Er  Er13  1  0.790636  0.581156  0.560077  1
  Er  Er14  1  0.418767  0.209384  0.560048  1
  Er  Er15  1  0.790854  0.209785  0.939805  1
  Er  Er16  1  0.790854  0.581069  0.939805  1
  Er  Er17  1  0.418919  0.209460  0.939937  1
  Er  Er18  1  0.211539  0.787764  0.064210  1
  Er  Er19  1  0.211539  0.423777  0.064210  1
  Cd  Cd20  1  0.885660  0.114511  0.250017  1
  Cd  Cd21  1  0.885660  0.771150  0.250017  1
  Cd  Cd22  1  0.228844  0.114423  0.250081  1
  Cd  Cd23  1  0.114295  0.885646  0.749994  1
  Cd  Cd24  1  0.114295  0.228648  0.749994  1
  Cd  Cd25  1  0.771418  0.885709  0.749879  1
  Co  Co26  1  0.332102  0.666052  0.250730  1
  Ru  Ru27  1  0.666540  0.333270  0.749929  1
