# generated using pymatgen
data_SmSb2O6F
_symmetry_space_group_name_H-M   'P 1'
_cell_length_a   7.37850617
_cell_length_b   7.37850697
_cell_length_c   7.37850696
_cell_angle_alpha   120.02913280
_cell_angle_beta   119.19975383
_cell_angle_gamma   90.67059727
_symmetry_Int_Tables_number   1
_chemical_formula_structural   SmSb2O6F
_chemical_formula_sum   'Sm2 Sb4 O12 F2'
_cell_volume   285.66285088
_cell_formula_units_Z   2
loop_
 _symmetry_equiv_pos_site_id
 _symmetry_equiv_pos_as_xyz
  1  'x, y, z'
loop_
 _atom_site_type_symbol
 _atom_site_label
 _atom_site_symmetry_multiplicity
 _atom_site_fract_x
 _atom_site_fract_y
 _atom_site_fract_z
 _atom_site_occupancy
  Sm  Sm0  1  0.500000  0.500000  0.000000  1
  Sm  Sm1  1  0.000000  0.500000  0.500000  1
  Sb  Sb2  1  0.000000  0.000000  0.000000  1
  Sb  Sb3  1  0.500000  0.000000  0.500000  1
  Sb  Sb4  1  0.500000  0.000000  0.000000  1
  Sb  Sb5  1  0.500000  0.500000  0.500000  1
  O  O6  1  0.183234  0.933234  0.250000  1
  O  O7  1  0.579390  0.329390  0.250000  1
  O  O8  1  0.177695  0.909701  0.848196  1
  O  O9  1  0.561507  0.329499  0.651804  1
  O  O10  1  0.561507  0.909701  0.232007  1
  O  O11  1  0.177695  0.329499  0.267993  1
  O  O12  1  0.816766  0.066766  0.750000  1
  O  O13  1  0.420610  0.670610  0.750000  1
  O  O14  1  0.822305  0.090299  0.151804  1
  O  O15  1  0.438493  0.670501  0.348196  1
  O  O16  1  0.438493  0.090299  0.767993  1
  O  O17  1  0.822305  0.670501  0.732007  1
  F  F18  1  0.863643  0.613643  0.250000  1
  F  F19  1  0.136357  0.386357  0.750000  1
