# generated using pymatgen
data_La2Nd6ZnPd24
_symmetry_space_group_name_H-M   'P 1'
_cell_length_a   8.52777936
_cell_length_b   8.52777936
_cell_length_c   8.52777936
_cell_angle_alpha   89.91800229
_cell_angle_beta   89.91800229
_cell_angle_gamma   89.91800229
_symmetry_Int_Tables_number   1
_chemical_formula_structural   La2Nd6ZnPd24
_chemical_formula_sum   'La2 Nd6 Zn1 Pd24'
_cell_volume   620.16397317
_cell_formula_units_Z   1
loop_
 _symmetry_equiv_pos_site_id
 _symmetry_equiv_pos_as_xyz
  1  'x, y, z'
loop_
 _atom_site_type_symbol
 _atom_site_label
 _atom_site_symmetry_multiplicity
 _atom_site_fract_x
 _atom_site_fract_y
 _atom_site_fract_z
 _atom_site_occupancy
  La  La0  1  0.251474  0.251474  0.251474  1
  La  La1  1  0.748526  0.748526  0.748526  1
  Nd  Nd2  1  0.749726  0.749726  0.250482  1
  Nd  Nd3  1  0.749726  0.250482  0.749726  1
  Nd  Nd4  1  0.250274  0.250274  0.749518  1
  Nd  Nd5  1  0.250274  0.749518  0.250274  1
  Nd  Nd6  1  0.250482  0.749726  0.749726  1
  Nd  Nd7  1  0.749518  0.250274  0.250274  1
  Zn  Zn8  1  0.000000  0.000000  0.000000  1
  Pd  Pd9  1  0.262031  0.501119  0.998708  1
  Pd  Pd10  1  0.737969  0.498881  0.001292  1
  Pd  Pd11  1  0.998708  0.262031  0.501119  1
  Pd  Pd12  1  0.501119  0.262031  0.998708  1
  Pd  Pd13  1  0.001292  0.737969  0.498881  1
  Pd  Pd14  1  0.498881  0.737969  0.001292  1
  Pd  Pd15  1  0.501119  0.998708  0.262031  1
  Pd  Pd16  1  0.262031  0.998708  0.501119  1
  Pd  Pd17  1  0.498881  0.001292  0.737969  1
  Pd  Pd18  1  0.737969  0.001292  0.498881  1
  Pd  Pd19  1  0.998708  0.501119  0.262031  1
  Pd  Pd20  1  0.001292  0.498881  0.737969  1
  Pd  Pd21  1  0.253703  0.501382  0.501382  1
  Pd  Pd22  1  0.746297  0.498618  0.498618  1
  Pd  Pd23  1  0.501382  0.253703  0.501382  1
  Pd  Pd24  1  0.498618  0.746297  0.498618  1
  Pd  Pd25  1  0.501382  0.501382  0.253703  1
  Pd  Pd26  1  0.498618  0.498618  0.746297  1
  Pd  Pd27  1  0.297225  0.998836  0.998836  1
  Pd  Pd28  1  0.702775  0.001164  0.001164  1
  Pd  Pd29  1  0.998836  0.297225  0.998836  1
  Pd  Pd30  1  0.001164  0.702775  0.001164  1
  Pd  Pd31  1  0.998836  0.998836  0.297225  1
  Pd  Pd32  1  0.001164  0.001164  0.702775  1
