# generated using pymatgen
data_Sr3ScMnMoO9
_symmetry_space_group_name_H-M   'P 1'
_cell_length_a   9.85141534
_cell_length_b   9.85141611
_cell_length_c   5.66022387
_cell_angle_alpha   73.39835712
_cell_angle_beta   73.39836502
_cell_angle_gamma   48.71376035
_symmetry_Int_Tables_number   1
_chemical_formula_structural   Sr3ScMnMoO9
_chemical_formula_sum   'Sr6 Sc2 Mn2 Mo2 O18'
_cell_volume   391.95006068
_cell_formula_units_Z   2
loop_
 _symmetry_equiv_pos_site_id
 _symmetry_equiv_pos_as_xyz
  1  'x, y, z'
loop_
 _atom_site_type_symbol
 _atom_site_label
 _atom_site_symmetry_multiplicity
 _atom_site_fract_x
 _atom_site_fract_y
 _atom_site_fract_z
 _atom_site_occupancy
  Sr  Sr0  1  0.917573  0.401732  0.843197  1
  Sr  Sr1  1  0.228435  0.767192  0.500491  1
  Sr  Sr2  1  0.605427  0.079343  0.152936  1
  Sr  Sr3  1  0.767192  0.228435  0.500491  1
  Sr  Sr4  1  0.079343  0.605427  0.152936  1
  Sr  Sr5  1  0.401732  0.917573  0.843197  1
  Sc  Sc6  1  0.500271  0.500271  0.998526  1
  Sc  Sc7  1  0.164832  0.164832  0.334543  1
  Mn  Mn8  1  0.833773  0.833773  0.665675  1
  Mn  Mn9  1  0.000054  0.000054  0.000045  1
  Mo  Mo10  1  0.332980  0.332980  0.663181  1
  Mo  Mo11  1  0.667371  0.667371  0.336216  1
  O  O12  1  0.427062  0.907498  0.332478  1
  O  O13  1  0.756797  0.244273  0.999471  1
  O  O14  1  0.094366  0.569661  0.667438  1
  O  O15  1  0.907498  0.427062  0.332478  1
  O  O16  1  0.244273  0.756797  0.999471  1
  O  O17  1  0.569661  0.094366  0.667438  1
  O  O18  1  0.072299  0.072299  0.202030  1
  O  O19  1  0.397758  0.397758  0.887213  1
  O  O20  1  0.727572  0.727572  0.562355  1
  O  O21  1  0.601862  0.601862  0.113443  1
  O  O22  1  0.929212  0.929212  0.804370  1
  O  O23  1  0.270309  0.270309  0.438733  1
  O  O24  1  0.570844  0.570844  0.620946  1
  O  O25  1  0.910177  0.910177  0.304913  1
  O  O26  1  0.238766  0.238766  0.951652  1
  O  O27  1  0.093845  0.093845  0.693486  1
  O  O28  1  0.428517  0.428517  0.377936  1
  O  O29  1  0.760198  0.760198  0.052715  1
