# generated using pymatgen
data_Tb2TmCuPd8
_symmetry_space_group_name_H-M   'P 1'
_cell_length_a   4.11522700
_cell_length_b   4.11522700
_cell_length_c   12.03251000
_cell_angle_alpha   90.00000000
_cell_angle_beta   90.00000000
_cell_angle_gamma   90.00000000
_symmetry_Int_Tables_number   1
_chemical_formula_structural   Tb2TmCuPd8
_chemical_formula_sum   'Tb2 Tm1 Cu1 Pd8'
_cell_volume   203.77167902
_cell_formula_units_Z   1
loop_
 _symmetry_equiv_pos_site_id
 _symmetry_equiv_pos_as_xyz
  1  'x, y, z'
loop_
 _atom_site_type_symbol
 _atom_site_label
 _atom_site_symmetry_multiplicity
 _atom_site_fract_x
 _atom_site_fract_y
 _atom_site_fract_z
 _atom_site_occupancy
  Tb  Tb0  1  0.000000  0.000000  0.331242  1
  Tb  Tb1  1  0.000000  0.000000  0.668758  1
  Tm  Tm2  1  0.000000  0.000000  0.000000  1
  Cu  Cu3  1  0.500000  0.500000  0.000000  1
  Pd  Pd4  1  0.500000  0.500000  0.327025  1
  Pd  Pd5  1  0.500000  0.500000  0.672975  1
  Pd  Pd6  1  0.500000  0.000000  0.155827  1
  Pd  Pd7  1  0.500000  0.000000  0.500000  1
  Pd  Pd8  1  0.500000  0.000000  0.844173  1
  Pd  Pd9  1  0.000000  0.500000  0.155827  1
  Pd  Pd10  1  0.000000  0.500000  0.500000  1
  Pd  Pd11  1  0.000000  0.500000  0.844173  1
