# generated using pymatgen
data_Ti4Co2Cu2Si3Ge
_symmetry_space_group_name_H-M   'P 1'
_cell_length_a   3.70470200
_cell_length_b   6.18270985
_cell_length_c   7.05413183
_cell_angle_alpha   91.73029378
_cell_angle_beta   90.00000000
_cell_angle_gamma   90.00000000
_symmetry_Int_Tables_number   1
_chemical_formula_structural   Ti4Co2Cu2Si3Ge
_chemical_formula_sum   'Ti4 Co2 Cu2 Si3 Ge1'
_cell_volume   161.50190469
_cell_formula_units_Z   1
loop_
 _symmetry_equiv_pos_site_id
 _symmetry_equiv_pos_as_xyz
  1  'x, y, z'
loop_
 _atom_site_type_symbol
 _atom_site_label
 _atom_site_symmetry_multiplicity
 _atom_site_fract_x
 _atom_site_fract_y
 _atom_site_fract_z
 _atom_site_occupancy
  Ti  Ti0  1  0.250000  0.022142  0.804750  1
  Ti  Ti1  1  0.250000  0.521862  0.671001  1
  Ti  Ti2  1  0.750000  0.984801  0.196079  1
  Ti  Ti3  1  0.750000  0.477005  0.327854  1
  Co  Co4  1  0.250000  0.140032  0.438865  1
  Co  Co5  1  0.750000  0.863149  0.553885  1
  Cu  Cu6  1  0.250000  0.641232  0.067477  1
  Cu  Cu7  1  0.750000  0.346886  0.938877  1
  Si  Si8  1  0.250000  0.770614  0.389318  1
  Si  Si9  1  0.250000  0.257860  0.129824  1
  Si  Si10  1  0.750000  0.229835  0.610309  1
  Ge  Ge11  1  0.750000  0.744583  0.871760  1
