# generated using pymatgen
data_Th2Sc3Co2
_symmetry_space_group_name_H-M   'P 1'
_cell_length_a   8.44762817
_cell_length_b   8.44762760
_cell_length_c   6.72271761
_cell_angle_alpha   84.44242366
_cell_angle_beta   84.44243328
_cell_angle_gamma   41.32557738
_symmetry_Int_Tables_number   1
_chemical_formula_structural   Th2Sc3Co2
_chemical_formula_sum   'Th4 Sc6 Co4'
_cell_volume   315.09475266
_cell_formula_units_Z   2
loop_
 _symmetry_equiv_pos_site_id
 _symmetry_equiv_pos_as_xyz
  1  'x, y, z'
loop_
 _atom_site_type_symbol
 _atom_site_label
 _atom_site_symmetry_multiplicity
 _atom_site_fract_x
 _atom_site_fract_y
 _atom_site_fract_z
 _atom_site_occupancy
  Th  Th0  1  0.009203  0.791196  0.915442  1
  Th  Th1  1  0.208804  0.990797  0.584558  1
  Th  Th2  1  0.990797  0.208804  0.084558  1
  Th  Th3  1  0.791196  0.009203  0.415442  1
  Sc  Sc4  1  0.364634  0.208489  0.822908  1
  Sc  Sc5  1  0.791511  0.635366  0.677092  1
  Sc  Sc6  1  0.635366  0.791511  0.177092  1
  Sc  Sc7  1  0.208489  0.364634  0.322908  1
  Sc  Sc8  1  0.577308  0.422692  0.750000  1
  Sc  Sc9  1  0.422692  0.577308  0.250000  1
  Co  Co10  1  0.183034  0.590648  0.587693  1
  Co  Co11  1  0.409352  0.816966  0.912307  1
  Co  Co12  1  0.816966  0.409352  0.412307  1
  Co  Co13  1  0.590648  0.183034  0.087693  1
