# generated using pymatgen
data_Sc12InCo3TcNi
_symmetry_space_group_name_H-M   'P 1'
_cell_length_a   7.74585663
_cell_length_b   7.74585677
_cell_length_c   7.74585639
_cell_angle_alpha   111.46073478
_cell_angle_beta   110.84338871
_cell_angle_gamma   106.16006274
_symmetry_Int_Tables_number   1
_chemical_formula_structural   Sc12InCo3TcNi
_chemical_formula_sum   'Sc12 In1 Co3 Tc1 Ni1'
_cell_volume   356.85511991
_cell_formula_units_Z   1
loop_
 _symmetry_equiv_pos_site_id
 _symmetry_equiv_pos_as_xyz
  1  'x, y, z'
loop_
 _atom_site_type_symbol
 _atom_site_label
 _atom_site_symmetry_multiplicity
 _atom_site_fract_x
 _atom_site_fract_y
 _atom_site_fract_z
 _atom_site_occupancy
  Sc  Sc0  1  0.424329  0.228380  0.195948  1
  Sc  Sc1  1  0.576319  0.773574  0.802745  1
  Sc  Sc2  1  0.029171  0.226426  0.802745  1
  Sc  Sc3  1  0.967568  0.771620  0.195948  1
  Sc  Sc4  1  0.312695  0.611435  0.303125  1
  Sc  Sc5  1  0.691690  0.388565  0.701260  1
  Sc  Sc6  1  0.312695  0.009568  0.701260  1
  Sc  Sc7  1  0.691690  0.990432  0.303125  1
  Sc  Sc8  1  0.182488  0.276689  0.459178  1
  Sc  Sc9  1  0.816020  0.725677  0.541697  1
  Sc  Sc10  1  0.182488  0.723310  0.905799  1
  Sc  Sc11  1  0.816020  0.274322  0.090343  1
  In  In12  1  0.500139  0.500000  0.000139  1
  Co  Co13  1  0.631413  0.000000  0.631413  1
  Co  Co14  1  0.118297  0.618040  0.500257  1
  Co  Co15  1  0.882218  0.381960  0.500257  1
  Tc  Tc16  1  0.000819  0.000000  0.000819  1
  Ni  Ni17  1  0.363942  0.000000  0.363942  1
