# generated using pymatgen
data_Nd3HoSi4(Ag2Sn)2
_symmetry_space_group_name_H-M   'P 1'
_cell_length_a   9.82173577
_cell_length_b   9.82173571
_cell_length_c   7.11534700
_cell_angle_alpha   90.00000000
_cell_angle_beta   90.00000000
_cell_angle_gamma   153.42695392
_symmetry_Int_Tables_number   1
_chemical_formula_structural   Nd3HoSi4(Ag2Sn)2
_chemical_formula_sum   'Nd3 Ho1 Si4 Ag4 Sn2'
_cell_volume   307.04975267
_cell_formula_units_Z   1
loop_
 _symmetry_equiv_pos_site_id
 _symmetry_equiv_pos_as_xyz
  1  'x, y, z'
loop_
 _atom_site_type_symbol
 _atom_site_label
 _atom_site_symmetry_multiplicity
 _atom_site_fract_x
 _atom_site_fract_y
 _atom_site_fract_z
 _atom_site_occupancy
  Nd  Nd0  1  0.647164  0.352836  0.750000  1
  Nd  Nd1  1  0.547989  0.452011  0.250000  1
  Nd  Nd2  1  0.450674  0.549326  0.750000  1
  Ho  Ho3  1  0.354417  0.645583  0.250000  1
  Si  Si4  1  0.053969  0.946031  0.920200  1
  Si  Si5  1  0.944675  0.055325  0.081321  1
  Si  Si6  1  0.944675  0.055325  0.418679  1
  Si  Si7  1  0.053969  0.946031  0.579800  1
  Ag  Ag8  1  0.177301  0.822699  0.052775  1
  Ag  Ag9  1  0.177301  0.822699  0.447225  1
  Ag  Ag10  1  0.823135  0.176865  0.950568  1
  Ag  Ag11  1  0.823135  0.176865  0.549432  1
  Sn  Sn12  1  0.724128  0.275872  0.250000  1
  Sn  Sn13  1  0.277465  0.722535  0.750000  1
