# generated using pymatgen
data_DyHo(Er2Rh9)2
_symmetry_space_group_name_H-M   'P 1'
_cell_length_a   5.26533900
_cell_length_b   5.26558450
_cell_length_c   17.53055900
_cell_angle_alpha   90.00000000
_cell_angle_beta   90.00000000
_cell_angle_gamma   120.00139153
_symmetry_Int_Tables_number   1
_chemical_formula_structural   DyHo(Er2Rh9)2
_chemical_formula_sum   'Dy1 Ho1 Er4 Rh18'
_cell_volume   420.91386422
_cell_formula_units_Z   1
loop_
 _symmetry_equiv_pos_site_id
 _symmetry_equiv_pos_as_xyz
  1  'x, y, z'
loop_
 _atom_site_type_symbol
 _atom_site_label
 _atom_site_symmetry_multiplicity
 _atom_site_fract_x
 _atom_site_fract_y
 _atom_site_fract_z
 _atom_site_occupancy
  Dy  Dy0  1  0.333334  0.666667  0.750000  1
  Ho  Ho1  1  0.666667  0.333335  0.250000  1
  Er  Er2  1  0.333332  0.666666  0.541967  1
  Er  Er3  1  0.666663  0.333333  0.041271  1
  Er  Er4  1  0.666663  0.333333  0.458729  1
  Er  Er5  1  0.333332  0.666666  0.958033  1
  Rh  Rh6  1  0.167415  0.334839  0.124906  1
  Rh  Rh7  1  0.832630  0.665250  0.625358  1
  Rh  Rh8  1  0.665161  0.832587  0.124908  1
  Rh  Rh9  1  0.167418  0.832581  0.124909  1
  Rh  Rh10  1  0.832625  0.167372  0.625358  1
  Rh  Rh11  1  0.334749  0.167370  0.625360  1
  Rh  Rh12  1  0.832630  0.665250  0.874642  1
  Rh  Rh13  1  0.832625  0.167372  0.874642  1
  Rh  Rh14  1  0.334749  0.167370  0.874640  1
  Rh  Rh15  1  0.665161  0.832587  0.375092  1
  Rh  Rh16  1  0.167418  0.832581  0.375091  1
  Rh  Rh17  1  0.167415  0.334839  0.375094  1
  Rh  Rh18  1  0.999997  0.000013  0.250000  1
  Rh  Rh19  1  0.000002  0.999996  0.750000  1
  Rh  Rh20  1  0.333344  0.666659  0.250000  1
  Rh  Rh21  1  0.666668  0.333330  0.750000  1
  Rh  Rh22  1  0.999999  0.999998  0.999806  1
  Rh  Rh23  1  0.999999  0.999998  0.500194  1
