# generated using pymatgen
data_PrY2Ti(Co4P3)2
_symmetry_space_group_name_H-M   'P 1'
_cell_length_a   3.72824200
_cell_length_b   10.67780100
_cell_length_c   12.37630000
_cell_angle_alpha   90.00000000
_cell_angle_beta   90.00000000
_cell_angle_gamma   90.00000000
_symmetry_Int_Tables_number   1
_chemical_formula_structural   PrY2Ti(Co4P3)2
_chemical_formula_sum   'Pr2 Y4 Ti2 Co16 P12'
_cell_volume   492.69340093
_cell_formula_units_Z   2
loop_
 _symmetry_equiv_pos_site_id
 _symmetry_equiv_pos_as_xyz
  1  'x, y, z'
loop_
 _atom_site_type_symbol
 _atom_site_label
 _atom_site_symmetry_multiplicity
 _atom_site_fract_x
 _atom_site_fract_y
 _atom_site_fract_z
 _atom_site_occupancy
  Pr  Pr0  1  0.000000  0.500000  0.525589  1
  Pr  Pr1  1  0.500000  0.000000  0.474411  1
  Y  Y2  1  0.500000  0.819541  0.203232  1
  Y  Y3  1  0.500000  0.180459  0.203232  1
  Y  Y4  1  0.000000  0.680459  0.796768  1
  Y  Y5  1  0.000000  0.319541  0.796768  1
  Ti  Ti6  1  0.500000  0.500000  0.149840  1
  Ti  Ti7  1  0.000000  0.000000  0.850160  1
  Co  Co8  1  0.500000  0.500000  0.706267  1
  Co  Co9  1  0.000000  0.000000  0.293733  1
  Co  Co10  1  0.000000  0.500000  0.986896  1
  Co  Co11  1  0.500000  0.000000  0.013104  1
  Co  Co12  1  0.500000  0.332182  0.993805  1
  Co  Co13  1  0.500000  0.667818  0.993805  1
  Co  Co14  1  0.000000  0.167818  0.006195  1
  Co  Co15  1  0.000000  0.832182  0.006195  1
  Co  Co16  1  0.500000  0.295395  0.430167  1
  Co  Co17  1  0.500000  0.704605  0.430167  1
  Co  Co18  1  0.000000  0.204605  0.569833  1
  Co  Co19  1  0.000000  0.795395  0.569833  1
  Co  Co20  1  0.500000  0.879009  0.709412  1
  Co  Co21  1  0.500000  0.120991  0.709412  1
  Co  Co22  1  0.000000  0.620991  0.290588  1
  Co  Co23  1  0.000000  0.379009  0.290588  1
  P  P24  1  0.500000  0.500000  0.884269  1
  P  P25  1  0.000000  0.000000  0.115731  1
  P  P26  1  0.500000  0.500000  0.347296  1
  P  P27  1  0.000000  0.000000  0.652704  1
  P  P28  1  0.500000  0.306553  0.617421  1
  P  P29  1  0.500000  0.693447  0.617421  1
  P  P30  1  0.000000  0.193447  0.382579  1
  P  P31  1  0.000000  0.806553  0.382579  1
  P  P32  1  0.500000  0.843098  0.893676  1
  P  P33  1  0.500000  0.156902  0.893676  1
  P  P34  1  0.000000  0.656902  0.106324  1
  P  P35  1  0.000000  0.343098  0.106324  1
