# generated using pymatgen
data_Ho5Th9OsRu5
_symmetry_space_group_name_H-M   'P 1'
_cell_length_a   9.77256882
_cell_length_b   9.90594457
_cell_length_c   6.34438397
_cell_angle_alpha   90.13199349
_cell_angle_beta   90.10586456
_cell_angle_gamma   120.45686662
_symmetry_Int_Tables_number   1
_chemical_formula_structural   Ho5Th9OsRu5
_chemical_formula_sum   'Ho5 Th9 Os1 Ru5'
_cell_volume   529.42334592
_cell_formula_units_Z   1
loop_
 _symmetry_equiv_pos_site_id
 _symmetry_equiv_pos_as_xyz
  1  'x, y, z'
loop_
 _atom_site_type_symbol
 _atom_site_label
 _atom_site_symmetry_multiplicity
 _atom_site_fract_x
 _atom_site_fract_y
 _atom_site_fract_z
 _atom_site_occupancy
  Ho  Ho0  1  0.461130  0.537366  0.297851  1
  Ho  Ho1  1  0.073133  0.535769  0.301392  1
  Ho  Ho2  1  0.924014  0.460235  0.799844  1
  Ho  Ho3  1  0.251453  0.125346  0.508154  1
  Ho  Ho4  1  0.540773  0.078428  0.793974  1
  Th  Th5  1  0.747716  0.877015  0.012475  1
  Th  Th6  1  0.666573  0.332235  0.270631  1
  Th  Th7  1  0.128342  0.873677  0.005877  1
  Th  Th8  1  0.458867  0.922438  0.301290  1
  Th  Th9  1  0.535615  0.459920  0.796555  1
  Th  Th10  1  0.879688  0.132137  0.513919  1
  Th  Th11  1  0.125695  0.251234  0.012053  1
  Th  Th12  1  0.875777  0.747200  0.508830  1
  Th  Th13  1  0.332762  0.666411  0.770212  1
  Os  Os14  1  0.810565  0.628127  0.048869  1
  Ru  Ru15  1  0.818730  0.181601  0.050975  1
  Ru  Ru16  1  0.631774  0.820116  0.542503  1
  Ru  Ru17  1  0.370855  0.188996  0.040592  1
  Ru  Ru18  1  0.182545  0.374139  0.558615  1
  Ru  Ru19  1  0.183993  0.807612  0.549388  1
