# generated using pymatgen
data_Ba5Sb3H
_symmetry_space_group_name_H-M   'P 1'
_cell_length_a   10.09591200
_cell_length_b   10.09591347
_cell_length_c   7.78034000
_cell_angle_alpha   90.00000000
_cell_angle_beta   90.00000000
_cell_angle_gamma   119.99962024
_symmetry_Int_Tables_number   1
_chemical_formula_structural   Ba5Sb3H
_chemical_formula_sum   'Ba10 Sb6 H2'
_cell_volume   686.78696828
_cell_formula_units_Z   2
loop_
 _symmetry_equiv_pos_site_id
 _symmetry_equiv_pos_as_xyz
  1  'x, y, z'
loop_
 _atom_site_type_symbol
 _atom_site_label
 _atom_site_symmetry_multiplicity
 _atom_site_fract_x
 _atom_site_fract_y
 _atom_site_fract_z
 _atom_site_occupancy
  Ba  Ba0  1  0.666638  0.333322  0.000000  1
  Ba  Ba1  1  0.333322  0.666638  0.000000  1
  Ba  Ba2  1  0.753302  0.753302  0.249990  1
  Ba  Ba3  1  0.246702  0.999999  0.250005  1
  Ba  Ba4  1  0.999999  0.246701  0.250005  1
  Ba  Ba5  1  0.666677  0.333361  0.500000  1
  Ba  Ba6  1  0.333362  0.666678  0.500000  1
  Ba  Ba7  1  0.246698  0.246698  0.749990  1
  Ba  Ba8  1  0.753298  0.000001  0.750006  1
  Ba  Ba9  1  0.000001  0.753298  0.750006  1
  Sb  Sb10  1  0.606348  0.000000  0.250000  1
  Sb  Sb11  1  0.999999  0.606348  0.250000  1
  Sb  Sb12  1  0.393650  0.393650  0.250003  1
  Sb  Sb13  1  0.393652  0.000000  0.749999  1
  Sb  Sb14  1  0.999999  0.393652  0.749999  1
  Sb  Sb15  1  0.606350  0.606350  0.750003  1
  H  H16  1  0.999999  0.999999  0.000000  1
  H  H17  1  0.000001  0.000001  0.500000  1
