# generated using pymatgen
data_Y4Al15Co5Si3Ir
_symmetry_space_group_name_H-M   'P 1'
_cell_length_a   7.40297430
_cell_length_b   7.38465425
_cell_length_c   9.24927845
_cell_angle_alpha   90.10995410
_cell_angle_beta   90.04866198
_cell_angle_gamma   119.42329637
_symmetry_Int_Tables_number   1
_chemical_formula_structural   Y4Al15Co5Si3Ir
_chemical_formula_sum   'Y4 Al15 Co5 Si3 Ir1'
_cell_volume   440.42072587
_cell_formula_units_Z   1
loop_
 _symmetry_equiv_pos_site_id
 _symmetry_equiv_pos_as_xyz
  1  'x, y, z'
loop_
 _atom_site_type_symbol
 _atom_site_label
 _atom_site_symmetry_multiplicity
 _atom_site_fract_x
 _atom_site_fract_y
 _atom_site_fract_z
 _atom_site_occupancy
  Y  Y0  1  0.993354  0.671408  0.247299  1
  Y  Y1  1  0.005373  0.322113  0.753469  1
  Y  Y2  1  0.683602  0.001898  0.246859  1
  Y  Y3  1  0.321752  0.005339  0.750680  1
  Al  Al4  1  0.999403  0.664891  0.926562  1
  Al  Al5  1  0.999930  0.658485  0.572773  1
  Al  Al6  1  0.341253  0.998051  0.426913  1
  Al  Al7  1  0.001503  0.342428  0.432123  1
  Al  Al8  1  0.657715  0.000037  0.572427  1
  Al  Al9  1  0.659677  0.997317  0.926707  1
  Al  Al10  1  0.336502  0.997898  0.072217  1
  Al  Al11  1  0.340843  0.339911  0.551416  1
  Al  Al12  1  0.660490  0.661369  0.447901  1
  Al  Al13  1  0.664566  0.665466  0.050544  1
  Al  Al14  1  0.336485  0.334975  0.951760  1
  Al  Al15  1  0.334357  0.554759  0.249578  1
  Al  Al16  1  0.665070  0.444088  0.750853  1
  Al  Al17  1  0.551799  0.335764  0.250270  1
  Al  Al18  1  0.443413  0.662814  0.749962  1
  Co  Co19  1  0.681307  0.329953  0.002923  1
  Co  Co20  1  0.319523  0.661324  0.000586  1
  Co  Co21  1  0.328985  0.669847  0.499469  1
  Co  Co22  1  0.671206  0.329705  0.499038  1
  Co  Co23  1  0.998947  0.009243  0.001967  1
  Si  Si24  1  0.131308  0.129088  0.243543  1
  Si  Si25  1  0.870266  0.871694  0.756275  1
  Si  Si26  1  0.001469  0.339854  0.066661  1
  Ir  Ir27  1  0.999903  0.000281  0.499225  1
