# generated using pymatgen
data_DyY9Si6C
_symmetry_space_group_name_H-M   'P 1'
_cell_length_a   8.47807800
_cell_length_b   8.47807980
_cell_length_c   6.40234100
_cell_angle_alpha   90.00000000
_cell_angle_beta   90.00000000
_cell_angle_gamma   119.99999298
_symmetry_Int_Tables_number   1
_chemical_formula_structural   DyY9Si6C
_chemical_formula_sum   'Dy1 Y9 Si6 C1'
_cell_volume   398.53307666
_cell_formula_units_Z   1
loop_
 _symmetry_equiv_pos_site_id
 _symmetry_equiv_pos_as_xyz
  1  'x, y, z'
loop_
 _atom_site_type_symbol
 _atom_site_label
 _atom_site_symmetry_multiplicity
 _atom_site_fract_x
 _atom_site_fract_y
 _atom_site_fract_z
 _atom_site_occupancy
  Dy  Dy0  1  0.333333  0.666667  0.500000  1
  Y  Y1  1  0.666667  0.333333  0.500000  1
  Y  Y2  1  0.666667  0.333333  0.000000  1
  Y  Y3  1  0.333333  0.666667  0.000000  1
  Y  Y4  1  0.000003  0.764199  0.271094  1
  Y  Y5  1  0.235801  0.235804  0.271094  1
  Y  Y6  1  0.764196  0.999997  0.271094  1
  Y  Y7  1  0.000003  0.235804  0.728906  1
  Y  Y8  1  0.764196  0.764199  0.728906  1
  Y  Y9  1  0.235801  0.999997  0.728906  1
  Si  Si10  1  0.000047  0.398888  0.253403  1
  Si  Si11  1  0.601112  0.601159  0.253403  1
  Si  Si12  1  0.398841  0.999953  0.253403  1
  Si  Si13  1  0.000047  0.601159  0.746597  1
  Si  Si14  1  0.398841  0.398888  0.746597  1
  Si  Si15  1  0.601112  0.999953  0.746597  1
  C  C16  1  0.000000  0.000000  0.500000  1
