# generated using pymatgen
data_Tb3HoCo18(P6Ru)2
_symmetry_space_group_name_H-M   'P 1'
_cell_length_a   3.68043700
_cell_length_b   10.35323804
_cell_length_c   11.77481204
_cell_angle_alpha   89.99022311
_cell_angle_beta   90.00000000
_cell_angle_gamma   90.00000000
_symmetry_Int_Tables_number   1
_chemical_formula_structural   Tb3HoCo18(P6Ru)2
_chemical_formula_sum   'Tb3 Ho1 Co18 P12 Ru2'
_cell_volume   448.67261651
_cell_formula_units_Z   1
loop_
 _symmetry_equiv_pos_site_id
 _symmetry_equiv_pos_as_xyz
  1  'x, y, z'
loop_
 _atom_site_type_symbol
 _atom_site_label
 _atom_site_symmetry_multiplicity
 _atom_site_fract_x
 _atom_site_fract_y
 _atom_site_fract_z
 _atom_site_occupancy
  Tb  Tb0  1  0.250000  0.582396  0.702038  1
  Tb  Tb1  1  0.250000  0.917455  0.202042  1
  Tb  Tb2  1  0.750000  0.086288  0.795612  1
  Ho  Ho3  1  0.750000  0.413812  0.295691  1
  Co  Co4  1  0.750000  0.283977  0.008627  1
  Co  Co5  1  0.750000  0.216156  0.508508  1
  Co  Co6  1  0.250000  0.405711  0.487315  1
  Co  Co7  1  0.250000  0.094085  0.988308  1
  Co  Co8  1  0.750000  0.590712  0.509579  1
  Co  Co9  1  0.750000  0.908959  0.009857  1
  Co  Co10  1  0.250000  0.221011  0.176715  1
  Co  Co11  1  0.250000  0.279682  0.676360  1
  Co  Co12  1  0.750000  0.778470  0.823292  1
  Co  Co13  1  0.750000  0.721231  0.323174  1
  Co  Co14  1  0.250000  0.886578  0.701500  1
  Co  Co15  1  0.250000  0.612631  0.202003  1
  Co  Co16  1  0.750000  0.117073  0.301080  1
  Co  Co17  1  0.750000  0.383505  0.801265  1
  Co  Co18  1  0.250000  0.464696  0.932942  1
  Co  Co19  1  0.250000  0.035758  0.432318  1
  Co  Co20  1  0.750000  0.532237  0.069357  1
  Co  Co21  1  0.750000  0.967455  0.568590  1
  P  P22  1  0.250000  0.417034  0.112436  1
  P  P23  1  0.250000  0.083080  0.611449  1
  P  P24  1  0.750000  0.578631  0.887657  1
  P  P25  1  0.750000  0.921413  0.387243  1
  P  P26  1  0.250000  0.271360  0.869438  1
  P  P27  1  0.250000  0.229698  0.368942  1
  P  P28  1  0.750000  0.727644  0.132761  1
  P  P29  1  0.750000  0.772211  0.632642  1
  P  P30  1  0.250000  0.594567  0.390457  1
  P  P31  1  0.250000  0.904628  0.890792  1
  P  P32  1  0.750000  0.396443  0.608289  1
  P  P33  1  0.750000  0.103558  0.108343  1
  Ru  Ru34  1  0.250000  0.715109  0.991936  1
  Ru  Ru35  1  0.250000  0.784747  0.491443  1
