# generated using pymatgen
data_Tb4ErReOsC7
_symmetry_space_group_name_H-M   'P 1'
_cell_length_a   8.29129857
_cell_length_b   8.27509398
_cell_length_c   3.48323700
_cell_angle_alpha   90.00000000
_cell_angle_beta   90.00000000
_cell_angle_gamma   122.63306382
_symmetry_Int_Tables_number   1
_chemical_formula_structural   Tb4ErReOsC7
_chemical_formula_sum   'Tb4 Er1 Re1 Os1 C7'
_cell_volume   201.26279746
_cell_formula_units_Z   1
loop_
 _symmetry_equiv_pos_site_id
 _symmetry_equiv_pos_as_xyz
  1  'x, y, z'
loop_
 _atom_site_type_symbol
 _atom_site_label
 _atom_site_symmetry_multiplicity
 _atom_site_fract_x
 _atom_site_fract_y
 _atom_site_fract_z
 _atom_site_occupancy
  Tb  Tb0  1  0.499917  0.498808  0.000000  1
  Tb  Tb1  1  0.074265  0.334137  0.500000  1
  Tb  Tb2  1  0.923969  0.664945  0.500000  1
  Tb  Tb3  1  0.664289  0.926732  0.500000  1
  Er  Er4  1  0.339172  0.077657  0.500000  1
  Re  Re5  1  0.284760  0.715176  0.000000  1
  Os  Os6  1  0.712724  0.287234  0.000000  1
  C  C7  1  0.631739  0.367162  0.500000  1
  C  C8  1  0.372290  0.627418  0.500000  1
  C  C9  1  0.000243  0.999780  0.000000  1
  C  C10  1  0.172455  0.168422  0.000000  1
  C  C11  1  0.828952  0.830490  0.000000  1
  C  C12  1  0.998730  0.500854  0.000000  1
  C  C13  1  0.496497  0.001182  0.000000  1
