# generated using pymatgen
data_Tb3Al12(RuRh)2
_symmetry_space_group_name_H-M   'P 1'
_cell_length_a   8.83291716
_cell_length_b   8.79033799
_cell_length_c   9.55247200
_cell_angle_alpha   90.00000000
_cell_angle_beta   90.00000000
_cell_angle_gamma   119.84066251
_symmetry_Int_Tables_number   1
_chemical_formula_structural   Tb3Al12(RuRh)2
_chemical_formula_sum   'Tb6 Al24 Ru4 Rh4'
_cell_volume   643.35576714
_cell_formula_units_Z   2
loop_
 _symmetry_equiv_pos_site_id
 _symmetry_equiv_pos_as_xyz
  1  'x, y, z'
loop_
 _atom_site_type_symbol
 _atom_site_label
 _atom_site_symmetry_multiplicity
 _atom_site_fract_x
 _atom_site_fract_y
 _atom_site_fract_z
 _atom_site_occupancy
  Tb  Tb0  1  0.382521  0.191260  0.250000  1
  Tb  Tb1  1  0.810864  0.195807  0.250000  1
  Tb  Tb2  1  0.810864  0.615057  0.250000  1
  Tb  Tb3  1  0.617479  0.808740  0.750000  1
  Tb  Tb4  1  0.189136  0.804193  0.750000  1
  Tb  Tb5  1  0.189136  0.384943  0.750000  1
  Al  Al6  1  0.439024  0.876632  0.250000  1
  Al  Al7  1  0.124173  0.562087  0.250000  1
  Al  Al8  1  0.439024  0.562392  0.250000  1
  Al  Al9  1  0.560976  0.123368  0.750000  1
  Al  Al10  1  0.875827  0.437913  0.750000  1
  Al  Al11  1  0.560976  0.437608  0.750000  1
  Al  Al12  1  0.162068  0.835299  0.422219  1
  Al  Al13  1  0.162068  0.326770  0.422219  1
  Al  Al14  1  0.674638  0.837319  0.422929  1
  Al  Al15  1  0.837932  0.164701  0.577781  1
  Al  Al16  1  0.837932  0.673230  0.577781  1
  Al  Al17  1  0.325362  0.162681  0.577071  1
  Al  Al18  1  0.837932  0.164701  0.922219  1
  Al  Al19  1  0.837932  0.673230  0.922219  1
  Al  Al20  1  0.325362  0.162681  0.922929  1
  Al  Al21  1  0.162068  0.835299  0.077781  1
  Al  Al22  1  0.162068  0.326770  0.077781  1
  Al  Al23  1  0.674638  0.837319  0.077071  1
  Al  Al24  1  0.330758  0.665379  0.523428  1
  Al  Al25  1  0.669242  0.334621  0.476572  1
  Al  Al26  1  0.669242  0.334621  0.023428  1
  Al  Al27  1  0.330758  0.665379  0.976572  1
  Al  Al28  1  0.002659  0.001329  0.250000  1
  Al  Al29  1  0.997341  0.998671  0.750000  1
  Ru  Ru30  1  0.000000  0.000000  0.500000  1
  Ru  Ru31  1  0.000000  0.000000  0.000000  1
  Ru  Ru32  1  0.000000  0.500000  0.500000  1
  Ru  Ru33  1  0.000000  0.500000  0.000000  1
  Rh  Rh34  1  0.500000  0.000000  0.500000  1
  Rh  Rh35  1  0.500000  0.500000  0.500000  1
  Rh  Rh36  1  0.500000  0.000000  0.000000  1
  Rh  Rh37  1  0.500000  0.500000  0.000000  1
