# generated using pymatgen
data_SmTmBeCoSi4
_symmetry_space_group_name_H-M   'P 1'
_cell_length_a   8.45680165
_cell_length_b   8.45680263
_cell_length_c   3.93208600
_cell_angle_alpha   90.00000000
_cell_angle_beta   90.00000000
_cell_angle_gamma   152.45874839
_symmetry_Int_Tables_number   1
_chemical_formula_structural   SmTmBeCoSi4
_chemical_formula_sum   'Sm1 Tm1 Be1 Co1 Si4'
_cell_volume   130.02925555
_cell_formula_units_Z   1
loop_
 _symmetry_equiv_pos_site_id
 _symmetry_equiv_pos_as_xyz
  1  'x, y, z'
loop_
 _atom_site_type_symbol
 _atom_site_label
 _atom_site_symmetry_multiplicity
 _atom_site_fract_x
 _atom_site_fract_y
 _atom_site_fract_z
 _atom_site_occupancy
  Sm  Sm0  1  0.112480  0.887520  0.250000  1
  Tm  Tm1  1  0.897342  0.102658  0.750000  1
  Be  Be2  1  0.672188  0.327812  0.750000  1
  Co  Co3  1  0.318997  0.681003  0.250000  1
  Si  Si4  1  0.755099  0.244901  0.250000  1
  Si  Si5  1  0.252965  0.747035  0.750000  1
  Si  Si6  1  0.536726  0.463274  0.750000  1
  Si  Si7  1  0.454203  0.545797  0.250000  1
