# generated using pymatgen
data_Er3ZnCd(HgAu)2
_symmetry_space_group_name_H-M   'P 1'
_cell_length_a   7.88982302
_cell_length_b   7.88982273
_cell_length_c   3.71185800
_cell_angle_alpha   90.00000000
_cell_angle_beta   90.00000000
_cell_angle_gamma   119.99177064
_symmetry_Int_Tables_number   1
_chemical_formula_structural   Er3ZnCd(HgAu)2
_chemical_formula_sum   'Er3 Zn1 Cd1 Hg2 Au2'
_cell_volume   200.12092414
_cell_formula_units_Z   1
loop_
 _symmetry_equiv_pos_site_id
 _symmetry_equiv_pos_as_xyz
  1  'x, y, z'
loop_
 _atom_site_type_symbol
 _atom_site_label
 _atom_site_symmetry_multiplicity
 _atom_site_fract_x
 _atom_site_fract_y
 _atom_site_fract_z
 _atom_site_occupancy
  Er  Er0  1  0.590820  0.004167  0.000000  1
  Er  Er1  1  0.004167  0.590820  0.000000  1
  Er  Er2  1  0.403394  0.403394  0.000000  1
  Zn  Zn3  1  0.997964  0.997964  0.000000  1
  Cd  Cd4  1  0.741496  0.741496  0.500000  1
  Hg  Hg5  1  0.258291  0.997192  0.500000  1
  Hg  Hg6  1  0.997192  0.258291  0.500000  1
  Au  Au7  1  0.339635  0.667040  0.500000  1
  Au  Au8  1  0.667040  0.339635  0.500000  1
