# generated using pymatgen
data_Ho17Lu3Sn16
_symmetry_space_group_name_H-M   'P 1'
_cell_length_a   8.01315332
_cell_length_b   15.39375000
_cell_length_c   8.10729502
_cell_angle_alpha   90.00000000
_cell_angle_beta   89.95244792
_cell_angle_gamma   90.00000000
_symmetry_Int_Tables_number   1
_chemical_formula_structural   Ho17Lu3Sn16
_chemical_formula_sum   'Ho17 Lu3 Sn16'
_cell_volume   1000.05459306
_cell_formula_units_Z   1
loop_
 _symmetry_equiv_pos_site_id
 _symmetry_equiv_pos_as_xyz
  1  'x, y, z'
loop_
 _atom_site_type_symbol
 _atom_site_label
 _atom_site_symmetry_multiplicity
 _atom_site_fract_x
 _atom_site_fract_y
 _atom_site_fract_z
 _atom_site_occupancy
  Ho  Ho0  1  0.624545  0.622064  0.161495  1
  Ho  Ho1  1  0.124677  0.878389  0.338589  1
  Ho  Ho2  1  0.375051  0.121386  0.838193  1
  Ho  Ho3  1  0.875783  0.378632  0.661471  1
  Ho  Ho4  1  0.375051  0.378614  0.838193  1
  Ho  Ho5  1  0.875783  0.121368  0.661471  1
  Ho  Ho6  1  0.624545  0.877936  0.161495  1
  Ho  Ho7  1  0.124677  0.621611  0.338589  1
  Ho  Ho8  1  0.471667  0.598158  0.678281  1
  Ho  Ho9  1  0.971603  0.901445  0.821575  1
  Ho  Ho10  1  0.528038  0.098045  0.321737  1
  Ho  Ho11  1  0.028276  0.402018  0.178933  1
  Ho  Ho12  1  0.528038  0.401955  0.321737  1
  Ho  Ho13  1  0.028276  0.097982  0.178933  1
  Ho  Ho14  1  0.471667  0.901842  0.678281  1
  Ho  Ho15  1  0.971603  0.598555  0.821575  1
  Ho  Ho16  1  0.706725  0.250000  0.995998  1
  Lu  Lu17  1  0.793336  0.750000  0.495343  1
  Lu  Lu18  1  0.293161  0.750000  0.004605  1
  Lu  Lu19  1  0.207142  0.250000  0.504978  1
  Sn  Sn20  1  0.713665  0.458083  0.965028  1
  Sn  Sn21  1  0.213641  0.042717  0.534068  1
  Sn  Sn22  1  0.286428  0.956976  0.034272  1
  Sn  Sn23  1  0.786095  0.542776  0.465160  1
  Sn  Sn24  1  0.286428  0.543024  0.034272  1
  Sn  Sn25  1  0.786095  0.957224  0.465160  1
  Sn  Sn26  1  0.713665  0.041917  0.965028  1
  Sn  Sn27  1  0.213641  0.457283  0.534068  1
  Sn  Sn28  1  0.427217  0.750000  0.380793  1
  Sn  Sn29  1  0.927454  0.750000  0.119679  1
  Sn  Sn30  1  0.572684  0.250000  0.619148  1
  Sn  Sn31  1  0.074105  0.250000  0.880066  1
  Sn  Sn32  1  0.660443  0.750000  0.849636  1
  Sn  Sn33  1  0.161083  0.750000  0.649781  1
  Sn  Sn34  1  0.338391  0.250000  0.150222  1
  Sn  Sn35  1  0.839319  0.250000  0.352148  1
