# generated using pymatgen
data_Zr16PaFe4Rh3
_symmetry_space_group_name_H-M   'P 1'
_cell_length_a   8.75381489
_cell_length_b   8.78847860
_cell_length_c   8.78847900
_cell_angle_alpha   60.00000226
_cell_angle_beta   59.86892514
_cell_angle_gamma   59.86892904
_symmetry_Int_Tables_number   1
_chemical_formula_structural   Zr16PaFe4Rh3
_chemical_formula_sum   'Zr16 Pa1 Fe4 Rh3'
_cell_volume   477.14077402
_cell_formula_units_Z   1
loop_
 _symmetry_equiv_pos_site_id
 _symmetry_equiv_pos_as_xyz
  1  'x, y, z'
loop_
 _atom_site_type_symbol
 _atom_site_label
 _atom_site_symmetry_multiplicity
 _atom_site_fract_x
 _atom_site_fract_y
 _atom_site_fract_z
 _atom_site_occupancy
  Zr  Zr0  1  0.062814  0.645729  0.645729  1
  Zr  Zr1  1  0.651209  0.039430  0.654681  1
  Zr  Zr2  1  0.651209  0.654681  0.039430  1
  Zr  Zr3  1  0.651209  0.654681  0.654681  1
  Zr  Zr4  1  0.814735  0.811626  0.186820  1
  Zr  Zr5  1  0.198364  0.198629  0.801503  1
  Zr  Zr6  1  0.814735  0.186820  0.811626  1
  Zr  Zr7  1  0.198364  0.801503  0.198629  1
  Zr  Zr8  1  0.198364  0.801503  0.801503  1
  Zr  Zr9  1  0.814735  0.186820  0.186820  1
  Zr  Zr10  1  0.439999  0.436648  0.061676  1
  Zr  Zr11  1  0.055924  0.070241  0.436918  1
  Zr  Zr12  1  0.439999  0.061676  0.436648  1
  Zr  Zr13  1  0.055924  0.436918  0.070241  1
  Zr  Zr14  1  0.055924  0.436918  0.436918  1
  Zr  Zr15  1  0.439999  0.061676  0.061676  1
  Pa  Pa16  1  0.702398  0.432534  0.432534  1
  Fe  Fe17  1  0.418386  0.860538  0.860538  1
  Fe  Fe18  1  0.863029  0.420355  0.858308  1
  Fe  Fe19  1  0.863029  0.858308  0.420355  1
  Fe  Fe20  1  0.863029  0.858308  0.858308  1
  Rh  Rh21  1  0.415541  0.763377  0.410541  1
  Rh  Rh22  1  0.415541  0.410541  0.763377  1
  Rh  Rh23  1  0.415541  0.410541  0.410541  1
