# generated using pymatgen
data_Ho7Th3Ir5Os
_symmetry_space_group_name_H-M   'P 1'
_cell_length_a   11.04332503
_cell_length_b   11.01859900
_cell_length_c   6.35281939
_cell_angle_alpha   90.00000000
_cell_angle_beta   90.09860317
_cell_angle_gamma   90.00000000
_symmetry_Int_Tables_number   1
_chemical_formula_structural   Ho7Th3Ir5Os
_chemical_formula_sum   'Ho14 Th6 Ir10 Os2'
_cell_volume   773.02243402
_cell_formula_units_Z   2
loop_
 _symmetry_equiv_pos_site_id
 _symmetry_equiv_pos_as_xyz
  1  'x, y, z'
loop_
 _atom_site_type_symbol
 _atom_site_label
 _atom_site_symmetry_multiplicity
 _atom_site_fract_x
 _atom_site_fract_y
 _atom_site_fract_z
 _atom_site_occupancy
  Ho  Ho0  1  0.408885  0.788426  0.377268  1
  Ho  Ho1  1  0.408885  0.211574  0.877268  1
  Ho  Ho2  1  0.207253  0.413238  0.621352  1
  Ho  Ho3  1  0.207253  0.586762  0.121352  1
  Ho  Ho4  1  0.794054  0.414995  0.117147  1
  Ho  Ho5  1  0.794054  0.585005  0.617147  1
  Ho  Ho6  1  0.915671  0.705954  0.116847  1
  Ho  Ho7  1  0.915671  0.294046  0.616847  1
  Ho  Ho8  1  0.085994  0.706141  0.617291  1
  Ho  Ho9  1  0.085994  0.293859  0.117291  1
  Ho  Ho10  1  0.999590  0.999442  0.503118  1
  Ho  Ho11  1  0.999590  0.000558  0.003118  1
  Ho  Ho12  1  0.498610  0.495720  0.004917  1
  Ho  Ho13  1  0.498610  0.504280  0.504917  1
  Th  Th14  1  0.290356  0.089837  0.378982  1
  Th  Th15  1  0.290356  0.910163  0.878982  1
  Th  Th16  1  0.708770  0.094258  0.879081  1
  Th  Th17  1  0.708770  0.905742  0.379081  1
  Th  Th18  1  0.588023  0.787498  0.880098  1
  Th  Th19  1  0.588023  0.212502  0.380098  1
  Ir  Ir20  1  0.846037  0.153565  0.249573  1
  Ir  Ir21  1  0.846037  0.846435  0.749573  1
  Ir  Ir22  1  0.153520  0.152543  0.748307  1
  Ir  Ir23  1  0.153520  0.847457  0.248307  1
  Ir  Ir24  1  0.654548  0.347462  0.748114  1
  Ir  Ir25  1  0.654548  0.652538  0.248114  1
  Ir  Ir26  1  0.347026  0.346216  0.256335  1
  Ir  Ir27  1  0.347026  0.653784  0.756335  1
  Ir  Ir28  1  0.001008  0.499817  0.878960  1
  Ir  Ir29  1  0.001008  0.500183  0.378960  1
  Os  Os30  1  0.500655  0.001512  0.122613  1
  Os  Os31  1  0.500655  0.998488  0.622613  1
