# generated using pymatgen
data_Dy8ReMo(RuC4)2
_symmetry_space_group_name_H-M   'P 1'
_cell_length_a   5.10045900
_cell_length_b   6.56757490
_cell_length_c   9.89108378
_cell_angle_alpha   90.26956568
_cell_angle_beta   90.00000000
_cell_angle_gamma   90.00000000
_symmetry_Int_Tables_number   1
_chemical_formula_structural   Dy8ReMo(RuC4)2
_chemical_formula_sum   'Dy8 Re1 Mo1 Ru2 C8'
_cell_volume   331.32436115
_cell_formula_units_Z   1
loop_
 _symmetry_equiv_pos_site_id
 _symmetry_equiv_pos_as_xyz
  1  'x, y, z'
loop_
 _atom_site_type_symbol
 _atom_site_label
 _atom_site_symmetry_multiplicity
 _atom_site_fract_x
 _atom_site_fract_y
 _atom_site_fract_z
 _atom_site_occupancy
  Dy  Dy0  1  0.250000  0.819972  0.941301  1
  Dy  Dy1  1  0.250000  0.323491  0.555872  1
  Dy  Dy2  1  0.750000  0.174351  0.056911  1
  Dy  Dy3  1  0.750000  0.680900  0.441199  1
  Dy  Dy4  1  0.250000  0.467615  0.215053  1
  Dy  Dy5  1  0.250000  0.967187  0.283123  1
  Dy  Dy6  1  0.750000  0.535209  0.781425  1
  Dy  Dy7  1  0.750000  0.031137  0.716090  1
  Re  Re8  1  0.750000  0.221170  0.364700  1
  Mo  Mo9  1  0.250000  0.280613  0.866614  1
  Ru  Ru10  1  0.250000  0.778801  0.632856  1
  Ru  Ru11  1  0.750000  0.720263  0.134509  1
  C  C12  1  0.250000  0.045042  0.741043  1
  C  C13  1  0.250000  0.548069  0.758480  1
  C  C14  1  0.750000  0.954988  0.261042  1
  C  C15  1  0.750000  0.453852  0.243937  1
  C  C16  1  0.250000  0.676659  0.450193  1
  C  C17  1  0.250000  0.176405  0.053650  1
  C  C18  1  0.750000  0.321343  0.549331  1
  C  C19  1  0.750000  0.822933  0.952670  1
