# generated using pymatgen
data_Hf18FeRe2NiMo6
_symmetry_space_group_name_H-M   'P 1'
_cell_length_a   8.66224990
_cell_length_b   8.66224931
_cell_length_c   8.48025200
_cell_angle_alpha   90.00000000
_cell_angle_beta   90.00000000
_cell_angle_gamma   119.98955772
_symmetry_Int_Tables_number   1
_chemical_formula_structural   Hf18FeRe2NiMo6
_chemical_formula_sum   'Hf18 Fe1 Re2 Ni1 Mo6'
_cell_volume   551.12037353
_cell_formula_units_Z   1
loop_
 _symmetry_equiv_pos_site_id
 _symmetry_equiv_pos_as_xyz
  1  'x, y, z'
loop_
 _atom_site_type_symbol
 _atom_site_label
 _atom_site_symmetry_multiplicity
 _atom_site_fract_x
 _atom_site_fract_y
 _atom_site_fract_z
 _atom_site_occupancy
  Hf  Hf0  1  0.200266  0.799734  0.443236  1
  Hf  Hf1  1  0.199596  0.399182  0.444245  1
  Hf  Hf2  1  0.600818  0.800404  0.444245  1
  Hf  Hf3  1  0.798857  0.201143  0.561329  1
  Hf  Hf4  1  0.798217  0.596945  0.559829  1
  Hf  Hf5  1  0.403055  0.201783  0.559829  1
  Hf  Hf6  1  0.798857  0.201143  0.938671  1
  Hf  Hf7  1  0.798217  0.596945  0.940171  1
  Hf  Hf8  1  0.403055  0.201783  0.940171  1
  Hf  Hf9  1  0.200266  0.799734  0.056764  1
  Hf  Hf10  1  0.199596  0.399182  0.055755  1
  Hf  Hf11  1  0.600818  0.800404  0.055755  1
  Hf  Hf12  1  0.541963  0.458037  0.250000  1
  Hf  Hf13  1  0.542546  0.084211  0.250000  1
  Hf  Hf14  1  0.915789  0.457454  0.250000  1
  Hf  Hf15  1  0.458482  0.541518  0.750000  1
  Hf  Hf16  1  0.459418  0.916549  0.750000  1
  Hf  Hf17  1  0.083451  0.540582  0.750000  1
  Fe  Fe18  1  0.666494  0.333506  0.750000  1
  Re  Re19  1  0.111135  0.224910  0.750000  1
  Re  Re20  1  0.775090  0.888865  0.750000  1
  Ni  Ni21  1  0.333949  0.666051  0.250000  1
  Mo  Mo22  1  0.888087  0.111913  0.250000  1
  Mo  Mo23  1  0.887136  0.775105  0.250000  1
  Mo  Mo24  1  0.224895  0.112864  0.250000  1
  Mo  Mo25  1  0.110445  0.889555  0.750000  1
  Mo  Mo26  1  0.999752  0.000248  0.500494  1
  Mo  Mo27  1  0.999752  0.000248  0.999506  1
