# generated using pymatgen
data_Y2PaCo2Ge7
_symmetry_space_group_name_H-M   'P 1'
_cell_length_a   12.56641298
_cell_length_b   12.56641319
_cell_length_c   4.14708800
_cell_angle_alpha   90.00000000
_cell_angle_beta   90.00000000
_cell_angle_gamma   160.40435268
_symmetry_Int_Tables_number   1
_chemical_formula_structural   Y2PaCo2Ge7
_chemical_formula_sum   'Y2 Pa1 Co2 Ge7'
_cell_volume   219.63577339
_cell_formula_units_Z   1
loop_
 _symmetry_equiv_pos_site_id
 _symmetry_equiv_pos_as_xyz
  1  'x, y, z'
loop_
 _atom_site_type_symbol
 _atom_site_label
 _atom_site_symmetry_multiplicity
 _atom_site_fract_x
 _atom_site_fract_y
 _atom_site_fract_z
 _atom_site_occupancy
  Y  Y0  1  0.901337  0.098663  0.500000  1
  Y  Y1  1  0.532702  0.467298  0.500000  1
  Pa  Pa2  1  0.216999  0.783001  0.000000  1
  Co  Co3  1  0.345964  0.654036  0.000000  1
  Co  Co4  1  0.088160  0.911840  0.000000  1
  Ge  Ge5  1  0.628083  0.371917  0.000000  1
  Ge  Ge6  1  0.440079  0.559921  0.000000  1
  Ge  Ge7  1  0.128588  0.871412  0.500000  1
  Ge  Ge8  1  0.993995  0.006005  0.000000  1
  Ge  Ge9  1  0.805807  0.194193  0.000000  1
  Ge  Ge10  1  0.716271  0.283729  0.500000  1
  Ge  Ge11  1  0.305316  0.694684  0.500000  1
