# generated using pymatgen
data_Tb3HoCdRu
_symmetry_space_group_name_H-M   'P 1'
_cell_length_a   9.64056681
_cell_length_b   9.64056676
_cell_length_c   9.64056700
_cell_angle_alpha   60.00000261
_cell_angle_beta   60.00000278
_cell_angle_gamma   60.00000169
_symmetry_Int_Tables_number   1
_chemical_formula_structural   Tb3HoCdRu
_chemical_formula_sum   'Tb12 Ho4 Cd4 Ru4'
_cell_volume   633.56727635
_cell_formula_units_Z   4
loop_
 _symmetry_equiv_pos_site_id
 _symmetry_equiv_pos_as_xyz
  1  'x, y, z'
loop_
 _atom_site_type_symbol
 _atom_site_label
 _atom_site_symmetry_multiplicity
 _atom_site_fract_x
 _atom_site_fract_y
 _atom_site_fract_z
 _atom_site_occupancy
  Tb  Tb0  1  0.561721  0.561721  0.938279  1
  Tb  Tb1  1  0.938279  0.561721  0.938279  1
  Tb  Tb2  1  0.561721  0.938279  0.938279  1
  Tb  Tb3  1  0.938279  0.938279  0.561721  1
  Tb  Tb4  1  0.561721  0.938279  0.561721  1
  Tb  Tb5  1  0.938279  0.561721  0.561721  1
  Tb  Tb6  1  0.189651  0.189651  0.810349  1
  Tb  Tb7  1  0.810349  0.189651  0.810349  1
  Tb  Tb8  1  0.189650  0.810350  0.810349  1
  Tb  Tb9  1  0.810349  0.810350  0.189651  1
  Tb  Tb10  1  0.189650  0.810349  0.189650  1
  Tb  Tb11  1  0.810349  0.189651  0.189651  1
  Ho  Ho12  1  0.345579  0.345579  0.963265  1
  Ho  Ho13  1  0.345579  0.963265  0.345579  1
  Ho  Ho14  1  0.963265  0.345579  0.345579  1
  Ho  Ho15  1  0.345579  0.345579  0.345579  1
  Cd  Cd16  1  0.580063  0.580063  0.259811  1
  Cd  Cd17  1  0.580063  0.259811  0.580063  1
  Cd  Cd18  1  0.259811  0.580063  0.580063  1
  Cd  Cd19  1  0.580063  0.580063  0.580063  1
  Ru  Ru20  1  0.139236  0.139236  0.582292  1
  Ru  Ru21  1  0.139236  0.582292  0.139236  1
  Ru  Ru22  1  0.582292  0.139236  0.139236  1
  Ru  Ru23  1  0.139236  0.139236  0.139236  1
