# generated using pymatgen
data_CaDy6NiCl12
_symmetry_space_group_name_H-M   'P 1'
_cell_length_a   8.82415328
_cell_length_b   8.82415322
_cell_length_c   8.82415250
_cell_angle_alpha   106.54369645
_cell_angle_beta   106.54368629
_cell_angle_gamma   106.54368980
_symmetry_Int_Tables_number   1
_chemical_formula_structural   CaDy6NiCl12
_chemical_formula_sum   'Ca1 Dy6 Ni1 Cl12'
_cell_volume   579.19753046
_cell_formula_units_Z   1
loop_
 _symmetry_equiv_pos_site_id
 _symmetry_equiv_pos_as_xyz
  1  'x, y, z'
loop_
 _atom_site_type_symbol
 _atom_site_label
 _atom_site_symmetry_multiplicity
 _atom_site_fract_x
 _atom_site_fract_y
 _atom_site_fract_z
 _atom_site_occupancy
  Ca  Ca0  1  0.500000  0.500000  0.500000  1
  Dy  Dy1  1  0.107067  0.021350  0.314362  1
  Dy  Dy2  1  0.021350  0.314362  0.107067  1
  Dy  Dy3  1  0.314362  0.107067  0.021350  1
  Dy  Dy4  1  0.892932  0.978650  0.685638  1
  Dy  Dy5  1  0.978650  0.685638  0.892932  1
  Dy  Dy6  1  0.685638  0.892932  0.978650  1
  Ni  Ni7  1  0.000000  0.000000  0.000000  1
  Cl  Cl8  1  0.071837  0.678084  0.214508  1
  Cl  Cl9  1  0.678084  0.214508  0.071837  1
  Cl  Cl10  1  0.214508  0.071837  0.678084  1
  Cl  Cl11  1  0.928163  0.321916  0.785492  1
  Cl  Cl12  1  0.321916  0.785492  0.928163  1
  Cl  Cl13  1  0.785492  0.928163  0.321916  1
  Cl  Cl14  1  0.451620  0.160193  0.370749  1
  Cl  Cl15  1  0.160193  0.370749  0.451620  1
  Cl  Cl16  1  0.370749  0.451620  0.160193  1
  Cl  Cl17  1  0.548380  0.839807  0.629251  1
  Cl  Cl18  1  0.839807  0.629251  0.548380  1
  Cl  Cl19  1  0.629251  0.548380  0.839807  1
