# generated using pymatgen
data_La5Nd2Os4C9
_symmetry_space_group_name_H-M   'P 1'
_cell_length_a   6.59530749
_cell_length_b   6.59530637
_cell_length_c   11.96526401
_cell_angle_alpha   70.90950474
_cell_angle_beta   109.09049165
_cell_angle_gamma   131.74321073
_symmetry_Int_Tables_number   1
_chemical_formula_structural   La5Nd2Os4C9
_chemical_formula_sum   'La5 Nd2 Os4 C9'
_cell_volume   362.54471835
_cell_formula_units_Z   1
loop_
 _symmetry_equiv_pos_site_id
 _symmetry_equiv_pos_as_xyz
  1  'x, y, z'
loop_
 _atom_site_type_symbol
 _atom_site_label
 _atom_site_symmetry_multiplicity
 _atom_site_fract_x
 _atom_site_fract_y
 _atom_site_fract_z
 _atom_site_occupancy
  La  La0  1  0.863625  0.136371  0.383076  1
  La  La1  1  0.145977  0.854020  0.320239  1
  La  La2  1  0.373366  0.626631  0.155337  1
  La  La3  1  0.626790  0.373207  0.844151  1
  La  La4  1  0.852996  0.147001  0.679227  1
  Nd  Nd5  1  0.138534  0.861463  0.620627  1
  Nd  Nd6  1  0.000318  0.999682  0.000088  1
  Os  Os7  1  0.642890  0.357107  0.141252  1
  Os  Os8  1  0.356496  0.643501  0.858358  1
  Os  Os9  1  0.567204  0.432793  0.429540  1
  Os  Os10  1  0.433817  0.566180  0.571391  1
  C  C11  1  0.382400  0.617597  0.708350  1
  C  C12  1  0.615734  0.384263  0.290592  1
  C  C13  1  0.393665  0.606332  0.387640  1
  C  C14  1  0.608338  0.391659  0.613579  1
  C  C15  1  0.077445  0.922552  0.821281  1
  C  C16  1  0.921690  0.078307  0.177649  1
  C  C17  1  0.499739  0.500257  0.999501  1
  C  C18  1  0.803807  0.196189  0.143511  1
  C  C19  1  0.195139  0.804858  0.854611  1
