# generated using pymatgen
data_Ac11(In3Si2)2
_symmetry_space_group_name_H-M   'P 1'
_cell_length_a   12.51820583
_cell_length_b   12.51820574
_cell_length_c   12.51820573
_cell_angle_alpha   119.51649233
_cell_angle_beta   119.51649427
_cell_angle_gamma   90.83951715
_symmetry_Int_Tables_number   1
_chemical_formula_structural   Ac11(In3Si2)2
_chemical_formula_sum   'Ac22 In12 Si8'
_cell_volume   1397.08608026
_cell_formula_units_Z   2
loop_
 _symmetry_equiv_pos_site_id
 _symmetry_equiv_pos_as_xyz
  1  'x, y, z'
loop_
 _atom_site_type_symbol
 _atom_site_label
 _atom_site_symmetry_multiplicity
 _atom_site_fract_x
 _atom_site_fract_y
 _atom_site_fract_z
 _atom_site_occupancy
  Ac  Ac0  1  0.686105  0.937643  0.251537  1
  Ac  Ac1  1  0.686105  0.434568  0.748463  1
  Ac  Ac2  1  0.937643  0.686105  0.251537  1
  Ac  Ac3  1  0.434568  0.686105  0.748463  1
  Ac  Ac4  1  0.313895  0.062357  0.748463  1
  Ac  Ac5  1  0.313895  0.565432  0.251537  1
  Ac  Ac6  1  0.062357  0.313895  0.748463  1
  Ac  Ac7  1  0.565432  0.313895  0.251537  1
  Ac  Ac8  1  0.900923  0.246841  0.345918  1
  Ac  Ac9  1  0.900923  0.555004  0.654082  1
  Ac  Ac10  1  0.246841  0.900923  0.345918  1
  Ac  Ac11  1  0.555004  0.900923  0.654082  1
  Ac  Ac12  1  0.099077  0.753159  0.654082  1
  Ac  Ac13  1  0.099077  0.444996  0.345918  1
  Ac  Ac14  1  0.753159  0.099077  0.654082  1
  Ac  Ac15  1  0.444996  0.099077  0.345918  1
  Ac  Ac16  1  0.331899  0.331899  0.663797  1
  Ac  Ac17  1  0.668101  0.668101  0.336203  1
  Ac  Ac18  1  0.331899  0.668101  0.000000  1
  Ac  Ac19  1  0.668101  0.331899  0.000000  1
  Ac  Ac20  1  0.839675  0.839675  0.000000  1
  Ac  Ac21  1  0.160325  0.160325  0.000000  1
  In  In22  1  0.034095  0.034095  0.414043  1
  In  In23  1  0.620052  0.620052  0.585957  1
  In  In24  1  0.034095  0.620052  0.000000  1
  In  In25  1  0.620052  0.034095  0.000000  1
  In  In26  1  0.965905  0.965905  0.585957  1
  In  In27  1  0.379948  0.379948  0.414043  1
  In  In28  1  0.965905  0.379948  0.000000  1
  In  In29  1  0.379948  0.965905  0.000000  1
  In  In30  1  0.125962  0.125962  0.251926  1
  In  In31  1  0.874038  0.874038  0.748074  1
  In  In32  1  0.125962  0.874038  0.000000  1
  In  In33  1  0.874038  0.125962  0.000000  1
  Si  Si34  1  0.153273  0.500000  0.653273  1
  Si  Si35  1  0.846727  0.500000  0.346727  1
  Si  Si36  1  0.500000  0.846727  0.346727  1
  Si  Si37  1  0.500000  0.153273  0.653273  1
  Si  Si38  1  0.621054  0.621054  0.000000  1
  Si  Si39  1  0.378946  0.378946  0.000000  1
  Si  Si40  1  0.750000  0.250000  0.500000  1
  Si  Si41  1  0.250000  0.750000  0.500000  1
