# generated using pymatgen
data_Cs3RbSnBr6
_symmetry_space_group_name_H-M   'P 1'
_cell_length_a   9.85728773
_cell_length_b   9.85728834
_cell_length_c   9.85728875
_cell_angle_alpha   90.41864508
_cell_angle_beta   90.41865334
_cell_angle_gamma   90.41864681
_symmetry_Int_Tables_number   1
_chemical_formula_structural   Cs3RbSnBr6
_chemical_formula_sum   'Cs6 Rb2 Sn2 Br12'
_cell_volume   957.71749509
_cell_formula_units_Z   2
loop_
 _symmetry_equiv_pos_site_id
 _symmetry_equiv_pos_as_xyz
  1  'x, y, z'
loop_
 _atom_site_type_symbol
 _atom_site_label
 _atom_site_symmetry_multiplicity
 _atom_site_fract_x
 _atom_site_fract_y
 _atom_site_fract_z
 _atom_site_occupancy
  Cs  Cs0  1  0.250000  0.627556  0.872444  1
  Cs  Cs1  1  0.872444  0.250000  0.627556  1
  Cs  Cs2  1  0.627556  0.872444  0.250000  1
  Cs  Cs3  1  0.750000  0.372444  0.127556  1
  Cs  Cs4  1  0.127556  0.750000  0.372444  1
  Cs  Cs5  1  0.372444  0.127556  0.750000  1
  Rb  Rb6  1  0.250000  0.250000  0.250000  1
  Rb  Rb7  1  0.750000  0.750000  0.750000  1
  Sn  Sn8  1  0.000000  0.000000  0.000000  1
  Sn  Sn9  1  0.500000  0.500000  0.500000  1
  Br  Br10  1  0.553833  0.207104  0.423893  1
  Br  Br11  1  0.423893  0.553833  0.207104  1
  Br  Br12  1  0.207104  0.423893  0.553833  1
  Br  Br13  1  0.946167  0.076107  0.292896  1
  Br  Br14  1  0.292896  0.946167  0.076107  1
  Br  Br15  1  0.076107  0.292896  0.946167  1
  Br  Br16  1  0.446167  0.792896  0.576107  1
  Br  Br17  1  0.576107  0.446167  0.792896  1
  Br  Br18  1  0.792896  0.576107  0.446167  1
  Br  Br19  1  0.053833  0.923893  0.707104  1
  Br  Br20  1  0.923893  0.707104  0.053833  1
  Br  Br21  1  0.707104  0.053833  0.923893  1
