# generated using pymatgen
data_Dy12Fe2I17
_symmetry_space_group_name_H-M   'P 1'
_cell_length_a   9.70478393
_cell_length_b   11.66179378
_cell_length_c   11.68762756
_cell_angle_alpha   93.49081518
_cell_angle_beta   104.74600023
_cell_angle_gamma   114.07116831
_symmetry_Int_Tables_number   1
_chemical_formula_structural   Dy12Fe2I17
_chemical_formula_sum   'Dy12 Fe2 I17'
_cell_volume   1147.44489368
_cell_formula_units_Z   1
loop_
 _symmetry_equiv_pos_site_id
 _symmetry_equiv_pos_as_xyz
  1  'x, y, z'
loop_
 _atom_site_type_symbol
 _atom_site_label
 _atom_site_symmetry_multiplicity
 _atom_site_fract_x
 _atom_site_fract_y
 _atom_site_fract_z
 _atom_site_occupancy
  Dy  Dy0  1  0.052201  0.502461  0.319908  1
  Dy  Dy1  1  0.992856  0.809404  0.588472  1
  Dy  Dy2  1  0.655462  0.241592  0.280442  1
  Dy  Dy3  1  0.007144  0.190596  0.411528  1
  Dy  Dy4  1  0.218886  0.671186  0.982567  1
  Dy  Dy5  1  0.255027  0.977903  0.888835  1
  Dy  Dy6  1  0.344538  0.758408  0.719558  1
  Dy  Dy7  1  0.947799  0.497539  0.680092  1
  Dy  Dy8  1  0.744973  0.022097  0.111165  1
  Dy  Dy9  1  0.140855  0.286666  0.154203  1
  Dy  Dy10  1  0.781114  0.328814  0.017433  1
  Dy  Dy11  1  0.859145  0.713334  0.845797  1
  Fe  Fe12  1  0.103986  0.737993  0.785663  1
  Fe  Fe13  1  0.896014  0.262007  0.214337  1
  I  I14  1  0.784208  0.528679  0.417393  1
  I  I15  1  0.643627  0.418899  0.761499  1
  I  I16  1  0.843830  0.894965  0.326773  1
  I  I17  1  0.327154  0.213152  0.368987  1
  I  I18  1  0.156170  0.105035  0.673227  1
  I  I19  1  0.586520  0.053081  0.842433  1
  I  I20  1  0.757311  0.187197  0.538236  1
  I  I21  1  0.551065  0.710028  0.953807  1
  I  I22  1  0.356373  0.581101  0.238501  1
  I  I23  1  0.215792  0.471321  0.582607  1
  I  I24  1  0.056251  0.367101  0.896955  1
  I  I25  1  0.448935  0.289972  0.046193  1
  I  I26  1  0.000000  0.000000  0.000000  1
  I  I27  1  0.242689  0.812803  0.461764  1
  I  I28  1  0.413480  0.946919  0.157567  1
  I  I29  1  0.672846  0.786848  0.631013  1
  I  I30  1  0.943749  0.632899  0.103045  1
