# generated using pymatgen
data_Ba2HoCoO5
_symmetry_space_group_name_H-M   'P 1'
_cell_length_a   6.15341300
_cell_length_b   7.94367845
_cell_length_c   12.46773822
_cell_angle_alpha   91.63916216
_cell_angle_beta   90.00000000
_cell_angle_gamma   90.00000000
_symmetry_Int_Tables_number   1
_chemical_formula_structural   Ba2HoCoO5
_chemical_formula_sum   'Ba8 Ho4 Co4 O20'
_cell_volume   609.18281684
_cell_formula_units_Z   4
loop_
 _symmetry_equiv_pos_site_id
 _symmetry_equiv_pos_as_xyz
  1  'x, y, z'
loop_
 _atom_site_type_symbol
 _atom_site_label
 _atom_site_symmetry_multiplicity
 _atom_site_fract_x
 _atom_site_fract_y
 _atom_site_fract_z
 _atom_site_occupancy
  Ba  Ba0  1  0.757778  0.492312  0.360283  1
  Ba  Ba1  1  0.742222  0.992312  0.860283  1
  Ba  Ba2  1  0.242222  0.507688  0.639717  1
  Ba  Ba3  1  0.257778  0.007688  0.139717  1
  Ba  Ba4  1  0.752540  0.992784  0.383985  1
  Ba  Ba5  1  0.747460  0.492784  0.883985  1
  Ba  Ba6  1  0.247460  0.007216  0.616015  1
  Ba  Ba7  1  0.252540  0.507216  0.116015  1
  Ho  Ho8  1  0.748223  0.263722  0.628968  1
  Ho  Ho9  1  0.751777  0.763722  0.128968  1
  Ho  Ho10  1  0.251777  0.736278  0.371032  1
  Ho  Ho11  1  0.248223  0.236278  0.871032  1
  Co  Co12  1  0.741374  0.746327  0.592718  1
  Co  Co13  1  0.758626  0.246327  0.092718  1
  Co  Co14  1  0.258626  0.253673  0.407282  1
  Co  Co15  1  0.241374  0.753673  0.907282  1
  O  O16  1  0.754044  0.972943  0.632791  1
  O  O17  1  0.745956  0.472943  0.132791  1
  O  O18  1  0.245956  0.027057  0.367209  1
  O  O19  1  0.254044  0.527057  0.867209  1
  O  O20  1  0.738727  0.055646  0.171741  1
  O  O21  1  0.761273  0.555646  0.671741  1
  O  O22  1  0.261273  0.944354  0.828259  1
  O  O23  1  0.238727  0.444354  0.328259  1
  O  O24  1  0.539720  0.746372  0.269535  1
  O  O25  1  0.960280  0.246372  0.769535  1
  O  O26  1  0.460280  0.253628  0.730465  1
  O  O27  1  0.039720  0.753628  0.230465  1
  O  O28  1  0.528445  0.228841  0.988670  1
  O  O29  1  0.971555  0.728841  0.488670  1
  O  O30  1  0.471555  0.771159  0.011330  1
  O  O31  1  0.028445  0.271159  0.511330  1
  O  O32  1  0.029683  0.233449  0.018076  1
  O  O33  1  0.470317  0.733449  0.518076  1
  O  O34  1  0.970317  0.766551  0.981924  1
  O  O35  1  0.529683  0.266551  0.481924  1
