# generated using pymatgen
data_Sm5DyEr2(Si3Rh)4
_symmetry_space_group_name_H-M   'P 1'
_cell_length_a   8.21134414
_cell_length_b   8.21134443
_cell_length_c   8.06216000
_cell_angle_alpha   90.00000000
_cell_angle_beta   90.00000000
_cell_angle_gamma   120.02131321
_symmetry_Int_Tables_number   1
_chemical_formula_structural   Sm5DyEr2(Si3Rh)4
_chemical_formula_sum   'Sm5 Dy1 Er2 Si12 Rh4'
_cell_volume   470.67080008
_cell_formula_units_Z   1
loop_
 _symmetry_equiv_pos_site_id
 _symmetry_equiv_pos_as_xyz
  1  'x, y, z'
loop_
 _atom_site_type_symbol
 _atom_site_label
 _atom_site_symmetry_multiplicity
 _atom_site_fract_x
 _atom_site_fract_y
 _atom_site_fract_z
 _atom_site_occupancy
  Sm  Sm0  1  0.000078  0.999922  0.250000  1
  Sm  Sm1  1  0.999937  0.000063  0.750000  1
  Sm  Sm2  1  0.495106  0.504894  0.250000  1
  Sm  Sm3  1  0.495113  0.990377  0.250000  1
  Sm  Sm4  1  0.009623  0.504887  0.250000  1
  Dy  Dy5  1  0.507468  0.492532  0.750000  1
  Er  Er6  1  0.985876  0.492852  0.750000  1
  Er  Er7  1  0.507148  0.014124  0.750000  1
  Si  Si8  1  0.833450  0.166550  0.504858  1
  Si  Si9  1  0.833868  0.667189  0.504155  1
  Si  Si10  1  0.332811  0.166132  0.504155  1
  Si  Si11  1  0.833450  0.166550  0.995142  1
  Si  Si12  1  0.833868  0.667189  0.995845  1
  Si  Si13  1  0.332811  0.166132  0.995845  1
  Si  Si14  1  0.167871  0.832129  0.997357  1
  Si  Si15  1  0.664334  0.832382  0.997575  1
  Si  Si16  1  0.167618  0.335666  0.997575  1
  Si  Si17  1  0.167871  0.832129  0.502643  1
  Si  Si18  1  0.664334  0.832382  0.502425  1
  Si  Si19  1  0.167618  0.335666  0.502425  1
  Rh  Rh20  1  0.666957  0.333043  0.489639  1
  Rh  Rh21  1  0.666957  0.333043  0.010361  1
  Rh  Rh22  1  0.332917  0.667083  0.960359  1
  Rh  Rh23  1  0.332917  0.667083  0.539641  1
