# generated using pymatgen
data_LaGa2SnAu3
_symmetry_space_group_name_H-M   'P 1'
_cell_length_a   4.71475700
_cell_length_b   7.16518900
_cell_length_c   8.90771000
_cell_angle_alpha   90.00000000
_cell_angle_beta   90.00000000
_cell_angle_gamma   90.00000000
_symmetry_Int_Tables_number   1
_chemical_formula_structural   LaGa2SnAu3
_chemical_formula_sum   'La2 Ga4 Sn2 Au6'
_cell_volume   300.92137263
_cell_formula_units_Z   2
loop_
 _symmetry_equiv_pos_site_id
 _symmetry_equiv_pos_as_xyz
  1  'x, y, z'
loop_
 _atom_site_type_symbol
 _atom_site_label
 _atom_site_symmetry_multiplicity
 _atom_site_fract_x
 _atom_site_fract_y
 _atom_site_fract_z
 _atom_site_occupancy
  La  La0  1  0.500000  0.000000  0.757340  1
  La  La1  1  0.000000  0.500000  0.242660  1
  Ga  Ga2  1  0.000000  0.308077  0.890479  1
  Ga  Ga3  1  0.500000  0.191923  0.109521  1
  Ga  Ga4  1  0.000000  0.691923  0.890479  1
  Ga  Ga5  1  0.500000  0.808077  0.109521  1
  Sn  Sn6  1  0.000000  0.000000  0.366145  1
  Sn  Sn7  1  0.500000  0.500000  0.633855  1
  Au  Au8  1  0.000000  0.746757  0.605575  1
  Au  Au9  1  0.500000  0.753243  0.394425  1
  Au  Au10  1  0.500000  0.500000  0.950350  1
  Au  Au11  1  0.000000  0.000000  0.049650  1
  Au  Au12  1  0.500000  0.246757  0.394425  1
  Au  Au13  1  0.000000  0.253243  0.605575  1
