# generated using pymatgen
data_Co4Cl7F
_symmetry_space_group_name_H-M   'P 1'
_cell_length_a   7.24979154
_cell_length_b   7.24979031
_cell_length_c   7.24979100
_cell_angle_alpha   58.21053526
_cell_angle_beta   58.21053202
_cell_angle_gamma   58.21053086
_symmetry_Int_Tables_number   1
_chemical_formula_structural   Co4Cl7F
_chemical_formula_sum   'Co4 Cl7 F1'
_cell_volume   258.39221960
_cell_formula_units_Z   1
loop_
 _symmetry_equiv_pos_site_id
 _symmetry_equiv_pos_as_xyz
  1  'x, y, z'
loop_
 _atom_site_type_symbol
 _atom_site_label
 _atom_site_symmetry_multiplicity
 _atom_site_fract_x
 _atom_site_fract_y
 _atom_site_fract_z
 _atom_site_occupancy
  Co  Co0  1  0.618252  0.131951  0.131951  1
  Co  Co1  1  0.126476  0.126476  0.126476  1
  Co  Co2  1  0.131951  0.131951  0.618252  1
  Co  Co3  1  0.131951  0.618252  0.131951  1
  Cl  Cl4  1  0.370395  0.370395  0.893475  1
  Cl  Cl5  1  0.888795  0.888795  0.888795  1
  Cl  Cl6  1  0.883307  0.883307  0.360215  1
  Cl  Cl7  1  0.360215  0.883307  0.883307  1
  Cl  Cl8  1  0.370395  0.893475  0.370395  1
  Cl  Cl9  1  0.883307  0.360215  0.883307  1
  Cl  Cl10  1  0.893475  0.370395  0.370395  1
  F  F11  1  0.341481  0.341481  0.341481  1
