# generated using pymatgen
data_NiBiTeO6
_symmetry_space_group_name_H-M   'P 1'
_cell_length_a   5.24413488
_cell_length_b   9.08159606
_cell_length_c   9.70744407
_cell_angle_alpha   90.00129106
_cell_angle_beta   89.92961659
_cell_angle_gamma   90.00559310
_symmetry_Int_Tables_number   1
_chemical_formula_structural   NiBiTeO6
_chemical_formula_sum   'Ni4 Bi4 Te4 O24'
_cell_volume   462.31778553
_cell_formula_units_Z   4
loop_
 _symmetry_equiv_pos_site_id
 _symmetry_equiv_pos_as_xyz
  1  'x, y, z'
loop_
 _atom_site_type_symbol
 _atom_site_label
 _atom_site_symmetry_multiplicity
 _atom_site_fract_x
 _atom_site_fract_y
 _atom_site_fract_z
 _atom_site_occupancy
  Ni  Ni0  1  0.500154  0.833368  0.750009  1
  Ni  Ni1  1  0.499846  0.166632  0.249991  1
  Ni  Ni2  1  0.000154  0.333368  0.750009  1
  Ni  Ni3  1  0.999846  0.666632  0.249991  1
  Bi  Bi4  1  0.000000  0.000000  0.500000  1
  Bi  Bi5  1  0.500000  0.500000  0.500000  1
  Bi  Bi6  1  0.000000  0.000000  0.000000  1
  Bi  Bi7  1  0.500000  0.500000  0.000000  1
  Te  Te8  1  0.500030  0.166911  0.750004  1
  Te  Te9  1  0.000030  0.666911  0.750004  1
  Te  Te10  1  0.999970  0.333089  0.249996  1
  Te  Te11  1  0.499970  0.833089  0.249996  1
  O  O12  1  0.637765  0.005778  0.638147  1
  O  O13  1  0.137765  0.505778  0.638147  1
  O  O14  1  0.672334  0.315986  0.638119  1
  O  O15  1  0.172334  0.815986  0.638119  1
  O  O16  1  0.189856  0.178132  0.638438  1
  O  O17  1  0.689856  0.678132  0.638438  1
  O  O18  1  0.172090  0.184067  0.138111  1
  O  O19  1  0.672090  0.684067  0.138111  1
  O  O20  1  0.137606  0.494237  0.138173  1
  O  O21  1  0.637606  0.994237  0.138173  1
  O  O22  1  0.689633  0.321870  0.138425  1
  O  O23  1  0.189633  0.821870  0.138425  1
  O  O24  1  0.862235  0.494222  0.361853  1
  O  O25  1  0.362235  0.994222  0.361853  1
  O  O26  1  0.827666  0.184014  0.361881  1
  O  O27  1  0.327666  0.684014  0.361881  1
  O  O28  1  0.310144  0.321868  0.361562  1
  O  O29  1  0.810144  0.821868  0.361562  1
  O  O30  1  0.327910  0.315933  0.861889  1
  O  O31  1  0.827910  0.815933  0.861889  1
  O  O32  1  0.362394  0.005763  0.861827  1
  O  O33  1  0.862394  0.505763  0.861827  1
  O  O34  1  0.810367  0.178130  0.861575  1
  O  O35  1  0.310367  0.678130  0.861575  1
