# generated using pymatgen
data_LaCe(Re2Si)4
_symmetry_space_group_name_H-M   'P 1'
_cell_length_a   4.17193600
_cell_length_b   7.28252539
_cell_length_c   15.68788957
_cell_angle_alpha   90.09488400
_cell_angle_beta   90.00000000
_cell_angle_gamma   90.00000000
_symmetry_Int_Tables_number   1
_chemical_formula_structural   LaCe(Re2Si)4
_chemical_formula_sum   'La2 Ce2 Re16 Si8'
_cell_volume   476.63241342
_cell_formula_units_Z   2
loop_
 _symmetry_equiv_pos_site_id
 _symmetry_equiv_pos_as_xyz
  1  'x, y, z'
loop_
 _atom_site_type_symbol
 _atom_site_label
 _atom_site_symmetry_multiplicity
 _atom_site_fract_x
 _atom_site_fract_y
 _atom_site_fract_z
 _atom_site_occupancy
  La  La0  1  0.500000  0.082806  0.381412  1
  La  La1  1  0.500000  0.917194  0.618588  1
  Ce  Ce2  1  0.000000  0.584784  0.117336  1
  Ce  Ce3  1  0.000000  0.415216  0.882664  1
  Re  Re4  1  0.000000  0.142524  0.050292  1
  Re  Re5  1  0.000000  0.857476  0.949708  1
  Re  Re6  1  0.500000  0.636882  0.447307  1
  Re  Re7  1  0.500000  0.363118  0.552693  1
  Re  Re8  1  0.000000  0.733944  0.318440  1
  Re  Re9  1  0.000000  0.266056  0.681560  1
  Re  Re10  1  0.500000  0.238791  0.177731  1
  Re  Re11  1  0.500000  0.761209  0.822269  1
  Re  Re12  1  0.000000  0.433938  0.419156  1
  Re  Re13  1  0.000000  0.566062  0.580844  1
  Re  Re14  1  0.500000  0.930401  0.079597  1
  Re  Re15  1  0.500000  0.069599  0.920403  1
  Re  Re16  1  0.000000  0.996875  0.204210  1
  Re  Re17  1  0.000000  0.003125  0.795790  1
  Re  Re18  1  0.500000  0.499099  0.292316  1
  Re  Re19  1  0.500000  0.500901  0.707684  1
  Si  Si20  1  0.000000  0.825144  0.474052  1
  Si  Si21  1  0.000000  0.174856  0.525948  1
  Si  Si22  1  0.500000  0.331156  0.024601  1
  Si  Si23  1  0.500000  0.668844  0.975399  1
  Si  Si24  1  0.000000  0.300810  0.272729  1
  Si  Si25  1  0.000000  0.699190  0.727271  1
  Si  Si26  1  0.500000  0.799835  0.223909  1
  Si  Si27  1  0.500000  0.200165  0.776091  1
