# generated using pymatgen
data_Ca(IrO3)2
_symmetry_space_group_name_H-M   'P 1'
_cell_length_a   5.32068100
_cell_length_b   7.37498700
_cell_length_c   11.08320700
_cell_angle_alpha   90.00000000
_cell_angle_beta   90.00000000
_cell_angle_gamma   90.00000000
_symmetry_Int_Tables_number   1
_chemical_formula_structural   Ca(IrO3)2
_chemical_formula_sum   'Ca4 Ir8 O24'
_cell_volume   434.90452405
_cell_formula_units_Z   4
loop_
 _symmetry_equiv_pos_site_id
 _symmetry_equiv_pos_as_xyz
  1  'x, y, z'
loop_
 _atom_site_type_symbol
 _atom_site_label
 _atom_site_symmetry_multiplicity
 _atom_site_fract_x
 _atom_site_fract_y
 _atom_site_fract_z
 _atom_site_occupancy
  Ca  Ca0  1  0.460799  0.750000  0.046173  1
  Ca  Ca1  1  0.960799  0.250000  0.453827  1
  Ca  Ca2  1  0.539201  0.250000  0.953827  1
  Ca  Ca3  1  0.039201  0.750000  0.546173  1
  Ir  Ir4  1  0.555752  0.498942  0.639209  1
  Ir  Ir5  1  0.055752  0.501058  0.860791  1
  Ir  Ir6  1  0.444248  0.998942  0.360791  1
  Ir  Ir7  1  0.944248  0.001058  0.139209  1
  Ir  Ir8  1  0.055752  0.998942  0.860791  1
  Ir  Ir9  1  0.555752  0.001058  0.639209  1
  Ir  Ir10  1  0.944248  0.498942  0.139209  1
  Ir  Ir11  1  0.444248  0.501058  0.360791  1
  O  O12  1  0.681844  0.250000  0.622385  1
  O  O13  1  0.181844  0.750000  0.877615  1
  O  O14  1  0.318156  0.750000  0.377615  1
  O  O15  1  0.818156  0.250000  0.122385  1
  O  O16  1  0.431165  0.750000  0.647083  1
  O  O17  1  0.931165  0.250000  0.852917  1
  O  O18  1  0.568835  0.250000  0.352917  1
  O  O19  1  0.068835  0.750000  0.147083  1
  O  O20  1  0.125694  0.433582  0.285493  1
  O  O21  1  0.625694  0.566418  0.214507  1
  O  O22  1  0.874306  0.933582  0.714507  1
  O  O23  1  0.374306  0.066418  0.785493  1
  O  O24  1  0.774185  0.957187  0.977642  1
  O  O25  1  0.274185  0.042813  0.522358  1
  O  O26  1  0.225815  0.457187  0.022358  1
  O  O27  1  0.725815  0.542813  0.477642  1
  O  O28  1  0.225815  0.042813  0.022358  1
  O  O29  1  0.725815  0.957187  0.477642  1
  O  O30  1  0.774185  0.542813  0.977642  1
  O  O31  1  0.274185  0.457187  0.522358  1
  O  O32  1  0.625694  0.933582  0.214507  1
  O  O33  1  0.125694  0.066418  0.285493  1
  O  O34  1  0.374306  0.433582  0.785493  1
  O  O35  1  0.874306  0.566418  0.714507  1
