# generated using pymatgen
data_Tb2Pr2Sm2CoCl10
_symmetry_space_group_name_H-M   'P 1'
_cell_length_a   7.17417724
_cell_length_b   9.08995555
_cell_length_c   8.92684400
_cell_angle_alpha   108.23760190
_cell_angle_beta   95.18298152
_cell_angle_gamma   106.16240657
_symmetry_Int_Tables_number   1
_chemical_formula_structural   Tb2Pr2Sm2CoCl10
_chemical_formula_sum   'Tb2 Pr2 Sm2 Co1 Cl10'
_cell_volume   520.90575362
_cell_formula_units_Z   1
loop_
 _symmetry_equiv_pos_site_id
 _symmetry_equiv_pos_as_xyz
  1  'x, y, z'
loop_
 _atom_site_type_symbol
 _atom_site_label
 _atom_site_symmetry_multiplicity
 _atom_site_fract_x
 _atom_site_fract_y
 _atom_site_fract_z
 _atom_site_occupancy
  Tb  Tb0  1  0.366228  0.138174  0.181247  1
  Tb  Tb1  1  0.633772  0.861826  0.818753  1
  Pr  Pr2  1  0.131187  0.048806  0.753486  1
  Pr  Pr3  1  0.868813  0.951194  0.246514  1
  Sm  Sm4  1  0.974321  0.308012  0.101928  1
  Sm  Sm5  1  0.025679  0.691988  0.898072  1
  Co  Co6  1  0.000000  0.000000  0.000000  1
  Cl  Cl7  1  0.551010  0.170848  0.920825  1
  Cl  Cl8  1  0.448990  0.829152  0.079175  1
  Cl  Cl9  1  0.354994  0.443832  0.268693  1
  Cl  Cl10  1  0.645006  0.556168  0.731307  1
  Cl  Cl11  1  0.257198  0.085097  0.447424  1
  Cl  Cl12  1  0.742802  0.914903  0.552576  1
  Cl  Cl13  1  0.777388  0.256000  0.344516  1
  Cl  Cl14  1  0.222612  0.744000  0.655484  1
  Cl  Cl15  1  0.087664  0.370752  0.832177  1
  Cl  Cl16  1  0.912336  0.629248  0.167823  1
