# generated using pymatgen
data_Nd12Th4Cd4Ir3Rh
_symmetry_space_group_name_H-M   'P 1'
_cell_length_a   9.98426574
_cell_length_b   9.98426618
_cell_length_c   9.98426650
_cell_angle_alpha   60.11463917
_cell_angle_beta   60.11463768
_cell_angle_gamma   60.11464022
_symmetry_Int_Tables_number   1
_chemical_formula_structural   Nd12Th4Cd4Ir3Rh
_chemical_formula_sum   'Nd12 Th4 Cd4 Ir3 Rh1'
_cell_volume   705.60226476
_cell_formula_units_Z   1
loop_
 _symmetry_equiv_pos_site_id
 _symmetry_equiv_pos_as_xyz
  1  'x, y, z'
loop_
 _atom_site_type_symbol
 _atom_site_label
 _atom_site_symmetry_multiplicity
 _atom_site_fract_x
 _atom_site_fract_y
 _atom_site_fract_z
 _atom_site_occupancy
  Nd  Nd0  1  0.808452  0.191491  0.191491  1
  Nd  Nd1  1  0.190212  0.809624  0.809624  1
  Nd  Nd2  1  0.191491  0.808452  0.191491  1
  Nd  Nd3  1  0.809624  0.190212  0.809624  1
  Nd  Nd4  1  0.191491  0.191491  0.808452  1
  Nd  Nd5  1  0.809624  0.809624  0.190212  1
  Nd  Nd6  1  0.939695  0.562356  0.562356  1
  Nd  Nd7  1  0.561776  0.937482  0.937482  1
  Nd  Nd8  1  0.562356  0.939695  0.562356  1
  Nd  Nd9  1  0.937482  0.561776  0.937482  1
  Nd  Nd10  1  0.562356  0.562356  0.939695  1
  Nd  Nd11  1  0.937482  0.937482  0.561776  1
  Th  Th12  1  0.345865  0.345865  0.345865  1
  Th  Th13  1  0.346817  0.346817  0.958725  1
  Th  Th14  1  0.346817  0.958725  0.346817  1
  Th  Th15  1  0.958725  0.346817  0.346817  1
  Cd  Cd16  1  0.579927  0.579927  0.579927  1
  Cd  Cd17  1  0.580461  0.580461  0.259154  1
  Cd  Cd18  1  0.580461  0.259154  0.580461  1
  Cd  Cd19  1  0.259154  0.580461  0.580461  1
  Ir  Ir20  1  0.145272  0.145272  0.563015  1
  Ir  Ir21  1  0.145272  0.563015  0.145272  1
  Ir  Ir22  1  0.563015  0.145272  0.145272  1
  Rh  Rh23  1  0.146169  0.146169  0.146169  1
