# generated using pymatgen
data_Ca5Sm(Si3Ru)8
_symmetry_space_group_name_H-M   'P 1'
_cell_length_a   10.19426906
_cell_length_b   10.19426882
_cell_length_c   8.18661955
_cell_angle_alpha   90.00362629
_cell_angle_beta   90.00362090
_cell_angle_gamma   132.63677604
_symmetry_Int_Tables_number   1
_chemical_formula_structural   Ca5Sm(Si3Ru)8
_chemical_formula_sum   'Ca5 Sm1 Si24 Ru8'
_cell_volume   625.88620533
_cell_formula_units_Z   1
loop_
 _symmetry_equiv_pos_site_id
 _symmetry_equiv_pos_as_xyz
  1  'x, y, z'
loop_
 _atom_site_type_symbol
 _atom_site_label
 _atom_site_symmetry_multiplicity
 _atom_site_fract_x
 _atom_site_fract_y
 _atom_site_fract_z
 _atom_site_occupancy
  Ca  Ca0  1  0.498200  0.998299  0.250136  1
  Ca  Ca1  1  0.001701  0.501800  0.749864  1
  Ca  Ca2  1  0.501800  0.001701  0.749864  1
  Ca  Ca3  1  0.998299  0.498200  0.250136  1
  Ca  Ca4  1  0.500000  0.500000  0.500000  1
  Sm  Sm5  1  0.000000  0.000000  0.000000  1
  Si  Si6  1  0.390029  0.155681  0.006417  1
  Si  Si7  1  0.653692  0.886498  0.492888  1
  Si  Si8  1  0.113502  0.346308  0.507112  1
  Si  Si9  1  0.844319  0.609971  0.993583  1
  Si  Si10  1  0.609971  0.844319  0.993583  1
  Si  Si11  1  0.346308  0.113502  0.507112  1
  Si  Si12  1  0.886498  0.653692  0.492888  1
  Si  Si13  1  0.155681  0.390029  0.006417  1
  Si  Si14  1  0.608907  0.376171  0.229632  1
  Si  Si15  1  0.875714  0.109490  0.272245  1
  Si  Si16  1  0.890510  0.124286  0.727755  1
  Si  Si17  1  0.623829  0.391093  0.770368  1
  Si  Si18  1  0.391093  0.623829  0.770368  1
  Si  Si19  1  0.124286  0.890510  0.727755  1
  Si  Si20  1  0.706306  0.293694  0.000000  1
  Si  Si21  1  0.793892  0.206108  0.500000  1
  Si  Si22  1  0.293694  0.706306  0.000000  1
  Si  Si23  1  0.206108  0.793892  0.500000  1
  Si  Si24  1  0.167697  0.167697  0.334689  1
  Si  Si25  1  0.664461  0.664461  0.168665  1
  Si  Si26  1  0.335539  0.335539  0.831335  1
  Si  Si27  1  0.832303  0.832303  0.665311  1
  Si  Si28  1  0.376171  0.608907  0.229632  1
  Si  Si29  1  0.109490  0.875714  0.272245  1
  Ru  Ru30  1  0.627501  0.627501  0.875839  1
  Ru  Ru31  1  0.125508  0.125508  0.626311  1
  Ru  Ru32  1  0.874492  0.874492  0.373689  1
  Ru  Ru33  1  0.372499  0.372499  0.124161  1
  Ru  Ru34  1  0.331209  0.668791  0.500000  1
  Ru  Ru35  1  0.168293  0.831707  0.000000  1
  Ru  Ru36  1  0.668791  0.331209  0.500000  1
  Ru  Ru37  1  0.831707  0.168293  0.000000  1
