# generated using pymatgen
data_Er9Tm11Pb16
_symmetry_space_group_name_H-M   'P 1'
_cell_length_a   8.13448505
_cell_length_b   8.20049605
_cell_length_c   15.48651901
_cell_angle_alpha   90.00393525
_cell_angle_beta   90.00026681
_cell_angle_gamma   90.01230452
_symmetry_Int_Tables_number   1
_chemical_formula_structural   Er9Tm11Pb16
_chemical_formula_sum   'Er9 Tm11 Pb16'
_cell_volume   1033.05629376
_cell_formula_units_Z   1
loop_
 _symmetry_equiv_pos_site_id
 _symmetry_equiv_pos_as_xyz
  1  'x, y, z'
loop_
 _atom_site_type_symbol
 _atom_site_label
 _atom_site_symmetry_multiplicity
 _atom_site_fract_x
 _atom_site_fract_y
 _atom_site_fract_z
 _atom_site_occupancy
  Er  Er0  1  0.877602  0.659654  0.879435  1
  Er  Er1  1  0.535012  0.322976  0.899981  1
  Er  Er2  1  0.035079  0.176983  0.599965  1
  Er  Er3  1  0.464916  0.676990  0.400060  1
  Er  Er4  1  0.964960  0.823047  0.100055  1
  Er  Er5  1  0.464952  0.676946  0.099978  1
  Er  Er6  1  0.964919  0.823022  0.400059  1
  Er  Er7  1  0.535068  0.322995  0.599978  1
  Er  Er8  1  0.035051  0.176930  0.899976  1
  Tm  Tm9  1  0.377571  0.840331  0.879396  1
  Tm  Tm10  1  0.877576  0.659632  0.620569  1
  Tm  Tm11  1  0.622440  0.159633  0.379417  1
  Tm  Tm12  1  0.122414  0.340385  0.120566  1
  Tm  Tm13  1  0.622422  0.159658  0.120613  1
  Tm  Tm14  1  0.122429  0.340340  0.379410  1
  Tm  Tm15  1  0.377611  0.840362  0.620576  1
  Tm  Tm16  1  0.208532  0.504014  0.749954  1
  Tm  Tm17  1  0.708393  0.996049  0.749951  1
  Tm  Tm18  1  0.791546  0.495926  0.250008  1
  Tm  Tm19  1  0.291547  0.004042  0.249994  1
  Pb  Pb20  1  0.280838  0.032428  0.042379  1
  Pb  Pb21  1  0.780854  0.467588  0.457642  1
  Pb  Pb22  1  0.719150  0.967564  0.542357  1
  Pb  Pb23  1  0.219357  0.532368  0.957682  1
  Pb  Pb24  1  0.719020  0.967826  0.957684  1
  Pb  Pb25  1  0.219152  0.532426  0.542358  1
  Pb  Pb26  1  0.280859  0.032451  0.457626  1
  Pb  Pb27  1  0.780783  0.467413  0.042513  1
  Pb  Pb28  1  0.571527  0.627504  0.749938  1
  Pb  Pb29  1  0.071760  0.872631  0.749923  1
  Pb  Pb30  1  0.428352  0.372487  0.250003  1
  Pb  Pb31  1  0.928385  0.127516  0.250010  1
  Pb  Pb32  1  0.346646  0.152398  0.749996  1
  Pb  Pb33  1  0.846623  0.347482  0.749950  1
  Pb  Pb34  1  0.653308  0.847588  0.249995  1
  Pb  Pb35  1  0.153349  0.652417  0.250001  1
