# generated using pymatgen
data_Y3Tm2Ni19
_symmetry_space_group_name_H-M   'P 1'
_cell_length_a   4.89422472
_cell_length_b   4.89422459
_cell_length_c   16.25470830
_cell_angle_alpha   81.34130724
_cell_angle_beta   81.34130872
_cell_angle_gamma   59.99999176
_symmetry_Int_Tables_number   1
_chemical_formula_structural   Y3Tm2Ni19
_chemical_formula_sum   'Y3 Tm2 Ni19'
_cell_volume   332.05824462
_cell_formula_units_Z   1
loop_
 _symmetry_equiv_pos_site_id
 _symmetry_equiv_pos_as_xyz
  1  'x, y, z'
loop_
 _atom_site_type_symbol
 _atom_site_label
 _atom_site_symmetry_multiplicity
 _atom_site_fract_x
 _atom_site_fract_y
 _atom_site_fract_z
 _atom_site_occupancy
  Y  Y0  1  0.000000  0.000000  0.000000  1
  Y  Y1  1  0.921267  0.921267  0.236201  1
  Y  Y2  1  0.078733  0.078733  0.763799  1
  Tm  Tm3  1  0.847828  0.847828  0.456518  1
  Tm  Tm4  1  0.152172  0.152172  0.543482  1
  Ni  Ni5  1  0.500000  0.500000  0.500000  1
  Ni  Ni6  1  0.749678  0.749679  0.750965  1
  Ni  Ni7  1  0.250321  0.250321  0.249036  1
  Ni  Ni8  1  0.666757  0.666757  0.999730  1
  Ni  Ni9  1  0.333243  0.333243  0.000270  1
  Ni  Ni10  1  0.583811  0.583811  0.248567  1
  Ni  Ni11  1  0.416189  0.416189  0.751433  1
  Ni  Ni12  1  0.375037  0.375037  0.372718  1
  Ni  Ni13  1  0.877207  0.375037  0.372718  1
  Ni  Ni14  1  0.375037  0.877207  0.372718  1
  Ni  Ni15  1  0.624963  0.624963  0.627282  1
  Ni  Ni16  1  0.122793  0.624963  0.627282  1
  Ni  Ni17  1  0.624963  0.122793  0.627282  1
  Ni  Ni18  1  0.458915  0.458915  0.123318  1
  Ni  Ni19  1  0.958851  0.458915  0.123318  1
  Ni  Ni20  1  0.458915  0.958851  0.123318  1
  Ni  Ni21  1  0.541085  0.541085  0.876682  1
  Ni  Ni22  1  0.041149  0.541085  0.876682  1
  Ni  Ni23  1  0.541085  0.041149  0.876682  1
