# generated using pymatgen
data_La23Tl4Ir7
_symmetry_space_group_name_H-M   'P 1'
_cell_length_a   10.23051800
_cell_length_b   10.23051895
_cell_length_c   23.12602400
_cell_angle_alpha   90.00000000
_cell_angle_beta   90.00000000
_cell_angle_gamma   120.00000340
_symmetry_Int_Tables_number   1
_chemical_formula_structural   La23Tl4Ir7
_chemical_formula_sum   'La46 Tl8 Ir14'
_cell_volume   2096.17181291
_cell_formula_units_Z   2
loop_
 _symmetry_equiv_pos_site_id
 _symmetry_equiv_pos_as_xyz
  1  'x, y, z'
loop_
 _atom_site_type_symbol
 _atom_site_label
 _atom_site_symmetry_multiplicity
 _atom_site_fract_x
 _atom_site_fract_y
 _atom_site_fract_z
 _atom_site_occupancy
  La  La0  1  0.205872  0.411704  0.719278  1
  La  La1  1  0.205876  0.794166  0.719280  1
  La  La2  1  0.794128  0.588296  0.219278  1
  La  La3  1  0.588296  0.794154  0.719252  1
  La  La4  1  0.794124  0.205834  0.219280  1
  La  La5  1  0.411704  0.205846  0.219252  1
  La  La6  1  0.793657  0.587275  0.947297  1
  La  La7  1  0.793652  0.206388  0.947298  1
  La  La8  1  0.206343  0.412725  0.447297  1
  La  La9  1  0.412721  0.206358  0.947265  1
  La  La10  1  0.206348  0.793612  0.447298  1
  La  La11  1  0.587279  0.793642  0.447265  1
  La  La12  1  0.209037  0.418160  0.990197  1
  La  La13  1  0.209037  0.790867  0.990196  1
  La  La14  1  0.790963  0.581840  0.490197  1
  La  La15  1  0.581907  0.790940  0.990208  1
  La  La16  1  0.790963  0.209133  0.490196  1
  La  La17  1  0.418093  0.209060  0.490208  1
  La  La18  1  0.871271  0.742515  0.633724  1
  La  La19  1  0.871284  0.128755  0.633728  1
  La  La20  1  0.128729  0.257485  0.133724  1
  La  La21  1  0.257515  0.128765  0.633713  1
  La  La22  1  0.128716  0.871245  0.133728  1
  La  La23  1  0.742485  0.871235  0.133713  1
  La  La24  1  0.461475  0.922878  0.855204  1
  La  La25  1  0.461477  0.538596  0.855205  1
  La  La26  1  0.538525  0.077122  0.355204  1
  La  La27  1  0.077026  0.538511  0.855202  1
  La  La28  1  0.538523  0.461404  0.355205  1
  La  La29  1  0.922974  0.461489  0.355202  1
  La  La30  1  0.999892  0.999944  0.998933  1
  La  La31  1  0.000108  0.000056  0.498933  1
  La  La32  1  0.459394  0.918895  0.585771  1
  La  La33  1  0.459396  0.540493  0.585767  1
  La  La34  1  0.540606  0.081105  0.085771  1
  La  La35  1  0.081137  0.540563  0.585771  1
  La  La36  1  0.540604  0.459507  0.085767  1
  La  La37  1  0.918863  0.459437  0.085771  1
  La  La38  1  0.796491  0.592954  0.782022  1
  La  La39  1  0.796488  0.203533  0.782024  1
  La  La40  1  0.203509  0.407046  0.282022  1
  La  La41  1  0.407077  0.203538  0.781997  1
  La  La42  1  0.203512  0.796467  0.282024  1
  La  La43  1  0.592923  0.796462  0.281997  1
  La  La44  1  0.666541  0.333276  0.649308  1
  La  La45  1  0.333459  0.666724  0.149308  1
  Tl  Tl46  1  0.000004  0.999999  0.745175  1
  Tl  Tl47  1  0.999996  0.000001  0.245175  1
  Tl  Tl48  1  0.110457  0.220911  0.864288  1
  Tl  Tl49  1  0.110452  0.889544  0.864287  1
  Tl  Tl50  1  0.889543  0.779089  0.364288  1
  Tl  Tl51  1  0.779067  0.889531  0.864299  1
  Tl  Tl52  1  0.889548  0.110456  0.364287  1
  Tl  Tl53  1  0.220933  0.110469  0.364299  1
  Ir  Ir54  1  0.519787  0.039568  0.711267  1
  Ir  Ir55  1  0.519789  0.480217  0.711267  1
  Ir  Ir56  1  0.480213  0.960432  0.211267  1
  Ir  Ir57  1  0.960432  0.480216  0.711270  1
  Ir  Ir58  1  0.480211  0.519783  0.211267  1
  Ir  Ir59  1  0.039568  0.519784  0.211270  1
  Ir  Ir60  1  0.666671  0.333336  0.865878  1
  Ir  Ir61  1  0.333329  0.666664  0.365878  1
  Ir  Ir62  1  0.144008  0.288026  0.563447  1
  Ir  Ir63  1  0.144006  0.855981  0.563447  1
  Ir  Ir64  1  0.855992  0.711974  0.063447  1
  Ir  Ir65  1  0.711989  0.855993  0.563454  1
  Ir  Ir66  1  0.855994  0.144019  0.063447  1
  Ir  Ir67  1  0.288011  0.144007  0.063454  1
