# generated using pymatgen
data_Er12Cu3Si8Ni
_symmetry_space_group_name_H-M   'P 1'
_cell_length_a   4.12455700
_cell_length_b   11.20966543
_cell_length_c   11.16913913
_cell_angle_alpha   89.92546180
_cell_angle_beta   90.00000000
_cell_angle_gamma   90.00000000
_symmetry_Int_Tables_number   1
_chemical_formula_structural   Er12Cu3Si8Ni
_chemical_formula_sum   'Er12 Cu3 Si8 Ni1'
_cell_volume   516.40363834
_cell_formula_units_Z   1
loop_
 _symmetry_equiv_pos_site_id
 _symmetry_equiv_pos_as_xyz
  1  'x, y, z'
loop_
 _atom_site_type_symbol
 _atom_site_label
 _atom_site_symmetry_multiplicity
 _atom_site_fract_x
 _atom_site_fract_y
 _atom_site_fract_z
 _atom_site_occupancy
  Er  Er0  1  0.250000  0.059399  0.876723  1
  Er  Er1  1  0.250000  0.436934  0.377497  1
  Er  Er2  1  0.750000  0.936629  0.118279  1
  Er  Er3  1  0.750000  0.561009  0.621078  1
  Er  Er4  1  0.250000  0.120547  0.558114  1
  Er  Er5  1  0.250000  0.380077  0.058777  1
  Er  Er6  1  0.750000  0.877967  0.440900  1
  Er  Er7  1  0.750000  0.626824  0.940485  1
  Er  Er8  1  0.250000  0.804595  0.713688  1
  Er  Er9  1  0.250000  0.697401  0.209559  1
  Er  Er10  1  0.750000  0.195691  0.290226  1
  Er  Er11  1  0.750000  0.303735  0.791483  1
  Cu  Cu12  1  0.250000  0.362776  0.631778  1
  Cu  Cu13  1  0.250000  0.135139  0.129713  1
  Cu  Cu14  1  0.750000  0.635624  0.369297  1
  Si  Si15  1  0.250000  0.815637  0.975129  1
  Si  Si16  1  0.250000  0.685344  0.477283  1
  Si  Si17  1  0.750000  0.187646  0.023882  1
  Si  Si18  1  0.750000  0.312910  0.523520  1
  Si  Si19  1  0.250000  0.496479  0.807206  1
  Si  Si20  1  0.250000  0.003668  0.306198  1
  Si  Si21  1  0.750000  0.505143  0.193717  1
  Si  Si22  1  0.750000  0.992451  0.694103  1
  Ni  Ni23  1  0.750000  0.866374  0.871368  1
