# generated using pymatgen
data_Lu2AlB2Ir5
_symmetry_space_group_name_H-M   'P 1'
_cell_length_a   9.51428300
_cell_length_b   9.51428300
_cell_length_c   3.11745800
_cell_angle_alpha   90.00000000
_cell_angle_beta   90.00000000
_cell_angle_gamma   90.00000000
_symmetry_Int_Tables_number   1
_chemical_formula_structural   Lu2AlB2Ir5
_chemical_formula_sum   'Lu4 Al2 B4 Ir10'
_cell_volume   282.19722687
_cell_formula_units_Z   2
loop_
 _symmetry_equiv_pos_site_id
 _symmetry_equiv_pos_as_xyz
  1  'x, y, z'
loop_
 _atom_site_type_symbol
 _atom_site_label
 _atom_site_symmetry_multiplicity
 _atom_site_fract_x
 _atom_site_fract_y
 _atom_site_fract_z
 _atom_site_occupancy
  Lu  Lu0  1  0.676125  0.176125  0.000000  1
  Lu  Lu1  1  0.323875  0.823875  0.000000  1
  Lu  Lu2  1  0.176125  0.323875  0.000000  1
  Lu  Lu3  1  0.823875  0.676125  0.000000  1
  Al  Al4  1  0.000000  0.000000  0.000000  1
  Al  Al5  1  0.500000  0.500000  0.000000  1
  B  B6  1  0.122862  0.622862  0.000000  1
  B  B7  1  0.877138  0.377138  0.000000  1
  B  B8  1  0.622862  0.877138  0.000000  1
  B  B9  1  0.377138  0.122862  0.000000  1
  Ir  Ir10  1  0.217246  0.069119  0.500000  1
  Ir  Ir11  1  0.782754  0.930881  0.500000  1
  Ir  Ir12  1  0.069119  0.782754  0.500000  1
  Ir  Ir13  1  0.717246  0.430881  0.500000  1
  Ir  Ir14  1  0.930881  0.217246  0.500000  1
  Ir  Ir15  1  0.282754  0.569119  0.500000  1
  Ir  Ir16  1  0.569119  0.717246  0.500000  1
  Ir  Ir17  1  0.430881  0.282754  0.500000  1
  Ir  Ir18  1  0.500000  0.000000  0.500000  1
  Ir  Ir19  1  0.000000  0.500000  0.500000  1
