# generated using pymatgen
data_Ca3C3BrCl
_symmetry_space_group_name_H-M   'P 1'
_cell_length_a   7.15687402
_cell_length_b   7.15687473
_cell_length_c   11.59636800
_cell_angle_alpha   90.00000000
_cell_angle_beta   90.00000000
_cell_angle_gamma   148.30110186
_symmetry_Int_Tables_number   1
_chemical_formula_structural   Ca3C3BrCl
_chemical_formula_sum   'Ca6 C6 Br2 Cl2'
_cell_volume   312.10774413
_cell_formula_units_Z   2
loop_
 _symmetry_equiv_pos_site_id
 _symmetry_equiv_pos_as_xyz
  1  'x, y, z'
loop_
 _atom_site_type_symbol
 _atom_site_label
 _atom_site_symmetry_multiplicity
 _atom_site_fract_x
 _atom_site_fract_y
 _atom_site_fract_z
 _atom_site_occupancy
  Ca  Ca0  1  0.661671  0.338329  0.564721  1
  Ca  Ca1  1  0.338329  0.661671  0.435279  1
  Ca  Ca2  1  0.338329  0.661671  0.064721  1
  Ca  Ca3  1  0.661671  0.338329  0.935279  1
  Ca  Ca4  1  0.118791  0.881209  0.250000  1
  Ca  Ca5  1  0.881209  0.118791  0.750000  1
  C  C6  1  0.269571  0.730429  0.635241  1
  C  C7  1  0.730429  0.269571  0.364759  1
  C  C8  1  0.730429  0.269571  0.135241  1
  C  C9  1  0.269571  0.730429  0.864759  1
  C  C10  1  0.738634  0.261366  0.250000  1
  C  C11  1  0.261366  0.738634  0.750000  1
  Br  Br12  1  0.000000  0.000000  0.000000  1
  Br  Br13  1  0.000000  0.000000  0.500000  1
  Cl  Cl14  1  0.530312  0.469688  0.750000  1
  Cl  Cl15  1  0.469688  0.530312  0.250000  1
