# generated using pymatgen
data_Y12HoErRh6
_symmetry_space_group_name_H-M   'P 1'
_cell_length_a   9.83233600
_cell_length_b   9.83233621
_cell_length_c   6.22833000
_cell_angle_alpha   90.00000000
_cell_angle_beta   90.00000000
_cell_angle_gamma   119.99999928
_symmetry_Int_Tables_number   1
_chemical_formula_structural   Y12HoErRh6
_chemical_formula_sum   'Y12 Ho1 Er1 Rh6'
_cell_volume   521.45361404
_cell_formula_units_Z   1
loop_
 _symmetry_equiv_pos_site_id
 _symmetry_equiv_pos_as_xyz
  1  'x, y, z'
loop_
 _atom_site_type_symbol
 _atom_site_label
 _atom_site_symmetry_multiplicity
 _atom_site_fract_x
 _atom_site_fract_y
 _atom_site_fract_z
 _atom_site_occupancy
  Y  Y0  1  0.752176  0.876088  0.990782  1
  Y  Y1  1  0.876132  0.123868  0.490825  1
  Y  Y2  1  0.540797  0.459203  0.797642  1
  Y  Y3  1  0.081738  0.540869  0.297666  1
  Y  Y4  1  0.459131  0.918262  0.297666  1
  Y  Y5  1  0.540797  0.081595  0.797642  1
  Y  Y6  1  0.918405  0.459203  0.797642  1
  Y  Y7  1  0.459131  0.540869  0.297666  1
  Y  Y8  1  0.123912  0.247824  0.990782  1
  Y  Y9  1  0.876132  0.752265  0.490825  1
  Y  Y10  1  0.247735  0.123868  0.490825  1
  Y  Y11  1  0.123912  0.876088  0.990782  1
  Ho  Ho12  1  0.666667  0.333333  0.283284  1
  Er  Er13  1  0.333333  0.666667  0.782931  1
  Rh  Rh14  1  0.190569  0.809431  0.564588  1
  Rh  Rh15  1  0.380940  0.190470  0.064424  1
  Rh  Rh16  1  0.809530  0.619060  0.064424  1
  Rh  Rh17  1  0.190569  0.381139  0.564588  1
  Rh  Rh18  1  0.618861  0.809431  0.564588  1
  Rh  Rh19  1  0.809530  0.190470  0.064424  1
