# generated using pymatgen
data_Lu2Re3Si4
_symmetry_space_group_name_H-M   'P 1'
_cell_length_a   6.73548300
_cell_length_b   6.73548300
_cell_length_c   12.61998800
_cell_angle_alpha   90.00000000
_cell_angle_beta   90.00000000
_cell_angle_gamma   90.00000000
_symmetry_Int_Tables_number   1
_chemical_formula_structural   Lu2Re3Si4
_chemical_formula_sum   'Lu8 Re12 Si16'
_cell_volume   572.52760389
_cell_formula_units_Z   4
loop_
 _symmetry_equiv_pos_site_id
 _symmetry_equiv_pos_as_xyz
  1  'x, y, z'
loop_
 _atom_site_type_symbol
 _atom_site_label
 _atom_site_symmetry_multiplicity
 _atom_site_fract_x
 _atom_site_fract_y
 _atom_site_fract_z
 _atom_site_occupancy
  Lu  Lu0  1  0.006983  0.659693  0.030887  1
  Lu  Lu1  1  0.993017  0.340307  0.530887  1
  Lu  Lu2  1  0.340307  0.993017  0.469113  1
  Lu  Lu3  1  0.159693  0.493017  0.780887  1
  Lu  Lu4  1  0.840307  0.506983  0.280887  1
  Lu  Lu5  1  0.493017  0.159693  0.219113  1
  Lu  Lu6  1  0.506983  0.840307  0.719113  1
  Lu  Lu7  1  0.659693  0.006983  0.969113  1
  Re  Re8  1  0.666764  0.666764  0.500000  1
  Re  Re9  1  0.166764  0.833236  0.250000  1
  Re  Re10  1  0.333236  0.333236  0.000000  1
  Re  Re11  1  0.021080  0.814234  0.631425  1
  Re  Re12  1  0.978920  0.185766  0.131425  1
  Re  Re13  1  0.814234  0.021080  0.368575  1
  Re  Re14  1  0.314234  0.478920  0.381425  1
  Re  Re15  1  0.685766  0.521080  0.881425  1
  Re  Re16  1  0.478920  0.314234  0.618575  1
  Re  Re17  1  0.521080  0.685766  0.118575  1
  Re  Re18  1  0.185766  0.978920  0.868575  1
  Re  Re19  1  0.833236  0.166764  0.750000  1
  Si  Si20  1  0.023699  0.724786  0.437817  1
  Si  Si21  1  0.617679  0.305029  0.433029  1
  Si  Si22  1  0.382321  0.694971  0.933029  1
  Si  Si23  1  0.194971  0.117679  0.683029  1
  Si  Si24  1  0.305029  0.617679  0.566971  1
  Si  Si25  1  0.694971  0.382321  0.066971  1
  Si  Si26  1  0.805029  0.882321  0.183029  1
  Si  Si27  1  0.117679  0.194971  0.316971  1
  Si  Si28  1  0.976301  0.275214  0.937817  1
  Si  Si29  1  0.724786  0.023699  0.562183  1
  Si  Si30  1  0.224786  0.476301  0.187817  1
  Si  Si31  1  0.775214  0.523699  0.687817  1
  Si  Si32  1  0.476301  0.224786  0.812183  1
  Si  Si33  1  0.523699  0.775214  0.312183  1
  Si  Si34  1  0.275214  0.976301  0.062183  1
  Si  Si35  1  0.882321  0.805029  0.816971  1
