# generated using pymatgen
data_Al(GaAg3)2
_symmetry_space_group_name_H-M   'P 1'
_cell_length_a   7.91367700
_cell_length_b   7.91367647
_cell_length_c   2.88986000
_cell_angle_alpha   90.00000000
_cell_angle_beta   90.00000000
_cell_angle_gamma   119.99999802
_symmetry_Int_Tables_number   1
_chemical_formula_structural   Al(GaAg3)2
_chemical_formula_sum   'Al1 Ga2 Ag6'
_cell_volume   156.73430266
_cell_formula_units_Z   1
loop_
 _symmetry_equiv_pos_site_id
 _symmetry_equiv_pos_as_xyz
  1  'x, y, z'
loop_
 _atom_site_type_symbol
 _atom_site_label
 _atom_site_symmetry_multiplicity
 _atom_site_fract_x
 _atom_site_fract_y
 _atom_site_fract_z
 _atom_site_occupancy
  Al  Al0  1  0.000000  0.000000  0.500000  1
  Ga  Ga1  1  0.666667  0.333333  0.000000  1
  Ga  Ga2  1  0.333333  0.666667  0.000000  1
  Ag  Ag3  1  0.298671  0.000000  0.000000  1
  Ag  Ag4  1  0.701329  0.701329  0.000000  1
  Ag  Ag5  1  0.000000  0.298671  0.000000  1
  Ag  Ag6  1  0.000000  0.636809  0.500000  1
  Ag  Ag7  1  0.363191  0.363191  0.500000  1
  Ag  Ag8  1  0.636809  0.000000  0.500000  1
