# generated using pymatgen
data_Ba2AcPtO6
_symmetry_space_group_name_H-M   'P 1'
_cell_length_a   6.21173260
_cell_length_b   6.21153314
_cell_length_c   6.21177903
_cell_angle_alpha   59.99379667
_cell_angle_beta   59.99205557
_cell_angle_gamma   89.97883577
_symmetry_Int_Tables_number   1
_chemical_formula_structural   Ba2AcPtO6
_chemical_formula_sum   'Ba2 Ac1 Pt1 O6'
_cell_volume   169.47274622
_cell_formula_units_Z   1
loop_
 _symmetry_equiv_pos_site_id
 _symmetry_equiv_pos_as_xyz
  1  'x, y, z'
loop_
 _atom_site_type_symbol
 _atom_site_label
 _atom_site_symmetry_multiplicity
 _atom_site_fract_x
 _atom_site_fract_y
 _atom_site_fract_z
 _atom_site_occupancy
  Ba  Ba0  1  0.250000  0.749994  0.500007  1
  Ba  Ba1  1  0.750002  0.250003  0.499995  1
  Ac  Ac2  1  0.499998  0.499998  0.000001  1
  Pt  Pt3  1  0.000003  0.000005  0.999999  1
  O  O4  1  0.772201  0.227802  0.000002  1
  O  O5  1  0.227741  0.227743  0.000056  1
  O  O6  1  0.227800  0.772196  0.000000  1
  O  O7  1  0.772258  0.772256  0.999943  1
  O  O8  1  0.772179  0.772178  0.455692  1
  O  O9  1  0.227820  0.227819  0.544310  1
