# generated using pymatgen
data_Hf6Ga6Tc4C
_symmetry_space_group_name_H-M   'P 1'
_cell_length_a   7.77060200
_cell_length_b   7.77060173
_cell_length_c   5.31389000
_cell_angle_alpha   90.00000000
_cell_angle_beta   90.00000000
_cell_angle_gamma   119.99999264
_symmetry_Int_Tables_number   1
_chemical_formula_structural   Hf6Ga6Tc4C
_chemical_formula_sum   'Hf6 Ga6 Tc4 C1'
_cell_volume   277.87696061
_cell_formula_units_Z   1
loop_
 _symmetry_equiv_pos_site_id
 _symmetry_equiv_pos_as_xyz
  1  'x, y, z'
loop_
 _atom_site_type_symbol
 _atom_site_label
 _atom_site_symmetry_multiplicity
 _atom_site_fract_x
 _atom_site_fract_y
 _atom_site_fract_z
 _atom_site_occupancy
  Hf  Hf0  1  0.000000  0.759943  0.252829  1
  Hf  Hf1  1  0.240057  0.240057  0.252829  1
  Hf  Hf2  1  0.759943  0.000000  0.252829  1
  Hf  Hf3  1  0.000000  0.240057  0.747171  1
  Hf  Hf4  1  0.759943  0.759943  0.747171  1
  Hf  Hf5  1  0.240057  0.000000  0.747171  1
  Ga  Ga6  1  0.000000  0.405420  0.244886  1
  Ga  Ga7  1  0.594580  0.594580  0.244886  1
  Ga  Ga8  1  0.405420  0.000000  0.244886  1
  Ga  Ga9  1  0.000000  0.594580  0.755114  1
  Ga  Ga10  1  0.405420  0.405420  0.755114  1
  Ga  Ga11  1  0.594580  0.000000  0.755114  1
  Tc  Tc12  1  0.333333  0.666667  0.000000  1
  Tc  Tc13  1  0.666667  0.333333  0.000000  1
  Tc  Tc14  1  0.666667  0.333333  0.500000  1
  Tc  Tc15  1  0.333333  0.666667  0.500000  1
  C  C16  1  0.000000  0.000000  0.500000  1
