# generated using pymatgen
data_Y4LuBiAu2
_symmetry_space_group_name_H-M   'P 1'
_cell_length_a   8.72620022
_cell_length_b   8.72619970
_cell_length_c   8.72619960
_cell_angle_alpha   124.35869978
_cell_angle_beta   124.35869766
_cell_angle_gamma   82.60296828
_symmetry_Int_Tables_number   1
_chemical_formula_structural   Y4LuBiAu2
_chemical_formula_sum   'Y8 Lu2 Bi2 Au4'
_cell_volume   434.91455218
_cell_formula_units_Z   2
loop_
 _symmetry_equiv_pos_site_id
 _symmetry_equiv_pos_as_xyz
  1  'x, y, z'
loop_
 _atom_site_type_symbol
 _atom_site_label
 _atom_site_symmetry_multiplicity
 _atom_site_fract_x
 _atom_site_fract_y
 _atom_site_fract_z
 _atom_site_occupancy
  Y  Y0  1  0.516039  0.016039  0.811924  1
  Y  Y1  1  0.204114  0.704114  0.188076  1
  Y  Y2  1  0.016039  0.204114  0.500000  1
  Y  Y3  1  0.704114  0.516039  0.500000  1
  Y  Y4  1  0.483961  0.983961  0.188076  1
  Y  Y5  1  0.795886  0.295886  0.811924  1
  Y  Y6  1  0.983961  0.795886  0.500000  1
  Y  Y7  1  0.295886  0.483961  0.500000  1
  Lu  Lu8  1  0.500000  0.500000  0.000000  1
  Lu  Lu9  1  0.000000  0.000000  0.000000  1
  Bi  Bi10  1  0.250000  0.250000  0.000000  1
  Bi  Bi11  1  0.750000  0.750000  0.000000  1
  Au  Au12  1  0.137815  0.637815  0.775630  1
  Au  Au13  1  0.862185  0.362185  0.224370  1
  Au  Au14  1  0.637815  0.862185  0.500000  1
  Au  Au15  1  0.362185  0.137815  0.500000  1
