# generated using pymatgen
data_Y2Np3O10
_symmetry_space_group_name_H-M   'P 1'
_cell_length_a   6.57946221
_cell_length_b   6.57946088
_cell_length_c   8.44829000
_cell_angle_alpha   49.82001316
_cell_angle_beta   49.82002389
_cell_angle_gamma   48.10511396
_symmetry_Int_Tables_number   1
_chemical_formula_structural   Y2Np3O10
_chemical_formula_sum   'Y2 Np3 O10'
_cell_volume   192.65173066
_cell_formula_units_Z   1
loop_
 _symmetry_equiv_pos_site_id
 _symmetry_equiv_pos_as_xyz
  1  'x, y, z'
loop_
 _atom_site_type_symbol
 _atom_site_label
 _atom_site_symmetry_multiplicity
 _atom_site_fract_x
 _atom_site_fract_y
 _atom_site_fract_z
 _atom_site_occupancy
  Y  Y0  1  0.301599  0.301599  0.097388  1
  Y  Y1  1  0.698401  0.698401  0.902612  1
  Np  Np2  1  0.098487  0.098487  0.701733  1
  Np  Np3  1  0.500000  0.500000  0.500000  1
  Np  Np4  1  0.901513  0.901513  0.298267  1
  O  O5  1  0.658727  0.157856  0.786260  1
  O  O6  1  0.157856  0.658727  0.786260  1
  O  O7  1  0.457062  0.945268  0.404116  1
  O  O8  1  0.945268  0.457062  0.404116  1
  O  O9  1  0.842144  0.341273  0.213740  1
  O  O10  1  0.237610  0.762390  0.000000  1
  O  O11  1  0.341273  0.842144  0.213740  1
  O  O12  1  0.762390  0.237610  0.000000  1
  O  O13  1  0.054732  0.542938  0.595884  1
  O  O14  1  0.542938  0.054732  0.595884  1
