# generated using pymatgen
data_Tb3Er2Bi2Ir
_symmetry_space_group_name_H-M   'P 1'
_cell_length_a   7.98076300
_cell_length_b   9.02386500
_cell_length_c   12.49334100
_cell_angle_alpha   90.00000000
_cell_angle_beta   90.00000000
_cell_angle_gamma   90.00000000
_symmetry_Int_Tables_number   1
_chemical_formula_structural   Tb3Er2Bi2Ir
_chemical_formula_sum   'Tb12 Er8 Bi8 Ir4'
_cell_volume   899.73703548
_cell_formula_units_Z   4
loop_
 _symmetry_equiv_pos_site_id
 _symmetry_equiv_pos_as_xyz
  1  'x, y, z'
loop_
 _atom_site_type_symbol
 _atom_site_label
 _atom_site_symmetry_multiplicity
 _atom_site_fract_x
 _atom_site_fract_y
 _atom_site_fract_z
 _atom_site_occupancy
  Tb  Tb0  1  0.844091  0.750000  0.791868  1
  Tb  Tb1  1  0.155909  0.250000  0.208132  1
  Tb  Tb2  1  0.344091  0.250000  0.708132  1
  Tb  Tb3  1  0.655909  0.750000  0.291868  1
  Tb  Tb4  1  0.373693  0.750000  0.693530  1
  Tb  Tb5  1  0.626307  0.250000  0.306470  1
  Tb  Tb6  1  0.873693  0.250000  0.806470  1
  Tb  Tb7  1  0.126307  0.750000  0.193530  1
  Tb  Tb8  1  0.945609  0.750000  0.501187  1
  Tb  Tb9  1  0.054391  0.250000  0.498813  1
  Tb  Tb10  1  0.445609  0.250000  0.998813  1
  Tb  Tb11  1  0.554391  0.750000  0.001187  1
  Er  Er12  1  0.674121  0.040402  0.566216  1
  Er  Er13  1  0.325879  0.959598  0.433784  1
  Er  Er14  1  0.174121  0.959598  0.933784  1
  Er  Er15  1  0.325879  0.540402  0.433784  1
  Er  Er16  1  0.825879  0.040402  0.066216  1
  Er  Er17  1  0.674121  0.459598  0.566216  1
  Er  Er18  1  0.825879  0.459598  0.066216  1
  Er  Er19  1  0.174121  0.540402  0.933784  1
  Bi  Bi20  1  0.568551  0.492318  0.827681  1
  Bi  Bi21  1  0.431449  0.507682  0.172319  1
  Bi  Bi22  1  0.068551  0.507682  0.672319  1
  Bi  Bi23  1  0.431449  0.992318  0.172319  1
  Bi  Bi24  1  0.931449  0.492318  0.327681  1
  Bi  Bi25  1  0.568551  0.007682  0.827681  1
  Bi  Bi26  1  0.931449  0.007682  0.327681  1
  Bi  Bi27  1  0.068551  0.992318  0.672319  1
  Ir  Ir28  1  0.568592  0.750000  0.509078  1
  Ir  Ir29  1  0.431408  0.250000  0.490922  1
  Ir  Ir30  1  0.068592  0.250000  0.990922  1
  Ir  Ir31  1  0.931408  0.750000  0.009078  1
