# generated using pymatgen
data_MgAlTlF6
_symmetry_space_group_name_H-M   'P 1'
_cell_length_a   6.95899500
_cell_length_b   7.01315800
_cell_length_c   9.90893300
_cell_angle_alpha   90.00000000
_cell_angle_beta   90.00000000
_cell_angle_gamma   90.00000000
_symmetry_Int_Tables_number   1
_chemical_formula_structural   MgAlTlF6
_chemical_formula_sum   'Mg4 Al4 Tl4 F24'
_cell_volume   483.60083230
_cell_formula_units_Z   4
loop_
 _symmetry_equiv_pos_site_id
 _symmetry_equiv_pos_as_xyz
  1  'x, y, z'
loop_
 _atom_site_type_symbol
 _atom_site_label
 _atom_site_symmetry_multiplicity
 _atom_site_fract_x
 _atom_site_fract_y
 _atom_site_fract_z
 _atom_site_occupancy
  Mg  Mg0  1  0.250000  0.717143  0.762313  1
  Mg  Mg1  1  0.750000  0.282857  0.237687  1
  Mg  Mg2  1  0.750000  0.782857  0.262313  1
  Mg  Mg3  1  0.250000  0.217143  0.737687  1
  Al  Al4  1  0.000000  0.500000  0.500000  1
  Al  Al5  1  0.000000  0.000000  0.000000  1
  Al  Al6  1  0.500000  0.500000  0.500000  1
  Al  Al7  1  0.500000  0.000000  0.000000  1
  Tl  Tl8  1  0.250000  0.509785  0.115076  1
  Tl  Tl9  1  0.750000  0.490215  0.884924  1
  Tl  Tl10  1  0.750000  0.990215  0.615076  1
  Tl  Tl11  1  0.250000  0.009785  0.384924  1
  F  F12  1  0.059097  0.788274  0.904794  1
  F  F13  1  0.940903  0.211726  0.095206  1
  F  F14  1  0.940903  0.711726  0.404794  1
  F  F15  1  0.559097  0.211726  0.095206  1
  F  F16  1  0.059097  0.288274  0.595206  1
  F  F17  1  0.440903  0.788274  0.904794  1
  F  F18  1  0.440903  0.288274  0.595206  1
  F  F19  1  0.559097  0.711726  0.404794  1
  F  F20  1  0.250000  0.043932  0.044094  1
  F  F21  1  0.750000  0.956068  0.955906  1
  F  F22  1  0.750000  0.456068  0.544094  1
  F  F23  1  0.250000  0.543932  0.455906  1
  F  F24  1  0.477159  0.644120  0.649770  1
  F  F25  1  0.522841  0.355880  0.350230  1
  F  F26  1  0.522841  0.855880  0.149770  1
  F  F27  1  0.977159  0.355880  0.350230  1
  F  F28  1  0.477159  0.144120  0.850230  1
  F  F29  1  0.022841  0.644120  0.649770  1
  F  F30  1  0.022841  0.144120  0.850230  1
  F  F31  1  0.977159  0.855880  0.149770  1
  F  F32  1  0.250000  0.958070  0.662191  1
  F  F33  1  0.750000  0.041930  0.337809  1
  F  F34  1  0.750000  0.541930  0.162191  1
  F  F35  1  0.250000  0.458070  0.837809  1
