# generated using pymatgen
data_Nb2GaFe3
_symmetry_space_group_name_H-M   'P 1'
_cell_length_a   4.87995000
_cell_length_b   4.87994942
_cell_length_c   8.02576200
_cell_angle_alpha   90.00000000
_cell_angle_beta   90.00000000
_cell_angle_gamma   120.00000393
_symmetry_Int_Tables_number   1
_chemical_formula_structural   Nb2GaFe3
_chemical_formula_sum   'Nb4 Ga2 Fe6'
_cell_volume   165.51889724
_cell_formula_units_Z   2
loop_
 _symmetry_equiv_pos_site_id
 _symmetry_equiv_pos_as_xyz
  1  'x, y, z'
loop_
 _atom_site_type_symbol
 _atom_site_label
 _atom_site_symmetry_multiplicity
 _atom_site_fract_x
 _atom_site_fract_y
 _atom_site_fract_z
 _atom_site_occupancy
  Nb  Nb0  1  0.333333  0.666667  0.435182  1
  Nb  Nb1  1  0.666667  0.333333  0.564818  1
  Nb  Nb2  1  0.666667  0.333333  0.935182  1
  Nb  Nb3  1  0.333333  0.666667  0.064818  1
  Ga  Ga4  1  0.000000  0.000000  0.500000  1
  Ga  Ga5  1  0.000000  0.000000  0.000000  1
  Fe  Fe6  1  0.826965  0.173035  0.250000  1
  Fe  Fe7  1  0.826965  0.653930  0.250000  1
  Fe  Fe8  1  0.346070  0.173035  0.250000  1
  Fe  Fe9  1  0.173035  0.826965  0.750000  1
  Fe  Fe10  1  0.173035  0.346070  0.750000  1
  Fe  Fe11  1  0.653930  0.826965  0.750000  1
