# generated using pymatgen
data_SmDy4Y(Co3P2)6
_symmetry_space_group_name_H-M   'P 1'
_cell_length_a   3.70449000
_cell_length_b   10.53965500
_cell_length_c   12.21259200
_cell_angle_alpha   90.00000000
_cell_angle_beta   90.00000000
_cell_angle_gamma   90.00000000
_symmetry_Int_Tables_number   1
_chemical_formula_structural   SmDy4Y(Co3P2)6
_chemical_formula_sum   'Sm1 Dy4 Y1 Co18 P12'
_cell_volume   476.82901056
_cell_formula_units_Z   1
loop_
 _symmetry_equiv_pos_site_id
 _symmetry_equiv_pos_as_xyz
  1  'x, y, z'
loop_
 _atom_site_type_symbol
 _atom_site_label
 _atom_site_symmetry_multiplicity
 _atom_site_fract_x
 _atom_site_fract_y
 _atom_site_fract_z
 _atom_site_occupancy
  Sm  Sm0  1  0.000000  0.500000  0.521910  1
  Dy  Dy1  1  0.500000  0.817790  0.205992  1
  Dy  Dy2  1  0.500000  0.182210  0.205992  1
  Dy  Dy3  1  0.000000  0.682437  0.794343  1
  Dy  Dy4  1  0.000000  0.317563  0.794343  1
  Y  Y5  1  0.500000  0.000000  0.478482  1
  Co  Co6  1  0.500000  0.500000  0.158113  1
  Co  Co7  1  0.000000  0.000000  0.840950  1
  Co  Co8  1  0.500000  0.500000  0.705790  1
  Co  Co9  1  0.000000  0.000000  0.295280  1
  Co  Co10  1  0.000000  0.500000  0.987287  1
  Co  Co11  1  0.500000  0.000000  0.013178  1
  Co  Co12  1  0.500000  0.333069  0.995257  1
  Co  Co13  1  0.500000  0.666931  0.995257  1
  Co  Co14  1  0.000000  0.166582  0.004771  1
  Co  Co15  1  0.000000  0.833418  0.004771  1
  Co  Co16  1  0.500000  0.295565  0.429936  1
  Co  Co17  1  0.500000  0.704435  0.429936  1
  Co  Co18  1  0.000000  0.201769  0.569871  1
  Co  Co19  1  0.000000  0.798231  0.569871  1
  Co  Co20  1  0.500000  0.879859  0.710371  1
  Co  Co21  1  0.500000  0.120141  0.710371  1
  Co  Co22  1  0.000000  0.620778  0.289271  1
  Co  Co23  1  0.000000  0.379222  0.289271  1
  P  P24  1  0.500000  0.500000  0.884212  1
  P  P25  1  0.000000  0.000000  0.116355  1
  P  P26  1  0.500000  0.500000  0.341529  1
  P  P27  1  0.000000  0.000000  0.656494  1
  P  P28  1  0.500000  0.308739  0.616745  1
  P  P29  1  0.500000  0.691261  0.616745  1
  P  P30  1  0.000000  0.189212  0.383806  1
  P  P31  1  0.000000  0.810788  0.383806  1
  P  P32  1  0.500000  0.847382  0.893266  1
  P  P33  1  0.500000  0.152618  0.893266  1
  P  P34  1  0.000000  0.653178  0.106580  1
  P  P35  1  0.000000  0.346822  0.106580  1
