# generated using pymatgen
data_LiEr8Si16Tc11
_symmetry_space_group_name_H-M   'P 1'
_cell_length_a   6.78582533
_cell_length_b   6.77772243
_cell_length_c   12.64940843
_cell_angle_alpha   89.77603451
_cell_angle_beta   89.67853113
_cell_angle_gamma   89.81812857
_symmetry_Int_Tables_number   1
_chemical_formula_structural   LiEr8Si16Tc11
_chemical_formula_sum   'Li1 Er8 Si16 Tc11'
_cell_volume   581.76067262
_cell_formula_units_Z   1
loop_
 _symmetry_equiv_pos_site_id
 _symmetry_equiv_pos_as_xyz
  1  'x, y, z'
loop_
 _atom_site_type_symbol
 _atom_site_label
 _atom_site_symmetry_multiplicity
 _atom_site_fract_x
 _atom_site_fract_y
 _atom_site_fract_z
 _atom_site_occupancy
  Li  Li0  1  0.999772  0.818700  0.623437  1
  Er  Er1  1  0.335174  0.995226  0.470102  1
  Er  Er2  1  0.503105  0.838715  0.718850  1
  Er  Er3  1  0.497537  0.162683  0.219518  1
  Er  Er4  1  0.837792  0.501779  0.280410  1
  Er  Er5  1  0.160345  0.493320  0.781971  1
  Er  Er6  1  0.661135  0.003712  0.969919  1
  Er  Er7  1  0.997377  0.341831  0.530462  1
  Er  Er8  1  0.004980  0.663213  0.029849  1
  Si  Si9  1  0.194128  0.111070  0.689217  1
  Si  Si10  1  0.384986  0.692175  0.936280  1
  Si  Si11  1  0.614805  0.306862  0.438640  1
  Si  Si12  1  0.692939  0.383656  0.063932  1
  Si  Si13  1  0.313064  0.619586  0.559187  1
  Si  Si14  1  0.806366  0.880796  0.187303  1
  Si  Si15  1  0.119979  0.194966  0.313130  1
  Si  Si16  1  0.885972  0.806299  0.813110  1
  Si  Si17  1  0.280603  0.975468  0.066353  1
  Si  Si18  1  0.525663  0.779956  0.314550  1
  Si  Si19  1  0.471977  0.222998  0.814376  1
  Si  Si20  1  0.775923  0.521360  0.687095  1
  Si  Si21  1  0.222948  0.476075  0.184690  1
  Si  Si22  1  0.719247  0.033110  0.564173  1
  Si  Si23  1  0.973613  0.279531  0.937302  1
  Si  Si24  1  0.027538  0.722923  0.430864  1
  Tc  Tc25  1  0.334318  0.336591  0.002268  1
  Tc  Tc26  1  0.166338  0.833175  0.247551  1
  Tc  Tc27  1  0.834155  0.163996  0.747110  1
  Tc  Tc28  1  0.665284  0.665279  0.496838  1
  Tc  Tc29  1  0.176427  0.985122  0.878359  1
  Tc  Tc30  1  0.520651  0.682921  0.123760  1
  Tc  Tc31  1  0.483970  0.319458  0.624887  1
  Tc  Tc32  1  0.684375  0.508366  0.879747  1
  Tc  Tc33  1  0.322864  0.481323  0.373014  1
  Tc  Tc34  1  0.825943  0.022838  0.372972  1
  Tc  Tc35  1  0.978705  0.174922  0.128775  1
