# generated using pymatgen
data_BaMn4(PtO4)4
_symmetry_space_group_name_H-M   'P 1'
_cell_length_a   6.06392130
_cell_length_b   7.34997030
_cell_length_c   7.45181300
_cell_angle_alpha   89.82408148
_cell_angle_beta   78.23295173
_cell_angle_gamma   78.07852705
_symmetry_Int_Tables_number   1
_chemical_formula_structural   BaMn4(PtO4)4
_chemical_formula_sum   'Ba1 Mn4 Pt4 O16'
_cell_volume   317.86757335
_cell_formula_units_Z   1
loop_
 _symmetry_equiv_pos_site_id
 _symmetry_equiv_pos_as_xyz
  1  'x, y, z'
loop_
 _atom_site_type_symbol
 _atom_site_label
 _atom_site_symmetry_multiplicity
 _atom_site_fract_x
 _atom_site_fract_y
 _atom_site_fract_z
 _atom_site_occupancy
  Ba  Ba0  1  0.002284  0.004642  0.006934  1
  Mn  Mn1  1  0.342885  0.183487  0.463309  1
  Mn  Mn2  1  0.839402  0.184525  0.472785  1
  Mn  Mn3  1  0.430238  0.489693  0.807315  1
  Mn  Mn4  1  0.927839  0.496718  0.806915  1
  Pt  Pt5  1  0.580388  0.516310  0.181189  1
  Pt  Pt6  1  0.080565  0.512204  0.182107  1
  Pt  Pt7  1  0.168252  0.819451  0.523424  1
  Pt  Pt8  1  0.667841  0.818607  0.527020  1
  O  O9  1  0.822049  0.664886  0.077442  1
  O  O10  1  0.316027  0.663727  0.077422  1
  O  O11  1  0.982669  0.658369  0.427049  1
  O  O12  1  0.482953  0.660858  0.425174  1
  O  O13  1  0.851511  0.973469  0.643905  1
  O  O14  1  0.348736  0.975179  0.638850  1
  O  O15  1  0.354016  0.348382  0.261352  1
  O  O16  1  0.850917  0.344571  0.261749  1
  O  O17  1  0.160311  0.648997  0.735848  1
  O  O18  1  0.658112  0.640994  0.731668  1
  O  O19  1  0.152048  0.033913  0.344709  1
  O  O20  1  0.667196  0.032149  0.347342  1
  O  O21  1  0.032965  0.297194  0.593515  1
  O  O22  1  0.530177  0.298474  0.590557  1
  O  O23  1  0.174294  0.366683  0.935662  1
  O  O24  1  0.683420  0.366518  0.936754  1
