# generated using pymatgen
data_Tb3Y(B4W)4
_symmetry_space_group_name_H-M   'P 1'
_cell_length_a   6.05140602
_cell_length_b   11.69653604
_cell_length_c   3.63330300
_cell_angle_alpha   90.00000000
_cell_angle_beta   90.00000000
_cell_angle_gamma   89.99053883
_symmetry_Int_Tables_number   1
_chemical_formula_structural   Tb3Y(B4W)4
_chemical_formula_sum   'Tb3 Y1 B16 W4'
_cell_volume   257.16695811
_cell_formula_units_Z   1
loop_
 _symmetry_equiv_pos_site_id
 _symmetry_equiv_pos_as_xyz
  1  'x, y, z'
loop_
 _atom_site_type_symbol
 _atom_site_label
 _atom_site_symmetry_multiplicity
 _atom_site_fract_x
 _atom_site_fract_y
 _atom_site_fract_z
 _atom_site_occupancy
  Tb  Tb0  1  0.626834  0.350211  0.000000  1
  Tb  Tb1  1  0.373159  0.649789  0.000000  1
  Tb  Tb2  1  0.126841  0.149775  0.000000  1
  Y  Y3  1  0.873145  0.850251  0.000000  1
  B  B4  1  0.786463  0.186380  0.500000  1
  B  B5  1  0.213493  0.813590  0.500000  1
  B  B6  1  0.286448  0.313609  0.500000  1
  B  B7  1  0.713511  0.686414  0.500000  1
  B  B8  1  0.866324  0.032140  0.500000  1
  B  B9  1  0.133654  0.967850  0.500000  1
  B  B10  1  0.366274  0.467848  0.500000  1
  B  B11  1  0.633743  0.532157  0.500000  1
  B  B12  1  0.886143  0.452822  0.500000  1
  B  B13  1  0.113849  0.547185  0.500000  1
  B  B14  1  0.386152  0.047170  0.500000  1
  B  B15  1  0.613919  0.952789  0.500000  1
  B  B16  1  0.975915  0.306985  0.500000  1
  B  B17  1  0.024099  0.693074  0.500000  1
  B  B18  1  0.475906  0.193013  0.500000  1
  B  B19  1  0.524094  0.806962  0.500000  1
  W  W20  1  0.630684  0.084352  0.000000  1
  W  W21  1  0.369372  0.915615  0.000000  1
  W  W22  1  0.130663  0.415621  0.000000  1
  W  W23  1  0.869316  0.584400  0.000000  1
