# generated using pymatgen
data_Sr2Al4Ga2PdAu
_symmetry_space_group_name_H-M   'P 1'
_cell_length_a   6.34140836
_cell_length_b   6.34140892
_cell_length_c   5.95583300
_cell_angle_alpha   90.00000000
_cell_angle_beta   90.00000000
_cell_angle_gamma   118.51175423
_symmetry_Int_Tables_number   1
_chemical_formula_structural   Sr2Al4Ga2PdAu
_chemical_formula_sum   'Sr2 Al4 Ga2 Pd1 Au1'
_cell_volume   210.45735599
_cell_formula_units_Z   1
loop_
 _symmetry_equiv_pos_site_id
 _symmetry_equiv_pos_as_xyz
  1  'x, y, z'
loop_
 _atom_site_type_symbol
 _atom_site_label
 _atom_site_symmetry_multiplicity
 _atom_site_fract_x
 _atom_site_fract_y
 _atom_site_fract_z
 _atom_site_occupancy
  Sr  Sr0  1  0.233767  0.766233  0.750000  1
  Sr  Sr1  1  0.766630  0.233370  0.250000  1
  Al  Al2  1  0.722681  0.717923  0.007297  1
  Al  Al3  1  0.722681  0.717923  0.492703  1
  Al  Al4  1  0.282077  0.277319  0.007297  1
  Al  Al5  1  0.282077  0.277319  0.492703  1
  Ga  Ga6  1  0.653362  0.346638  0.750000  1
  Ga  Ga7  1  0.338443  0.661557  0.250000  1
  Pd  Pd8  1  0.100958  0.899042  0.250000  1
  Au  Au9  1  0.897325  0.102675  0.750000  1
