# generated using pymatgen
data_Sr4Yb2ReRuO12
_symmetry_space_group_name_H-M   'P 1'
_cell_length_a   5.78851035
_cell_length_b   5.89355271
_cell_length_c   8.22925781
_cell_angle_alpha   90.40571230
_cell_angle_beta   90.34501067
_cell_angle_gamma   90.09044396
_symmetry_Int_Tables_number   1
_chemical_formula_structural   Sr4Yb2ReRuO12
_chemical_formula_sum   'Sr4 Yb2 Re1 Ru1 O12'
_cell_volume   280.72773522
_cell_formula_units_Z   1
loop_
 _symmetry_equiv_pos_site_id
 _symmetry_equiv_pos_as_xyz
  1  'x, y, z'
loop_
 _atom_site_type_symbol
 _atom_site_label
 _atom_site_symmetry_multiplicity
 _atom_site_fract_x
 _atom_site_fract_y
 _atom_site_fract_z
 _atom_site_occupancy
  Sr  Sr0  1  0.008269  0.039892  0.265884  1
  Sr  Sr1  1  0.491197  0.547392  0.266020  1
  Sr  Sr2  1  0.508803  0.452608  0.733980  1
  Sr  Sr3  1  0.991731  0.960108  0.734116  1
  Yb  Yb4  1  0.500000  0.000000  0.999999  1
  Yb  Yb5  1  0.999999  0.500001  0.500000  1
  Re  Re6  1  0.000000  0.500001  0.000000  1
  Ru  Ru7  1  0.499999  0.000000  0.500001  1
  O  O8  1  0.263722  0.314452  0.038936  1
  O  O9  1  0.182215  0.764963  0.043195  1
  O  O10  1  0.923663  0.480917  0.224645  1
  O  O11  1  0.579645  0.976903  0.266115  1
  O  O12  1  0.306788  0.273568  0.457523  1
  O  O13  1  0.226957  0.802477  0.460326  1
  O  O14  1  0.773044  0.197522  0.539673  1
  O  O15  1  0.693213  0.726432  0.542479  1
  O  O16  1  0.420353  0.023097  0.733885  1
  O  O17  1  0.076338  0.519083  0.775355  1
  O  O18  1  0.817786  0.235037  0.956805  1
  O  O19  1  0.736277  0.685547  0.961064  1
