# generated using pymatgen
data_La12Yb3Sm5Sn16
_symmetry_space_group_name_H-M   'P 1'
_cell_length_a   8.25570013
_cell_length_b   8.53510534
_cell_length_c   16.24868340
_cell_angle_alpha   90.02377753
_cell_angle_beta   90.00893525
_cell_angle_gamma   89.89083312
_symmetry_Int_Tables_number   1
_chemical_formula_structural   La12Yb3Sm5Sn16
_chemical_formula_sum   'La12 Yb3 Sm5 Sn16'
_cell_volume   1144.93317946
_cell_formula_units_Z   1
loop_
 _symmetry_equiv_pos_site_id
 _symmetry_equiv_pos_as_xyz
  1  'x, y, z'
loop_
 _atom_site_type_symbol
 _atom_site_label
 _atom_site_symmetry_multiplicity
 _atom_site_fract_x
 _atom_site_fract_y
 _atom_site_fract_z
 _atom_site_occupancy
  La  La0  1  0.351690  0.829672  0.375845  1
  La  La1  1  0.852349  0.666709  0.122331  1
  La  La2  1  0.648220  0.168474  0.877046  1
  La  La3  1  0.149055  0.330660  0.622317  1
  La  La4  1  0.494280  0.684383  0.597486  1
  La  La5  1  0.999366  0.817817  0.903771  1
  La  La6  1  0.503786  0.316648  0.096965  1
  La  La7  1  0.001204  0.185598  0.403823  1
  La  La8  1  0.504809  0.316886  0.403235  1
  La  La9  1  0.002367  0.185001  0.096050  1
  La  La10  1  0.493479  0.683584  0.902733  1
  La  La11  1  0.998055  0.818191  0.596099  1
  Yb  Yb12  1  0.319494  0.000993  0.750098  1
  Yb  Yb13  1  0.182141  0.497542  0.249914  1
  Yb  Yb14  1  0.679788  0.000687  0.250157  1
  Sm  Sm15  1  0.648977  0.167663  0.622638  1
  Sm  Sm16  1  0.149534  0.331817  0.878109  1
  Sm  Sm17  1  0.350972  0.830453  0.123626  1
  Sm  Sm18  1  0.851667  0.665658  0.378199  1
  Sm  Sm19  1  0.818692  0.502172  0.749908  1
  Sn  Sn20  1  0.690783  0.961560  0.460690  1
  Sn  Sn21  1  0.196111  0.536955  0.039493  1
  Sn  Sn22  1  0.309128  0.037966  0.962476  1
  Sn  Sn23  1  0.805650  0.464350  0.541462  1
  Sn  Sn24  1  0.315265  0.037888  0.539106  1
  Sn  Sn25  1  0.811068  0.464596  0.957077  1
  Sn  Sn26  1  0.684236  0.961649  0.041041  1
  Sn  Sn27  1  0.190325  0.536706  0.458939  1
  Sn  Sn28  1  0.449816  0.389765  0.750641  1
  Sn  Sn29  1  0.952214  0.109161  0.749206  1
  Sn  Sn30  1  0.550574  0.606055  0.250752  1
  Sn  Sn31  1  0.047420  0.894595  0.248958  1
  Sn  Sn32  1  0.695877  0.858622  0.749240  1
  Sn  Sn33  1  0.192395  0.641482  0.750558  1
  Sn  Sn34  1  0.303798  0.138739  0.249412  1
  Sn  Sn35  1  0.805414  0.359298  0.250600  1
