# generated using pymatgen
data_Hf3Be2Rh5
_symmetry_space_group_name_H-M   'P 1'
_cell_length_a   9.40259300
_cell_length_b   9.40259300
_cell_length_c   3.34803100
_cell_angle_alpha   90.00000000
_cell_angle_beta   90.00000000
_cell_angle_gamma   90.00000000
_symmetry_Int_Tables_number   1
_chemical_formula_structural   Hf3Be2Rh5
_chemical_formula_sum   'Hf6 Be4 Rh10'
_cell_volume   295.99525283
_cell_formula_units_Z   2
loop_
 _symmetry_equiv_pos_site_id
 _symmetry_equiv_pos_as_xyz
  1  'x, y, z'
loop_
 _atom_site_type_symbol
 _atom_site_label
 _atom_site_symmetry_multiplicity
 _atom_site_fract_x
 _atom_site_fract_y
 _atom_site_fract_z
 _atom_site_occupancy
  Hf  Hf0  1  0.826351  0.326351  0.000000  1
  Hf  Hf1  1  0.326351  0.173649  0.000000  1
  Hf  Hf2  1  0.673649  0.826351  0.000000  1
  Hf  Hf3  1  0.173649  0.673649  0.000000  1
  Hf  Hf4  1  0.000000  0.000000  0.000000  1
  Hf  Hf5  1  0.500000  0.500000  0.000000  1
  Be  Be6  1  0.620140  0.120140  0.000000  1
  Be  Be7  1  0.120140  0.379860  0.000000  1
  Be  Be8  1  0.879860  0.620140  0.000000  1
  Be  Be9  1  0.379860  0.879860  0.000000  1
  Rh  Rh10  1  0.072511  0.215227  0.500000  1
  Rh  Rh11  1  0.215227  0.927489  0.500000  1
  Rh  Rh12  1  0.784773  0.072511  0.500000  1
  Rh  Rh13  1  0.927489  0.784773  0.500000  1
  Rh  Rh14  1  0.427489  0.715227  0.500000  1
  Rh  Rh15  1  0.572511  0.284773  0.500000  1
  Rh  Rh16  1  0.715227  0.572511  0.500000  1
  Rh  Rh17  1  0.284773  0.427489  0.500000  1
  Rh  Rh18  1  0.500000  0.000000  0.500000  1
  Rh  Rh19  1  0.000000  0.500000  0.500000  1
