# generated using pymatgen
data_Lu2Ga10Tc3
_symmetry_space_group_name_H-M   'P 1'
_cell_length_a   9.05875200
_cell_length_b   9.05875200
_cell_length_c   6.23958900
_cell_angle_alpha   90.00000000
_cell_angle_beta   90.00000000
_cell_angle_gamma   90.00000000
_symmetry_Int_Tables_number   1
_chemical_formula_structural   Lu2Ga10Tc3
_chemical_formula_sum   'Lu4 Ga20 Tc6'
_cell_volume   512.02683679
_cell_formula_units_Z   2
loop_
 _symmetry_equiv_pos_site_id
 _symmetry_equiv_pos_as_xyz
  1  'x, y, z'
loop_
 _atom_site_type_symbol
 _atom_site_label
 _atom_site_symmetry_multiplicity
 _atom_site_fract_x
 _atom_site_fract_y
 _atom_site_fract_z
 _atom_site_occupancy
  Lu  Lu0  1  0.183284  0.316716  0.000000  1
  Lu  Lu1  1  0.683284  0.183284  0.000000  1
  Lu  Lu2  1  0.816716  0.683284  0.000000  1
  Lu  Lu3  1  0.316716  0.816716  0.000000  1
  Ga  Ga4  1  0.500000  0.000000  0.283043  1
  Ga  Ga5  1  0.500000  0.000000  0.716957  1
  Ga  Ga6  1  0.293885  0.560356  0.710027  1
  Ga  Ga7  1  0.000000  0.500000  0.283043  1
  Ga  Ga8  1  0.000000  0.500000  0.716957  1
  Ga  Ga9  1  0.060356  0.793885  0.710027  1
  Ga  Ga10  1  0.206115  0.060356  0.289973  1
  Ga  Ga11  1  0.060356  0.793885  0.289973  1
  Ga  Ga12  1  0.706115  0.439644  0.710027  1
  Ga  Ga13  1  0.206115  0.060356  0.710027  1
  Ga  Ga14  1  0.939644  0.206115  0.710027  1
  Ga  Ga15  1  0.706115  0.439644  0.289973  1
  Ga  Ga16  1  0.560356  0.706115  0.289973  1
  Ga  Ga17  1  0.939644  0.206115  0.289973  1
  Ga  Ga18  1  0.560356  0.706115  0.710027  1
  Ga  Ga19  1  0.793885  0.939644  0.289973  1
  Ga  Ga20  1  0.439644  0.293885  0.710027  1
  Ga  Ga21  1  0.793885  0.939644  0.710027  1
  Ga  Ga22  1  0.439644  0.293885  0.289973  1
  Ga  Ga23  1  0.293885  0.560356  0.289973  1
  Tc  Tc24  1  0.178505  0.321495  0.500000  1
  Tc  Tc25  1  0.321495  0.821495  0.500000  1
  Tc  Tc26  1  0.821495  0.678505  0.500000  1
  Tc  Tc27  1  0.000000  0.000000  0.000000  1
  Tc  Tc28  1  0.678505  0.178505  0.500000  1
  Tc  Tc29  1  0.500000  0.500000  0.000000  1
