# generated using pymatgen
data_Tb2HoIn3GePt2
_symmetry_space_group_name_H-M   'P 1'
_cell_length_a   7.52337727
_cell_length_b   7.51981606
_cell_length_c   4.11626500
_cell_angle_alpha   90.00000000
_cell_angle_beta   90.00000000
_cell_angle_gamma   120.04610935
_symmetry_Int_Tables_number   1
_chemical_formula_structural   Tb2HoIn3GePt2
_chemical_formula_sum   'Tb2 Ho1 In3 Ge1 Pt2'
_cell_volume   201.58213615
_cell_formula_units_Z   1
loop_
 _symmetry_equiv_pos_site_id
 _symmetry_equiv_pos_as_xyz
  1  'x, y, z'
loop_
 _atom_site_type_symbol
 _atom_site_label
 _atom_site_symmetry_multiplicity
 _atom_site_fract_x
 _atom_site_fract_y
 _atom_site_fract_z
 _atom_site_occupancy
  Tb  Tb0  1  0.598031  0.009027  0.500000  1
  Tb  Tb1  1  0.410784  0.402113  0.500000  1
  Ho  Ho2  1  0.990543  0.589006  0.500000  1
  In  In3  1  0.749735  0.742613  0.000000  1
  In  In4  1  0.993147  0.250753  0.000000  1
  In  In5  1  0.257232  0.006699  0.000000  1
  Ge  Ge6  1  0.332805  0.666431  0.000000  1
  Pt  Pt7  1  0.667707  0.334080  0.000000  1
  Pt  Pt8  1  0.000015  0.999278  0.500000  1
