# generated using pymatgen
data_K6InS4Cl
_symmetry_space_group_name_H-M   'P 1'
_cell_length_a   10.44727800
_cell_length_b   10.44727787
_cell_length_c   7.63736600
_cell_angle_alpha   90.00000000
_cell_angle_beta   90.00000000
_cell_angle_gamma   120.00000041
_symmetry_Int_Tables_number   1
_chemical_formula_structural   K6InS4Cl
_chemical_formula_sum   'K12 In2 S8 Cl2'
_cell_volume   721.90579947
_cell_formula_units_Z   2
loop_
 _symmetry_equiv_pos_site_id
 _symmetry_equiv_pos_as_xyz
  1  'x, y, z'
loop_
 _atom_site_type_symbol
 _atom_site_label
 _atom_site_symmetry_multiplicity
 _atom_site_fract_x
 _atom_site_fract_y
 _atom_site_fract_z
 _atom_site_occupancy
  K  K0  1  0.132274  0.867726  0.511879  1
  K  K1  1  0.735452  0.867726  0.511879  1
  K  K2  1  0.940799  0.470400  0.321096  1
  K  K3  1  0.529600  0.470400  0.321096  1
  K  K4  1  0.867726  0.735452  0.011879  1
  K  K5  1  0.264548  0.132274  0.011879  1
  K  K6  1  0.529600  0.059201  0.321096  1
  K  K7  1  0.132274  0.264548  0.511879  1
  K  K8  1  0.867726  0.132274  0.011879  1
  K  K9  1  0.059201  0.529600  0.821096  1
  K  K10  1  0.470400  0.940799  0.821096  1
  K  K11  1  0.470400  0.529600  0.821096  1
  In  In12  1  0.666667  0.333333  0.710610  1
  In  In13  1  0.333333  0.666667  0.210610  1
  S  S14  1  0.405862  0.202932  0.605617  1
  S  S15  1  0.594138  0.797068  0.105617  1
  S  S16  1  0.666667  0.333333  0.042223  1
  S  S17  1  0.797068  0.594138  0.605617  1
  S  S18  1  0.202932  0.405862  0.105617  1
  S  S19  1  0.333333  0.666667  0.542223  1
  S  S20  1  0.202932  0.797068  0.105617  1
  S  S21  1  0.797068  0.202932  0.605617  1
  Cl  Cl22  1  0.000000  0.000000  0.271995  1
  Cl  Cl23  1  0.000000  0.000000  0.771995  1
