# generated using pymatgen
data_YThPd2Pb
_symmetry_space_group_name_H-M   'P 1'
_cell_length_a   8.05577400
_cell_length_b   8.04285700
_cell_length_c   3.70081700
_cell_angle_alpha   90.00000000
_cell_angle_beta   90.00000000
_cell_angle_gamma   90.00000000
_symmetry_Int_Tables_number   1
_chemical_formula_structural   YThPd2Pb
_chemical_formula_sum   'Y2 Th2 Pd4 Pb2'
_cell_volume   239.78125634
_cell_formula_units_Z   2
loop_
 _symmetry_equiv_pos_site_id
 _symmetry_equiv_pos_as_xyz
  1  'x, y, z'
loop_
 _atom_site_type_symbol
 _atom_site_label
 _atom_site_symmetry_multiplicity
 _atom_site_fract_x
 _atom_site_fract_y
 _atom_site_fract_z
 _atom_site_occupancy
  Y  Y0  1  0.827721  0.673468  0.500000  1
  Y  Y1  1  0.327721  0.826532  0.500000  1
  Th  Th2  1  0.670840  0.167688  0.500000  1
  Th  Th3  1  0.170840  0.332312  0.500000  1
  Pd  Pd4  1  0.872480  0.370647  0.000000  1
  Pd  Pd5  1  0.372480  0.129353  0.000000  1
  Pd  Pd6  1  0.625410  0.880045  0.000000  1
  Pd  Pd7  1  0.125410  0.619955  0.000000  1
  Pb  Pb8  1  0.003550  0.987508  0.000000  1
  Pb  Pb9  1  0.503550  0.512492  0.000000  1
