# generated using pymatgen
data_Ho9Lu11(GaBi2)4
_symmetry_space_group_name_H-M   'P 1'
_cell_length_a   8.03894305
_cell_length_b   9.24572300
_cell_length_c   12.03202900
_cell_angle_alpha   90.00030985
_cell_angle_beta   89.99391330
_cell_angle_gamma   90.00084283
_symmetry_Int_Tables_number   1
_chemical_formula_structural   Ho9Lu11(GaBi2)4
_chemical_formula_sum   'Ho9 Lu11 Ga4 Bi8'
_cell_volume   894.29066462
_cell_formula_units_Z   1
loop_
 _symmetry_equiv_pos_site_id
 _symmetry_equiv_pos_as_xyz
  1  'x, y, z'
loop_
 _atom_site_type_symbol
 _atom_site_label
 _atom_site_symmetry_multiplicity
 _atom_site_fract_x
 _atom_site_fract_y
 _atom_site_fract_z
 _atom_site_occupancy
  Ho  Ho0  1  0.668336  0.750126  0.715326  1
  Ho  Ho1  1  0.331563  0.249936  0.284585  1
  Ho  Ho2  1  0.168548  0.249765  0.784461  1
  Ho  Ho3  1  0.831590  0.749951  0.215338  1
  Ho  Ho4  1  0.143834  0.749967  0.794586  1
  Ho  Ho5  1  0.856406  0.249788  0.205735  1
  Ho  Ho6  1  0.643757  0.249785  0.705102  1
  Ho  Ho7  1  0.356091  0.749934  0.294569  1
  Ho  Ho8  1  0.818893  0.446591  0.936413  1
  Lu  Lu9  1  0.539321  0.750253  0.002706  1
  Lu  Lu10  1  0.459857  0.249868  0.997428  1
  Lu  Lu11  1  0.039910  0.249861  0.497402  1
  Lu  Lu12  1  0.960259  0.749997  0.502615  1
  Lu  Lu13  1  0.180553  0.554167  0.063546  1
  Lu  Lu14  1  0.319607  0.554018  0.563446  1
  Lu  Lu15  1  0.180455  0.946087  0.063443  1
  Lu  Lu16  1  0.680369  0.446030  0.436595  1
  Lu  Lu17  1  0.819608  0.053587  0.936398  1
  Lu  Lu18  1  0.680410  0.053978  0.436596  1
  Lu  Lu19  1  0.319695  0.946020  0.563387  1
  Ga  Ga20  1  0.908253  0.751174  0.975816  1
  Ga  Ga21  1  0.092602  0.249457  0.024764  1
  Ga  Ga22  1  0.407731  0.250044  0.524481  1
  Ga  Ga23  1  0.592103  0.749960  0.475507  1
  Bi  Bi24  1  0.935819  0.008639  0.673416  1
  Bi  Bi25  1  0.064244  0.991239  0.326555  1
  Bi  Bi26  1  0.435764  0.991138  0.826504  1
  Bi  Bi27  1  0.064304  0.508722  0.326560  1
  Bi  Bi28  1  0.564205  0.008622  0.173572  1
  Bi  Bi29  1  0.936006  0.491286  0.673220  1
  Bi  Bi30  1  0.564393  0.491281  0.173572  1
  Bi  Bi31  1  0.435519  0.508726  0.826355  1
