# generated using pymatgen
data_HoRe6PbO24
_symmetry_space_group_name_H-M   'P 1'
_cell_length_a   10.27866800
_cell_length_b   10.27866784
_cell_length_c   6.25879300
_cell_angle_alpha   90.00000000
_cell_angle_beta   90.00000000
_cell_angle_gamma   119.99999407
_symmetry_Int_Tables_number   1
_chemical_formula_structural   HoRe6PbO24
_chemical_formula_sum   'Ho1 Re6 Pb1 O24'
_cell_volume   572.65745172
_cell_formula_units_Z   1
loop_
 _symmetry_equiv_pos_site_id
 _symmetry_equiv_pos_as_xyz
  1  'x, y, z'
loop_
 _atom_site_type_symbol
 _atom_site_label
 _atom_site_symmetry_multiplicity
 _atom_site_fract_x
 _atom_site_fract_y
 _atom_site_fract_z
 _atom_site_occupancy
  Ho  Ho0  1  0.666667  0.333333  0.750000  1
  Re  Re1  1  0.086799  0.390040  0.750000  1
  Re  Re2  1  0.396735  0.301273  0.250000  1
  Re  Re3  1  0.609960  0.696757  0.750000  1
  Re  Re4  1  0.904538  0.603265  0.250000  1
  Re  Re5  1  0.303243  0.913201  0.750000  1
  Re  Re6  1  0.698727  0.095462  0.250000  1
  Pb  Pb7  1  0.333333  0.666667  0.250000  1
  O  O8  1  0.493537  0.644459  0.522398  1
  O  O9  1  0.355541  0.849079  0.522398  1
  O  O10  1  0.837823  0.727649  0.250000  1
  O  O11  1  0.111546  0.845960  0.750000  1
  O  O12  1  0.272351  0.110174  0.250000  1
  O  O13  1  0.154040  0.265586  0.750000  1
  O  O14  1  0.512390  0.351189  0.020579  1
  O  O15  1  0.889826  0.162177  0.250000  1
  O  O16  1  0.101629  0.707108  0.250000  1
  O  O17  1  0.150921  0.506463  0.977602  1
  O  O18  1  0.150921  0.506463  0.522398  1
  O  O19  1  0.889348  0.294342  0.750000  1
  O  O20  1  0.292892  0.394522  0.250000  1
  O  O21  1  0.705658  0.595006  0.750000  1
  O  O22  1  0.838800  0.487610  0.479421  1
  O  O23  1  0.404994  0.110652  0.750000  1
  O  O24  1  0.648811  0.161200  0.020579  1
  O  O25  1  0.493537  0.644459  0.977602  1
  O  O26  1  0.355541  0.849079  0.977602  1
  O  O27  1  0.648811  0.161200  0.479421  1
  O  O28  1  0.512390  0.351189  0.479421  1
  O  O29  1  0.838800  0.487610  0.020579  1
  O  O30  1  0.734414  0.888454  0.750000  1
  O  O31  1  0.605478  0.898371  0.250000  1
