# generated using pymatgen
data_Tb2Dy8Si5P
_symmetry_space_group_name_H-M   'P 1'
_cell_length_a   8.42515607
_cell_length_b   8.43137770
_cell_length_c   6.32384600
_cell_angle_alpha   90.00000000
_cell_angle_beta   90.00000000
_cell_angle_gamma   119.96074553
_symmetry_Int_Tables_number   1
_chemical_formula_structural   Tb2Dy8Si5P
_chemical_formula_sum   'Tb2 Dy8 Si5 P1'
_cell_volume   389.18856154
_cell_formula_units_Z   1
loop_
 _symmetry_equiv_pos_site_id
 _symmetry_equiv_pos_as_xyz
  1  'x, y, z'
loop_
 _atom_site_type_symbol
 _atom_site_label
 _atom_site_symmetry_multiplicity
 _atom_site_fract_x
 _atom_site_fract_y
 _atom_site_fract_z
 _atom_site_occupancy
  Tb  Tb0  1  0.001087  0.756828  0.750000  1
  Tb  Tb1  1  0.754918  0.000014  0.750000  1
  Dy  Dy2  1  0.000927  0.244357  0.250000  1
  Dy  Dy3  1  0.756501  0.755606  0.250000  1
  Dy  Dy4  1  0.244304  0.243226  0.750000  1
  Dy  Dy5  1  0.243844  0.000033  0.250000  1
  Dy  Dy6  1  0.666255  0.332524  0.999578  1
  Dy  Dy7  1  0.333752  0.667444  0.500421  1
  Dy  Dy8  1  0.333752  0.667444  0.999579  1
  Dy  Dy9  1  0.666255  0.332524  0.500422  1
  Si  Si10  1  0.394176  0.393688  0.250000  1
  Si  Si11  1  0.000488  0.606329  0.250000  1
  Si  Si12  1  0.000204  0.393508  0.750000  1
  Si  Si13  1  0.606491  0.606367  0.750000  1
  Si  Si14  1  0.607177  0.000005  0.250000  1
  P  P15  1  0.389870  0.000104  0.750000  1
