# generated using pymatgen
data_Tm3LuAl23ZnPt9
_symmetry_space_group_name_H-M   'P 1'
_cell_length_a   7.51719773
_cell_length_b   7.53457804
_cell_length_c   13.11583071
_cell_angle_alpha   84.57933015
_cell_angle_beta   79.05242396
_cell_angle_gamma   59.90372281
_symmetry_Int_Tables_number   1
_chemical_formula_structural   Tm3LuAl23ZnPt9
_chemical_formula_sum   'Tm3 Lu1 Al23 Zn1 Pt9'
_cell_volume   631.01930468
_cell_formula_units_Z   1
loop_
 _symmetry_equiv_pos_site_id
 _symmetry_equiv_pos_as_xyz
  1  'x, y, z'
loop_
 _atom_site_type_symbol
 _atom_site_label
 _atom_site_symmetry_multiplicity
 _atom_site_fract_x
 _atom_site_fract_y
 _atom_site_fract_z
 _atom_site_occupancy
  Tm  Tm0  1  0.606908  0.831729  0.190307  1
  Tm  Tm1  1  0.733220  0.499340  0.808774  1
  Tm  Tm2  1  0.266772  0.501519  0.191268  1
  Lu  Lu3  1  0.394340  0.167293  0.808546  1
  Al  Al4  1  0.321377  0.161648  0.054725  1
  Al  Al5  1  0.146926  0.832131  0.562132  1
  Al  Al6  1  0.853385  0.167891  0.438416  1
  Al  Al7  1  0.480262  0.166451  0.559338  1
  Al  Al8  1  0.519899  0.833557  0.440967  1
  Al  Al9  1  0.218354  0.165183  0.327366  1
  Al  Al10  1  0.782012  0.834749  0.672370  1
  Al  Al11  1  0.435953  0.506326  0.673454  1
  Al  Al12  1  0.563491  0.493899  0.327521  1
  Al  Al13  1  0.108859  0.160238  0.671834  1
  Al  Al14  1  0.890719  0.839728  0.329189  1
  Al  Al15  1  0.353905  0.498949  0.943342  1
  Al  Al16  1  0.647850  0.505235  0.054866  1
  Al  Al17  1  0.016914  0.167987  0.952893  1
  Al  Al18  1  0.980634  0.831661  0.044333  1
  Al  Al19  1  0.186618  0.499477  0.441195  1
  Al  Al20  1  0.813501  0.500442  0.559358  1
  Al  Al21  1  0.733940  0.164616  0.183163  1
  Al  Al22  1  0.264865  0.836417  0.817331  1
  Al  Al23  1  0.058221  0.631012  0.817623  1
  Al  Al24  1  0.939430  0.368992  0.184284  1
  Al  Al25  1  0.851614  0.041677  0.818405  1
  Al  Al26  1  0.144923  0.957855  0.183766  1
  Zn  Zn27  1  0.684388  0.834185  0.937446  1
  Pt  Pt28  1  0.120390  0.490929  0.639523  1
  Pt  Pt29  1  0.880016  0.508909  0.361253  1
  Pt  Pt30  1  0.656602  0.179129  0.001023  1
  Pt  Pt31  1  0.336254  0.827843  0.001743  1
  Pt  Pt32  1  0.537003  0.167055  0.361080  1
  Pt  Pt33  1  0.462725  0.833208  0.639304  1
  Pt  Pt34  1  0.778130  0.175560  0.638259  1
  Pt  Pt35  1  0.221846  0.824389  0.362624  1
  Pt  Pt36  1  0.007753  0.492790  0.000982  1
