# generated using pymatgen
data_La3Pr2Bi3P
_symmetry_space_group_name_H-M   'P 1'
_cell_length_a   9.71874500
_cell_length_b   9.71897121
_cell_length_c   6.93652900
_cell_angle_alpha   90.00000000
_cell_angle_beta   90.00000000
_cell_angle_gamma   120.00077179
_symmetry_Int_Tables_number   1
_chemical_formula_structural   La3Pr2Bi3P
_chemical_formula_sum   'La6 Pr4 Bi6 P2'
_cell_volume   567.41386491
_cell_formula_units_Z   2
loop_
 _symmetry_equiv_pos_site_id
 _symmetry_equiv_pos_as_xyz
  1  'x, y, z'
loop_
 _atom_site_type_symbol
 _atom_site_label
 _atom_site_symmetry_multiplicity
 _atom_site_fract_x
 _atom_site_fract_y
 _atom_site_fract_z
 _atom_site_occupancy
  La  La0  1  0.760111  0.760111  0.250000  1
  La  La1  1  0.239889  0.000000  0.250000  1
  La  La2  1  0.000000  0.239885  0.250000  1
  La  La3  1  0.239889  0.239889  0.750000  1
  La  La4  1  0.760111  0.000000  0.750000  1
  La  La5  1  0.000000  0.760115  0.750000  1
  Pr  Pr6  1  0.666668  0.333334  0.500000  1
  Pr  Pr7  1  0.333332  0.666666  0.500000  1
  Pr  Pr8  1  0.333332  0.666666  0.000000  1
  Pr  Pr9  1  0.666668  0.333334  0.000000  1
  Bi  Bi10  1  0.397244  0.397245  0.250000  1
  Bi  Bi11  1  0.602756  0.000001  0.250000  1
  Bi  Bi12  1  0.000000  0.602759  0.250000  1
  Bi  Bi13  1  0.602756  0.602755  0.750000  1
  Bi  Bi14  1  0.397244  0.999999  0.750000  1
  Bi  Bi15  1  0.000000  0.397241  0.750000  1
  P  P16  1  0.000000  0.000000  0.500000  1
  P  P17  1  0.000000  0.000000  0.000000  1
