# generated using pymatgen
data_YLuPa(Ga2Ni3)3
_symmetry_space_group_name_H-M   'P 1'
_cell_length_a   8.69176600
_cell_length_b   8.69176623
_cell_length_c   4.12228000
_cell_angle_alpha   90.00000000
_cell_angle_beta   90.00000000
_cell_angle_gamma   119.99999152
_symmetry_Int_Tables_number   1
_chemical_formula_structural   YLuPa(Ga2Ni3)3
_chemical_formula_sum   'Y1 Lu1 Pa1 Ga6 Ni9'
_cell_volume   269.70203221
_cell_formula_units_Z   1
loop_
 _symmetry_equiv_pos_site_id
 _symmetry_equiv_pos_as_xyz
  1  'x, y, z'
loop_
 _atom_site_type_symbol
 _atom_site_label
 _atom_site_symmetry_multiplicity
 _atom_site_fract_x
 _atom_site_fract_y
 _atom_site_fract_z
 _atom_site_occupancy
  Y  Y0  1  0.666667  0.333333  0.500000  1
  Lu  Lu1  1  0.333333  0.666667  0.500000  1
  Pa  Pa2  1  0.000000  0.000000  0.000000  1
  Ga  Ga3  1  0.480882  0.481052  0.000000  1
  Ga  Ga4  1  0.518948  0.999830  0.000000  1
  Ga  Ga5  1  0.000170  0.519118  0.000000  1
  Ga  Ga6  1  0.723176  0.723761  0.500000  1
  Ga  Ga7  1  0.276239  0.999415  0.500000  1
  Ga  Ga8  1  0.000585  0.276824  0.500000  1
  Ni  Ni9  1  0.828635  0.196050  0.000000  1
  Ni  Ni10  1  0.803950  0.632585  0.000000  1
  Ni  Ni11  1  0.367415  0.171365  0.000000  1
  Ni  Ni12  1  0.198238  0.826801  0.000000  1
  Ni  Ni13  1  0.628563  0.801762  0.000000  1
  Ni  Ni14  1  0.173199  0.371437  0.000000  1
  Ni  Ni15  1  0.292718  0.294061  0.500000  1
  Ni  Ni16  1  0.705939  0.998657  0.500000  1
  Ni  Ni17  1  0.001343  0.707282  0.500000  1
