# generated using pymatgen
data_Dy2ErTm7Ru4
_symmetry_space_group_name_H-M   'P 1'
_cell_length_a   6.26622622
_cell_length_b   7.24193345
_cell_length_c   8.37008432
_cell_angle_alpha   96.84631986
_cell_angle_beta   112.07434062
_cell_angle_gamma   89.99789066
_symmetry_Int_Tables_number   1
_chemical_formula_structural   Dy2ErTm7Ru4
_chemical_formula_sum   'Dy2 Er1 Tm7 Ru4'
_cell_volume   349.06459507
_cell_formula_units_Z   1
loop_
 _symmetry_equiv_pos_site_id
 _symmetry_equiv_pos_as_xyz
  1  'x, y, z'
loop_
 _atom_site_type_symbol
 _atom_site_label
 _atom_site_symmetry_multiplicity
 _atom_site_fract_x
 _atom_site_fract_y
 _atom_site_fract_z
 _atom_site_occupancy
  Dy  Dy0  1  0.976887  0.416230  0.186538  1
  Dy  Dy1  1  0.209972  0.916072  0.186954  1
  Er  Er2  1  0.790731  0.084042  0.812473  1
  Tm  Tm3  1  0.021806  0.584236  0.813067  1
  Tm  Tm4  1  0.206062  0.184270  0.566152  1
  Tm  Tm5  1  0.640512  0.315926  0.435326  1
  Tm  Tm6  1  0.794737  0.815723  0.434966  1
  Tm  Tm7  1  0.359783  0.684416  0.565967  1
  Tm  Tm8  1  0.419278  0.249753  0.999271  1
  Tm  Tm9  1  0.579996  0.750195  0.999646  1
  Ru  Ru10  1  0.602478  0.424099  0.778829  1
  Ru  Ru11  1  0.821567  0.076625  0.220859  1
  Ru  Ru12  1  0.399362  0.575804  0.220838  1
  Ru  Ru13  1  0.176831  0.922611  0.779114  1
