# generated using pymatgen
data_Tb3PaCo3
_symmetry_space_group_name_H-M   'P 1'
_cell_length_a   5.91839130
_cell_length_b   5.91839138
_cell_length_c   14.10710700
_cell_angle_alpha   90.00000000
_cell_angle_beta   90.00000000
_cell_angle_gamma   143.57222006
_symmetry_Int_Tables_number   1
_chemical_formula_structural   Tb3PaCo3
_chemical_formula_sum   'Tb6 Pa2 Co6'
_cell_volume   293.42164292
_cell_formula_units_Z   2
loop_
 _symmetry_equiv_pos_site_id
 _symmetry_equiv_pos_as_xyz
  1  'x, y, z'
loop_
 _atom_site_type_symbol
 _atom_site_label
 _atom_site_symmetry_multiplicity
 _atom_site_fract_x
 _atom_site_fract_y
 _atom_site_fract_z
 _atom_site_occupancy
  Tb  Tb0  1  0.780933  0.219067  0.385417  1
  Tb  Tb1  1  0.219067  0.780933  0.614583  1
  Tb  Tb2  1  0.780933  0.219067  0.114583  1
  Tb  Tb3  1  0.219067  0.780933  0.885417  1
  Tb  Tb4  1  0.508762  0.491238  0.250000  1
  Tb  Tb5  1  0.491238  0.508762  0.750000  1
  Pa  Pa6  1  0.500000  0.500000  0.500000  1
  Pa  Pa7  1  0.500000  0.500000  0.000000  1
  Co  Co8  1  0.081028  0.918972  0.400780  1
  Co  Co9  1  0.918972  0.081028  0.599220  1
  Co  Co10  1  0.081028  0.918972  0.099220  1
  Co  Co11  1  0.918972  0.081028  0.900780  1
  Co  Co12  1  0.203793  0.796207  0.250000  1
  Co  Co13  1  0.796207  0.203793  0.750000  1
