# generated using pymatgen
data_Ac2LaIn3GeRh2
_symmetry_space_group_name_H-M   'P 1'
_cell_length_a   7.78678563
_cell_length_b   7.76571166
_cell_length_c   4.39148400
_cell_angle_alpha   90.00000000
_cell_angle_beta   90.00000000
_cell_angle_gamma   119.88386772
_symmetry_Int_Tables_number   1
_chemical_formula_structural   Ac2LaIn3GeRh2
_chemical_formula_sum   'Ac2 La1 In3 Ge1 Rh2'
_cell_volume   230.24406831
_cell_formula_units_Z   1
loop_
 _symmetry_equiv_pos_site_id
 _symmetry_equiv_pos_as_xyz
  1  'x, y, z'
loop_
 _atom_site_type_symbol
 _atom_site_label
 _atom_site_symmetry_multiplicity
 _atom_site_fract_x
 _atom_site_fract_y
 _atom_site_fract_z
 _atom_site_occupancy
  Ac  Ac0  1  0.415801  0.405484  0.500000  1
  Ac  Ac1  1  0.595548  0.010221  0.500000  1
  La  La2  1  0.989402  0.584947  0.500000  1
  In  In3  1  0.769944  0.752212  0.000000  1
  In  In4  1  0.988932  0.239449  0.000000  1
  In  In5  1  0.244683  0.008328  0.000000  1
  Ge  Ge6  1  0.323978  0.664186  0.000000  1
  Rh  Rh7  1  0.999550  0.997675  0.500000  1
  Rh  Rh8  1  0.672164  0.337496  0.000000  1
