# generated using pymatgen
data_Nb3Tl8SbCl24
_symmetry_space_group_name_H-M   'P 1'
_cell_length_a   12.63605302
_cell_length_b   12.63605316
_cell_length_c   12.64755000
_cell_angle_alpha   131.43262688
_cell_angle_beta   131.43262142
_cell_angle_gamma   71.06091245
_symmetry_Int_Tables_number   1
_chemical_formula_structural   Nb3Tl8SbCl24
_chemical_formula_sum   'Nb3 Tl8 Sb1 Cl24'
_cell_volume   1111.81315891
_cell_formula_units_Z   1
loop_
 _symmetry_equiv_pos_site_id
 _symmetry_equiv_pos_as_xyz
  1  'x, y, z'
loop_
 _atom_site_type_symbol
 _atom_site_label
 _atom_site_symmetry_multiplicity
 _atom_site_fract_x
 _atom_site_fract_y
 _atom_site_fract_z
 _atom_site_occupancy
  Nb  Nb0  1  0.749996  0.250004  0.500000  1
  Nb  Nb1  1  0.500044  0.499956  0.000000  1
  Nb  Nb2  1  0.249897  0.750103  0.500000  1
  Tl  Tl3  1  0.116451  0.643511  0.998537  1
  Tl  Tl4  1  0.356489  0.883549  0.001463  1
  Tl  Tl5  1  0.645092  0.643493  0.527163  1
  Tl  Tl6  1  0.356507  0.354908  0.472837  1
  Tl  Tl7  1  0.882059  0.354973  0.998504  1
  Tl  Tl8  1  0.882024  0.883635  0.527121  1
  Tl  Tl9  1  0.116365  0.117976  0.472879  1
  Tl  Tl10  1  0.645027  0.117941  0.001496  1
  Sb  Sb11  1  0.000000  0.000000  0.000000  1
  Cl  Cl12  1  0.255882  0.999677  0.255905  1
  Cl  Cl13  1  0.000323  0.744118  0.744095  1
  Cl  Cl14  1  0.250870  0.983774  0.732327  1
  Cl  Cl15  1  0.748924  0.481640  0.732374  1
  Cl  Cl16  1  0.481343  0.748615  0.732110  1
  Cl  Cl17  1  0.129463  0.129457  0.000094  1
  Cl  Cl18  1  0.499612  0.733078  0.233017  1
  Cl  Cl19  1  0.867751  0.367735  0.500013  1
  Cl  Cl20  1  0.000003  0.256215  0.255905  1
  Cl  Cl21  1  0.383040  0.382945  0.999966  1
  Cl  Cl22  1  0.617055  0.616960  0.000034  1
  Cl  Cl23  1  0.500148  0.266555  0.766990  1
  Cl  Cl24  1  0.266922  0.500388  0.766983  1
  Cl  Cl25  1  0.518360  0.251076  0.267626  1
  Cl  Cl26  1  0.367569  0.867616  0.500225  1
  Cl  Cl27  1  0.632265  0.132249  0.499987  1
  Cl  Cl28  1  0.251385  0.518657  0.267890  1
  Cl  Cl29  1  0.132384  0.632431  0.499775  1
  Cl  Cl30  1  0.016226  0.749130  0.267673  1
  Cl  Cl31  1  0.983404  0.250650  0.732328  1
  Cl  Cl32  1  0.743785  0.999997  0.744095  1
  Cl  Cl33  1  0.733445  0.499852  0.233010  1
  Cl  Cl34  1  0.749350  0.016596  0.267672  1
  Cl  Cl35  1  0.870543  0.870537  0.999906  1
