# generated using pymatgen
data_Zr2Ni2Hg
_symmetry_space_group_name_H-M   'P 1'
_cell_length_a   7.22035600
_cell_length_b   7.22035600
_cell_length_c   6.63644500
_cell_angle_alpha   90.00000000
_cell_angle_beta   90.00000000
_cell_angle_gamma   90.00000000
_symmetry_Int_Tables_number   1
_chemical_formula_structural   Zr2Ni2Hg
_chemical_formula_sum   'Zr8 Ni8 Hg4'
_cell_volume   345.98137595
_cell_formula_units_Z   4
loop_
 _symmetry_equiv_pos_site_id
 _symmetry_equiv_pos_as_xyz
  1  'x, y, z'
loop_
 _atom_site_type_symbol
 _atom_site_label
 _atom_site_symmetry_multiplicity
 _atom_site_fract_x
 _atom_site_fract_y
 _atom_site_fract_z
 _atom_site_occupancy
  Zr  Zr0  1  0.338708  0.661292  0.000000  1
  Zr  Zr1  1  0.661292  0.338708  0.000000  1
  Zr  Zr2  1  0.838708  0.838708  0.500000  1
  Zr  Zr3  1  0.161292  0.161292  0.500000  1
  Zr  Zr4  1  0.177704  0.177704  0.000000  1
  Zr  Zr5  1  0.822296  0.822296  0.000000  1
  Zr  Zr6  1  0.677704  0.322296  0.500000  1
  Zr  Zr7  1  0.322296  0.677704  0.500000  1
  Ni  Ni8  1  0.376601  0.376601  0.271403  1
  Ni  Ni9  1  0.623400  0.623400  0.271403  1
  Ni  Ni10  1  0.876601  0.123399  0.228597  1
  Ni  Ni11  1  0.123399  0.876601  0.228597  1
  Ni  Ni12  1  0.623400  0.623400  0.728598  1
  Ni  Ni13  1  0.376601  0.376601  0.728598  1
  Ni  Ni14  1  0.876601  0.123399  0.771402  1
  Ni  Ni15  1  0.123399  0.876601  0.771402  1
  Hg  Hg16  1  0.000000  0.500000  0.250001  1
  Hg  Hg17  1  0.500000  0.000000  0.250001  1
  Hg  Hg18  1  0.500000  0.000000  0.750000  1
  Hg  Hg19  1  0.000000  0.500000  0.750000  1
