# generated using pymatgen
data_Mn3FeBi24(SO8)8
_symmetry_space_group_name_H-M   'P 1'
_cell_length_a   5.68820500
_cell_length_b   23.51955477
_cell_length_c   11.48185300
_cell_angle_alpha   85.42719345
_cell_angle_beta   89.99797538
_cell_angle_gamma   90.00246226
_symmetry_Int_Tables_number   1
_chemical_formula_structural   Mn3FeBi24(SO8)8
_chemical_formula_sum   'Mn3 Fe1 Bi24 S8 O64'
_cell_volume   1531.19915121
_cell_formula_units_Z   1
loop_
 _symmetry_equiv_pos_site_id
 _symmetry_equiv_pos_as_xyz
  1  'x, y, z'
loop_
 _atom_site_type_symbol
 _atom_site_label
 _atom_site_symmetry_multiplicity
 _atom_site_fract_x
 _atom_site_fract_y
 _atom_site_fract_z
 _atom_site_occupancy
  Mn  Mn0  1  0.127627  0.499998  0.000016  1
  Mn  Mn1  1  0.643903  0.750040  0.500193  1
  Mn  Mn2  1  0.643603  0.249976  0.499842  1
  Fe  Fe3  1  0.126848  0.999998  0.999978  1
  Bi  Bi4  1  0.124558  0.827084  0.991337  1
  Bi  Bi5  1  0.624615  0.076837  0.496460  1
  Bi  Bi6  1  0.126123  0.326740  0.991899  1
  Bi  Bi7  1  0.626685  0.576928  0.494244  1
  Bi  Bi8  1  0.125993  0.673241  0.008151  1
  Bi  Bi9  1  0.624576  0.923160  0.503482  1
  Bi  Bi10  1  0.124642  0.172910  0.008631  1
  Bi  Bi11  1  0.626689  0.423092  0.505789  1
  Bi  Bi12  1  0.628346  0.762301  0.168663  1
  Bi  Bi13  1  0.127953  0.010078  0.669960  1
  Bi  Bi14  1  0.630043  0.261802  0.168858  1
  Bi  Bi15  1  0.130522  0.510780  0.669169  1
  Bi  Bi16  1  0.629979  0.738178  0.831178  1
  Bi  Bi17  1  0.127936  0.989922  0.329982  1
  Bi  Bi18  1  0.628521  0.237702  0.831328  1
  Bi  Bi19  1  0.130657  0.489225  0.330838  1
  Bi  Bi20  1  0.051955  0.668274  0.674554  1
  Bi  Bi21  1  0.547982  0.920413  0.168525  1
  Bi  Bi22  1  0.050970  0.168119  0.674917  1
  Bi  Bi23  1  0.550110  0.419351  0.171478  1
  Bi  Bi24  1  0.050939  0.831886  0.324998  1
  Bi  Bi25  1  0.548000  0.079593  0.831418  1
  Bi  Bi26  1  0.051905  0.331722  0.325536  1
  Bi  Bi27  1  0.549996  0.580638  0.828567  1
  S  S28  1  0.675306  0.923817  0.865995  1
  S  S29  1  0.172167  0.175456  0.367867  1
  S  S30  1  0.671377  0.423853  0.865659  1
  S  S31  1  0.172867  0.675627  0.368051  1
  S  S32  1  0.671065  0.576148  0.134378  1
  S  S33  1  0.172089  0.824523  0.631972  1
  S  S34  1  0.675343  0.076174  0.133966  1
  S  S35  1  0.172706  0.324406  0.632129  1
  O  O36  1  0.879027  0.750020  0.000228  1
  O  O37  1  0.378068  0.000000  0.499982  1
  O  O38  1  0.879090  0.249967  0.999788  1
  O  O39  1  0.379995  0.500008  0.499999  1
  O  O40  1  0.357604  0.750182  0.999890  1
  O  O41  1  0.857509  0.000000  0.499987  1
  O  O42  1  0.357744  0.249803  0.000128  1
  O  O43  1  0.858433  0.500008  0.499996  1
  O  O44  1  0.899669  0.938012  0.927220  1
  O  O45  1  0.396288  0.190509  0.427740  1
  O  O46  1  0.895551  0.438217  0.927030  1
  O  O47  1  0.397157  0.690539  0.427889  1
  O  O48  1  0.895004  0.561690  0.072912  1
  O  O49  1  0.396107  0.809508  0.571974  1
  O  O50  1  0.899750  0.061995  0.072757  1
  O  O51  1  0.396986  0.309412  0.572365  1
  O  O52  1  0.471994  0.932807  0.947364  1
  O  O53  1  0.970397  0.184883  0.450199  1
  O  O54  1  0.469348  0.433213  0.947588  1
  O  O55  1  0.971227  0.685147  0.450440  1
  O  O56  1  0.468828  0.566910  0.052497  1
  O  O57  1  0.970196  0.815088  0.549716  1
  O  O58  1  0.472077  0.067167  0.052587  1
  O  O59  1  0.971100  0.314932  0.549699  1
  O  O60  1  0.684950  0.863753  0.838654  1
  O  O61  1  0.181248  0.115080  0.342690  1
  O  O62  1  0.680239  0.363760  0.838714  1
  O  O63  1  0.181188  0.615270  0.342754  1
  O  O64  1  0.680495  0.636230  0.161381  1
  O  O65  1  0.181094  0.884896  0.657169  1
  O  O66  1  0.684914  0.136238  0.161309  1
  O  O67  1  0.181352  0.384768  0.657384  1
  O  O68  1  0.142541  0.715111  0.259775  1
  O  O69  1  0.647541  0.964055  0.758709  1
  O  O70  1  0.141786  0.214855  0.259506  1
  O  O71  1  0.644329  0.463962  0.758196  1
  O  O72  1  0.141923  0.785106  0.740323  1
  O  O73  1  0.647575  0.035934  0.241252  1
  O  O74  1  0.142087  0.284951  0.740425  1
  O  O75  1  0.643838  0.536035  0.241821  1
  O  O76  1  0.703061  0.796380  0.346860  1
  O  O77  1  0.198846  0.043303  0.851375  1
  O  O78  1  0.703417  0.296356  0.346730  1
  O  O79  1  0.201729  0.545049  0.848063  1
  O  O80  1  0.703480  0.703654  0.653341  1
  O  O81  1  0.198819  0.956694  0.148581  1
  O  O82  1  0.703090  0.203608  0.653084  1
  O  O83  1  0.201879  0.454953  0.151952  1
  O  O84  1  0.892544  0.833988  0.144822  1
  O  O85  1  0.392639  0.081701  0.650242  1
  O  O86  1  0.893859  0.333557  0.145068  1
  O  O87  1  0.394720  0.582556  0.647631  1
  O  O88  1  0.893753  0.666417  0.855001  1
  O  O89  1  0.392616  0.918305  0.349702  1
  O  O90  1  0.892642  0.166021  0.855120  1
  O  O91  1  0.394726  0.417443  0.352410  1
  O  O92  1  0.384788  0.836983  0.144144  1
  O  O93  1  0.887049  0.084898  0.647852  1
  O  O94  1  0.386430  0.336280  0.144574  1
  O  O95  1  0.887844  0.585276  0.646318  1
  O  O96  1  0.386320  0.663709  0.855461  1
  O  O97  1  0.886988  0.915107  0.352093  1
  O  O98  1  0.384877  0.163022  0.855816  1
  O  O99  1  0.887897  0.414729  0.353710  1
