# generated using pymatgen
data_TbHo2WO7
_symmetry_space_group_name_H-M   'P 1'
_cell_length_a   6.45697693
_cell_length_b   6.45697715
_cell_length_c   7.49614900
_cell_angle_alpha   90.00000000
_cell_angle_beta   90.00000000
_cell_angle_gamma   109.27725731
_symmetry_Int_Tables_number   1
_chemical_formula_structural   TbHo2WO7
_chemical_formula_sum   'Tb2 Ho4 W2 O14'
_cell_volume   295.01047438
_cell_formula_units_Z   2
loop_
 _symmetry_equiv_pos_site_id
 _symmetry_equiv_pos_as_xyz
  1  'x, y, z'
loop_
 _atom_site_type_symbol
 _atom_site_label
 _atom_site_symmetry_multiplicity
 _atom_site_fract_x
 _atom_site_fract_y
 _atom_site_fract_z
 _atom_site_occupancy
  Tb  Tb0  1  0.500000  0.500000  0.500000  1
  Tb  Tb1  1  0.500000  0.500000  0.000000  1
  Ho  Ho2  1  0.532999  0.001596  0.750000  1
  Ho  Ho3  1  0.001596  0.532999  0.250000  1
  Ho  Ho4  1  0.467001  0.998404  0.250000  1
  Ho  Ho5  1  0.998404  0.467001  0.750000  1
  W  W6  1  0.000000  0.000000  0.500000  1
  W  W7  1  0.000000  0.000000  0.000000  1
  O  O8  1  0.676347  0.924833  0.470332  1
  O  O9  1  0.924833  0.676347  0.529668  1
  O  O10  1  0.676347  0.924833  0.029668  1
  O  O11  1  0.924833  0.676347  0.970332  1
  O  O12  1  0.323653  0.075167  0.529668  1
  O  O13  1  0.075167  0.323653  0.470332  1
  O  O14  1  0.323653  0.075167  0.970332  1
  O  O15  1  0.075167  0.323653  0.029668  1
  O  O16  1  0.925329  0.074671  0.750000  1
  O  O17  1  0.074671  0.925329  0.250000  1
  O  O18  1  0.367287  0.632713  0.750000  1
  O  O19  1  0.632713  0.367287  0.250000  1
  O  O20  1  0.637778  0.362222  0.750000  1
  O  O21  1  0.362222  0.637778  0.250000  1
