# generated using pymatgen
data_Ce5Dy3(Ta3Si4)4
_symmetry_space_group_name_H-M   'P 1'
_cell_length_a   6.91076356
_cell_length_b   7.09599778
_cell_length_c   13.43628930
_cell_angle_alpha   89.89979650
_cell_angle_beta   90.06747334
_cell_angle_gamma   89.97340420
_symmetry_Int_Tables_number   1
_chemical_formula_structural   Ce5Dy3(Ta3Si4)4
_chemical_formula_sum   'Ce5 Dy3 Ta12 Si16'
_cell_volume   658.89746872
_cell_formula_units_Z   1
loop_
 _symmetry_equiv_pos_site_id
 _symmetry_equiv_pos_as_xyz
  1  'x, y, z'
loop_
 _atom_site_type_symbol
 _atom_site_label
 _atom_site_symmetry_multiplicity
 _atom_site_fract_x
 _atom_site_fract_y
 _atom_site_fract_z
 _atom_site_occupancy
  Ce  Ce0  1  0.503359  0.332619  0.094300  1
  Ce  Ce1  1  0.003536  0.170404  0.404688  1
  Ce  Ce2  1  0.496253  0.670018  0.594485  1
  Ce  Ce3  1  0.996959  0.829236  0.904846  1
  Ce  Ce4  1  0.497459  0.669061  0.905763  1
  Dy  Dy5  1  0.999328  0.829956  0.594619  1
  Dy  Dy6  1  0.501854  0.329753  0.404143  1
  Dy  Dy7  1  0.000959  0.169995  0.096673  1
  Ta  Ta8  1  0.664518  0.006392  0.749925  1
  Ta  Ta9  1  0.165384  0.492235  0.750182  1
  Ta  Ta10  1  0.334923  0.992619  0.249647  1
  Ta  Ta11  1  0.835642  0.508127  0.251172  1
  Ta  Ta12  1  0.837571  0.325434  0.624910  1
  Ta  Ta13  1  0.336517  0.172304  0.874333  1
  Ta  Ta14  1  0.163733  0.673124  0.125371  1
  Ta  Ta15  1  0.663461  0.826930  0.375037  1
  Ta  Ta16  1  0.160288  0.674331  0.374641  1
  Ta  Ta17  1  0.659181  0.825895  0.125692  1
  Ta  Ta18  1  0.839213  0.326216  0.874262  1
  Ta  Ta19  1  0.339536  0.173590  0.625383  1
  Si  Si20  1  0.799792  0.623910  0.748610  1
  Si  Si21  1  0.298260  0.875818  0.748962  1
  Si  Si22  1  0.201870  0.375699  0.250162  1
  Si  Si23  1  0.700844  0.125117  0.250081  1
  Si  Si24  1  0.542831  0.374887  0.750088  1
  Si  Si25  1  0.042456  0.124599  0.749103  1
  Si  Si26  1  0.457700  0.624962  0.251235  1
  Si  Si27  1  0.957081  0.875039  0.249319  1
  Si  Si28  1  0.664095  0.039386  0.541906  1
  Si  Si29  1  0.161773  0.457794  0.958468  1
  Si  Si30  1  0.334811  0.961588  0.043008  1
  Si  Si31  1  0.835163  0.539579  0.458073  1
  Si  Si32  1  0.339421  0.961755  0.457134  1
  Si  Si33  1  0.841036  0.538935  0.043631  1
  Si  Si34  1  0.662429  0.040671  0.957885  1
  Si  Si35  1  0.160759  0.462020  0.542263  1
