# generated using pymatgen
data_Dy4TaRh3F28
_symmetry_space_group_name_H-M   'P 1'
_cell_length_a   5.60294226
_cell_length_b   8.87444462
_cell_length_c   11.97812057
_cell_angle_alpha   62.61307755
_cell_angle_beta   90.30978000
_cell_angle_gamma   89.79110594
_symmetry_Int_Tables_number   1
_chemical_formula_structural   Dy4TaRh3F28
_chemical_formula_sum   'Dy4 Ta1 Rh3 F28'
_cell_volume   528.81447933
_cell_formula_units_Z   1
loop_
 _symmetry_equiv_pos_site_id
 _symmetry_equiv_pos_as_xyz
  1  'x, y, z'
loop_
 _atom_site_type_symbol
 _atom_site_label
 _atom_site_symmetry_multiplicity
 _atom_site_fract_x
 _atom_site_fract_y
 _atom_site_fract_z
 _atom_site_occupancy
  Dy  Dy0  1  0.757816  0.821578  0.760555  1
  Dy  Dy1  1  0.256487  0.187108  0.723696  1
  Dy  Dy2  1  0.237852  0.183304  0.250024  1
  Dy  Dy3  1  0.738756  0.802405  0.273578  1
  Ta  Ta4  1  0.759387  0.273972  0.956043  1
  Rh  Rh5  1  0.254813  0.723084  0.547410  1
  Rh  Rh6  1  0.240653  0.728858  0.041998  1
  Rh  Rh7  1  0.740679  0.271222  0.458027  1
  F  F8  1  0.450794  0.708409  0.918872  1
  F  F9  1  0.932699  0.292713  0.588433  1
  F  F10  1  0.560918  0.298038  0.075746  1
  F  F11  1  0.049819  0.703875  0.421021  1
  F  F12  1  0.438914  0.278352  0.540203  1
  F  F13  1  0.953914  0.720182  0.948140  1
  F  F14  1  0.543967  0.715986  0.456638  1
  F  F15  1  0.051326  0.277945  0.042261  1
  F  F16  1  0.773415  0.516604  0.860543  1
  F  F17  1  0.269303  0.474434  0.646739  1
  F  F18  1  0.228681  0.477843  0.140164  1
  F  F19  1  0.729586  0.516928  0.359842  1
  F  F20  1  0.755129  0.032776  0.047021  1
  F  F21  1  0.252345  0.971092  0.452972  1
  F  F22  1  0.239221  0.978301  0.942218  1
  F  F23  1  0.738355  0.024904  0.551525  1
  F  F24  1  0.972603  0.723674  0.644233  1
  F  F25  1  0.481721  0.271582  0.861249  1
  F  F26  1  0.032877  0.269782  0.368859  1
  F  F27  1  0.519073  0.733798  0.141276  1
  F  F28  1  0.035881  0.749704  0.167471  1
  F  F29  1  0.557637  0.251268  0.324188  1
  F  F30  1  0.954957  0.257201  0.829092  1
  F  F31  1  0.457716  0.740114  0.676341  1
  F  F32  1  0.432899  0.982681  0.231363  1
  F  F33  1  0.922471  0.030196  0.260550  1
  F  F34  1  0.590292  0.039426  0.766695  1
  F  F35  1  0.087044  0.970660  0.725016  1
