# generated using pymatgen
data_CdMoO3F2
_symmetry_space_group_name_H-M   'P 1'
_cell_length_a   3.73092794
_cell_length_b   10.29552600
_cell_length_c   5.76217691
_cell_angle_alpha   90.00000000
_cell_angle_beta   108.87845128
_cell_angle_gamma   90.00000000
_symmetry_Int_Tables_number   1
_chemical_formula_structural   CdMoO3F2
_chemical_formula_sum   'Cd2 Mo2 O6 F4'
_cell_volume   209.42966509
_cell_formula_units_Z   2
loop_
 _symmetry_equiv_pos_site_id
 _symmetry_equiv_pos_as_xyz
  1  'x, y, z'
loop_
 _atom_site_type_symbol
 _atom_site_label
 _atom_site_symmetry_multiplicity
 _atom_site_fract_x
 _atom_site_fract_y
 _atom_site_fract_z
 _atom_site_occupancy
  Cd  Cd0  1  0.000005  0.000004  0.000014  1
  Cd  Cd1  1  0.000005  0.499996  0.000014  1
  Mo  Mo2  1  0.721601  0.250000  0.450737  1
  Mo  Mo3  1  0.278369  0.750000  0.549204  1
  O  O4  1  0.179661  0.250000  0.363976  1
  O  O5  1  0.176688  0.617566  0.346175  1
  O  O6  1  0.176688  0.882434  0.346175  1
  O  O7  1  0.823334  0.117530  0.653849  1
  O  O8  1  0.823334  0.382470  0.653849  1
  O  O9  1  0.820348  0.750000  0.636042  1
  F  F10  1  0.567413  0.113910  0.135532  1
  F  F11  1  0.567413  0.386090  0.135532  1
  F  F12  1  0.432572  0.613912  0.864452  1
  F  F13  1  0.432572  0.886088  0.864452  1
