# generated using pymatgen
data_Tb2ZnCoIr
_symmetry_space_group_name_H-M   'P 1'
_cell_length_a   4.15262580
_cell_length_b   5.43310324
_cell_length_c   5.43310349
_cell_angle_alpha   62.32412090
_cell_angle_beta   67.53247568
_cell_angle_gamma   67.53247925
_symmetry_Int_Tables_number   1
_chemical_formula_structural   Tb2ZnCoIr
_chemical_formula_sum   'Tb2 Zn1 Co1 Ir1'
_cell_volume   97.12803883
_cell_formula_units_Z   1
loop_
 _symmetry_equiv_pos_site_id
 _symmetry_equiv_pos_as_xyz
  1  'x, y, z'
loop_
 _atom_site_type_symbol
 _atom_site_label
 _atom_site_symmetry_multiplicity
 _atom_site_fract_x
 _atom_site_fract_y
 _atom_site_fract_z
 _atom_site_occupancy
  Tb  Tb0  1  0.208697  0.287558  0.295048  1
  Tb  Tb1  1  0.791303  0.704952  0.712442  1
  Zn  Zn2  1  0.000000  0.986685  0.013315  1
  Co  Co3  1  0.500000  0.726871  0.273129  1
  Ir  Ir4  1  0.500000  0.293934  0.706066  1
