# generated using pymatgen
data_Lu3Sc(MoOs3)2
_symmetry_space_group_name_H-M   'P 1'
_cell_length_a   5.39575800
_cell_length_b   5.39575670
_cell_length_c   8.51858300
_cell_angle_alpha   90.00000000
_cell_angle_beta   90.00000000
_cell_angle_gamma   120.00000797
_symmetry_Int_Tables_number   1
_chemical_formula_structural   Lu3Sc(MoOs3)2
_chemical_formula_sum   'Lu3 Sc1 Mo2 Os6'
_cell_volume   214.78442135
_cell_formula_units_Z   1
loop_
 _symmetry_equiv_pos_site_id
 _symmetry_equiv_pos_as_xyz
  1  'x, y, z'
loop_
 _atom_site_type_symbol
 _atom_site_label
 _atom_site_symmetry_multiplicity
 _atom_site_fract_x
 _atom_site_fract_y
 _atom_site_fract_z
 _atom_site_occupancy
  Lu  Lu0  1  0.333333  0.666667  0.433271  1
  Lu  Lu1  1  0.666667  0.333333  0.564918  1
  Lu  Lu2  1  0.666667  0.333333  0.936530  1
  Sc  Sc3  1  0.333333  0.666667  0.065687  1
  Mo  Mo4  1  0.000000  0.000000  0.000431  1
  Mo  Mo5  1  0.000000  0.000000  0.499757  1
  Os  Os6  1  0.173875  0.347750  0.751296  1
  Os  Os7  1  0.173875  0.826125  0.751296  1
  Os  Os8  1  0.347018  0.173509  0.248507  1
  Os  Os9  1  0.826491  0.652982  0.248507  1
  Os  Os10  1  0.652250  0.826125  0.751296  1
  Os  Os11  1  0.826491  0.173509  0.248507  1
