# generated using pymatgen
data_Yb3Y(BeSi3)2
_symmetry_space_group_name_H-M   'P 1'
_cell_length_a   8.00688419
_cell_length_b   7.84888409
_cell_length_c   5.77018421
_cell_angle_alpha   70.12787823
_cell_angle_beta   67.20479877
_cell_angle_gamma   42.66733725
_symmetry_Int_Tables_number   1
_chemical_formula_structural   Yb3Y(BeSi3)2
_chemical_formula_sum   'Yb3 Y1 Be2 Si6'
_cell_volume   225.69131775
_cell_formula_units_Z   1
loop_
 _symmetry_equiv_pos_site_id
 _symmetry_equiv_pos_as_xyz
  1  'x, y, z'
loop_
 _atom_site_type_symbol
 _atom_site_label
 _atom_site_symmetry_multiplicity
 _atom_site_fract_x
 _atom_site_fract_y
 _atom_site_fract_z
 _atom_site_occupancy
  Yb  Yb0  1  0.243193  0.756807  0.243194  1
  Yb  Yb1  1  0.756807  0.243194  0.756808  1
  Yb  Yb2  1  0.750001  0.749999  0.750000  1
  Y  Y3  1  0.250000  0.250000  0.250001  1
  Be  Be4  1  0.666684  0.666685  0.333316  1
  Be  Be5  1  0.333315  0.333316  0.666685  1
  Si  Si6  1  0.825871  0.346901  0.174233  1
  Si  Si7  1  0.827127  0.827127  0.172874  1
  Si  Si8  1  0.652995  0.174233  0.346901  1
  Si  Si9  1  0.346901  0.825871  0.652996  1
  Si  Si10  1  0.172873  0.172874  0.827128  1
  Si  Si11  1  0.174232  0.652996  0.825871  1
