# generated using pymatgen
data_TbEu2YMnW3O14
_symmetry_space_group_name_H-M   'P 1'
_cell_length_a   7.57898832
_cell_length_b   7.44240370
_cell_length_c   7.58669683
_cell_angle_alpha   58.70352509
_cell_angle_beta   59.97276548
_cell_angle_gamma   59.32066441
_symmetry_Int_Tables_number   1
_chemical_formula_structural   TbEu2YMnW3O14
_chemical_formula_sum   'Tb1 Eu2 Y1 Mn1 W3 O14'
_cell_volume   297.92112211
_cell_formula_units_Z   1
loop_
 _symmetry_equiv_pos_site_id
 _symmetry_equiv_pos_as_xyz
  1  'x, y, z'
loop_
 _atom_site_type_symbol
 _atom_site_label
 _atom_site_symmetry_multiplicity
 _atom_site_fract_x
 _atom_site_fract_y
 _atom_site_fract_z
 _atom_site_occupancy
  Tb  Tb0  1  0.125000  0.125000  0.125000  1
  Eu  Eu1  1  0.125000  0.625000  0.125000  1
  Eu  Eu2  1  0.125000  0.125000  0.625000  1
  Y  Y3  1  0.625000  0.125000  0.125000  1
  Mn  Mn4  1  0.625000  0.125000  0.625000  1
  W  W5  1  0.625000  0.625000  0.625000  1
  W  W6  1  0.125000  0.625000  0.625000  1
  W  W7  1  0.625000  0.625000  0.125000  1
  O  O8  1  0.300140  0.688604  0.710903  1
  O  O9  1  0.535902  0.948692  0.978316  1
  O  O10  1  0.710363  0.688532  0.299662  1
  O  O11  1  0.271843  0.302327  0.721233  1
  O  O12  1  0.987855  0.011275  0.011057  1
  O  O13  1  0.301110  0.688432  0.299573  1
  O  O14  1  0.704496  0.302513  0.720594  1
  O  O15  1  0.948890  0.561568  0.950427  1
  O  O16  1  0.539637  0.561468  0.950338  1
  O  O17  1  0.978157  0.947673  0.528767  1
  O  O18  1  0.262145  0.238725  0.238943  1
  O  O19  1  0.545504  0.947487  0.529406  1
  O  O20  1  0.714098  0.301308  0.271684  1
  O  O21  1  0.949860  0.561396  0.539097  1
