# generated using pymatgen
data_TbDy2Pa(Ga3Ir)6
_symmetry_space_group_name_H-M   'P 1'
_cell_length_a   7.62399701
_cell_length_b   7.61376063
_cell_length_c   9.45363000
_cell_angle_alpha   90.00000000
_cell_angle_beta   90.00000000
_cell_angle_gamma   119.88051060
_symmetry_Int_Tables_number   1
_chemical_formula_structural   TbDy2Pa(Ga3Ir)6
_chemical_formula_sum   'Tb1 Dy2 Pa1 Ga18 Ir6'
_cell_volume   475.80918873
_cell_formula_units_Z   1
loop_
 _symmetry_equiv_pos_site_id
 _symmetry_equiv_pos_as_xyz
  1  'x, y, z'
loop_
 _atom_site_type_symbol
 _atom_site_label
 _atom_site_symmetry_multiplicity
 _atom_site_fract_x
 _atom_site_fract_y
 _atom_site_fract_z
 _atom_site_occupancy
  Tb  Tb0  1  0.330994  0.002914  0.750000  1
  Dy  Dy1  1  0.003951  0.331260  0.750000  1
  Dy  Dy2  1  0.669686  0.996392  0.250000  1
  Pa  Pa3  1  0.997594  0.669131  0.250000  1
  Ga  Ga4  1  0.130320  0.130067  0.250000  1
  Ga  Ga5  1  0.872748  0.873733  0.750000  1
  Ga  Ga6  1  0.998693  0.330914  0.080101  1
  Ga  Ga7  1  0.000911  0.665357  0.917116  1
  Ga  Ga8  1  0.000911  0.665357  0.582884  1
  Ga  Ga9  1  0.338253  0.002529  0.419609  1
  Ga  Ga10  1  0.998693  0.330914  0.419899  1
  Ga  Ga11  1  0.665810  0.001636  0.580830  1
  Ga  Ga12  1  0.665810  0.001636  0.919170  1
  Ga  Ga13  1  0.338253  0.002529  0.080391  1
  Ga  Ga14  1  0.331556  0.331618  0.567200  1
  Ga  Ga15  1  0.664146  0.667655  0.434393  1
  Ga  Ga16  1  0.664146  0.667655  0.065607  1
  Ga  Ga17  1  0.331556  0.331618  0.932800  1
  Ga  Ga18  1  0.339245  0.544678  0.250000  1
  Ga  Ga19  1  0.660483  0.452817  0.750000  1
  Ga  Ga20  1  0.544363  0.340073  0.250000  1
  Ga  Ga21  1  0.452900  0.661223  0.750000  1
  Ir  Ir22  1  0.673991  0.331587  0.002175  1
  Ir  Ir23  1  0.326112  0.671171  0.002209  1
  Ir  Ir24  1  0.326112  0.671171  0.497791  1
  Ir  Ir25  1  0.673991  0.331587  0.497825  1
  Ir  Ir26  1  0.999386  0.996390  0.002681  1
  Ir  Ir27  1  0.999386  0.996390  0.497319  1
