# generated using pymatgen
data_TbY2Cd3Ge2Au
_symmetry_space_group_name_H-M   'P 1'
_cell_length_a   7.34241600
_cell_length_b   7.34379495
_cell_length_c   4.34209700
_cell_angle_alpha   90.00000000
_cell_angle_beta   90.00000000
_cell_angle_gamma   119.99378881
_symmetry_Int_Tables_number   1
_chemical_formula_structural   TbY2Cd3Ge2Au
_chemical_formula_sum   'Tb1 Y2 Cd3 Ge2 Au1'
_cell_volume   202.77614375
_cell_formula_units_Z   1
loop_
 _symmetry_equiv_pos_site_id
 _symmetry_equiv_pos_as_xyz
  1  'x, y, z'
loop_
 _atom_site_type_symbol
 _atom_site_label
 _atom_site_symmetry_multiplicity
 _atom_site_fract_x
 _atom_site_fract_y
 _atom_site_fract_z
 _atom_site_occupancy
  Tb  Tb0  1  0.584401  0.000000  0.000000  1
  Y  Y1  1  0.999956  0.584363  0.000000  1
  Y  Y2  1  0.415593  0.415637  0.000000  1
  Cd  Cd3  1  0.251049  0.000000  0.500000  1
  Cd  Cd4  1  0.000025  0.251111  0.500000  1
  Cd  Cd5  1  0.748914  0.748889  0.500000  1
  Ge  Ge6  1  0.333343  0.666644  0.500000  1
  Ge  Ge7  1  0.666700  0.333356  0.500000  1
  Au  Au8  1  0.000018  0.000000  0.000000  1
