# generated using pymatgen
data_La3Pr3Ta2O14
_symmetry_space_group_name_H-M   'P 1'
_cell_length_a   6.76113972
_cell_length_b   6.74886906
_cell_length_c   7.78927100
_cell_angle_alpha   90.00000000
_cell_angle_beta   90.00000000
_cell_angle_gamma   110.93085468
_symmetry_Int_Tables_number   1
_chemical_formula_structural   La3Pr3Ta2O14
_chemical_formula_sum   'La3 Pr3 Ta2 O14'
_cell_volume   331.97110934
_cell_formula_units_Z   1
loop_
 _symmetry_equiv_pos_site_id
 _symmetry_equiv_pos_as_xyz
  1  'x, y, z'
loop_
 _atom_site_type_symbol
 _atom_site_label
 _atom_site_symmetry_multiplicity
 _atom_site_fract_x
 _atom_site_fract_y
 _atom_site_fract_z
 _atom_site_occupancy
  La  La0  1  0.999904  0.999629  0.999147  1
  La  La1  1  0.999904  0.999629  0.500853  1
  La  La2  1  0.065480  0.522932  0.250000  1
  Pr  Pr3  1  0.478323  0.931435  0.750000  1
  Pr  Pr4  1  0.521225  0.067143  0.250000  1
  Pr  Pr5  1  0.931325  0.478576  0.750000  1
  Ta  Ta6  1  0.499214  0.499404  0.999646  1
  Ta  Ta7  1  0.499214  0.499404  0.500354  1
  O  O8  1  0.845890  0.108256  0.750000  1
  O  O9  1  0.152951  0.892407  0.250000  1
  O  O10  1  0.109210  0.846969  0.750000  1
  O  O11  1  0.891582  0.154389  0.250000  1
  O  O12  1  0.442211  0.188796  0.966795  1
  O  O13  1  0.557485  0.810378  0.466601  1
  O  O14  1  0.189917  0.439928  0.534728  1
  O  O15  1  0.811571  0.561114  0.030302  1
  O  O16  1  0.439241  0.434511  0.250000  1
  O  O17  1  0.564168  0.564884  0.750000  1
  O  O18  1  0.189917  0.439928  0.965272  1
  O  O19  1  0.811571  0.561114  0.469698  1
  O  O20  1  0.442211  0.188796  0.533205  1
  O  O21  1  0.557485  0.810378  0.033399  1
