# generated using pymatgen
data_Ti6CSI9
_symmetry_space_group_name_H-M   'P 1'
_cell_length_a   10.69121890
_cell_length_b   10.83132019
_cell_length_c   12.45425755
_cell_angle_alpha   105.85678927
_cell_angle_beta   106.02428708
_cell_angle_gamma   113.19758955
_symmetry_Int_Tables_number   1
_chemical_formula_structural   Ti6CSI9
_chemical_formula_sum   'Ti12 C2 S2 I18'
_cell_volume   1148.85101774
_cell_formula_units_Z   2
loop_
 _symmetry_equiv_pos_site_id
 _symmetry_equiv_pos_as_xyz
  1  'x, y, z'
loop_
 _atom_site_type_symbol
 _atom_site_label
 _atom_site_symmetry_multiplicity
 _atom_site_fract_x
 _atom_site_fract_y
 _atom_site_fract_z
 _atom_site_occupancy
  Ti  Ti0  1  0.188876  0.118195  0.175408  1
  Ti  Ti1  1  0.811124  0.881805  0.824592  1
  Ti  Ti2  1  0.931055  0.813721  0.041039  1
  Ti  Ti3  1  0.068945  0.186279  0.958961  1
  Ti  Ti4  1  0.880244  0.066254  0.089978  1
  Ti  Ti5  1  0.119756  0.933746  0.910022  1
  Ti  Ti6  1  0.187995  0.121828  0.473828  1
  Ti  Ti7  1  0.812005  0.878172  0.526172  1
  Ti  Ti8  1  0.883874  0.069586  0.388869  1
  Ti  Ti9  1  0.116126  0.930414  0.611131  1
  Ti  Ti10  1  0.928524  0.809859  0.339371  1
  Ti  Ti11  1  0.071476  0.190141  0.660629  1
  C  C12  1  0.000000  0.000000  0.500000  1
  C  C13  1  0.000000  0.000000  0.000000  1
  S  S14  1  0.999825  0.998814  0.251791  1
  S  S15  1  0.000175  0.001186  0.748209  1
  I  I16  1  0.631124  0.766600  0.945014  1
  I  I17  1  0.368876  0.233400  0.054986  1
  I  I18  1  0.567638  0.732403  0.583869  1
  I  I19  1  0.432362  0.267597  0.416131  1
  I  I20  1  0.137823  0.369510  0.530782  1
  I  I21  1  0.862177  0.630490  0.469218  1
  I  I22  1  0.841819  0.573004  0.110427  1
  I  I23  1  0.158181  0.426996  0.889573  1
  I  I24  1  0.233526  0.868963  0.111542  1
  I  I25  1  0.766474  0.131037  0.888458  1
  I  I26  1  0.726016  0.152762  0.220689  1
  I  I27  1  0.273984  0.847238  0.779311  1
  I  I28  1  0.135612  0.362967  0.207230  1
  I  I29  1  0.864388  0.637033  0.792770  1
  I  I30  1  0.233790  0.868824  0.436908  1
  I  I31  1  0.766210  0.131176  0.563092  1
  I  I32  1  0.629004  0.766546  0.268179  1
  I  I33  1  0.370996  0.233454  0.731821  1
