# generated using pymatgen
data_Zr8InCu8Hg3
_symmetry_space_group_name_H-M   'P 1'
_cell_length_a   7.25891400
_cell_length_b   7.25891400
_cell_length_c   6.86818500
_cell_angle_alpha   90.00000000
_cell_angle_beta   90.00000000
_cell_angle_gamma   90.00000000
_symmetry_Int_Tables_number   1
_chemical_formula_structural   Zr8InCu8Hg3
_chemical_formula_sum   'Zr8 In1 Cu8 Hg3'
_cell_volume   361.89725332
_cell_formula_units_Z   1
loop_
 _symmetry_equiv_pos_site_id
 _symmetry_equiv_pos_as_xyz
  1  'x, y, z'
loop_
 _atom_site_type_symbol
 _atom_site_label
 _atom_site_symmetry_multiplicity
 _atom_site_fract_x
 _atom_site_fract_y
 _atom_site_fract_z
 _atom_site_occupancy
  Zr  Zr0  1  0.148298  0.148845  0.000627  1
  Zr  Zr1  1  0.851702  0.851155  0.000627  1
  Zr  Zr2  1  0.648845  0.351702  0.499373  1
  Zr  Zr3  1  0.351155  0.648298  0.499373  1
  Zr  Zr4  1  0.691721  0.305068  0.001240  1
  Zr  Zr5  1  0.308279  0.694932  0.001240  1
  Zr  Zr6  1  0.805068  0.808279  0.498760  1
  Zr  Zr7  1  0.194932  0.191721  0.498760  1
  In  In8  1  0.000000  0.500000  0.750000  1
  Cu  Cu9  1  0.375730  0.376519  0.200525  1
  Cu  Cu10  1  0.624751  0.623300  0.798420  1
  Cu  Cu11  1  0.624270  0.623481  0.200525  1
  Cu  Cu12  1  0.876700  0.124751  0.701580  1
  Cu  Cu13  1  0.876519  0.124270  0.299475  1
  Cu  Cu14  1  0.375249  0.376700  0.798420  1
  Cu  Cu15  1  0.123481  0.875730  0.299475  1
  Cu  Cu16  1  0.123300  0.875249  0.701580  1
  Hg  Hg17  1  0.500000  0.000000  0.250000  1
  Hg  Hg18  1  0.500000  0.000000  0.750000  1
  Hg  Hg19  1  0.000000  0.500000  0.250000  1
