# generated using pymatgen
data_Hf15Sc3FeRe8P
_symmetry_space_group_name_H-M   'P 1'
_cell_length_a   8.59967300
_cell_length_b   8.59967251
_cell_length_c   8.49488400
_cell_angle_alpha   90.00000000
_cell_angle_beta   90.00000000
_cell_angle_gamma   119.99999806
_symmetry_Int_Tables_number   1
_chemical_formula_structural   Hf15Sc3FeRe8P
_chemical_formula_sum   'Hf15 Sc3 Fe1 Re8 P1'
_cell_volume   544.06644687
_cell_formula_units_Z   1
loop_
 _symmetry_equiv_pos_site_id
 _symmetry_equiv_pos_as_xyz
  1  'x, y, z'
loop_
 _atom_site_type_symbol
 _atom_site_label
 _atom_site_symmetry_multiplicity
 _atom_site_fract_x
 _atom_site_fract_y
 _atom_site_fract_z
 _atom_site_occupancy
  Hf  Hf0  1  0.200836  0.799164  0.442366  1
  Hf  Hf1  1  0.200836  0.401670  0.442366  1
  Hf  Hf2  1  0.598330  0.799164  0.442366  1
  Hf  Hf3  1  0.805327  0.194673  0.547966  1
  Hf  Hf4  1  0.805327  0.610654  0.547966  1
  Hf  Hf5  1  0.389346  0.194673  0.547966  1
  Hf  Hf6  1  0.805327  0.194673  0.952034  1
  Hf  Hf7  1  0.805327  0.610654  0.952034  1
  Hf  Hf8  1  0.389346  0.194673  0.952034  1
  Hf  Hf9  1  0.200836  0.799164  0.057634  1
  Hf  Hf10  1  0.200836  0.401670  0.057634  1
  Hf  Hf11  1  0.598330  0.799164  0.057634  1
  Hf  Hf12  1  0.540857  0.459143  0.250000  1
  Hf  Hf13  1  0.540857  0.081715  0.250000  1
  Hf  Hf14  1  0.918285  0.459143  0.250000  1
  Sc  Sc15  1  0.461963  0.538037  0.750000  1
  Sc  Sc16  1  0.461963  0.923927  0.750000  1
  Sc  Sc17  1  0.076073  0.538037  0.750000  1
  Fe  Fe18  1  0.333333  0.666667  0.250000  1
  Re  Re19  1  0.889787  0.110213  0.250000  1
  Re  Re20  1  0.889787  0.779573  0.250000  1
  Re  Re21  1  0.220427  0.110213  0.250000  1
  Re  Re22  1  0.110882  0.889118  0.750000  1
  Re  Re23  1  0.110882  0.221765  0.750000  1
  Re  Re24  1  0.778235  0.889118  0.750000  1
  Re  Re25  1  0.000000  0.000000  0.502751  1
  Re  Re26  1  0.000000  0.000000  0.997249  1
  P  P27  1  0.666667  0.333333  0.750000  1
