# generated using pymatgen
data_Ac3Ho(ZnGe)4
_symmetry_space_group_name_H-M   'P 1'
_cell_length_a   4.34542100
_cell_length_b   4.34542164
_cell_length_c   17.74123900
_cell_angle_alpha   90.00000000
_cell_angle_beta   90.00000000
_cell_angle_gamma   119.99998754
_symmetry_Int_Tables_number   1
_chemical_formula_structural   Ac3Ho(ZnGe)4
_chemical_formula_sum   'Ac3 Ho1 Zn4 Ge4'
_cell_volume   290.12049784
_cell_formula_units_Z   1
loop_
 _symmetry_equiv_pos_site_id
 _symmetry_equiv_pos_as_xyz
  1  'x, y, z'
loop_
 _atom_site_type_symbol
 _atom_site_label
 _atom_site_symmetry_multiplicity
 _atom_site_fract_x
 _atom_site_fract_y
 _atom_site_fract_z
 _atom_site_occupancy
  Ac  Ac0  1  0.000000  0.000000  0.260449  1
  Ac  Ac1  1  0.000000  0.000000  0.739551  1
  Ac  Ac2  1  0.000000  0.000000  0.000000  1
  Ho  Ho3  1  0.000000  0.000000  0.500000  1
  Zn  Zn4  1  0.333333  0.666667  0.135836  1
  Zn  Zn5  1  0.666667  0.333333  0.864164  1
  Zn  Zn6  1  0.666667  0.333333  0.619959  1
  Zn  Zn7  1  0.333333  0.666667  0.380041  1
  Ge  Ge8  1  0.333333  0.666667  0.601631  1
  Ge  Ge9  1  0.666667  0.333333  0.398369  1
  Ge  Ge10  1  0.666667  0.333333  0.125554  1
  Ge  Ge11  1  0.333333  0.666667  0.874446  1
