# generated using pymatgen
data_Sc3Ni8P6Ru
_symmetry_space_group_name_H-M   'P 1'
_cell_length_a   3.64581300
_cell_length_b   10.38520000
_cell_length_c   12.15428400
_cell_angle_alpha   90.00000000
_cell_angle_beta   90.00000000
_cell_angle_gamma   90.00000000
_symmetry_Int_Tables_number   1
_chemical_formula_structural   Sc3Ni8P6Ru
_chemical_formula_sum   'Sc6 Ni16 P12 Ru2'
_cell_volume   460.19154352
_cell_formula_units_Z   2
loop_
 _symmetry_equiv_pos_site_id
 _symmetry_equiv_pos_as_xyz
  1  'x, y, z'
loop_
 _atom_site_type_symbol
 _atom_site_label
 _atom_site_symmetry_multiplicity
 _atom_site_fract_x
 _atom_site_fract_y
 _atom_site_fract_z
 _atom_site_occupancy
  Sc  Sc0  1  0.000000  0.500000  0.526461  1
  Sc  Sc1  1  0.500000  0.000000  0.473539  1
  Sc  Sc2  1  0.500000  0.817004  0.209146  1
  Sc  Sc3  1  0.500000  0.182996  0.209146  1
  Sc  Sc4  1  0.000000  0.682996  0.790854  1
  Sc  Sc5  1  0.000000  0.317004  0.790854  1
  Ni  Ni6  1  0.500000  0.500000  0.699954  1
  Ni  Ni7  1  0.000000  0.000000  0.300046  1
  Ni  Ni8  1  0.000000  0.500000  0.982300  1
  Ni  Ni9  1  0.500000  0.000000  0.017700  1
  Ni  Ni10  1  0.500000  0.331397  0.986940  1
  Ni  Ni11  1  0.500000  0.668603  0.986940  1
  Ni  Ni12  1  0.000000  0.168603  0.013060  1
  Ni  Ni13  1  0.000000  0.831397  0.013060  1
  Ni  Ni14  1  0.500000  0.302301  0.432233  1
  Ni  Ni15  1  0.500000  0.697699  0.432233  1
  Ni  Ni16  1  0.000000  0.197699  0.567767  1
  Ni  Ni17  1  0.000000  0.802301  0.567767  1
  Ni  Ni18  1  0.500000  0.875379  0.706529  1
  Ni  Ni19  1  0.500000  0.124621  0.706529  1
  Ni  Ni20  1  0.000000  0.624621  0.293471  1
  Ni  Ni21  1  0.000000  0.375379  0.293471  1
  P  P22  1  0.500000  0.500000  0.873400  1
  P  P23  1  0.000000  0.000000  0.126600  1
  P  P24  1  0.500000  0.500000  0.355826  1
  P  P25  1  0.000000  0.000000  0.644174  1
  P  P26  1  0.500000  0.317614  0.616628  1
  P  P27  1  0.500000  0.682386  0.616628  1
  P  P28  1  0.000000  0.182386  0.383372  1
  P  P29  1  0.000000  0.817614  0.383372  1
  P  P30  1  0.500000  0.846772  0.888663  1
  P  P31  1  0.500000  0.153228  0.888663  1
  P  P32  1  0.000000  0.653228  0.111337  1
  P  P33  1  0.000000  0.346772  0.111337  1
  Ru  Ru34  1  0.500000  0.500000  0.160936  1
  Ru  Ru35  1  0.000000  0.000000  0.839064  1
