# generated using pymatgen
data_Sr8Cd3HgPb4
_symmetry_space_group_name_H-M   'P 1'
_cell_length_a   8.11354500
_cell_length_b   5.81143400
_cell_length_c   11.62193600
_cell_angle_alpha   90.00000000
_cell_angle_beta   89.99972779
_cell_angle_gamma   90.00000000
_symmetry_Int_Tables_number   1
_chemical_formula_structural   Sr8Cd3HgPb4
_chemical_formula_sum   'Sr8 Cd3 Hg1 Pb4'
_cell_volume   547.98975437
_cell_formula_units_Z   1
loop_
 _symmetry_equiv_pos_site_id
 _symmetry_equiv_pos_as_xyz
  1  'x, y, z'
loop_
 _atom_site_type_symbol
 _atom_site_label
 _atom_site_symmetry_multiplicity
 _atom_site_fract_x
 _atom_site_fract_y
 _atom_site_fract_z
 _atom_site_occupancy
  Sr  Sr0  1  0.000373  0.750000  0.124997  1
  Sr  Sr1  1  0.499709  0.750000  0.125043  1
  Sr  Sr2  1  0.000084  0.250000  0.374726  1
  Sr  Sr3  1  0.500033  0.250000  0.374772  1
  Sr  Sr4  1  0.499622  0.750000  0.625448  1
  Sr  Sr5  1  0.000261  0.750000  0.625495  1
  Sr  Sr6  1  0.499547  0.250000  0.874729  1
  Sr  Sr7  1  0.000369  0.250000  0.874775  1
  Cd  Cd8  1  0.749956  0.250000  0.124655  1
  Cd  Cd9  1  0.249956  0.750000  0.375332  1
  Cd  Cd10  1  0.750044  0.250000  0.624678  1
  Hg  Hg11  1  0.250046  0.750000  0.875352  1
  Pb  Pb12  1  0.250050  0.250000  0.124942  1
  Pb  Pb13  1  0.750050  0.750000  0.375303  1
  Pb  Pb14  1  0.249950  0.250000  0.624450  1
  Pb  Pb15  1  0.749951  0.750000  0.875304  1
