# generated using pymatgen
data_VCrF7
_symmetry_space_group_name_H-M   'P 1'
_cell_length_a   7.38586613
_cell_length_b   7.38586584
_cell_length_c   7.38586537
_cell_angle_alpha   123.98884243
_cell_angle_beta   120.25628054
_cell_angle_gamma   86.39370795
_symmetry_Int_Tables_number   1
_chemical_formula_structural   VCrF7
_chemical_formula_sum   'V2 Cr2 F14'
_cell_volume   274.76891402
_cell_formula_units_Z   2
loop_
 _symmetry_equiv_pos_site_id
 _symmetry_equiv_pos_as_xyz
  1  'x, y, z'
loop_
 _atom_site_type_symbol
 _atom_site_label
 _atom_site_symmetry_multiplicity
 _atom_site_fract_x
 _atom_site_fract_y
 _atom_site_fract_z
 _atom_site_occupancy
  V  V0  1  0.000000  0.500000  0.500000  1
  V  V1  1  0.500000  0.000000  0.500000  1
  Cr  Cr2  1  0.500000  0.500000  0.500000  1
  Cr  Cr3  1  0.000000  0.500000  0.000000  1
  F  F4  1  0.052166  0.794777  0.742611  1
  F  F5  1  0.566005  0.816272  0.626716  1
  F  F6  1  0.189556  0.816272  0.250268  1
  F  F7  1  0.552166  0.809555  0.257389  1
  F  F8  1  0.250000  0.407100  0.157100  1
  F  F9  1  0.066005  0.439289  0.749732  1
  F  F10  1  0.689556  0.439289  0.373284  1
  F  F11  1  0.310444  0.560711  0.626716  1
  F  F12  1  0.933995  0.560711  0.250268  1
  F  F13  1  0.750000  0.592900  0.842900  1
  F  F14  1  0.447834  0.190445  0.742611  1
  F  F15  1  0.810444  0.183728  0.749732  1
  F  F16  1  0.433995  0.183728  0.373284  1
  F  F17  1  0.947834  0.205223  0.257389  1
