# generated using pymatgen
data_MgTa3(Pt3Rh)3
_symmetry_space_group_name_H-M   'P 1'
_cell_length_a   5.61578300
_cell_length_b   5.61578298
_cell_length_c   9.12072100
_cell_angle_alpha   90.00000000
_cell_angle_beta   90.00000000
_cell_angle_gamma   119.99999426
_symmetry_Int_Tables_number   1
_chemical_formula_structural   MgTa3(Pt3Rh)3
_chemical_formula_sum   'Mg1 Ta3 Pt9 Rh3'
_cell_volume   249.10386249
_cell_formula_units_Z   1
loop_
 _symmetry_equiv_pos_site_id
 _symmetry_equiv_pos_as_xyz
  1  'x, y, z'
loop_
 _atom_site_type_symbol
 _atom_site_label
 _atom_site_symmetry_multiplicity
 _atom_site_fract_x
 _atom_site_fract_y
 _atom_site_fract_z
 _atom_site_occupancy
  Mg  Mg0  1  0.333333  0.666667  0.000000  1
  Ta  Ta1  1  0.666667  0.333333  0.500000  1
  Ta  Ta2  1  0.000000  0.000000  0.743243  1
  Ta  Ta3  1  0.000000  0.000000  0.256757  1
  Pt  Pt4  1  0.832099  0.167901  0.000000  1
  Pt  Pt5  1  0.832099  0.664198  0.000000  1
  Pt  Pt6  1  0.335802  0.167901  0.000000  1
  Pt  Pt7  1  0.997643  0.498822  0.745501  1
  Pt  Pt8  1  0.501178  0.498822  0.745501  1
  Pt  Pt9  1  0.501178  0.002357  0.745501  1
  Pt  Pt10  1  0.997643  0.498822  0.254499  1
  Pt  Pt11  1  0.501178  0.498822  0.254499  1
  Pt  Pt12  1  0.501178  0.002357  0.254499  1
  Rh  Rh13  1  0.168156  0.831844  0.500000  1
  Rh  Rh14  1  0.168156  0.336313  0.500000  1
  Rh  Rh15  1  0.663687  0.831844  0.500000  1
