# generated using pymatgen
data_YZr(Al3Ni)6
_symmetry_space_group_name_H-M   'P 1'
_cell_length_a   10.04233814
_cell_length_b   10.04233931
_cell_length_c   10.04233901
_cell_angle_alpha   42.38964980
_cell_angle_beta   42.38964734
_cell_angle_gamma   42.38965288
_symmetry_Int_Tables_number   1
_chemical_formula_structural   YZr(Al3Ni)6
_chemical_formula_sum   'Y1 Zr1 Al18 Ni6'
_cell_volume   416.70115643
_cell_formula_units_Z   1
loop_
 _symmetry_equiv_pos_site_id
 _symmetry_equiv_pos_as_xyz
  1  'x, y, z'
loop_
 _atom_site_type_symbol
 _atom_site_label
 _atom_site_symmetry_multiplicity
 _atom_site_fract_x
 _atom_site_fract_y
 _atom_site_fract_z
 _atom_site_occupancy
  Y  Y0  1  0.832995  0.832995  0.832995  1
  Zr  Zr1  1  0.167050  0.167050  0.167050  1
  Al  Al2  1  0.103703  0.431816  0.766249  1
  Al  Al3  1  0.431816  0.766249  0.103703  1
  Al  Al4  1  0.564528  0.897893  0.235615  1
  Al  Al5  1  0.947581  0.947581  0.947581  1
  Al  Al6  1  0.052596  0.052596  0.052596  1
  Al  Al7  1  0.291986  0.715035  0.493029  1
  Al  Al8  1  0.897893  0.235615  0.564528  1
  Al  Al9  1  0.387713  0.387713  0.387713  1
  Al  Al10  1  0.493029  0.291986  0.715035  1
  Al  Al11  1  0.235615  0.564528  0.897893  1
  Al  Al12  1  0.718324  0.718324  0.718324  1
  Al  Al13  1  0.612580  0.612580  0.612580  1
  Al  Al14  1  0.333291  0.000732  0.666027  1
  Al  Al15  1  0.715035  0.493029  0.291986  1
  Al  Al16  1  0.666027  0.333291  0.000732  1
  Al  Al17  1  0.281115  0.281115  0.281115  1
  Al  Al18  1  0.000732  0.666027  0.333291  1
  Al  Al19  1  0.766249  0.103703  0.431816  1
  Ni  Ni20  1  0.418978  0.078388  0.758821  1
  Ni  Ni21  1  0.581394  0.241003  0.921557  1
  Ni  Ni22  1  0.078388  0.758821  0.418978  1
  Ni  Ni23  1  0.758821  0.418978  0.078388  1
  Ni  Ni24  1  0.921557  0.581394  0.241003  1
  Ni  Ni25  1  0.241003  0.921557  0.581394  1
