# generated using pymatgen
data_LiHo8Sc(SiB4)4
_symmetry_space_group_name_H-M   'P 1'
_cell_length_a   7.14723400
_cell_length_b   7.14723400
_cell_length_c   7.83947500
_cell_angle_alpha   90.00000000
_cell_angle_beta   90.00000000
_cell_angle_gamma   90.00000000
_symmetry_Int_Tables_number   1
_chemical_formula_structural   LiHo8Sc(SiB4)4
_chemical_formula_sum   'Li1 Ho8 Sc1 Si4 B16'
_cell_volume   400.46353964
_cell_formula_units_Z   1
loop_
 _symmetry_equiv_pos_site_id
 _symmetry_equiv_pos_as_xyz
  1  'x, y, z'
loop_
 _atom_site_type_symbol
 _atom_site_label
 _atom_site_symmetry_multiplicity
 _atom_site_fract_x
 _atom_site_fract_y
 _atom_site_fract_z
 _atom_site_occupancy
  Li  Li0  1  0.000000  0.000000  0.500000  1
  Ho  Ho1  1  0.682679  0.180942  0.232666  1
  Ho  Ho2  1  0.317321  0.819058  0.767334  1
  Ho  Ho3  1  0.317321  0.819058  0.232666  1
  Ho  Ho4  1  0.819058  0.682679  0.232666  1
  Ho  Ho5  1  0.819058  0.682679  0.767334  1
  Ho  Ho6  1  0.682679  0.180942  0.767334  1
  Ho  Ho7  1  0.180942  0.317321  0.767334  1
  Ho  Ho8  1  0.180942  0.317321  0.232666  1
  Sc  Sc9  1  0.500000  0.500000  0.500000  1
  Si  Si10  1  0.120021  0.612581  0.500000  1
  Si  Si11  1  0.879979  0.387419  0.500000  1
  Si  Si12  1  0.387419  0.120021  0.500000  1
  Si  Si13  1  0.612581  0.879979  0.500000  1
  B  B14  1  0.174617  0.038729  0.000000  1
  B  B15  1  0.825383  0.961271  0.000000  1
  B  B16  1  0.961271  0.174617  0.000000  1
  B  B17  1  0.327218  0.539772  0.000000  1
  B  B18  1  0.038729  0.825383  0.000000  1
  B  B19  1  0.672782  0.460228  0.000000  1
  B  B20  1  0.539772  0.672782  0.000000  1
  B  B21  1  0.460228  0.327218  0.000000  1
  B  B22  1  0.089202  0.588555  0.000000  1
  B  B23  1  0.910798  0.411445  0.000000  1
  B  B24  1  0.411445  0.089202  0.000000  1
  B  B25  1  0.588555  0.910798  0.000000  1
  B  B26  1  0.000000  0.000000  0.160337  1
  B  B27  1  0.000000  0.000000  0.839663  1
  B  B28  1  0.500000  0.500000  0.832723  1
  B  B29  1  0.500000  0.500000  0.167277  1
