# generated using pymatgen
data_DyY(Al3Co)3
_symmetry_space_group_name_H-M   'P 1'
_cell_length_a   7.37513824
_cell_length_b   7.37506412
_cell_length_c   9.32158600
_cell_angle_alpha   90.00000000
_cell_angle_beta   90.00000000
_cell_angle_gamma   119.24858181
_symmetry_Int_Tables_number   1
_chemical_formula_structural   DyY(Al3Co)3
_chemical_formula_sum   'Dy2 Y2 Al18 Co6'
_cell_volume   442.37975555
_cell_formula_units_Z   2
loop_
 _symmetry_equiv_pos_site_id
 _symmetry_equiv_pos_as_xyz
  1  'x, y, z'
loop_
 _atom_site_type_symbol
 _atom_site_label
 _atom_site_symmetry_multiplicity
 _atom_site_fract_x
 _atom_site_fract_y
 _atom_site_fract_z
 _atom_site_occupancy
  Dy  Dy0  1  0.993123  0.671932  0.250000  1
  Dy  Dy1  1  0.006877  0.328068  0.750000  1
  Y  Y2  1  0.671922  0.993115  0.250000  1
  Y  Y3  1  0.328078  0.006885  0.750000  1
  Al  Al4  1  0.125110  0.125074  0.250000  1
  Al  Al5  1  0.874890  0.874926  0.750000  1
  Al  Al6  1  0.332193  0.332219  0.541966  1
  Al  Al7  1  0.667807  0.667781  0.041966  1
  Al  Al8  1  0.332193  0.332219  0.958034  1
  Al  Al9  1  0.667807  0.667781  0.458034  1
  Al  Al10  1  0.338656  0.553288  0.250000  1
  Al  Al11  1  0.661344  0.446712  0.750000  1
  Al  Al12  1  0.553316  0.338725  0.250000  1
  Al  Al13  1  0.446684  0.661275  0.750000  1
  Al  Al14  1  0.998249  0.335180  0.070747  1
  Al  Al15  1  0.001751  0.664820  0.570747  1
  Al  Al16  1  0.335124  0.998216  0.429225  1
  Al  Al17  1  0.664876  0.001784  0.929225  1
  Al  Al18  1  0.001751  0.664820  0.929253  1
  Al  Al19  1  0.998249  0.335180  0.429253  1
  Al  Al20  1  0.664876  0.001784  0.570775  1
  Al  Al21  1  0.335124  0.998216  0.070775  1
  Co  Co22  1  0.000000  0.000000  0.000000  1
  Co  Co23  1  0.000000  0.000000  0.500000  1
  Co  Co24  1  0.670913  0.329131  0.999999  1
  Co  Co25  1  0.329087  0.670869  0.499999  1
  Co  Co26  1  0.329087  0.670869  0.000001  1
  Co  Co27  1  0.670913  0.329131  0.500001  1
