# generated using pymatgen
data_KV(MoSe3)2
_symmetry_space_group_name_H-M   'P 1'
_cell_length_a   5.75335300
_cell_length_b   5.75335424
_cell_length_c   17.67348900
_cell_angle_alpha   90.00000000
_cell_angle_beta   90.00000000
_cell_angle_gamma   119.99999861
_symmetry_Int_Tables_number   1
_chemical_formula_structural   KV(MoSe3)2
_chemical_formula_sum   'K2 V2 Mo4 Se12'
_cell_volume   506.63485870
_cell_formula_units_Z   2
loop_
 _symmetry_equiv_pos_site_id
 _symmetry_equiv_pos_as_xyz
  1  'x, y, z'
loop_
 _atom_site_type_symbol
 _atom_site_label
 _atom_site_symmetry_multiplicity
 _atom_site_fract_x
 _atom_site_fract_y
 _atom_site_fract_z
 _atom_site_occupancy
  K  K0  1  0.000000  0.000000  0.000000  1
  K  K1  1  0.000000  0.000000  0.500000  1
  V  V2  1  0.666667  0.333333  0.250000  1
  V  V3  1  0.333333  0.666667  0.750000  1
  Mo  Mo4  1  0.000000  0.000000  0.750000  1
  Mo  Mo5  1  0.000000  0.000000  0.250000  1
  Mo  Mo6  1  0.333333  0.666667  0.250000  1
  Mo  Mo7  1  0.666667  0.333333  0.750000  1
  Se  Se8  1  0.341465  0.006781  0.157223  1
  Se  Se9  1  0.993219  0.334684  0.157223  1
  Se  Se10  1  0.665316  0.658535  0.157223  1
  Se  Se11  1  0.334684  0.341465  0.657223  1
  Se  Se12  1  0.665316  0.658535  0.342777  1
  Se  Se13  1  0.658535  0.993219  0.657223  1
  Se  Se14  1  0.006781  0.665316  0.657223  1
  Se  Se15  1  0.006781  0.665316  0.842777  1
  Se  Se16  1  0.334684  0.341465  0.842777  1
  Se  Se17  1  0.993219  0.334684  0.342777  1
  Se  Se18  1  0.341465  0.006781  0.342777  1
  Se  Se19  1  0.658535  0.993219  0.842777  1
