# generated using pymatgen
data_Ho3ZnGa4Ni
_symmetry_space_group_name_H-M   'P 1'
_cell_length_a   6.85369900
_cell_length_b   6.83177764
_cell_length_c   4.25998800
_cell_angle_alpha   90.00000000
_cell_angle_beta   90.00000000
_cell_angle_gamma   120.10620580
_symmetry_Int_Tables_number   1
_chemical_formula_structural   Ho3ZnGa4Ni
_chemical_formula_sum   'Ho3 Zn1 Ga4 Ni1'
_cell_volume   172.55676088
_cell_formula_units_Z   1
loop_
 _symmetry_equiv_pos_site_id
 _symmetry_equiv_pos_as_xyz
  1  'x, y, z'
loop_
 _atom_site_type_symbol
 _atom_site_label
 _atom_site_symmetry_multiplicity
 _atom_site_fract_x
 _atom_site_fract_y
 _atom_site_fract_z
 _atom_site_occupancy
  Ho  Ho0  1  0.593897  0.000000  0.000000  1
  Ho  Ho1  1  0.000888  0.595620  0.000000  1
  Ho  Ho2  1  0.405267  0.404380  0.000000  1
  Zn  Zn3  1  0.235503  0.000000  0.500000  1
  Ga  Ga4  1  0.002541  0.232607  0.500000  1
  Ga  Ga5  1  0.769935  0.767393  0.500000  1
  Ga  Ga6  1  0.333163  0.667728  0.500000  1
  Ga  Ga7  1  0.665435  0.332272  0.500000  1
  Ni  Ni8  1  0.993372  0.000000  0.000000  1
