# generated using pymatgen
data_Sb4RuRh3
_symmetry_space_group_name_H-M   'P 1'
_cell_length_a   3.95099100
_cell_length_b   5.93016740
_cell_length_c   6.48067419
_cell_angle_alpha   89.97535010
_cell_angle_beta   90.00000000
_cell_angle_gamma   90.00000000
_symmetry_Int_Tables_number   1
_chemical_formula_structural   Sb4RuRh3
_chemical_formula_sum   'Sb4 Ru1 Rh3'
_cell_volume   151.84242864
_cell_formula_units_Z   1
loop_
 _symmetry_equiv_pos_site_id
 _symmetry_equiv_pos_as_xyz
  1  'x, y, z'
loop_
 _atom_site_type_symbol
 _atom_site_label
 _atom_site_symmetry_multiplicity
 _atom_site_fract_x
 _atom_site_fract_y
 _atom_site_fract_z
 _atom_site_occupancy
  Sb  Sb0  1  0.250000  0.695101  0.089174  1
  Sb  Sb1  1  0.750000  0.306186  0.907092  1
  Sb  Sb2  1  0.250000  0.198750  0.409342  1
  Sb  Sb3  1  0.750000  0.797699  0.594450  1
  Ru  Ru4  1  0.250000  0.504890  0.698192  1
  Rh  Rh5  1  0.750000  0.494863  0.303411  1
  Rh  Rh6  1  0.250000  0.007157  0.800654  1
  Rh  Rh7  1  0.750000  0.995355  0.197683  1
