# generated using pymatgen
data_ScB4W
_symmetry_space_group_name_H-M   'P 1'
_cell_length_a   4.52575483
_cell_length_b   4.52575551
_cell_length_c   4.52575500
_cell_angle_alpha   140.07689594
_cell_angle_beta   108.15782271
_cell_angle_gamma   85.49523893
_symmetry_Int_Tables_number   1
_chemical_formula_structural   ScB4W
_chemical_formula_sum   'Sc1 B4 W1'
_cell_volume   54.53571840
_cell_formula_units_Z   1
loop_
 _symmetry_equiv_pos_site_id
 _symmetry_equiv_pos_as_xyz
  1  'x, y, z'
loop_
 _atom_site_type_symbol
 _atom_site_label
 _atom_site_symmetry_multiplicity
 _atom_site_fract_x
 _atom_site_fract_y
 _atom_site_fract_z
 _atom_site_occupancy
  Sc  Sc0  1  0.500000  0.500000  0.000000  1
  B  B1  1  0.583686  0.248404  0.335282  1
  B  B2  1  0.086876  0.751597  0.335283  1
  B  B3  1  0.913122  0.248404  0.664718  1
  B  B4  1  0.416314  0.751597  0.664721  1
  W  W5  1  0.000000  0.000000  0.000000  1
