# generated using pymatgen
data_Li9Al3Pt4
_symmetry_space_group_name_H-M   'P 1'
_cell_length_a   6.06903335
_cell_length_b   6.06986430
_cell_length_c   6.07044219
_cell_angle_alpha   90.02218358
_cell_angle_beta   89.97657713
_cell_angle_gamma   90.02687839
_symmetry_Int_Tables_number   1
_chemical_formula_structural   Li9Al3Pt4
_chemical_formula_sum   'Li9 Al3 Pt4'
_cell_volume   223.62415715
_cell_formula_units_Z   1
loop_
 _symmetry_equiv_pos_site_id
 _symmetry_equiv_pos_as_xyz
  1  'x, y, z'
loop_
 _atom_site_type_symbol
 _atom_site_label
 _atom_site_symmetry_multiplicity
 _atom_site_fract_x
 _atom_site_fract_y
 _atom_site_fract_z
 _atom_site_occupancy
  Li  Li0  1  0.257188  0.742829  0.257186  1
  Li  Li1  1  0.742887  0.257131  0.257232  1
  Li  Li2  1  0.257217  0.257112  0.742903  1
  Li  Li3  1  0.999898  0.000039  0.999954  1
  Li  Li4  1  0.999951  0.500105  0.499876  1
  Li  Li5  1  0.742872  0.742756  0.742865  1
  Li  Li6  1  0.499911  0.000103  0.499892  1
  Li  Li7  1  0.499902  0.500105  0.999902  1
  Li  Li8  1  0.499947  0.499960  0.500024  1
  Al  Al9  1  0.000136  0.999874  0.499957  1
  Al  Al10  1  0.000138  0.500050  0.000140  1
  Al  Al11  1  0.499979  0.999871  0.000135  1
  Pt  Pt12  1  0.239789  0.239845  0.239745  1
  Pt  Pt13  1  0.760278  0.239760  0.760249  1
  Pt  Pt14  1  0.760129  0.760204  0.239783  1
  Pt  Pt15  1  0.239778  0.760257  0.760155  1
