# generated using pymatgen
data_HoMgPaRh2
_symmetry_space_group_name_H-M   'P 1'
_cell_length_a   7.77115000
_cell_length_b   7.51604300
_cell_length_c   3.66057500
_cell_angle_alpha   90.00000000
_cell_angle_beta   90.00000000
_cell_angle_gamma   90.00000000
_symmetry_Int_Tables_number   1
_chemical_formula_structural   HoMgPaRh2
_chemical_formula_sum   'Ho2 Mg2 Pa2 Rh4'
_cell_volume   213.80795384
_cell_formula_units_Z   2
loop_
 _symmetry_equiv_pos_site_id
 _symmetry_equiv_pos_as_xyz
  1  'x, y, z'
loop_
 _atom_site_type_symbol
 _atom_site_label
 _atom_site_symmetry_multiplicity
 _atom_site_fract_x
 _atom_site_fract_y
 _atom_site_fract_z
 _atom_site_occupancy
  Ho  Ho0  1  0.666383  0.163082  0.500000  1
  Ho  Ho1  1  0.166384  0.336919  0.500000  1
  Mg  Mg2  1  0.994375  0.008750  0.000000  1
  Mg  Mg3  1  0.494375  0.491250  0.000000  1
  Pa  Pa4  1  0.829279  0.660504  0.500000  1
  Pa  Pa5  1  0.329279  0.839496  0.500000  1
  Rh  Rh6  1  0.360696  0.103862  0.000000  1
  Rh  Rh7  1  0.860695  0.396139  0.000000  1
  Rh  Rh8  1  0.149268  0.653136  0.000000  1
  Rh  Rh9  1  0.649268  0.846864  0.000000  1
