# generated using pymatgen
data_Ca3Cu(Ni3B)2
_symmetry_space_group_name_H-M   'P 1'
_cell_length_a   7.71089598
_cell_length_b   7.71089614
_cell_length_c   7.71089529
_cell_angle_alpha   39.26978020
_cell_angle_beta   39.26978382
_cell_angle_gamma   39.26977693
_symmetry_Int_Tables_number   1
_chemical_formula_structural   Ca3Cu(Ni3B)2
_chemical_formula_sum   'Ca3 Cu1 Ni6 B2'
_cell_volume   165.27894000
_cell_formula_units_Z   1
loop_
 _symmetry_equiv_pos_site_id
 _symmetry_equiv_pos_as_xyz
  1  'x, y, z'
loop_
 _atom_site_type_symbol
 _atom_site_label
 _atom_site_symmetry_multiplicity
 _atom_site_fract_x
 _atom_site_fract_y
 _atom_site_fract_z
 _atom_site_occupancy
  Ca  Ca0  1  0.644155  0.644155  0.644155  1
  Ca  Ca1  1  0.355845  0.355845  0.355845  1
  Ca  Ca2  1  0.500000  0.500000  0.500000  1
  Cu  Cu3  1  0.000000  0.000000  0.000000  1
  Ni  Ni4  1  0.569245  0.061922  0.061922  1
  Ni  Ni5  1  0.061922  0.061922  0.569245  1
  Ni  Ni6  1  0.061922  0.569245  0.061922  1
  Ni  Ni7  1  0.938078  0.430755  0.938078  1
  Ni  Ni8  1  0.938078  0.938078  0.430755  1
  Ni  Ni9  1  0.430755  0.938078  0.938078  1
  B  B10  1  0.831123  0.831123  0.831123  1
  B  B11  1  0.168877  0.168877  0.168877  1
