# generated using pymatgen
data_Yb8NbInN8
_symmetry_space_group_name_H-M   'P 1'
_cell_length_a   5.95491705
_cell_length_b   5.97023039
_cell_length_c   9.07346800
_cell_angle_alpha   70.43790365
_cell_angle_beta   81.30228386
_cell_angle_gamma   68.83749665
_symmetry_Int_Tables_number   1
_chemical_formula_structural   Yb8NbInN8
_chemical_formula_sum   'Yb8 Nb1 In1 N8'
_cell_volume   283.29410129
_cell_formula_units_Z   1
loop_
 _symmetry_equiv_pos_site_id
 _symmetry_equiv_pos_as_xyz
  1  'x, y, z'
loop_
 _atom_site_type_symbol
 _atom_site_label
 _atom_site_symmetry_multiplicity
 _atom_site_fract_x
 _atom_site_fract_y
 _atom_site_fract_z
 _atom_site_occupancy
  Yb  Yb0  1  0.243336  0.947468  0.607042  1
  Yb  Yb1  1  0.733428  0.614986  0.194301  1
  Yb  Yb2  1  0.755010  0.249825  0.990724  1
  Yb  Yb3  1  0.258658  0.532991  0.421746  1
  Yb  Yb4  1  0.753904  0.050280  0.413505  1
  Yb  Yb5  1  0.260590  0.382316  0.800636  1
  Yb  Yb6  1  0.731160  0.479409  0.581621  1
  Yb  Yb7  1  0.258500  0.752746  0.005298  1
  Nb  Nb8  1  0.282995  0.155992  0.239471  1
  In  In9  1  0.720883  0.845205  0.768014  1
  N  N10  1  0.995165  0.689157  0.601968  1
  N  N11  1  0.494248  0.199586  0.605928  1
  N  N12  1  0.018704  0.298191  0.377821  1
  N  N13  1  0.497106  0.604691  0.799320  1
  N  N14  1  0.160949  0.143030  0.056512  1
  N  N15  1  0.487514  0.825035  0.375971  1
  N  N16  1  0.485775  0.373765  0.195719  1
  N  N17  1  0.862073  0.855329  0.964403  1
