# generated using pymatgen
data_Tb4AlCo
_symmetry_space_group_name_H-M   'P 1'
_cell_length_a   9.42694848
_cell_length_b   9.42694749
_cell_length_c   9.42694800
_cell_angle_alpha   59.99999820
_cell_angle_beta   60.00000168
_cell_angle_gamma   59.99999562
_symmetry_Int_Tables_number   1
_chemical_formula_structural   Tb4AlCo
_chemical_formula_sum   'Tb16 Al4 Co4'
_cell_volume   592.37718036
_cell_formula_units_Z   4
loop_
 _symmetry_equiv_pos_site_id
 _symmetry_equiv_pos_as_xyz
  1  'x, y, z'
loop_
 _atom_site_type_symbol
 _atom_site_label
 _atom_site_symmetry_multiplicity
 _atom_site_fract_x
 _atom_site_fract_y
 _atom_site_fract_z
 _atom_site_occupancy
  Tb  Tb0  1  0.808071  0.191929  0.191929  1
  Tb  Tb1  1  0.191929  0.808071  0.808071  1
  Tb  Tb2  1  0.191929  0.808071  0.191929  1
  Tb  Tb3  1  0.808071  0.191929  0.808071  1
  Tb  Tb4  1  0.191929  0.191929  0.808071  1
  Tb  Tb5  1  0.808071  0.808071  0.191929  1
  Tb  Tb6  1  0.937825  0.562174  0.562175  1
  Tb  Tb7  1  0.562174  0.937825  0.937826  1
  Tb  Tb8  1  0.562175  0.937825  0.562175  1
  Tb  Tb9  1  0.937825  0.562174  0.937826  1
  Tb  Tb10  1  0.562175  0.562174  0.937826  1
  Tb  Tb11  1  0.937825  0.937825  0.562175  1
  Tb  Tb12  1  0.349009  0.349009  0.349009  1
  Tb  Tb13  1  0.349009  0.349009  0.952971  1
  Tb  Tb14  1  0.349009  0.952971  0.349009  1
  Tb  Tb15  1  0.952971  0.349009  0.349009  1
  Al  Al16  1  0.576426  0.576426  0.576426  1
  Al  Al17  1  0.576426  0.576426  0.270722  1
  Al  Al18  1  0.576426  0.270722  0.576426  1
  Al  Al19  1  0.270722  0.576426  0.576426  1
  Co  Co20  1  0.140654  0.140654  0.140654  1
  Co  Co21  1  0.140654  0.140654  0.578039  1
  Co  Co22  1  0.140654  0.578039  0.140654  1
  Co  Co23  1  0.578039  0.140654  0.140654  1
