# generated using pymatgen
data_Ho16MgCd3Ir4
_symmetry_space_group_name_H-M   'P 1'
_cell_length_a   9.61349240
_cell_length_b   9.61366656
_cell_length_c   9.61369345
_cell_angle_alpha   59.89169666
_cell_angle_beta   59.89065885
_cell_angle_gamma   59.88981708
_symmetry_Int_Tables_number   1
_chemical_formula_structural   Ho16MgCd3Ir4
_chemical_formula_sum   'Ho16 Mg1 Cd3 Ir4'
_cell_volume   626.71119319
_cell_formula_units_Z   1
loop_
 _symmetry_equiv_pos_site_id
 _symmetry_equiv_pos_as_xyz
  1  'x, y, z'
loop_
 _atom_site_type_symbol
 _atom_site_label
 _atom_site_symmetry_multiplicity
 _atom_site_fract_x
 _atom_site_fract_y
 _atom_site_fract_z
 _atom_site_occupancy
  Ho  Ho0  1  0.599844  0.599866  0.599832  1
  Ho  Ho1  1  0.598201  0.598194  0.204052  1
  Ho  Ho2  1  0.598183  0.204062  0.598188  1
  Ho  Ho3  1  0.204057  0.598173  0.598182  1
  Ho  Ho4  1  0.060557  0.439346  0.439332  1
  Ho  Ho5  1  0.437766  0.061834  0.061843  1
  Ho  Ho6  1  0.439355  0.060569  0.439329  1
  Ho  Ho7  1  0.061813  0.437781  0.061840  1
  Ho  Ho8  1  0.439334  0.439347  0.060568  1
  Ho  Ho9  1  0.061836  0.061848  0.437764  1
  Ho  Ho10  1  0.189763  0.812305  0.812300  1
  Ho  Ho11  1  0.812446  0.187836  0.187887  1
  Ho  Ho12  1  0.812326  0.189755  0.812299  1
  Ho  Ho13  1  0.187828  0.812450  0.187869  1
  Ho  Ho14  1  0.812313  0.812294  0.189783  1
  Ho  Ho15  1  0.187839  0.187840  0.812455  1
  Mg  Mg16  1  0.827210  0.827106  0.827101  1
  Cd  Cd17  1  0.831425  0.831434  0.506225  1
  Cd  Cd18  1  0.831429  0.506223  0.831430  1
  Cd  Cd19  1  0.506225  0.831438  0.831434  1
  Ir  Ir20  1  0.391856  0.391860  0.391848  1
  Ir  Ir21  1  0.392300  0.392322  0.823818  1
  Ir  Ir22  1  0.392290  0.823815  0.392313  1
  Ir  Ir23  1  0.823807  0.392305  0.392308  1
