# generated using pymatgen
data_Dy6HoRh3
_symmetry_space_group_name_H-M   'P 1'
_cell_length_a   9.80582100
_cell_length_b   9.80582031
_cell_length_c   6.18369800
_cell_angle_alpha   90.00000000
_cell_angle_beta   90.00000000
_cell_angle_gamma   120.00000572
_symmetry_Int_Tables_number   1
_chemical_formula_structural   Dy6HoRh3
_chemical_formula_sum   'Dy12 Ho2 Rh6'
_cell_volume   514.92831024
_cell_formula_units_Z   2
loop_
 _symmetry_equiv_pos_site_id
 _symmetry_equiv_pos_as_xyz
  1  'x, y, z'
loop_
 _atom_site_type_symbol
 _atom_site_label
 _atom_site_symmetry_multiplicity
 _atom_site_fract_x
 _atom_site_fract_y
 _atom_site_fract_z
 _atom_site_occupancy
  Dy  Dy0  1  0.875865  0.751728  0.741357  1
  Dy  Dy1  1  0.248272  0.124135  0.741357  1
  Dy  Dy2  1  0.875865  0.124135  0.741357  1
  Dy  Dy3  1  0.124135  0.248272  0.241357  1
  Dy  Dy4  1  0.751728  0.875865  0.241357  1
  Dy  Dy5  1  0.124135  0.875865  0.241357  1
  Dy  Dy6  1  0.459029  0.918059  0.547770  1
  Dy  Dy7  1  0.081941  0.540971  0.547770  1
  Dy  Dy8  1  0.459029  0.540971  0.547770  1
  Dy  Dy9  1  0.540971  0.081941  0.047770  1
  Dy  Dy10  1  0.918059  0.459029  0.047770  1
  Dy  Dy11  1  0.540971  0.459029  0.047770  1
  Ho  Ho12  1  0.666667  0.333333  0.533830  1
  Ho  Ho13  1  0.333333  0.666667  0.033830  1
  Rh  Rh14  1  0.190177  0.380354  0.813171  1
  Rh  Rh15  1  0.619646  0.809823  0.813171  1
  Rh  Rh16  1  0.190177  0.809823  0.813171  1
  Rh  Rh17  1  0.809823  0.619646  0.313171  1
  Rh  Rh18  1  0.380354  0.190177  0.313171  1
  Rh  Rh19  1  0.809823  0.190177  0.313171  1
