# generated using pymatgen
data_Ac5SiS4
_symmetry_space_group_name_H-M   'P 1'
_cell_length_a   7.58823928
_cell_length_b   7.58823915
_cell_length_c   7.58823974
_cell_angle_alpha   99.52038969
_cell_angle_beta   99.52038094
_cell_angle_gamma   132.00558326
_symmetry_Int_Tables_number   1
_chemical_formula_structural   Ac5SiS4
_chemical_formula_sum   'Ac5 Si1 S4'
_cell_volume   296.61833527
_cell_formula_units_Z   1
loop_
 _symmetry_equiv_pos_site_id
 _symmetry_equiv_pos_as_xyz
  1  'x, y, z'
loop_
 _atom_site_type_symbol
 _atom_site_label
 _atom_site_symmetry_multiplicity
 _atom_site_fract_x
 _atom_site_fract_y
 _atom_site_fract_z
 _atom_site_occupancy
  Ac  Ac0  1  0.400988  0.798545  0.199533  1
  Ac  Ac1  1  0.000000  0.000000  0.000000  1
  Ac  Ac2  1  0.599012  0.201455  0.800467  1
  Ac  Ac3  1  0.201455  0.400988  0.602443  1
  Ac  Ac4  1  0.798545  0.599012  0.397557  1
  Si  Si5  1  0.500000  0.500000  0.000000  1
  S  S6  1  0.102494  0.699623  0.802116  1
  S  S7  1  0.699623  0.897506  0.597129  1
  S  S8  1  0.300377  0.102494  0.402871  1
  S  S9  1  0.897506  0.300377  0.197884  1
