# generated using pymatgen
data_SrVCu4P4O17
_symmetry_space_group_name_H-M   'P 1'
_cell_length_a   9.61677900
_cell_length_b   9.61677900
_cell_length_c   7.14879000
_cell_angle_alpha   90.00000000
_cell_angle_beta   90.00000000
_cell_angle_gamma   90.00000000
_symmetry_Int_Tables_number   1
_chemical_formula_structural   SrVCu4P4O17
_chemical_formula_sum   'Sr2 V2 Cu8 P8 O34'
_cell_volume   661.13753034
_cell_formula_units_Z   2
loop_
 _symmetry_equiv_pos_site_id
 _symmetry_equiv_pos_as_xyz
  1  'x, y, z'
loop_
 _atom_site_type_symbol
 _atom_site_label
 _atom_site_symmetry_multiplicity
 _atom_site_fract_x
 _atom_site_fract_y
 _atom_site_fract_z
 _atom_site_occupancy
  Sr  Sr0  1  0.000000  0.000000  0.000000  1
  Sr  Sr1  1  0.500000  0.500000  0.000000  1
  V  V2  1  0.000000  0.500000  0.014732  1
  V  V3  1  0.500000  0.000000  0.985268  1
  Cu  Cu4  1  0.734897  0.016180  0.401187  1
  Cu  Cu5  1  0.483820  0.234897  0.401187  1
  Cu  Cu6  1  0.516181  0.765103  0.401187  1
  Cu  Cu7  1  0.265104  0.983820  0.401187  1
  Cu  Cu8  1  0.983820  0.265104  0.598813  1
  Cu  Cu9  1  0.234897  0.483820  0.598813  1
  Cu  Cu10  1  0.765103  0.516181  0.598813  1
  Cu  Cu11  1  0.016180  0.734897  0.598813  1
  P  P12  1  0.187056  0.277254  0.256854  1
  P  P13  1  0.777253  0.312943  0.256854  1
  P  P14  1  0.222746  0.687056  0.256854  1
  P  P15  1  0.812943  0.722747  0.256854  1
  P  P16  1  0.277254  0.187056  0.743146  1
  P  P17  1  0.687056  0.222746  0.743146  1
  P  P18  1  0.312943  0.777253  0.743146  1
  P  P19  1  0.722747  0.812943  0.743146  1
  O  O20  1  0.098838  0.330690  0.092822  1
  O  O21  1  0.830691  0.401161  0.092822  1
  O  O22  1  0.169309  0.598838  0.092822  1
  O  O23  1  0.901162  0.669309  0.092822  1
  O  O24  1  0.500000  0.000000  0.219978  1
  O  O25  1  0.816620  0.157528  0.235953  1
  O  O26  1  0.342472  0.316621  0.235953  1
  O  O27  1  0.657529  0.683379  0.235953  1
  O  O28  1  0.183379  0.842471  0.235953  1
  O  O29  1  0.156606  0.118440  0.262465  1
  O  O30  1  0.618440  0.343395  0.262465  1
  O  O31  1  0.381561  0.656606  0.262465  1
  O  O32  1  0.843395  0.881561  0.262465  1
  O  O33  1  0.134478  0.345067  0.446041  1
  O  O34  1  0.845067  0.365522  0.446041  1
  O  O35  1  0.154933  0.634478  0.446041  1
  O  O36  1  0.865523  0.654934  0.446041  1
  O  O37  1  0.345067  0.134478  0.553959  1
  O  O38  1  0.634478  0.154933  0.553959  1
  O  O39  1  0.365522  0.845067  0.553959  1
  O  O40  1  0.654934  0.865523  0.553959  1
  O  O41  1  0.118440  0.156606  0.737535  1
  O  O42  1  0.656606  0.381561  0.737535  1
  O  O43  1  0.343395  0.618440  0.737535  1
  O  O44  1  0.881561  0.843395  0.737535  1
  O  O45  1  0.842471  0.183379  0.764047  1
  O  O46  1  0.316621  0.342472  0.764047  1
  O  O47  1  0.683379  0.657529  0.764047  1
  O  O48  1  0.157528  0.816620  0.764047  1
  O  O49  1  0.000000  0.500000  0.780022  1
  O  O50  1  0.330690  0.098838  0.907178  1
  O  O51  1  0.598838  0.169309  0.907178  1
  O  O52  1  0.401161  0.830691  0.907178  1
  O  O53  1  0.669309  0.901162  0.907178  1
