# generated using pymatgen
data_LaCeTh6(ZnRh)8
_symmetry_space_group_name_H-M   'P 1'
_cell_length_a   3.94786900
_cell_length_b   7.53306694
_cell_length_c   16.58478164
_cell_angle_alpha   89.63109376
_cell_angle_beta   90.00000000
_cell_angle_gamma   90.00000000
_symmetry_Int_Tables_number   1
_chemical_formula_structural   LaCeTh6(ZnRh)8
_chemical_formula_sum   'La1 Ce1 Th6 Zn8 Rh8'
_cell_volume   493.21390914
_cell_formula_units_Z   1
loop_
 _symmetry_equiv_pos_site_id
 _symmetry_equiv_pos_as_xyz
  1  'x, y, z'
loop_
 _atom_site_type_symbol
 _atom_site_label
 _atom_site_symmetry_multiplicity
 _atom_site_fract_x
 _atom_site_fract_y
 _atom_site_fract_z
 _atom_site_occupancy
  La  La0  1  0.750000  0.939452  0.285417  1
  Ce  Ce1  1  0.250000  0.062496  0.715398  1
  Th  Th2  1  0.750000  0.327746  0.441146  1
  Th  Th3  1  0.250000  0.561020  0.784538  1
  Th  Th4  1  0.250000  0.676150  0.561301  1
  Th  Th5  1  0.750000  0.822160  0.059815  1
  Th  Th6  1  0.250000  0.172632  0.938325  1
  Th  Th7  1  0.750000  0.438715  0.214758  1
  Zn  Zn8  1  0.250000  0.111511  0.152135  1
  Zn  Zn9  1  0.250000  0.998102  0.441073  1
  Zn  Zn10  1  0.750000  0.889399  0.845125  1
  Zn  Zn11  1  0.750000  0.007093  0.562425  1
  Zn  Zn12  1  0.250000  0.490679  0.057471  1
  Zn  Zn13  1  0.750000  0.385582  0.653722  1
  Zn  Zn14  1  0.750000  0.503559  0.940349  1
  Zn  Zn15  1  0.250000  0.614261  0.348335  1
  Rh  Rh16  1  0.750000  0.261904  0.814917  1
  Rh  Rh17  1  0.250000  0.256017  0.315376  1
  Rh  Rh18  1  0.250000  0.756185  0.936652  1
  Rh  Rh19  1  0.250000  0.257507  0.562881  1
  Rh  Rh20  1  0.250000  0.726471  0.180296  1
  Rh  Rh21  1  0.750000  0.742742  0.440983  1
  Rh  Rh22  1  0.750000  0.239590  0.061239  1
  Rh  Rh23  1  0.750000  0.759025  0.686322  1
