# generated using pymatgen
data_Cs3NaVCl6
_symmetry_space_group_name_H-M   'P 1'
_cell_length_a   9.00074319
_cell_length_b   9.00074363
_cell_length_c   9.00074278
_cell_angle_alpha   94.24728762
_cell_angle_beta   94.24728545
_cell_angle_gamma   94.24729174
_symmetry_Int_Tables_number   1
_chemical_formula_structural   Cs3NaVCl6
_chemical_formula_sum   'Cs6 Na2 V2 Cl12'
_cell_volume   722.85756548
_cell_formula_units_Z   2
loop_
 _symmetry_equiv_pos_site_id
 _symmetry_equiv_pos_as_xyz
  1  'x, y, z'
loop_
 _atom_site_type_symbol
 _atom_site_label
 _atom_site_symmetry_multiplicity
 _atom_site_fract_x
 _atom_site_fract_y
 _atom_site_fract_z
 _atom_site_occupancy
  Cs  Cs0  1  0.375396  0.750000  0.124604  1
  Cs  Cs1  1  0.124604  0.375396  0.750000  1
  Cs  Cs2  1  0.750000  0.124604  0.375396  1
  Cs  Cs3  1  0.624604  0.250000  0.875396  1
  Cs  Cs4  1  0.875396  0.624604  0.250000  1
  Cs  Cs5  1  0.250000  0.875396  0.624604  1
  Na  Na6  1  0.250000  0.250000  0.250000  1
  Na  Na7  1  0.750000  0.750000  0.750000  1
  V  V8  1  0.500000  0.500000  0.500000  1
  V  V9  1  0.000000  0.000000  0.000000  1
  Cl  Cl10  1  0.416812  0.230785  0.532827  1
  Cl  Cl11  1  0.532827  0.416812  0.230785  1
  Cl  Cl12  1  0.230785  0.532827  0.416812  1
  Cl  Cl13  1  0.083188  0.967173  0.269215  1
  Cl  Cl14  1  0.269215  0.083188  0.967173  1
  Cl  Cl15  1  0.967173  0.269215  0.083188  1
  Cl  Cl16  1  0.032827  0.730785  0.916812  1
  Cl  Cl17  1  0.730785  0.916812  0.032827  1
  Cl  Cl18  1  0.916812  0.032827  0.730785  1
  Cl  Cl19  1  0.769215  0.467173  0.583188  1
  Cl  Cl20  1  0.467173  0.583188  0.769215  1
  Cl  Cl21  1  0.583188  0.769215  0.467173  1
