# generated using pymatgen
data_Ta4Si4TcPt3
_symmetry_space_group_name_H-M   'P 1'
_cell_length_a   3.81891800
_cell_length_b   6.47241296
_cell_length_c   7.41204532
_cell_angle_alpha   89.49242051
_cell_angle_beta   90.00000000
_cell_angle_gamma   90.00000000
_symmetry_Int_Tables_number   1
_chemical_formula_structural   Ta4Si4TcPt3
_chemical_formula_sum   'Ta4 Si4 Tc1 Pt3'
_cell_volume   183.20088890
_cell_formula_units_Z   1
loop_
 _symmetry_equiv_pos_site_id
 _symmetry_equiv_pos_as_xyz
  1  'x, y, z'
loop_
 _atom_site_type_symbol
 _atom_site_label
 _atom_site_symmetry_multiplicity
 _atom_site_fract_x
 _atom_site_fract_y
 _atom_site_fract_z
 _atom_site_occupancy
  Ta  Ta0  1  0.250000  0.527797  0.176012  1
  Ta  Ta1  1  0.750000  0.483075  0.822814  1
  Ta  Ta2  1  0.750000  0.970280  0.662103  1
  Ta  Ta3  1  0.250000  0.024716  0.337767  1
  Si  Si4  1  0.250000  0.765882  0.868306  1
  Si  Si5  1  0.750000  0.237078  0.125856  1
  Si  Si6  1  0.750000  0.735480  0.378635  1
  Si  Si7  1  0.250000  0.266737  0.628138  1
  Tc  Tc8  1  0.250000  0.639825  0.562345  1
  Pt  Pt9  1  0.750000  0.351365  0.434175  1
  Pt  Pt10  1  0.750000  0.848495  0.067006  1
  Pt  Pt11  1  0.250000  0.149270  0.936843  1
