# generated using pymatgen
data_NdEr3Sc4In3Co
_symmetry_space_group_name_H-M   'P 1'
_cell_length_a   9.90821100
_cell_length_b   9.90821174
_cell_length_c   7.07627000
_cell_angle_alpha   90.00000000
_cell_angle_beta   90.00000000
_cell_angle_gamma   120.00000086
_symmetry_Int_Tables_number   1
_chemical_formula_structural   NdEr3Sc4In3Co
_chemical_formula_sum   'Nd2 Er6 Sc8 In6 Co2'
_cell_volume   601.62454860
_cell_formula_units_Z   2
loop_
 _symmetry_equiv_pos_site_id
 _symmetry_equiv_pos_as_xyz
  1  'x, y, z'
loop_
 _atom_site_type_symbol
 _atom_site_label
 _atom_site_symmetry_multiplicity
 _atom_site_fract_x
 _atom_site_fract_y
 _atom_site_fract_z
 _atom_site_occupancy
  Nd  Nd0  1  0.000000  0.000000  0.503902  1
  Nd  Nd1  1  0.000000  0.000000  0.003902  1
  Er  Er2  1  0.533962  0.067925  0.508852  1
  Er  Er3  1  0.932075  0.466038  0.508852  1
  Er  Er4  1  0.533962  0.466038  0.508852  1
  Er  Er5  1  0.466038  0.932075  0.008852  1
  Er  Er6  1  0.067925  0.533962  0.008852  1
  Er  Er7  1  0.466038  0.533962  0.008852  1
  Sc  Sc8  1  0.181508  0.363018  0.716593  1
  Sc  Sc9  1  0.636982  0.818492  0.716593  1
  Sc  Sc10  1  0.181508  0.818492  0.716593  1
  Sc  Sc11  1  0.818492  0.636982  0.216593  1
  Sc  Sc12  1  0.363018  0.181508  0.216593  1
  Sc  Sc13  1  0.818492  0.181508  0.216593  1
  Sc  Sc14  1  0.666667  0.333333  0.913726  1
  Sc  Sc15  1  0.333333  0.666667  0.413726  1
  In  In16  1  0.834748  0.669494  0.770266  1
  In  In17  1  0.330506  0.165252  0.770266  1
  In  In18  1  0.834748  0.165252  0.770266  1
  In  In19  1  0.165252  0.330506  0.270266  1
  In  In20  1  0.669494  0.834748  0.270266  1
  In  In21  1  0.165252  0.834748  0.270266  1
  Co  Co22  1  0.666667  0.333333  0.274238  1
  Co  Co23  1  0.333333  0.666667  0.774238  1
