# generated using pymatgen
data_Ta(TcI3)2
_symmetry_space_group_name_H-M   'P 1'
_cell_length_a   10.55532468
_cell_length_b   10.55532547
_cell_length_c   13.08984000
_cell_angle_alpha   90.00000000
_cell_angle_beta   90.00000000
_cell_angle_gamma   103.63865524
_symmetry_Int_Tables_number   1
_chemical_formula_structural   Ta(TcI3)2
_chemical_formula_sum   'Ta4 Tc8 I24'
_cell_volume   1417.27920140
_cell_formula_units_Z   4
loop_
 _symmetry_equiv_pos_site_id
 _symmetry_equiv_pos_as_xyz
  1  'x, y, z'
loop_
 _atom_site_type_symbol
 _atom_site_label
 _atom_site_symmetry_multiplicity
 _atom_site_fract_x
 _atom_site_fract_y
 _atom_site_fract_z
 _atom_site_occupancy
  Ta  Ta0  1  0.612321  0.387679  0.500000  1
  Ta  Ta1  1  0.887679  0.112321  0.000000  1
  Ta  Ta2  1  0.387679  0.612321  0.500000  1
  Ta  Ta3  1  0.112321  0.887679  0.000000  1
  Tc  Tc4  1  0.632589  0.632589  0.432530  1
  Tc  Tc5  1  0.367411  0.367411  0.567470  1
  Tc  Tc6  1  0.867411  0.867411  0.932530  1
  Tc  Tc7  1  0.132589  0.132589  0.067470  1
  Tc  Tc8  1  0.567306  0.567306  0.632793  1
  Tc  Tc9  1  0.432694  0.432694  0.367207  1
  Tc  Tc10  1  0.932694  0.932694  0.132793  1
  Tc  Tc11  1  0.067306  0.067306  0.867207  1
  I  I12  1  0.821986  0.594812  0.566604  1
  I  I13  1  0.405188  0.178014  0.433396  1
  I  I14  1  0.678014  0.905188  0.066604  1
  I  I15  1  0.094812  0.321986  0.933396  1
  I  I16  1  0.178014  0.405188  0.433396  1
  I  I17  1  0.594812  0.821986  0.566604  1
  I  I18  1  0.321986  0.094812  0.933396  1
  I  I19  1  0.905188  0.678014  0.066604  1
  I  I20  1  0.681069  0.453628  0.292179  1
  I  I21  1  0.546372  0.318931  0.707821  1
  I  I22  1  0.818931  0.046372  0.792179  1
  I  I23  1  0.953628  0.181069  0.207821  1
  I  I24  1  0.318931  0.546372  0.707821  1
  I  I25  1  0.453628  0.681069  0.292179  1
  I  I26  1  0.181069  0.953628  0.207821  1
  I  I27  1  0.046372  0.818931  0.792179  1
  I  I28  1  0.662501  0.662501  0.835043  1
  I  I29  1  0.337499  0.337499  0.164957  1
  I  I30  1  0.837499  0.837499  0.335043  1
  I  I31  1  0.162501  0.162501  0.664957  1
  I  I32  1  0.783699  0.216301  0.500000  1
  I  I33  1  0.716301  0.283699  0.000000  1
  I  I34  1  0.216301  0.783699  0.500000  1
  I  I35  1  0.283699  0.716301  0.000000  1
