# generated using pymatgen
data_Er4ReB8Ru9
_symmetry_space_group_name_H-M   'P 1'
_cell_length_a   3.08114200
_cell_length_b   8.72913874
_cell_length_c   10.19726468
_cell_angle_alpha   90.10256922
_cell_angle_beta   90.00000000
_cell_angle_gamma   90.00000000
_symmetry_Int_Tables_number   1
_chemical_formula_structural   Er4ReB8Ru9
_chemical_formula_sum   'Er4 Re1 B8 Ru9'
_cell_volume   274.26229530
_cell_formula_units_Z   1
loop_
 _symmetry_equiv_pos_site_id
 _symmetry_equiv_pos_as_xyz
  1  'x, y, z'
loop_
 _atom_site_type_symbol
 _atom_site_label
 _atom_site_symmetry_multiplicity
 _atom_site_fract_x
 _atom_site_fract_y
 _atom_site_fract_z
 _atom_site_occupancy
  Er  Er0  1  0.500000  0.840444  0.181393  1
  Er  Er1  1  0.500000  0.159089  0.819219  1
  Er  Er2  1  0.500000  0.659511  0.682682  1
  Er  Er3  1  0.500000  0.340538  0.316513  1
  Re  Re4  1  0.000000  0.656881  0.954716  1
  B  B5  1  0.500000  0.966217  0.588370  1
  B  B6  1  0.500000  0.033597  0.411498  1
  B  B7  1  0.500000  0.848408  0.901968  1
  B  B8  1  0.500000  0.149769  0.098443  1
  B  B9  1  0.500000  0.645470  0.399668  1
  B  B10  1  0.500000  0.351814  0.600933  1
  B  B11  1  0.500000  0.471663  0.910488  1
  B  B12  1  0.500000  0.540278  0.086233  1
  Ru  Ru13  1  0.000000  0.339157  0.047099  1
  Ru  Ru14  1  0.000000  0.842385  0.454193  1
  Ru  Ru15  1  0.000000  0.157125  0.545734  1
  Ru  Ru16  1  0.000000  0.999682  0.000525  1
  Ru  Ru17  1  0.000000  0.405677  0.760190  1
  Ru  Ru18  1  0.000000  0.593688  0.240337  1
  Ru  Ru19  1  0.000000  0.498678  0.500372  1
  Ru  Ru20  1  0.000000  0.907142  0.738618  1
  Ru  Ru21  1  0.000000  0.092791  0.260808  1
