# generated using pymatgen
data_Ca8Si11GePt4
_symmetry_space_group_name_H-M   'P 1'
_cell_length_a   8.26230200
_cell_length_b   8.26230755
_cell_length_c   8.59616400
_cell_angle_alpha   90.00158802
_cell_angle_beta   89.99848132
_cell_angle_gamma   120.11396436
_symmetry_Int_Tables_number   1
_chemical_formula_structural   Ca8Si11GePt4
_chemical_formula_sum   'Ca8 Si11 Ge1 Pt4'
_cell_volume   507.61899451
_cell_formula_units_Z   1
loop_
 _symmetry_equiv_pos_site_id
 _symmetry_equiv_pos_as_xyz
  1  'x, y, z'
loop_
 _atom_site_type_symbol
 _atom_site_label
 _atom_site_symmetry_multiplicity
 _atom_site_fract_x
 _atom_site_fract_y
 _atom_site_fract_z
 _atom_site_occupancy
  Ca  Ca0  1  0.500023  0.499976  0.748711  1
  Ca  Ca1  1  0.500447  0.499554  0.251326  1
  Ca  Ca2  1  0.000636  0.500745  0.749579  1
  Ca  Ca3  1  0.999795  0.500316  0.250420  1
  Ca  Ca4  1  0.499253  0.999362  0.749578  1
  Ca  Ca5  1  0.499686  0.000206  0.250421  1
  Ca  Ca6  1  0.000653  0.999347  0.748726  1
  Ca  Ca7  1  0.000639  0.999361  0.251240  1
  Si  Si8  1  0.165773  0.834227  0.000564  1
  Si  Si9  1  0.331121  0.165124  0.999406  1
  Si  Si10  1  0.165948  0.834052  0.499466  1
  Si  Si11  1  0.664980  0.827677  0.000640  1
  Si  Si12  1  0.834171  0.165828  0.500530  1
  Si  Si13  1  0.834876  0.668879  0.999406  1
  Si  Si14  1  0.668055  0.834364  0.499468  1
  Si  Si15  1  0.172323  0.335020  0.000641  1
  Si  Si16  1  0.332111  0.165786  0.500530  1
  Si  Si17  1  0.165636  0.331945  0.499468  1
  Si  Si18  1  0.834214  0.667888  0.500530  1
  Ge  Ge19  1  0.835164  0.164837  0.999322  1
  Pt  Pt20  1  0.661850  0.338150  0.999868  1
  Pt  Pt21  1  0.332539  0.667461  0.000153  1
  Pt  Pt22  1  0.333205  0.666795  0.499785  1
  Pt  Pt23  1  0.666902  0.333097  0.500225  1
