# generated using pymatgen
data_CaLaPr3CdPd4
_symmetry_space_group_name_H-M   'P 1'
_cell_length_a   8.08428722
_cell_length_b   8.11094104
_cell_length_c   3.96853800
_cell_angle_alpha   90.00000000
_cell_angle_beta   90.00000000
_cell_angle_gamma   90.39918817
_symmetry_Int_Tables_number   1
_chemical_formula_structural   CaLaPr3CdPd4
_chemical_formula_sum   'Ca1 La1 Pr3 Cd1 Pd4'
_cell_volume   260.21539210
_cell_formula_units_Z   1
loop_
 _symmetry_equiv_pos_site_id
 _symmetry_equiv_pos_as_xyz
  1  'x, y, z'
loop_
 _atom_site_type_symbol
 _atom_site_label
 _atom_site_symmetry_multiplicity
 _atom_site_fract_x
 _atom_site_fract_y
 _atom_site_fract_z
 _atom_site_occupancy
  Ca  Ca0  1  0.998979  0.000545  0.000000  1
  La  La1  1  0.353782  0.814689  0.500000  1
  Pr  Pr2  1  0.814934  0.646045  0.500000  1
  Pr  Pr3  1  0.185310  0.353183  0.500000  1
  Pr  Pr4  1  0.646707  0.186391  0.500000  1
  Cd  Cd5  1  0.500585  0.498989  0.000000  1
  Pd  Pd6  1  0.362506  0.122485  0.000000  1
  Pd  Pd7  1  0.877693  0.362803  0.000000  1
  Pd  Pd8  1  0.122888  0.637678  0.000000  1
  Pd  Pd9  1  0.636617  0.877193  0.000000  1
