# generated using pymatgen
data_TbHf3(Nb3Si4)2
_symmetry_space_group_name_H-M   'P 1'
_cell_length_a   6.90960187
_cell_length_b   6.91653766
_cell_length_c   12.82756700
_cell_angle_alpha   90.00000000
_cell_angle_beta   90.00000000
_cell_angle_gamma   90.07075576
_symmetry_Int_Tables_number   1
_chemical_formula_structural   TbHf3(Nb3Si4)2
_chemical_formula_sum   'Tb2 Hf6 Nb12 Si16'
_cell_volume   613.03564896
_cell_formula_units_Z   2
loop_
 _symmetry_equiv_pos_site_id
 _symmetry_equiv_pos_as_xyz
  1  'x, y, z'
loop_
 _atom_site_type_symbol
 _atom_site_label
 _atom_site_symmetry_multiplicity
 _atom_site_fract_x
 _atom_site_fract_y
 _atom_site_fract_z
 _atom_site_occupancy
  Tb  Tb0  1  0.996474  0.338452  0.218605  1
  Tb  Tb1  1  0.003526  0.661548  0.718605  1
  Hf  Hf2  1  0.160768  0.502634  0.467540  1
  Hf  Hf3  1  0.497547  0.839496  0.030752  1
  Hf  Hf4  1  0.839232  0.497366  0.967540  1
  Hf  Hf5  1  0.502453  0.160504  0.530752  1
  Hf  Hf6  1  0.344158  0.005474  0.782810  1
  Hf  Hf7  1  0.655842  0.994526  0.282810  1
  Nb  Nb8  1  0.171217  0.168500  0.999432  1
  Nb  Nb9  1  0.828783  0.831500  0.499432  1
  Nb  Nb10  1  0.331929  0.671999  0.250042  1
  Nb  Nb11  1  0.668071  0.328001  0.750042  1
  Nb  Nb12  1  0.156021  0.997988  0.376855  1
  Nb  Nb13  1  0.843979  0.002012  0.876855  1
  Nb  Nb14  1  0.502719  0.652563  0.625530  1
  Nb  Nb15  1  0.348194  0.493182  0.874997  1
  Nb  Nb16  1  0.497281  0.347437  0.125530  1
  Nb  Nb17  1  0.651806  0.506818  0.374997  1
  Nb  Nb18  1  0.995258  0.153301  0.624036  1
  Nb  Nb19  1  0.004742  0.846699  0.124036  1
  Si  Si20  1  0.302118  0.042344  0.186028  1
  Si  Si21  1  0.697882  0.957656  0.686028  1
  Si  Si22  1  0.455928  0.799639  0.437007  1
  Si  Si23  1  0.202188  0.545304  0.061896  1
  Si  Si24  1  0.544072  0.200361  0.937007  1
  Si  Si25  1  0.797812  0.454696  0.561896  1
  Si  Si26  1  0.044017  0.293600  0.814512  1
  Si  Si27  1  0.955983  0.706400  0.314512  1
  Si  Si28  1  0.369439  0.292261  0.323324  1
  Si  Si29  1  0.630561  0.707739  0.823324  1
  Si  Si30  1  0.210982  0.869166  0.569342  1
  Si  Si31  1  0.137402  0.794829  0.929768  1
  Si  Si32  1  0.789018  0.130834  0.069342  1
  Si  Si33  1  0.862598  0.205171  0.429768  1
  Si  Si34  1  0.295587  0.360847  0.677524  1
  Si  Si35  1  0.704413  0.639153  0.177524  1
