# generated using pymatgen
data_Rb12Na8Ti3VAs12
_symmetry_space_group_name_H-M   'P 1'
_cell_length_a   10.81479458
_cell_length_b   10.81479647
_cell_length_c   15.80795421
_cell_angle_alpha   89.97836701
_cell_angle_beta   89.97837300
_cell_angle_gamma   142.61391100
_symmetry_Int_Tables_number   1
_chemical_formula_structural   Rb12Na8Ti3VAs12
_chemical_formula_sum   'Rb12 Na8 Ti3 V1 As12'
_cell_volume   1122.61685060
_cell_formula_units_Z   1
loop_
 _symmetry_equiv_pos_site_id
 _symmetry_equiv_pos_as_xyz
  1  'x, y, z'
loop_
 _atom_site_type_symbol
 _atom_site_label
 _atom_site_symmetry_multiplicity
 _atom_site_fract_x
 _atom_site_fract_y
 _atom_site_fract_z
 _atom_site_occupancy
  Rb  Rb0  1  0.606309  0.943439  0.825000  1
  Rb  Rb1  1  0.276160  0.278072  0.315939  1
  Rb  Rb2  1  0.223626  0.223417  0.816623  1
  Rb  Rb3  1  0.721928  0.723840  0.684061  1
  Rb  Rb4  1  0.442163  0.106739  0.674558  1
  Rb  Rb5  1  0.893261  0.557837  0.325442  1
  Rb  Rb6  1  0.056561  0.393691  0.175000  1
  Rb  Rb7  1  0.393483  0.056431  0.174473  1
  Rb  Rb8  1  0.559793  0.892828  0.325615  1
  Rb  Rb9  1  0.107172  0.440207  0.674385  1
  Rb  Rb10  1  0.943569  0.606517  0.825527  1
  Rb  Rb11  1  0.776583  0.776374  0.183377  1
  Na  Na12  1  0.079464  0.920536  0.000000  1
  Na  Na13  1  0.578978  0.421022  0.500000  1
  Na  Na14  1  0.920421  0.079579  0.000000  1
  Na  Na15  1  0.755045  0.244955  0.000000  1
  Na  Na16  1  0.746088  0.253912  0.500000  1
  Na  Na17  1  0.245195  0.754805  0.000000  1
  Na  Na18  1  0.255569  0.744431  0.500000  1
  Na  Na19  1  0.420276  0.579724  0.500000  1
  Ti  Ti20  1  0.415388  0.584612  0.000000  1
  Ti  Ti21  1  0.917228  0.082772  0.500000  1
  Ti  Ti22  1  0.584495  0.415505  0.000000  1
  V  V23  1  0.083435  0.916565  0.500000  1
  As  As24  1  0.054714  0.362511  0.405102  1
  As  As25  1  0.861629  0.553952  0.094234  1
  As  As26  1  0.446048  0.138371  0.905766  1
  As  As27  1  0.637489  0.945286  0.594898  1
  As  As28  1  0.950384  0.649027  0.591313  1
  As  As29  1  0.138465  0.446097  0.905638  1
  As  As30  1  0.553903  0.861535  0.094362  1
  As  As31  1  0.350973  0.049616  0.408687  1
  As  As32  1  0.191316  0.187285  0.584740  1
  As  As33  1  0.691651  0.691478  0.914968  1
  As  As34  1  0.308522  0.308349  0.085032  1
  As  As35  1  0.812715  0.808684  0.415260  1
