# generated using pymatgen
data_Yb3SmLu4(B6Ru)4
_symmetry_space_group_name_H-M   'P 1'
_cell_length_a   3.62437200
_cell_length_b   9.08984565
_cell_length_c   11.48872602
_cell_angle_alpha   89.94522578
_cell_angle_beta   90.00000000
_cell_angle_gamma   90.00000000
_symmetry_Int_Tables_number   1
_chemical_formula_structural   Yb3SmLu4(B6Ru)4
_chemical_formula_sum   'Yb3 Sm1 Lu4 B24 Ru4'
_cell_volume   378.49569984
_cell_formula_units_Z   1
loop_
 _symmetry_equiv_pos_site_id
 _symmetry_equiv_pos_as_xyz
  1  'x, y, z'
loop_
 _atom_site_type_symbol
 _atom_site_label
 _atom_site_symmetry_multiplicity
 _atom_site_fract_x
 _atom_site_fract_y
 _atom_site_fract_z
 _atom_site_occupancy
  Yb  Yb0  1  0.000000  0.324756  0.414680  1
  Yb  Yb1  1  0.000000  0.675363  0.584487  1
  Yb  Yb2  1  0.000000  0.823032  0.086096  1
  Sm  Sm3  1  0.000000  0.176234  0.915168  1
  Lu  Lu4  1  0.000000  0.941067  0.367113  1
  Lu  Lu5  1  0.000000  0.057747  0.630885  1
  Lu  Lu6  1  0.000000  0.443524  0.133242  1
  Lu  Lu7  1  0.000000  0.558779  0.867978  1
  B  B8  1  0.500000  0.553865  0.432562  1
  B  B9  1  0.500000  0.446032  0.567717  1
  B  B10  1  0.500000  0.053640  0.068645  1
  B  B11  1  0.500000  0.944097  0.932629  1
  B  B12  1  0.500000  0.749558  0.417283  1
  B  B13  1  0.500000  0.250359  0.582233  1
  B  B14  1  0.500000  0.250396  0.083974  1
  B  B15  1  0.500000  0.750023  0.917605  1
  B  B16  1  0.500000  0.791412  0.264239  1
  B  B17  1  0.500000  0.208720  0.734701  1
  B  B18  1  0.500000  0.291862  0.236075  1
  B  B19  1  0.500000  0.708862  0.764258  1
  B  B20  1  0.500000  0.630465  0.185281  1
  B  B21  1  0.500000  0.370767  0.814677  1
  B  B22  1  0.500000  0.130337  0.314822  1
  B  B23  1  0.500000  0.869397  0.684125  1
  B  B24  1  0.500000  0.982480  0.211738  1
  B  B25  1  0.500000  0.015722  0.787269  1
  B  B26  1  0.500000  0.483364  0.288884  1
  B  B27  1  0.500000  0.517174  0.711604  1
  B  B28  1  0.500000  0.597684  0.026902  1
  B  B29  1  0.500000  0.403995  0.973879  1
  B  B30  1  0.500000  0.095907  0.473135  1
  B  B31  1  0.500000  0.903600  0.525743  1
  Ru  Ru32  1  0.000000  0.639481  0.319592  1
  Ru  Ru33  1  0.000000  0.360055  0.680975  1
  Ru  Ru34  1  0.000000  0.139333  0.180974  1
  Ru  Ru35  1  0.000000  0.860913  0.818829  1
