# generated using pymatgen
data_Nb5Fe16Si7Mo
_symmetry_space_group_name_H-M   'P 1'
_cell_length_a   7.94061907
_cell_length_b   7.92788144
_cell_length_c   7.94061820
_cell_angle_alpha   60.05304814
_cell_angle_beta   59.89390384
_cell_angle_gamma   60.05305102
_symmetry_Int_Tables_number   1
_chemical_formula_structural   Nb5Fe16Si7Mo
_chemical_formula_sum   'Nb5 Fe16 Si7 Mo1'
_cell_volume   353.46678076
_cell_formula_units_Z   1
loop_
 _symmetry_equiv_pos_site_id
 _symmetry_equiv_pos_as_xyz
  1  'x, y, z'
loop_
 _atom_site_type_symbol
 _atom_site_label
 _atom_site_symmetry_multiplicity
 _atom_site_fract_x
 _atom_site_fract_y
 _atom_site_fract_z
 _atom_site_occupancy
  Nb  Nb0  1  0.798796  0.799652  0.200348  1
  Nb  Nb1  1  0.204642  0.795358  0.204642  1
  Nb  Nb2  1  0.200348  0.201204  0.798796  1
  Nb  Nb3  1  0.200348  0.799652  0.798796  1
  Nb  Nb4  1  0.798796  0.201204  0.200348  1
  Fe  Fe5  1  0.855203  0.379880  0.385036  1
  Fe  Fe6  1  0.620628  0.619386  0.140601  1
  Fe  Fe7  1  0.385036  0.379880  0.855203  1
  Fe  Fe8  1  0.826657  0.518062  0.826657  1
  Fe  Fe9  1  0.826657  0.828625  0.826657  1
  Fe  Fe10  1  0.826143  0.827081  0.519697  1
  Fe  Fe11  1  0.380614  0.379372  0.380614  1
  Fe  Fe12  1  0.140601  0.619386  0.620628  1
  Fe  Fe13  1  0.620120  0.614964  0.620120  1
  Fe  Fe14  1  0.172919  0.173857  0.172919  1
  Fe  Fe15  1  0.172919  0.480303  0.172919  1
  Fe  Fe16  1  0.519697  0.827081  0.826143  1
  Fe  Fe17  1  0.620120  0.144797  0.620120  1
  Fe  Fe18  1  0.171375  0.173343  0.481938  1
  Fe  Fe19  1  0.380614  0.859399  0.380614  1
  Fe  Fe20  1  0.481938  0.173343  0.171375  1
  Si  Si21  1  0.499904  0.000403  0.999597  1
  Si  Si22  1  0.999897  0.500103  0.999897  1
  Si  Si23  1  0.499904  0.500096  0.999597  1
  Si  Si24  1  0.496768  0.503232  0.496768  1
  Si  Si25  1  0.999597  0.500096  0.499904  1
  Si  Si26  1  0.999597  0.000403  0.499904  1
  Si  Si27  1  0.499897  0.000103  0.499897  1
  Mo  Mo28  1  0.800264  0.199736  0.800264  1
