# generated using pymatgen
data_Tb(NdGa)2
_symmetry_space_group_name_H-M   'P 1'
_cell_length_a   7.73559500
_cell_length_b   7.73559500
_cell_length_c   4.55859900
_cell_angle_alpha   90.00000000
_cell_angle_beta   90.00000000
_cell_angle_gamma   90.00000000
_symmetry_Int_Tables_number   1
_chemical_formula_structural   Tb(NdGa)2
_chemical_formula_sum   'Tb2 Nd4 Ga4'
_cell_volume   272.78396578
_cell_formula_units_Z   2
loop_
 _symmetry_equiv_pos_site_id
 _symmetry_equiv_pos_as_xyz
  1  'x, y, z'
loop_
 _atom_site_type_symbol
 _atom_site_label
 _atom_site_symmetry_multiplicity
 _atom_site_fract_x
 _atom_site_fract_y
 _atom_site_fract_z
 _atom_site_occupancy
  Tb  Tb0  1  0.000000  0.000000  0.000000  1
  Tb  Tb1  1  0.500000  0.500000  0.000000  1
  Nd  Nd2  1  0.674098  0.174099  0.499999  1
  Nd  Nd3  1  0.174099  0.325902  0.499999  1
  Nd  Nd4  1  0.825901  0.674098  0.499999  1
  Nd  Nd5  1  0.325902  0.825901  0.499999  1
  Ga  Ga6  1  0.380846  0.119155  0.000000  1
  Ga  Ga7  1  0.880845  0.380846  0.000000  1
  Ga  Ga8  1  0.119155  0.619155  0.000000  1
  Ga  Ga9  1  0.619155  0.880845  0.000000  1
