# generated using pymatgen
data_Mg11Al5(CuPd3)2
_symmetry_space_group_name_H-M   'P 1'
_cell_length_a   8.36647949
_cell_length_b   8.36319086
_cell_length_c   8.36648280
_cell_angle_alpha   60.01176513
_cell_angle_beta   59.83319494
_cell_angle_gamma   60.01181860
_symmetry_Int_Tables_number   1
_chemical_formula_structural   Mg11Al5(CuPd3)2
_chemical_formula_sum   'Mg11 Al5 Cu2 Pd6'
_cell_volume   413.49417477
_cell_formula_units_Z   1
loop_
 _symmetry_equiv_pos_site_id
 _symmetry_equiv_pos_as_xyz
  1  'x, y, z'
loop_
 _atom_site_type_symbol
 _atom_site_label
 _atom_site_symmetry_multiplicity
 _atom_site_fract_x
 _atom_site_fract_y
 _atom_site_fract_z
 _atom_site_occupancy
  Mg  Mg0  1  0.191303  0.194267  0.808292  1
  Mg  Mg1  1  0.191289  0.806149  0.808293  1
  Mg  Mg2  1  0.055542  0.444467  0.055542  1
  Mg  Mg3  1  0.808292  0.194267  0.191304  1
  Mg  Mg4  1  0.056655  0.446474  0.440878  1
  Mg  Mg5  1  0.443297  0.056710  0.443296  1
  Mg  Mg6  1  0.440878  0.446474  0.056655  1
  Mg  Mg7  1  0.808293  0.806149  0.191289  1
  Mg  Mg8  1  0.440879  0.056006  0.056657  1
  Mg  Mg9  1  0.802844  0.197150  0.802843  1
  Mg  Mg10  1  0.056658  0.056006  0.440879  1
  Al  Al11  1  0.202140  0.797873  0.202141  1
  Al  Al12  1  0.623463  0.628241  0.623463  1
  Al  Al13  1  0.129864  0.622265  0.625609  1
  Al  Al14  1  0.625609  0.622265  0.129864  1
  Al  Al15  1  0.623454  0.124858  0.623454  1
  Cu  Cu16  1  0.834010  0.501154  0.834010  1
  Cu  Cu17  1  0.833952  0.830766  0.833952  1
  Pd  Pd18  1  0.483498  0.833612  0.849280  1
  Pd  Pd19  1  0.409941  0.767632  0.409941  1
  Pd  Pd20  1  0.849279  0.833612  0.483499  1
  Pd  Pd21  1  0.767078  0.410548  0.411846  1
  Pd  Pd22  1  0.409937  0.412507  0.409937  1
  Pd  Pd23  1  0.411846  0.410547  0.767078  1
