# generated using pymatgen
data_Ho6Si5Ni4Ge
_symmetry_space_group_name_H-M   'P 1'
_cell_length_a   5.46361997
_cell_length_b   5.46362082
_cell_length_c   13.86595600
_cell_angle_alpha   90.00000000
_cell_angle_beta   90.00000000
_cell_angle_gamma   135.34426365
_symmetry_Int_Tables_number   1
_chemical_formula_structural   Ho6Si5Ni4Ge
_chemical_formula_sum   'Ho6 Si5 Ni4 Ge1'
_cell_volume   290.91803081
_cell_formula_units_Z   1
loop_
 _symmetry_equiv_pos_site_id
 _symmetry_equiv_pos_as_xyz
  1  'x, y, z'
loop_
 _atom_site_type_symbol
 _atom_site_label
 _atom_site_symmetry_multiplicity
 _atom_site_fract_x
 _atom_site_fract_y
 _atom_site_fract_z
 _atom_site_occupancy
  Ho  Ho0  1  0.589368  0.410632  0.610342  1
  Ho  Ho1  1  0.410789  0.589211  0.392780  1
  Ho  Ho2  1  0.410789  0.589211  0.107220  1
  Ho  Ho3  1  0.589368  0.410632  0.889658  1
  Ho  Ho4  1  0.131692  0.868308  0.250000  1
  Ho  Ho5  1  0.870224  0.129776  0.750000  1
  Si  Si6  1  0.880751  0.119249  0.539208  1
  Si  Si7  1  0.117725  0.882275  0.462183  1
  Si  Si8  1  0.171397  0.828603  0.750000  1
  Si  Si9  1  0.880751  0.119249  0.960792  1
  Si  Si10  1  0.117725  0.882275  0.037817  1
  Ni  Ni11  1  0.298973  0.701027  0.597198  1
  Ni  Ni12  1  0.699179  0.300821  0.408023  1
  Ni  Ni13  1  0.699179  0.300821  0.091977  1
  Ni  Ni14  1  0.298973  0.701027  0.902802  1
  Ge  Ge15  1  0.833121  0.166879  0.250000  1
