# generated using pymatgen
data_La2Eu4Cd23As
_symmetry_space_group_name_H-M   'P 1'
_cell_length_a   10.21007947
_cell_length_b   10.21007886
_cell_length_c   10.17949300
_cell_angle_alpha   60.09904930
_cell_angle_beta   60.09905125
_cell_angle_gamma   59.72832978
_symmetry_Int_Tables_number   1
_chemical_formula_structural   La2Eu4Cd23As
_chemical_formula_sum   'La2 Eu4 Cd23 As1'
_cell_volume   749.92131189
_cell_formula_units_Z   1
loop_
 _symmetry_equiv_pos_site_id
 _symmetry_equiv_pos_as_xyz
  1  'x, y, z'
loop_
 _atom_site_type_symbol
 _atom_site_label
 _atom_site_symmetry_multiplicity
 _atom_site_fract_x
 _atom_site_fract_y
 _atom_site_fract_z
 _atom_site_occupancy
  La  La0  1  0.791216  0.208784  0.790950  1
  La  La1  1  0.208784  0.791216  0.790950  1
  Eu  Eu2  1  0.791428  0.791428  0.209244  1
  Eu  Eu3  1  0.206854  0.793146  0.207928  1
  Eu  Eu4  1  0.793146  0.206854  0.207928  1
  Eu  Eu5  1  0.208572  0.208572  0.792101  1
  Cd  Cd6  1  0.831581  0.831581  0.507911  1
  Cd  Cd7  1  0.830393  0.508446  0.831192  1
  Cd  Cd8  1  0.508446  0.830393  0.831192  1
  Cd  Cd9  1  0.830624  0.830624  0.829284  1
  Cd  Cd10  1  0.169376  0.169376  0.490530  1
  Cd  Cd11  1  0.169607  0.491554  0.170029  1
  Cd  Cd12  1  0.491554  0.169607  0.170029  1
  Cd  Cd13  1  0.168419  0.168419  0.171072  1
  Cd  Cd14  1  0.620538  0.620538  0.138391  1
  Cd  Cd15  1  0.621064  0.137030  0.619785  1
  Cd  Cd16  1  0.137030  0.621064  0.619785  1
  Cd  Cd17  1  0.621974  0.621974  0.619554  1
  Cd  Cd18  1  0.378026  0.378026  0.863502  1
  Cd  Cd19  1  0.378936  0.862970  0.377880  1
  Cd  Cd20  1  0.862970  0.378936  0.377880  1
  Cd  Cd21  1  0.379462  0.379462  0.379467  1
  Cd  Cd22  1  0.000000  0.000000  0.501784  1
  Cd  Cd23  1  0.499510  0.999578  0.501400  1
  Cd  Cd24  1  0.999578  0.499510  0.501400  1
  Cd  Cd25  1  0.500000  0.500000  0.000875  1
  Cd  Cd26  1  0.000422  0.500490  0.000488  1
  Cd  Cd27  1  0.500490  0.000422  0.000488  1
  Cd  Cd28  1  0.500000  0.500000  0.501354  1
  As  As29  1  0.000000  0.000000  0.995627  1
