# generated using pymatgen
data_Hf9Ir10Pd
_symmetry_space_group_name_H-M   'P 1'
_cell_length_a   7.19397248
_cell_length_b   7.81027118
_cell_length_c   7.81027100
_cell_angle_alpha   77.75442270
_cell_angle_beta   62.57769263
_cell_angle_gamma   62.57767666
_symmetry_Int_Tables_number   1
_chemical_formula_structural   Hf9Ir10Pd
_chemical_formula_sum   'Hf9 Ir10 Pd1'
_cell_volume   345.75692182
_cell_formula_units_Z   1
loop_
 _symmetry_equiv_pos_site_id
 _symmetry_equiv_pos_as_xyz
  1  'x, y, z'
loop_
 _atom_site_type_symbol
 _atom_site_label
 _atom_site_symmetry_multiplicity
 _atom_site_fract_x
 _atom_site_fract_y
 _atom_site_fract_z
 _atom_site_occupancy
  Hf  Hf0  1  0.000000  0.000000  0.000000  1
  Hf  Hf1  1  0.688211  0.407919  0.215662  1
  Hf  Hf2  1  0.311789  0.592081  0.784338  1
  Hf  Hf3  1  0.096155  0.215671  0.592037  1
  Hf  Hf4  1  0.903845  0.784329  0.407963  1
  Hf  Hf5  1  0.765336  0.642333  0.826995  1
  Hf  Hf6  1  0.234664  0.357667  0.173005  1
  Hf  Hf7  1  0.407649  0.827033  0.357672  1
  Hf  Hf8  1  0.592351  0.172967  0.642328  1
  Ir  Ir9  1  0.250004  0.500000  0.499999  1
  Ir  Ir10  1  0.749996  0.500000  0.500001  1
  Ir  Ir11  1  0.673510  0.311981  0.896819  1
  Ir  Ir12  1  0.882320  0.688020  0.103182  1
  Ir  Ir13  1  0.985482  0.896832  0.688020  1
  Ir  Ir14  1  0.570322  0.103167  0.311976  1
  Ir  Ir15  1  0.326490  0.688019  0.103181  1
  Ir  Ir16  1  0.117680  0.311980  0.896818  1
  Ir  Ir17  1  0.014518  0.103168  0.311980  1
  Ir  Ir18  1  0.429678  0.896833  0.688024  1
  Pd  Pd19  1  0.500000  0.000000  0.000000  1
