# generated using pymatgen
data_TbNiPt3Au
_symmetry_space_group_name_H-M   'P 1'
_cell_length_a   5.16611137
_cell_length_b   5.16611072
_cell_length_c   5.16611143
_cell_angle_alpha   62.73478337
_cell_angle_beta   62.73478741
_cell_angle_gamma   62.73478713
_symmetry_Int_Tables_number   1
_chemical_formula_structural   TbNiPt3Au
_chemical_formula_sum   'Tb1 Ni1 Pt3 Au1'
_cell_volume   103.42489413
_cell_formula_units_Z   1
loop_
 _symmetry_equiv_pos_site_id
 _symmetry_equiv_pos_as_xyz
  1  'x, y, z'
loop_
 _atom_site_type_symbol
 _atom_site_label
 _atom_site_symmetry_multiplicity
 _atom_site_fract_x
 _atom_site_fract_y
 _atom_site_fract_z
 _atom_site_occupancy
  Tb  Tb0  1  0.001302  0.001302  0.001302  1
  Ni  Ni1  1  0.624105  0.624105  0.624105  1
  Pt  Pt2  1  0.623673  0.623673  0.125640  1
  Pt  Pt3  1  0.623673  0.125640  0.623673  1
  Pt  Pt4  1  0.125640  0.623673  0.623673  1
  Au  Au5  1  0.251606  0.251606  0.251606  1
