# generated using pymatgen
data_Np2Si5Ir2Ru
_symmetry_space_group_name_H-M   'P 1'
_cell_length_a   8.16242596
_cell_length_b   8.16242579
_cell_length_c   5.87030414
_cell_angle_alpha   68.83947308
_cell_angle_beta   68.83946976
_cell_angle_gamma   89.68331288
_symmetry_Int_Tables_number   1
_chemical_formula_structural   Np2Si5Ir2Ru
_chemical_formula_sum   'Np4 Si10 Ir4 Ru2'
_cell_volume   336.62605178
_cell_formula_units_Z   2
loop_
 _symmetry_equiv_pos_site_id
 _symmetry_equiv_pos_as_xyz
  1  'x, y, z'
loop_
 _atom_site_type_symbol
 _atom_site_label
 _atom_site_symmetry_multiplicity
 _atom_site_fract_x
 _atom_site_fract_y
 _atom_site_fract_z
 _atom_site_occupancy
  Np  Np0  1  0.861807  0.599583  0.770341  1
  Np  Np1  1  0.400417  0.138193  0.729659  1
  Np  Np2  1  0.138193  0.400417  0.229659  1
  Np  Np3  1  0.599583  0.861807  0.270341  1
  Si  Si4  1  0.048649  0.254680  0.847147  1
  Si  Si5  1  0.745320  0.951351  0.652853  1
  Si  Si6  1  0.951351  0.745320  0.152853  1
  Si  Si7  1  0.254680  0.048649  0.347147  1
  Si  Si8  1  0.223075  0.776925  0.750000  1
  Si  Si9  1  0.776925  0.223075  0.250000  1
  Si  Si10  1  0.500456  0.499544  0.750000  1
  Si  Si11  1  0.499544  0.500456  0.250000  1
  Si  Si12  1  0.776335  0.223665  0.750000  1
  Si  Si13  1  0.223665  0.776335  0.250000  1
  Ir  Ir14  1  0.244490  0.526161  0.615866  1
  Ir  Ir15  1  0.473839  0.755510  0.884134  1
  Ir  Ir16  1  0.755510  0.473839  0.384134  1
  Ir  Ir17  1  0.526161  0.244490  0.115866  1
  Ru  Ru18  1  0.000238  0.999762  0.750000  1
  Ru  Ru19  1  0.999762  0.000238  0.250000  1
