# generated using pymatgen
data_Ho2FeCo(P3Ir4)2
_symmetry_space_group_name_H-M   'P 1'
_cell_length_a   3.91752100
_cell_length_b   10.72872000
_cell_length_c   12.36612800
_cell_angle_alpha   90.00000000
_cell_angle_beta   90.00000000
_cell_angle_gamma   90.00000000
_symmetry_Int_Tables_number   1
_chemical_formula_structural   Ho2FeCo(P3Ir4)2
_chemical_formula_sum   'Ho4 Fe2 Co2 P12 Ir16'
_cell_volume   519.74818552
_cell_formula_units_Z   2
loop_
 _symmetry_equiv_pos_site_id
 _symmetry_equiv_pos_as_xyz
  1  'x, y, z'
loop_
 _atom_site_type_symbol
 _atom_site_label
 _atom_site_symmetry_multiplicity
 _atom_site_fract_x
 _atom_site_fract_y
 _atom_site_fract_z
 _atom_site_occupancy
  Ho  Ho0  1  0.250000  0.585506  0.709915  1
  Ho  Ho1  1  0.250000  0.914494  0.209915  1
  Ho  Ho2  1  0.750000  0.414739  0.290397  1
  Ho  Ho3  1  0.750000  0.085261  0.790397  1
  Fe  Fe4  1  0.250000  0.460334  0.934319  1
  Fe  Fe5  1  0.250000  0.039666  0.434319  1
  Co  Co6  1  0.750000  0.537325  0.067533  1
  Co  Co7  1  0.750000  0.962675  0.567533  1
  P  P8  1  0.250000  0.426564  0.105781  1
  P  P9  1  0.250000  0.073436  0.605781  1
  P  P10  1  0.750000  0.572684  0.895215  1
  P  P11  1  0.750000  0.927316  0.395215  1
  P  P12  1  0.250000  0.271074  0.870948  1
  P  P13  1  0.250000  0.228926  0.370948  1
  P  P14  1  0.750000  0.728854  0.127835  1
  P  P15  1  0.750000  0.771146  0.627835  1
  P  P16  1  0.250000  0.594439  0.384638  1
  P  P17  1  0.250000  0.905561  0.884638  1
  P  P18  1  0.750000  0.404593  0.614905  1
  P  P19  1  0.750000  0.095407  0.114905  1
  Ir  Ir20  1  0.250000  0.724769  0.983836  1
  Ir  Ir21  1  0.250000  0.775231  0.483836  1
  Ir  Ir22  1  0.750000  0.279047  0.015855  1
  Ir  Ir23  1  0.750000  0.220953  0.515855  1
  Ir  Ir24  1  0.250000  0.407738  0.477690  1
  Ir  Ir25  1  0.250000  0.092262  0.977690  1
  Ir  Ir26  1  0.750000  0.591079  0.521962  1
  Ir  Ir27  1  0.750000  0.908921  0.021962  1
  Ir  Ir28  1  0.250000  0.231986  0.179051  1
  Ir  Ir29  1  0.250000  0.268014  0.679051  1
  Ir  Ir30  1  0.750000  0.767048  0.820260  1
  Ir  Ir31  1  0.750000  0.732952  0.320260  1
  Ir  Ir32  1  0.250000  0.887063  0.699303  1
  Ir  Ir33  1  0.250000  0.612937  0.199303  1
  Ir  Ir34  1  0.750000  0.113654  0.300557  1
  Ir  Ir35  1  0.750000  0.386346  0.800557  1
