# generated using pymatgen
data_Sm3SiPd5
_symmetry_space_group_name_H-M   'P 1'
_cell_length_a   8.34363377
_cell_length_b   8.34363389
_cell_length_c   8.34363358
_cell_angle_alpha   127.26653318
_cell_angle_beta   125.91025993
_cell_angle_gamma   78.92807516
_symmetry_Int_Tables_number   1
_chemical_formula_structural   Sm3SiPd5
_chemical_formula_sum   'Sm6 Si2 Pd10'
_cell_volume   362.21414901
_cell_formula_units_Z   2
loop_
 _symmetry_equiv_pos_site_id
 _symmetry_equiv_pos_as_xyz
  1  'x, y, z'
loop_
 _atom_site_type_symbol
 _atom_site_label
 _atom_site_symmetry_multiplicity
 _atom_site_fract_x
 _atom_site_fract_y
 _atom_site_fract_z
 _atom_site_occupancy
  Sm  Sm0  1  0.223568  0.449582  0.773987  1
  Sm  Sm1  1  0.776432  0.550418  0.226013  1
  Sm  Sm2  1  0.824405  0.050418  0.773987  1
  Sm  Sm3  1  0.175595  0.949582  0.226013  1
  Sm  Sm4  1  0.388310  0.250000  0.138310  1
  Sm  Sm5  1  0.611690  0.750000  0.861690  1
  Si  Si6  1  0.783917  0.250000  0.533917  1
  Si  Si7  1  0.216083  0.750000  0.466083  1
  Pd  Pd8  1  0.168635  0.404176  0.359704  1
  Pd  Pd9  1  0.831365  0.191069  0.235541  1
  Pd  Pd10  1  0.455528  0.095824  0.764459  1
  Pd  Pd11  1  0.544472  0.308931  0.640296  1
  Pd  Pd12  1  0.000000  0.500000  0.000000  1
  Pd  Pd13  1  0.000000  0.000000  0.500000  1
  Pd  Pd14  1  0.455528  0.691069  0.359704  1
  Pd  Pd15  1  0.544472  0.904176  0.235541  1
  Pd  Pd16  1  0.168635  0.808931  0.764459  1
  Pd  Pd17  1  0.831365  0.595824  0.640296  1
