# generated using pymatgen
data_Ho16Ga6NiOs
_symmetry_space_group_name_H-M   'P 1'
_cell_length_a   9.99988600
_cell_length_b   9.99988623
_cell_length_c   6.97632100
_cell_angle_alpha   90.00000000
_cell_angle_beta   90.00000000
_cell_angle_gamma   120.00000585
_symmetry_Int_Tables_number   1
_chemical_formula_structural   Ho16Ga6NiOs
_chemical_formula_sum   'Ho16 Ga6 Ni1 Os1'
_cell_volume   604.15332447
_cell_formula_units_Z   1
loop_
 _symmetry_equiv_pos_site_id
 _symmetry_equiv_pos_as_xyz
  1  'x, y, z'
loop_
 _atom_site_type_symbol
 _atom_site_label
 _atom_site_symmetry_multiplicity
 _atom_site_fract_x
 _atom_site_fract_y
 _atom_site_fract_z
 _atom_site_occupancy
  Ho  Ho0  1  0.829592  0.659184  0.487369  1
  Ho  Ho1  1  0.340816  0.170408  0.487369  1
  Ho  Ho2  1  0.829592  0.170408  0.487369  1
  Ho  Ho3  1  0.172725  0.345451  0.988583  1
  Ho  Ho4  1  0.654549  0.827275  0.988583  1
  Ho  Ho5  1  0.172725  0.827275  0.988583  1
  Ho  Ho6  1  0.666667  0.333333  0.159298  1
  Ho  Ho7  1  0.333333  0.666667  0.672989  1
  Ho  Ho8  1  0.535840  0.071678  0.793056  1
  Ho  Ho9  1  0.928322  0.464160  0.793056  1
  Ho  Ho10  1  0.535840  0.464160  0.793056  1
  Ho  Ho11  1  0.465411  0.930823  0.296843  1
  Ho  Ho12  1  0.069177  0.534589  0.296843  1
  Ho  Ho13  1  0.465411  0.534589  0.296843  1
  Ho  Ho14  1  0.000000  0.000000  0.768053  1
  Ho  Ho15  1  0.000000  0.000000  0.260247  1
  Ga  Ga16  1  0.837702  0.675405  0.041948  1
  Ga  Ga17  1  0.324595  0.162298  0.041948  1
  Ga  Ga18  1  0.837702  0.162298  0.041948  1
  Ga  Ga19  1  0.165135  0.330271  0.545308  1
  Ga  Ga20  1  0.669729  0.834865  0.545308  1
  Ga  Ga21  1  0.165135  0.834865  0.545308  1
  Ni  Ni22  1  0.333333  0.666667  0.056349  1
  Os  Os23  1  0.666667  0.333333  0.549984  1
