# generated using pymatgen
data_DyEr10In9CoNi3
_symmetry_space_group_name_H-M   'P 1'
_cell_length_a   3.60144700
_cell_length_b   12.95150560
_cell_length_c   12.94160372
_cell_angle_alpha   112.39173793
_cell_angle_beta   90.00000000
_cell_angle_gamma   90.00000000
_symmetry_Int_Tables_number   1
_chemical_formula_structural   DyEr10In9CoNi3
_chemical_formula_sum   'Dy1 Er10 In9 Co1 Ni3'
_cell_volume   558.13560710
_cell_formula_units_Z   1
loop_
 _symmetry_equiv_pos_site_id
 _symmetry_equiv_pos_as_xyz
  1  'x, y, z'
loop_
 _atom_site_type_symbol
 _atom_site_label
 _atom_site_symmetry_multiplicity
 _atom_site_fract_x
 _atom_site_fract_y
 _atom_site_fract_z
 _atom_site_occupancy
  Dy  Dy0  1  0.000000  0.999724  0.999355  1
  Er  Er1  1  0.000000  0.917185  0.582001  1
  Er  Er2  1  0.000000  0.081334  0.417790  1
  Er  Er3  1  0.000000  0.582442  0.918778  1
  Er  Er4  1  0.000000  0.417550  0.080855  1
  Er  Er5  1  0.000000  0.159810  0.840375  1
  Er  Er6  1  0.000000  0.840523  0.160574  1
  Er  Er7  1  0.000000  0.374880  0.625961  1
  Er  Er8  1  0.000000  0.628673  0.378501  1
  Er  Er9  1  0.000000  0.688398  0.683606  1
  Er  Er10  1  0.000000  0.313224  0.312735  1
  In  In11  1  0.500000  0.156713  0.632836  1
  In  In12  1  0.500000  0.841550  0.368337  1
  In  In13  1  0.500000  0.632236  0.157258  1
  In  In14  1  0.500000  0.367404  0.842824  1
  In  In15  1  0.500000  0.920535  0.778004  1
  In  In16  1  0.500000  0.076882  0.220092  1
  In  In17  1  0.500000  0.779340  0.922372  1
  In  In18  1  0.500000  0.220316  0.077325  1
  In  In19  1  0.500000  0.500561  0.499792  1
  Co  Co20  1  0.500000  0.754204  0.550605  1
  Ni  Ni21  1  0.500000  0.248143  0.450292  1
  Ni  Ni22  1  0.500000  0.548989  0.752203  1
  Ni  Ni23  1  0.500000  0.449387  0.247529  1
