# generated using pymatgen
data_La2Bi4Rh3
_symmetry_space_group_name_H-M   'P 1'
_cell_length_a   4.74710900
_cell_length_b   11.41186400
_cell_length_c   16.93013500
_cell_angle_alpha   90.00000000
_cell_angle_beta   90.00000000
_cell_angle_gamma   90.00000000
_symmetry_Int_Tables_number   1
_chemical_formula_structural   La2Bi4Rh3
_chemical_formula_sum   'La8 Bi16 Rh12'
_cell_volume   917.16233716
_cell_formula_units_Z   4
loop_
 _symmetry_equiv_pos_site_id
 _symmetry_equiv_pos_as_xyz
  1  'x, y, z'
loop_
 _atom_site_type_symbol
 _atom_site_label
 _atom_site_symmetry_multiplicity
 _atom_site_fract_x
 _atom_site_fract_y
 _atom_site_fract_z
 _atom_site_occupancy
  La  La0  1  0.250000  0.587795  0.751194  1
  La  La1  1  0.250000  0.912205  0.251194  1
  La  La2  1  0.750000  0.412205  0.248806  1
  La  La3  1  0.750000  0.087795  0.748806  1
  La  La4  1  0.250000  0.741150  0.503774  1
  La  La5  1  0.250000  0.758850  0.003774  1
  La  La6  1  0.750000  0.258850  0.496226  1
  La  La7  1  0.750000  0.241150  0.996226  1
  Bi  Bi8  1  0.250000  0.442709  0.932917  1
  Bi  Bi9  1  0.250000  0.057291  0.432917  1
  Bi  Bi10  1  0.750000  0.557291  0.067083  1
  Bi  Bi11  1  0.750000  0.942709  0.567083  1
  Bi  Bi12  1  0.250000  0.273207  0.649417  1
  Bi  Bi13  1  0.250000  0.226793  0.149417  1
  Bi  Bi14  1  0.750000  0.726793  0.350583  1
  Bi  Bi15  1  0.750000  0.773207  0.850583  1
  Bi  Bi16  1  0.250000  0.881237  0.712036  1
  Bi  Bi17  1  0.250000  0.618763  0.212036  1
  Bi  Bi18  1  0.750000  0.118763  0.287964  1
  Bi  Bi19  1  0.750000  0.381237  0.787964  1
  Bi  Bi20  1  0.250000  0.061286  0.895532  1
  Bi  Bi21  1  0.250000  0.438714  0.395532  1
  Bi  Bi22  1  0.750000  0.938714  0.104468  1
  Bi  Bi23  1  0.750000  0.561286  0.604468  1
  Rh  Rh24  1  0.250000  0.271503  0.816152  1
  Rh  Rh25  1  0.250000  0.228497  0.316152  1
  Rh  Rh26  1  0.750000  0.728497  0.183848  1
  Rh  Rh27  1  0.750000  0.771503  0.683848  1
  Rh  Rh28  1  0.250000  0.053083  0.594688  1
  Rh  Rh29  1  0.250000  0.446917  0.094688  1
  Rh  Rh30  1  0.750000  0.946917  0.405312  1
  Rh  Rh31  1  0.750000  0.553083  0.905312  1
  Rh  Rh32  1  0.250000  0.466203  0.554584  1
  Rh  Rh33  1  0.250000  0.033797  0.054584  1
  Rh  Rh34  1  0.750000  0.533797  0.445416  1
  Rh  Rh35  1  0.750000  0.966203  0.945416  1
