# generated using pymatgen
data_Tb4Co7Ni7P8
_symmetry_space_group_name_H-M   'P 1'
_cell_length_a   3.67220700
_cell_length_b   9.09664385
_cell_length_c   10.28765613
_cell_angle_alpha   90.20142256
_cell_angle_beta   90.00000000
_cell_angle_gamma   90.00000000
_symmetry_Int_Tables_number   1
_chemical_formula_structural   Tb4Co7Ni7P8
_chemical_formula_sum   'Tb4 Co7 Ni7 P8'
_cell_volume   343.65455221
_cell_formula_units_Z   1
loop_
 _symmetry_equiv_pos_site_id
 _symmetry_equiv_pos_as_xyz
  1  'x, y, z'
loop_
 _atom_site_type_symbol
 _atom_site_label
 _atom_site_symmetry_multiplicity
 _atom_site_fract_x
 _atom_site_fract_y
 _atom_site_fract_z
 _atom_site_occupancy
  Tb  Tb0  1  0.000000  0.058630  0.395584  1
  Tb  Tb1  1  0.500000  0.939660  0.895723  1
  Tb  Tb2  1  0.000000  0.439764  0.177555  1
  Tb  Tb3  1  0.500000  0.563684  0.676790  1
  Co  Co4  1  0.000000  0.064971  0.702809  1
  Co  Co5  1  0.500000  0.935845  0.201819  1
  Co  Co6  1  0.000000  0.729071  0.508594  1
  Co  Co7  1  0.500000  0.270373  0.008453  1
  Co  Co8  1  0.000000  0.096128  0.100424  1
  Co  Co9  1  0.500000  0.904820  0.598302  1
  Co  Co10  1  0.000000  0.750813  0.272704  1
  Ni  Ni11  1  0.500000  0.251657  0.772130  1
  Ni  Ni12  1  0.000000  0.309522  0.600264  1
  Ni  Ni13  1  0.500000  0.690577  0.101073  1
  Ni  Ni14  1  0.000000  0.685400  0.910624  1
  Ni  Ni15  1  0.500000  0.313021  0.409650  1
  Ni  Ni16  1  0.000000  0.414398  0.867563  1
  Ni  Ni17  1  0.500000  0.583854  0.368414  1
  P  P18  1  0.000000  0.179130  0.898401  1
  P  P19  1  0.500000  0.818885  0.394099  1
  P  P20  1  0.000000  0.848895  0.086545  1
  P  P21  1  0.500000  0.151103  0.585534  1
  P  P22  1  0.000000  0.817684  0.708356  1
  P  P23  1  0.500000  0.183529  0.209151  1
  P  P24  1  0.000000  0.483248  0.458734  1
  P  P25  1  0.500000  0.515339  0.958902  1
