# generated using pymatgen
data_Hf16Ta3Co4Rh
_symmetry_space_group_name_H-M   'P 1'
_cell_length_a   8.65922406
_cell_length_b   8.65922377
_cell_length_c   8.65922426
_cell_angle_alpha   60.69362995
_cell_angle_beta   60.69363094
_cell_angle_gamma   60.69363182
_symmetry_Int_Tables_number   1
_chemical_formula_structural   Hf16Ta3Co4Rh
_chemical_formula_sum   'Hf16 Ta3 Co4 Rh1'
_cell_volume   466.30339896
_cell_formula_units_Z   1
loop_
 _symmetry_equiv_pos_site_id
 _symmetry_equiv_pos_as_xyz
  1  'x, y, z'
loop_
 _atom_site_type_symbol
 _atom_site_label
 _atom_site_symmetry_multiplicity
 _atom_site_fract_x
 _atom_site_fract_y
 _atom_site_fract_z
 _atom_site_occupancy
  Hf  Hf0  1  0.700028  0.100160  0.100160  1
  Hf  Hf1  1  0.100160  0.700028  0.100160  1
  Hf  Hf2  1  0.100160  0.100160  0.700028  1
  Hf  Hf3  1  0.101117  0.101117  0.101117  1
  Hf  Hf4  1  0.314033  0.314033  0.683600  1
  Hf  Hf5  1  0.685437  0.685437  0.314219  1
  Hf  Hf6  1  0.314033  0.683600  0.314033  1
  Hf  Hf7  1  0.685437  0.314219  0.685437  1
  Hf  Hf8  1  0.683600  0.314033  0.314033  1
  Hf  Hf9  1  0.314219  0.685437  0.685437  1
  Hf  Hf10  1  0.948372  0.948372  0.551558  1
  Hf  Hf11  1  0.554173  0.554173  0.946129  1
  Hf  Hf12  1  0.948372  0.551558  0.948372  1
  Hf  Hf13  1  0.554173  0.946129  0.554173  1
  Hf  Hf14  1  0.551558  0.948372  0.948372  1
  Hf  Hf15  1  0.946129  0.554173  0.554173  1
  Ta  Ta16  1  0.000040  0.332765  0.332765  1
  Ta  Ta17  1  0.332765  0.000040  0.332765  1
  Ta  Ta18  1  0.332765  0.332765  0.000040  1
  Co  Co19  1  0.326513  0.890128  0.890128  1
  Co  Co20  1  0.890128  0.326513  0.890128  1
  Co  Co21  1  0.890128  0.890128  0.326513  1
  Co  Co22  1  0.891933  0.891933  0.891933  1
  Rh  Rh23  1  0.334723  0.334723  0.334723  1
