# generated using pymatgen
data_Zr2ScAl2GaNi3
_symmetry_space_group_name_H-M   'P 1'
_cell_length_a   6.89895494
_cell_length_b   6.95885489
_cell_length_c   3.45102500
_cell_angle_alpha   90.00000000
_cell_angle_beta   90.00000000
_cell_angle_gamma   120.28762087
_symmetry_Int_Tables_number   1
_chemical_formula_structural   Zr2ScAl2GaNi3
_chemical_formula_sum   'Zr2 Sc1 Al2 Ga1 Ni3'
_cell_volume   143.06513785
_cell_formula_units_Z   1
loop_
 _symmetry_equiv_pos_site_id
 _symmetry_equiv_pos_as_xyz
  1  'x, y, z'
loop_
 _atom_site_type_symbol
 _atom_site_label
 _atom_site_symmetry_multiplicity
 _atom_site_fract_x
 _atom_site_fract_y
 _atom_site_fract_z
 _atom_site_occupancy
  Zr  Zr0  1  0.591382  0.591351  0.500000  1
  Zr  Zr1  1  0.408618  0.999968  0.500000  1
  Sc  Sc2  1  0.000000  0.411847  0.500000  1
  Al  Al3  1  0.248770  0.252794  0.000000  1
  Al  Al4  1  0.751230  0.004025  0.000000  1
  Ga  Ga5  1  0.000000  0.741859  0.000000  1
  Ni  Ni6  1  0.000000  0.999451  0.500000  1
  Ni  Ni7  1  0.338516  0.668612  0.000000  1
  Ni  Ni8  1  0.661484  0.330095  0.000000  1
