# generated using pymatgen
data_PrEu2SnGeRh2
_symmetry_space_group_name_H-M   'P 1'
_cell_length_a   5.87332500
_cell_length_b   8.32800400
_cell_length_c   13.94578000
_cell_angle_alpha   90.00000000
_cell_angle_beta   90.00000000
_cell_angle_gamma   90.00000000
_symmetry_Int_Tables_number   1
_chemical_formula_structural   PrEu2SnGeRh2
_chemical_formula_sum   'Pr4 Eu8 Sn4 Ge4 Rh8'
_cell_volume   682.13097043
_cell_formula_units_Z   4
loop_
 _symmetry_equiv_pos_site_id
 _symmetry_equiv_pos_as_xyz
  1  'x, y, z'
loop_
 _atom_site_type_symbol
 _atom_site_label
 _atom_site_symmetry_multiplicity
 _atom_site_fract_x
 _atom_site_fract_y
 _atom_site_fract_z
 _atom_site_occupancy
  Pr  Pr0  1  0.644837  0.252716  0.250000  1
  Pr  Pr1  1  0.355163  0.747284  0.750000  1
  Pr  Pr2  1  0.355163  0.752716  0.250000  1
  Pr  Pr3  1  0.644837  0.247284  0.750000  1
  Eu  Eu4  1  0.151661  0.395909  0.098922  1
  Eu  Eu5  1  0.848339  0.604091  0.901078  1
  Eu  Eu6  1  0.848339  0.604091  0.598922  1
  Eu  Eu7  1  0.848339  0.895909  0.401078  1
  Eu  Eu8  1  0.151661  0.395909  0.401078  1
  Eu  Eu9  1  0.151661  0.104091  0.598922  1
  Eu  Eu10  1  0.151661  0.104091  0.901078  1
  Eu  Eu11  1  0.848339  0.895909  0.098922  1
  Sn  Sn12  1  0.648876  0.250000  0.000000  1
  Sn  Sn13  1  0.351124  0.750000  0.000000  1
  Sn  Sn14  1  0.351124  0.750000  0.500000  1
  Sn  Sn15  1  0.648876  0.250000  0.500000  1
  Ge  Ge16  1  0.145732  0.102171  0.250000  1
  Ge  Ge17  1  0.854268  0.897829  0.750000  1
  Ge  Ge18  1  0.854268  0.602171  0.250000  1
  Ge  Ge19  1  0.145732  0.397829  0.750000  1
  Rh  Rh20  1  0.373181  0.039708  0.097276  1
  Rh  Rh21  1  0.626819  0.960292  0.902724  1
  Rh  Rh22  1  0.626819  0.960292  0.597276  1
  Rh  Rh23  1  0.626819  0.539708  0.402724  1
  Rh  Rh24  1  0.373181  0.039708  0.402724  1
  Rh  Rh25  1  0.373181  0.460292  0.597276  1
  Rh  Rh26  1  0.373181  0.460292  0.902724  1
  Rh  Rh27  1  0.626819  0.539708  0.097276  1
