# generated using pymatgen
data_Nd3GdTe6(MoO12)2
_symmetry_space_group_name_H-M   'P 1'
_cell_length_a   5.40194900
_cell_length_b   11.43096451
_cell_length_c   18.29820200
_cell_angle_alpha   90.00000000
_cell_angle_beta   90.00000000
_cell_angle_gamma   90.01711210
_symmetry_Int_Tables_number   1
_chemical_formula_structural   Nd3GdTe6(MoO12)2
_chemical_formula_sum   'Nd6 Gd2 Te12 Mo4 O48'
_cell_volume   1129.90454167
_cell_formula_units_Z   2
loop_
 _symmetry_equiv_pos_site_id
 _symmetry_equiv_pos_as_xyz
  1  'x, y, z'
loop_
 _atom_site_type_symbol
 _atom_site_label
 _atom_site_symmetry_multiplicity
 _atom_site_fract_x
 _atom_site_fract_y
 _atom_site_fract_z
 _atom_site_occupancy
  Nd  Nd0  1  0.744984  0.422870  0.061672  1
  Nd  Nd1  1  0.744270  0.077454  0.061472  1
  Nd  Nd2  1  0.754526  0.078702  0.562333  1
  Nd  Nd3  1  0.244984  0.922870  0.438328  1
  Nd  Nd4  1  0.254526  0.578702  0.937667  1
  Nd  Nd5  1  0.244270  0.577454  0.438528  1
  Gd  Gd6  1  0.257956  0.923368  0.938772  1
  Gd  Gd7  1  0.757956  0.423368  0.561228  1
  Te  Te8  1  0.226359  0.588958  0.167902  1
  Te  Te9  1  0.715481  0.749220  0.546407  1
  Te  Te10  1  0.215481  0.249220  0.953593  1
  Te  Te11  1  0.725706  0.411616  0.332459  1
  Te  Te12  1  0.784523  0.751655  0.044897  1
  Te  Te13  1  0.273631  0.585438  0.666953  1
  Te  Te14  1  0.271684  0.909780  0.667733  1
  Te  Te15  1  0.773631  0.085438  0.833047  1
  Te  Te16  1  0.771684  0.409780  0.832267  1
  Te  Te17  1  0.225706  0.911616  0.167541  1
  Te  Te18  1  0.726359  0.088958  0.332098  1
  Te  Te19  1  0.284523  0.251655  0.455103  1
  Mo  Mo20  1  0.742192  0.750022  0.320740  1
  Mo  Mo21  1  0.257121  0.251154  0.678685  1
  Mo  Mo22  1  0.757121  0.751154  0.821315  1
  Mo  Mo23  1  0.242192  0.250022  0.179260  1
  O  O24  1  0.517946  0.254528  0.535074  1
  O  O25  1  0.952460  0.880738  0.829972  1
  O  O26  1  0.608708  0.617911  0.008309  1
  O  O27  1  0.356383  0.250130  0.269085  1
  O  O28  1  0.984411  0.249669  0.033952  1
  O  O29  1  0.966932  0.983733  0.657579  1
  O  O30  1  0.048452  0.120399  0.170134  1
  O  O31  1  0.393419  0.115715  0.989951  1
  O  O32  1  0.548366  0.879575  0.330140  1
  O  O33  1  0.417199  0.932690  0.572821  1
  O  O34  1  0.519108  0.249731  0.121171  1
  O  O35  1  0.598711  0.882870  0.008687  1
  O  O36  1  0.019108  0.749731  0.378829  1
  O  O37  1  0.583889  0.068162  0.427753  1
  O  O38  1  0.466932  0.483733  0.842421  1
  O  O39  1  0.150150  0.748178  0.641858  1
  O  O40  1  0.394935  0.381897  0.990093  1
  O  O41  1  0.422471  0.564184  0.572222  1
  O  O42  1  0.548452  0.620399  0.329866  1
  O  O43  1  0.048366  0.379575  0.169860  1
  O  O44  1  0.032067  0.483884  0.342486  1
  O  O45  1  0.643583  0.750301  0.731417  1
  O  O46  1  0.917199  0.432690  0.927179  1
  O  O47  1  0.894935  0.881897  0.509907  1
  O  O48  1  0.143583  0.250301  0.768583  1
  O  O49  1  0.031742  0.015798  0.342430  1
  O  O50  1  0.531742  0.515798  0.157570  1
  O  O51  1  0.083889  0.568162  0.072247  1
  O  O52  1  0.452460  0.380738  0.670028  1
  O  O53  1  0.108708  0.117911  0.491691  1
  O  O54  1  0.467478  0.013076  0.845151  1
  O  O55  1  0.098711  0.382870  0.491313  1
  O  O56  1  0.532067  0.983884  0.157514  1
  O  O57  1  0.856383  0.750130  0.230915  1
  O  O58  1  0.449834  0.121275  0.669462  1
  O  O59  1  0.949834  0.621275  0.830538  1
  O  O60  1  0.978986  0.252116  0.620949  1
  O  O61  1  0.922471  0.064184  0.927778  1
  O  O62  1  0.893419  0.615715  0.510049  1
  O  O63  1  0.851479  0.250118  0.356952  1
  O  O64  1  0.650150  0.248178  0.858142  1
  O  O65  1  0.478986  0.752116  0.879051  1
  O  O66  1  0.351479  0.750118  0.143048  1
  O  O67  1  0.017946  0.754528  0.964926  1
  O  O68  1  0.967478  0.513076  0.654849  1
  O  O69  1  0.082861  0.933082  0.071947  1
  O  O70  1  0.582861  0.433082  0.428053  1
  O  O71  1  0.484411  0.749669  0.466048  1
