# generated using pymatgen
data_Zr3Zn2CuC
_symmetry_space_group_name_H-M   'P 1'
_cell_length_a   8.64277527
_cell_length_b   8.64165519
_cell_length_c   8.64137242
_cell_angle_alpha   59.96561084
_cell_angle_beta   59.98895504
_cell_angle_gamma   59.97809670
_symmetry_Int_Tables_number   1
_chemical_formula_structural   Zr3Zn2CuC
_chemical_formula_sum   'Zr12 Zn8 Cu4 C4'
_cell_volume   456.13851277
_cell_formula_units_Z   4
loop_
 _symmetry_equiv_pos_site_id
 _symmetry_equiv_pos_as_xyz
  1  'x, y, z'
loop_
 _atom_site_type_symbol
 _atom_site_label
 _atom_site_symmetry_multiplicity
 _atom_site_fract_x
 _atom_site_fract_y
 _atom_site_fract_z
 _atom_site_occupancy
  Zr  Zr0  1  0.439519  0.439576  0.060433  1
  Zr  Zr1  1  0.060435  0.439619  0.060399  1
  Zr  Zr2  1  0.439519  0.060488  0.060484  1
  Zr  Zr3  1  0.060468  0.060436  0.439582  1
  Zr  Zr4  1  0.439550  0.060403  0.439607  1
  Zr  Zr5  1  0.060489  0.439511  0.439509  1
  Zr  Zr6  1  0.810482  0.810423  0.189567  1
  Zr  Zr7  1  0.189565  0.810382  0.189601  1
  Zr  Zr8  1  0.810481  0.189512  0.189515  1
  Zr  Zr9  1  0.189532  0.189564  0.810418  1
  Zr  Zr10  1  0.810449  0.189596  0.810395  1
  Zr  Zr11  1  0.189511  0.810489  0.810491  1
  Zn  Zn12  1  0.829675  0.829629  0.511050  1
  Zn  Zn13  1  0.829659  0.511048  0.829627  1
  Zn  Zn14  1  0.511032  0.829658  0.829672  1
  Zn  Zn15  1  0.829643  0.829672  0.829647  1
  Zn  Zn16  1  0.420325  0.420371  0.738949  1
  Zn  Zn17  1  0.420341  0.738952  0.420374  1
  Zn  Zn18  1  0.738968  0.420342  0.420328  1
  Zn  Zn19  1  0.420357  0.420328  0.420353  1
  Cu  Cu20  1  0.625000  0.625000  0.125000  1
  Cu  Cu21  1  0.625001  0.125000  0.625000  1
  Cu  Cu22  1  0.125000  0.625000  0.625000  1
  Cu  Cu23  1  0.625000  0.625001  0.625000  1
  C  C24  1  0.125000  0.125000  0.625001  1
  C  C25  1  0.125001  0.625000  0.125000  1
  C  C26  1  0.625001  0.125000  0.124999  1
  C  C27  1  0.125000  0.125000  0.125000  1
