# generated using pymatgen
data_AcPrNCl3
_symmetry_space_group_name_H-M   'P 1'
_cell_length_a   8.45097129
_cell_length_b   8.52875963
_cell_length_c   8.52875978
_cell_angle_alpha   136.57209876
_cell_angle_beta   130.80935597
_cell_angle_gamma   67.83566841
_symmetry_Int_Tables_number   1
_chemical_formula_structural   AcPrNCl3
_chemical_formula_sum   'Ac2 Pr2 N2 Cl6'
_cell_volume   314.19962872
_cell_formula_units_Z   2
loop_
 _symmetry_equiv_pos_site_id
 _symmetry_equiv_pos_as_xyz
  1  'x, y, z'
loop_
 _atom_site_type_symbol
 _atom_site_label
 _atom_site_symmetry_multiplicity
 _atom_site_fract_x
 _atom_site_fract_y
 _atom_site_fract_z
 _atom_site_occupancy
  Ac  Ac0  1  0.083242  0.902981  0.180262  1
  Ac  Ac1  1  0.916758  0.097019  0.819738  1
  Pr  Pr2  1  0.262561  0.589901  0.672660  1
  Pr  Pr3  1  0.737439  0.410099  0.327340  1
  N  N4  1  0.000000  0.744908  0.744908  1
  N  N5  1  0.000000  0.255092  0.255092  1
  Cl  Cl6  1  0.384236  0.205320  0.178917  1
  Cl  Cl7  1  0.615764  0.794680  0.821083  1
  Cl  Cl8  1  0.500000  0.255161  0.755161  1
  Cl  Cl9  1  0.500000  0.744839  0.244839  1
  Cl  Cl10  1  0.027660  0.697921  0.329739  1
  Cl  Cl11  1  0.972340  0.302079  0.670261  1
