# generated using pymatgen
data_Zr6V2Co16Si5P7
_symmetry_space_group_name_H-M   'P 1'
_cell_length_a   12.04164421
_cell_length_b   12.05057095
_cell_length_c   3.65714400
_cell_angle_alpha   90.00000000
_cell_angle_beta   90.00000000
_cell_angle_gamma   120.04588331
_symmetry_Int_Tables_number   1
_chemical_formula_structural   Zr6V2Co16Si5P7
_chemical_formula_sum   'Zr6 V2 Co16 Si5 P7'
_cell_volume   459.37264050
_cell_formula_units_Z   1
loop_
 _symmetry_equiv_pos_site_id
 _symmetry_equiv_pos_as_xyz
  1  'x, y, z'
loop_
 _atom_site_type_symbol
 _atom_site_label
 _atom_site_symmetry_multiplicity
 _atom_site_fract_x
 _atom_site_fract_y
 _atom_site_fract_z
 _atom_site_occupancy
  Zr  Zr0  1  0.000238  0.557260  0.000000  1
  Zr  Zr1  1  0.665751  0.333704  0.000000  1
  Zr  Zr2  1  0.335485  0.667539  0.000000  1
  Zr  Zr3  1  0.817365  0.817599  0.500000  1
  Zr  Zr4  1  0.183771  0.001690  0.500000  1
  Zr  Zr5  1  0.999254  0.176412  0.500000  1
  V  V6  1  0.439870  0.442141  0.000000  1
  V  V7  1  0.558648  0.998615  0.000000  1
  Co  Co8  1  0.201533  0.373664  0.000000  1
  Co  Co9  1  0.179483  0.806500  0.000000  1
  Co  Co10  1  0.822480  0.628748  0.000000  1
  Co  Co11  1  0.800168  0.169650  0.000000  1
  Co  Co12  1  0.371249  0.199302  0.000000  1
  Co  Co13  1  0.132399  0.482578  0.500000  1
  Co  Co14  1  0.359078  0.874248  0.500000  1
  Co  Co15  1  0.514551  0.645902  0.500000  1
  Co  Co16  1  0.644227  0.522754  0.500000  1
  Co  Co17  1  0.874071  0.353792  0.500000  1
  Co  Co18  1  0.478811  0.124459  0.500000  1
  Co  Co19  1  0.999766  0.000043  0.000000  1
  Co  Co20  1  0.718125  0.995486  0.500000  1
  Co  Co21  1  0.000767  0.723800  0.500000  1
  Co  Co22  1  0.623702  0.824575  0.000000  1
  Co  Co23  1  0.278570  0.281014  0.500000  1
  Si  Si24  1  0.639226  0.643011  0.000000  1
  Si  Si25  1  0.361330  0.004529  0.000000  1
  Si  Si26  1  0.999791  0.345170  0.000000  1
  Si  Si27  1  0.482176  0.315698  0.500000  1
  Si  Si28  1  0.683975  0.166147  0.500000  1
  P  P29  1  0.823425  0.516759  0.500000  1
  P  P30  1  0.518573  0.833862  0.500000  1
  P  P31  1  0.176840  0.693071  0.500000  1
  P  P32  1  0.821732  0.997575  0.000000  1
  P  P33  1  0.000661  0.825051  0.000000  1
  P  P34  1  0.315703  0.481237  0.500000  1
  P  P35  1  0.177205  0.176408  0.000000  1
