# generated using pymatgen
data_Sm6CdCo2Sn11
_symmetry_space_group_name_H-M   'P 1'
_cell_length_a   8.55508624
_cell_length_b   8.55508665
_cell_length_c   13.30763318
_cell_angle_alpha   89.92184841
_cell_angle_beta   90.07815152
_cell_angle_gamma   148.81254331
_symmetry_Int_Tables_number   1
_chemical_formula_structural   Sm6CdCo2Sn11
_chemical_formula_sum   'Sm6 Cd1 Co2 Sn11'
_cell_volume   504.36456342
_cell_formula_units_Z   1
loop_
 _symmetry_equiv_pos_site_id
 _symmetry_equiv_pos_as_xyz
  1  'x, y, z'
loop_
 _atom_site_type_symbol
 _atom_site_label
 _atom_site_symmetry_multiplicity
 _atom_site_fract_x
 _atom_site_fract_y
 _atom_site_fract_z
 _atom_site_occupancy
  Sm  Sm0  1  0.899239  0.100761  0.093537  1
  Sm  Sm1  1  0.097449  0.902551  0.590656  1
  Sm  Sm2  1  0.898054  0.101946  0.752302  1
  Sm  Sm3  1  0.101667  0.898333  0.906019  1
  Sm  Sm4  1  0.101795  0.898205  0.252424  1
  Sm  Sm5  1  0.902915  0.097085  0.403727  1
  Cd  Cd6  1  0.752006  0.247994  0.569483  1
  Co  Co7  1  0.301516  0.698484  0.248667  1
  Co  Co8  1  0.699641  0.300359  0.756483  1
  Sn  Sn9  1  0.424375  0.575625  0.575702  1
  Sn  Sn10  1  0.569598  0.430402  0.424695  1
  Sn  Sn11  1  0.737685  0.262315  0.254871  1
  Sn  Sn12  1  0.260854  0.739146  0.741442  1
  Sn  Sn13  1  0.244687  0.755313  0.072897  1
  Sn  Sn14  1  0.250002  0.749998  0.430178  1
  Sn  Sn15  1  0.572711  0.427289  0.076040  1
  Sn  Sn16  1  0.455147  0.544853  0.248267  1
  Sn  Sn17  1  0.546051  0.453949  0.748475  1
  Sn  Sn18  1  0.755026  0.244974  0.930437  1
  Sn  Sn19  1  0.429583  0.570417  0.923697  1
