# generated using pymatgen
data_Th2Al3GaCu2
_symmetry_space_group_name_H-M   'P 1'
_cell_length_a   9.08608012
_cell_length_b   9.08607997
_cell_length_c   4.24128200
_cell_angle_alpha   90.00000000
_cell_angle_beta   90.00000000
_cell_angle_gamma   152.98103294
_symmetry_Int_Tables_number   1
_chemical_formula_structural   Th2Al3GaCu2
_chemical_formula_sum   'Th2 Al3 Ga1 Cu2'
_cell_volume   159.06662837
_cell_formula_units_Z   1
loop_
 _symmetry_equiv_pos_site_id
 _symmetry_equiv_pos_as_xyz
  1  'x, y, z'
loop_
 _atom_site_type_symbol
 _atom_site_label
 _atom_site_symmetry_multiplicity
 _atom_site_fract_x
 _atom_site_fract_y
 _atom_site_fract_z
 _atom_site_occupancy
  Th  Th0  1  0.896714  0.103286  0.750000  1
  Th  Th1  1  0.104052  0.895948  0.250000  1
  Al  Al2  1  0.249309  0.750691  0.750000  1
  Al  Al3  1  0.750612  0.249388  0.250000  1
  Al  Al4  1  0.537192  0.462808  0.750000  1
  Ga  Ga5  1  0.462608  0.537392  0.250000  1
  Cu  Cu6  1  0.674016  0.325984  0.750000  1
  Cu  Cu7  1  0.325496  0.674504  0.250000  1
