# generated using pymatgen
data_CaTb3Sn6Rh7
_symmetry_space_group_name_H-M   'P 1'
_cell_length_a   7.63750774
_cell_length_b   7.63750941
_cell_length_c   7.61999900
_cell_angle_alpha   109.42478672
_cell_angle_beta   109.42479114
_cell_angle_gamma   109.51761325
_symmetry_Int_Tables_number   1
_chemical_formula_structural   CaTb3Sn6Rh7
_chemical_formula_sum   'Ca1 Tb3 Sn6 Rh7'
_cell_volume   342.36154980
_cell_formula_units_Z   1
loop_
 _symmetry_equiv_pos_site_id
 _symmetry_equiv_pos_as_xyz
  1  'x, y, z'
loop_
 _atom_site_type_symbol
 _atom_site_label
 _atom_site_symmetry_multiplicity
 _atom_site_fract_x
 _atom_site_fract_y
 _atom_site_fract_z
 _atom_site_occupancy
  Ca  Ca0  1  0.000000  0.000000  0.500000  1
  Tb  Tb1  1  0.500000  0.000000  0.000000  1
  Tb  Tb2  1  0.000000  0.500000  0.000000  1
  Tb  Tb3  1  0.500000  0.500000  0.500000  1
  Sn  Sn4  1  0.000000  0.315841  0.319265  1
  Sn  Sn5  1  0.684159  0.000000  0.680735  1
  Sn  Sn6  1  0.684159  0.684159  0.003424  1
  Sn  Sn7  1  0.000000  0.684159  0.680735  1
  Sn  Sn8  1  0.315841  0.000000  0.319265  1
  Sn  Sn9  1  0.315841  0.315841  0.996576  1
  Rh  Rh10  1  0.000000  0.000000  0.000000  1
  Rh  Rh11  1  0.494405  0.747202  0.247202  1
  Rh  Rh12  1  0.747202  0.494405  0.247202  1
  Rh  Rh13  1  0.252798  0.747202  0.500000  1
  Rh  Rh14  1  0.252798  0.505595  0.752798  1
  Rh  Rh15  1  0.505595  0.252798  0.752798  1
  Rh  Rh16  1  0.747202  0.252798  0.500000  1
