# generated using pymatgen
data_CoReB2Mo
_symmetry_space_group_name_H-M   'P 1'
_cell_length_a   4.51554033
_cell_length_b   4.51553973
_cell_length_c   4.51554031
_cell_angle_alpha   139.13980575
_cell_angle_beta   119.44532964
_cell_angle_gamma   75.64666592
_symmetry_Int_Tables_number   1
_chemical_formula_structural   CoReB2Mo
_chemical_formula_sum   'Co1 Re1 B2 Mo1'
_cell_volume   51.19888213
_cell_formula_units_Z   1
loop_
 _symmetry_equiv_pos_site_id
 _symmetry_equiv_pos_as_xyz
  1  'x, y, z'
loop_
 _atom_site_type_symbol
 _atom_site_label
 _atom_site_symmetry_multiplicity
 _atom_site_fract_x
 _atom_site_fract_y
 _atom_site_fract_z
 _atom_site_occupancy
  Co  Co0  1  0.998974  0.998974  0.000000  1
  Re  Re1  1  0.697307  0.197307  0.500000  1
  B  B2  1  0.706855  0.501268  0.205586  1
  B  B3  1  0.295682  0.501268  0.794414  1
  Mo  Mo4  1  0.301182  0.801182  0.500000  1
