# generated using pymatgen
data_Rb4InSb3Pt4
_symmetry_space_group_name_H-M   'P 1'
_cell_length_a   7.31750737
_cell_length_b   7.31750737
_cell_length_c   7.31750733
_cell_angle_alpha   90.75132775
_cell_angle_beta   89.24866243
_cell_angle_gamma   90.75133330
_symmetry_Int_Tables_number   1
_chemical_formula_structural   Rb4InSb3Pt4
_chemical_formula_sum   'Rb4 In1 Sb3 Pt4'
_cell_volume   391.72243058
_cell_formula_units_Z   1
loop_
 _symmetry_equiv_pos_site_id
 _symmetry_equiv_pos_as_xyz
  1  'x, y, z'
loop_
 _atom_site_type_symbol
 _atom_site_label
 _atom_site_symmetry_multiplicity
 _atom_site_fract_x
 _atom_site_fract_y
 _atom_site_fract_z
 _atom_site_occupancy
  Rb  Rb0  1  0.644266  0.362449  0.861953  1
  Rb  Rb1  1  0.361953  0.855734  0.637551  1
  Rb  Rb2  1  0.137551  0.138047  0.144266  1
  Rb  Rb3  1  0.858208  0.641792  0.358208  1
  In  In4  1  0.147480  0.352520  0.647480  1
  Sb  Sb5  1  0.654281  0.152159  0.347350  1
  Sb  Sb6  1  0.347841  0.652650  0.154281  1
  Sb  Sb7  1  0.847350  0.845719  0.847841  1
  Pt  Pt8  1  0.600033  0.899967  0.100033  1
  Pt  Pt9  1  0.096816  0.608093  0.912314  1
  Pt  Pt10  1  0.412314  0.403184  0.391907  1
  Pt  Pt11  1  0.891907  0.087686  0.596816  1
