# generated using pymatgen
data_FeGe3(SO4)6
_symmetry_space_group_name_H-M   'P 1'
_cell_length_a   8.20506242
_cell_length_b   8.20506395
_cell_length_c   9.12317886
_cell_angle_alpha   116.72329739
_cell_angle_beta   63.27669756
_cell_angle_gamma   119.99999629
_symmetry_Int_Tables_number   1
_chemical_formula_structural   FeGe3(SO4)6
_chemical_formula_sum   'Fe1 Ge3 S6 O24'
_cell_volume   454.58538916
_cell_formula_units_Z   1
loop_
 _symmetry_equiv_pos_site_id
 _symmetry_equiv_pos_as_xyz
  1  'x, y, z'
loop_
 _atom_site_type_symbol
 _atom_site_label
 _atom_site_symmetry_multiplicity
 _atom_site_fract_x
 _atom_site_fract_y
 _atom_site_fract_z
 _atom_site_occupancy
  Fe  Fe0  1  0.355217  0.644782  0.934348  1
  Ge  Ge1  1  0.641756  0.358243  0.074728  1
  Ge  Ge2  1  0.840847  0.159153  0.477458  1
  Ge  Ge3  1  0.159356  0.840644  0.521931  1
  S  S4  1  0.225574  0.446971  0.262594  1
  S  S5  1  0.553029  0.041197  0.262594  1
  S  S6  1  0.958803  0.774426  0.262594  1
  S  S7  1  0.050973  0.233877  0.736422  1
  S  S8  1  0.446482  0.949028  0.736422  1
  S  S9  1  0.766123  0.553519  0.736422  1
  O  O10  1  0.108245  0.743400  0.098282  1
  O  O11  1  0.256599  0.463126  0.098282  1
  O  O12  1  0.536874  0.891755  0.098282  1
  O  O13  1  0.344627  0.357982  0.256927  1
  O  O14  1  0.642018  0.243573  0.256927  1
  O  O15  1  0.756427  0.655372  0.256927  1
  O  O16  1  0.008318  0.329313  0.329245  1
  O  O17  1  0.670686  0.008249  0.329245  1
  O  O18  1  0.991751  0.991683  0.329245  1
  O  O19  1  0.280327  0.652554  0.389972  1
  O  O20  1  0.347447  0.017747  0.389972  1
  O  O21  1  0.982253  0.719671  0.389972  1
  O  O22  1  0.020523  0.285945  0.610222  1
  O  O23  1  0.655199  0.979477  0.610222  1
  O  O24  1  0.714057  0.344801  0.610222  1
  O  O25  1  0.027661  0.019485  0.663879  1
  O  O26  1  0.327945  0.972339  0.663879  1
  O  O27  1  0.980514  0.672055  0.663879  1
  O  O28  1  0.248316  0.365129  0.750628  1
  O  O29  1  0.366183  0.751683  0.750628  1
  O  O30  1  0.634872  0.633817  0.750628  1
  O  O31  1  0.453148  0.103158  0.899008  1
  O  O32  1  0.751005  0.546852  0.899008  1
  O  O33  1  0.896841  0.248996  0.899008  1
