# generated using pymatgen
data_Hf2Sc(SiRu)3
_symmetry_space_group_name_H-M   'P 1'
_cell_length_a   7.62936607
_cell_length_b   7.62936552
_cell_length_c   7.62936547
_cell_angle_alpha   127.62186167
_cell_angle_beta   123.33015857
_cell_angle_gamma   80.79831979
_symmetry_Int_Tables_number   1
_chemical_formula_structural   Hf2Sc(SiRu)3
_chemical_formula_sum   'Hf4 Sc2 Si6 Ru6'
_cell_volume   283.36153038
_cell_formula_units_Z   2
loop_
 _symmetry_equiv_pos_site_id
 _symmetry_equiv_pos_as_xyz
  1  'x, y, z'
loop_
 _atom_site_type_symbol
 _atom_site_label
 _atom_site_symmetry_multiplicity
 _atom_site_fract_x
 _atom_site_fract_y
 _atom_site_fract_z
 _atom_site_occupancy
  Hf  Hf0  1  0.747911  0.837190  0.589279  1
  Hf  Hf1  1  0.252089  0.841367  0.089279  1
  Hf  Hf2  1  0.052475  0.255919  0.703442  1
  Hf  Hf3  1  0.947525  0.650967  0.203442  1
  Sc  Sc4  1  0.464641  0.686183  0.721543  1
  Sc  Sc5  1  0.535359  0.256902  0.221543  1
  Si  Si6  1  0.269993  0.269668  0.499676  1
  Si  Si7  1  0.730007  0.229682  0.999676  1
  Si  Si8  1  0.328410  0.586202  0.251034  1
  Si  Si9  1  0.671590  0.922624  0.257791  1
  Si  Si10  1  0.164832  0.922624  0.751034  1
  Si  Si11  1  0.835168  0.586202  0.757791  1
  Ru  Ru12  1  0.500000  0.500685  0.000685  1
  Ru  Ru13  1  0.000000  0.500685  0.500685  1
  Ru  Ru14  1  0.098689  0.251201  0.103839  1
  Ru  Ru15  1  0.901311  0.005150  0.152513  1
  Ru  Ru16  1  0.352637  0.005150  0.603839  1
  Ru  Ru17  1  0.647363  0.251201  0.652513  1
