# generated using pymatgen
data_Er12Fe4BiRu
_symmetry_space_group_name_H-M   'P 1'
_cell_length_a   8.27733091
_cell_length_b   8.27727234
_cell_length_c   8.27733220
_cell_angle_alpha   111.28877578
_cell_angle_beta   110.84856095
_cell_angle_gamma   106.32208213
_symmetry_Int_Tables_number   1
_chemical_formula_structural   Er12Fe4BiRu
_chemical_formula_sum   'Er12 Fe4 Bi1 Ru1'
_cell_volume   435.57161237
_cell_formula_units_Z   1
loop_
 _symmetry_equiv_pos_site_id
 _symmetry_equiv_pos_as_xyz
  1  'x, y, z'
loop_
 _atom_site_type_symbol
 _atom_site_label
 _atom_site_symmetry_multiplicity
 _atom_site_fract_x
 _atom_site_fract_y
 _atom_site_fract_z
 _atom_site_occupancy
  Er  Er0  1  0.278306  0.183736  0.462051  1
  Er  Er1  1  0.721694  0.816264  0.537949  1
  Er  Er2  1  0.278315  0.816264  0.094570  1
  Er  Er3  1  0.721685  0.183736  0.905430  1
  Er  Er4  1  0.616129  0.309363  0.306838  1
  Er  Er5  1  0.383871  0.690637  0.693162  1
  Er  Er6  1  0.002526  0.309363  0.693235  1
  Er  Er7  1  0.997474  0.690637  0.306765  1
  Er  Er8  1  0.214880  0.411915  0.197035  1
  Er  Er9  1  0.785120  0.588085  0.802965  1
  Er  Er10  1  0.214694  0.017736  0.803044  1
  Er  Er11  1  0.785306  0.982264  0.196956  1
  Fe  Fe12  1  0.000075  0.383484  0.383409  1
  Fe  Fe13  1  0.999925  0.616516  0.616591  1
  Fe  Fe14  1  0.393890  0.893695  0.499806  1
  Fe  Fe15  1  0.606110  0.106305  0.500194  1
  Bi  Bi16  1  0.500000  0.500000  0.000000  1
  Ru  Ru17  1  0.000000  0.000000  0.000000  1
