# generated using pymatgen
data_Er7Co4Sn23Rh2
_symmetry_space_group_name_H-M   'P 1'
_cell_length_a   9.73114284
_cell_length_b   9.73114368
_cell_length_c   10.00119823
_cell_angle_alpha   90.04632721
_cell_angle_beta   89.95366889
_cell_angle_gamma   120.02940125
_symmetry_Int_Tables_number   1
_chemical_formula_structural   Er7Co4Sn23Rh2
_chemical_formula_sum   'Er7 Co4 Sn23 Rh2'
_cell_volume   819.93885527
_cell_formula_units_Z   1
loop_
 _symmetry_equiv_pos_site_id
 _symmetry_equiv_pos_as_xyz
  1  'x, y, z'
loop_
 _atom_site_type_symbol
 _atom_site_label
 _atom_site_symmetry_multiplicity
 _atom_site_fract_x
 _atom_site_fract_y
 _atom_site_fract_z
 _atom_site_occupancy
  Er  Er0  1  0.479235  0.520765  0.306887  1
  Er  Er1  1  0.520765  0.479235  0.693113  1
  Er  Er2  1  0.479788  0.958534  0.306352  1
  Er  Er3  1  0.520212  0.041466  0.693648  1
  Er  Er4  1  0.041466  0.520212  0.306352  1
  Er  Er5  1  0.958534  0.479788  0.693648  1
  Er  Er6  1  0.000000  0.000000  0.000000  1
  Co  Co7  1  0.830652  0.663508  0.197839  1
  Co  Co8  1  0.169348  0.336492  0.802161  1
  Co  Co9  1  0.336492  0.169348  0.197839  1
  Co  Co10  1  0.663508  0.830652  0.802161  1
  Sn  Sn11  1  0.117855  0.882145  0.273928  1
  Sn  Sn12  1  0.882145  0.117855  0.726072  1
  Sn  Sn13  1  0.124481  0.238405  0.278006  1
  Sn  Sn14  1  0.875519  0.761595  0.721994  1
  Sn  Sn15  1  0.761595  0.875519  0.278006  1
  Sn  Sn16  1  0.238405  0.124481  0.721994  1
  Sn  Sn17  1  0.778992  0.221008  0.457501  1
  Sn  Sn18  1  0.221008  0.778992  0.542499  1
  Sn  Sn19  1  0.780548  0.560976  0.451365  1
  Sn  Sn20  1  0.219452  0.439024  0.548635  1
  Sn  Sn21  1  0.439024  0.219452  0.451365  1
  Sn  Sn22  1  0.560976  0.780548  0.548635  1
  Sn  Sn23  1  0.350879  0.004574  0.005308  1
  Sn  Sn24  1  0.649121  0.995426  0.994692  1
  Sn  Sn25  1  0.004574  0.350879  0.994692  1
  Sn  Sn26  1  0.995426  0.649121  0.005308  1
  Sn  Sn27  1  0.653964  0.653964  0.000000  1
  Sn  Sn28  1  0.346036  0.346036  0.000000  1
  Sn  Sn29  1  0.333602  0.666398  0.120547  1
  Sn  Sn30  1  0.666398  0.333602  0.879453  1
  Sn  Sn31  1  0.336032  0.663968  0.818962  1
  Sn  Sn32  1  0.663968  0.336032  0.181038  1
  Sn  Sn33  1  0.000000  0.000000  0.500000  1
  Rh  Rh34  1  0.831958  0.168042  0.196863  1
  Rh  Rh35  1  0.168042  0.831958  0.803137  1
