# generated using pymatgen
data_Sr5Ce3(Si3Pt)4
_symmetry_space_group_name_H-M   'P 1'
_cell_length_a   8.27034900
_cell_length_b   8.27034058
_cell_length_c   8.67174400
_cell_angle_alpha   90.00000000
_cell_angle_beta   90.00000000
_cell_angle_gamma   120.06832186
_symmetry_Int_Tables_number   1
_chemical_formula_structural   Sr5Ce3(Si3Pt)4
_chemical_formula_sum   'Sr5 Ce3 Si12 Pt4'
_cell_volume   513.31612451
_cell_formula_units_Z   1
loop_
 _symmetry_equiv_pos_site_id
 _symmetry_equiv_pos_as_xyz
  1  'x, y, z'
loop_
 _atom_site_type_symbol
 _atom_site_label
 _atom_site_symmetry_multiplicity
 _atom_site_fract_x
 _atom_site_fract_y
 _atom_site_fract_z
 _atom_site_occupancy
  Sr  Sr0  1  0.500153  0.000244  0.250000  1
  Sr  Sr1  1  0.999758  0.499847  0.250000  1
  Sr  Sr2  1  0.499914  0.500087  0.750000  1
  Sr  Sr3  1  0.499874  0.999797  0.750000  1
  Sr  Sr4  1  0.000209  0.500127  0.750000  1
  Ce  Ce5  1  0.999991  0.999978  0.250000  1
  Ce  Ce6  1  0.000005  0.999992  0.750000  1
  Ce  Ce7  1  0.500060  0.499941  0.250000  1
  Si  Si8  1  0.164699  0.835349  0.498289  1
  Si  Si9  1  0.164057  0.327517  0.494652  1
  Si  Si10  1  0.672443  0.835944  0.494828  1
  Si  Si11  1  0.835311  0.164650  0.498369  1
  Si  Si12  1  0.835916  0.672466  0.494540  1
  Si  Si13  1  0.327572  0.164085  0.494716  1
  Si  Si14  1  0.835311  0.164650  0.001631  1
  Si  Si15  1  0.835916  0.672466  0.005460  1
  Si  Si16  1  0.327572  0.164085  0.005284  1
  Si  Si17  1  0.164699  0.835349  0.001711  1
  Si  Si18  1  0.164057  0.327517  0.005348  1
  Si  Si19  1  0.672443  0.835944  0.005172  1
  Pt  Pt20  1  0.335047  0.664937  0.493577  1
  Pt  Pt21  1  0.664973  0.335047  0.494100  1
  Pt  Pt22  1  0.664973  0.335047  0.005900  1
  Pt  Pt23  1  0.335047  0.664937  0.006423  1
