# generated using pymatgen
data_Tb3Y3Tm2(HgIr)2
_symmetry_space_group_name_H-M   'P 1'
_cell_length_a   9.59357217
_cell_length_b   9.57964620
_cell_length_c   9.57934743
_cell_angle_alpha   60.23306977
_cell_angle_beta   60.19881175
_cell_angle_gamma   60.19961839
_symmetry_Int_Tables_number   1
_chemical_formula_structural   Tb3Y3Tm2(HgIr)2
_chemical_formula_sum   'Tb6 Y6 Tm4 Hg4 Ir4'
_cell_volume   625.48320744
_cell_formula_units_Z   2
loop_
 _symmetry_equiv_pos_site_id
 _symmetry_equiv_pos_as_xyz
  1  'x, y, z'
loop_
 _atom_site_type_symbol
 _atom_site_label
 _atom_site_symmetry_multiplicity
 _atom_site_fract_x
 _atom_site_fract_y
 _atom_site_fract_z
 _atom_site_occupancy
  Tb  Tb0  1  0.349402  0.351269  0.351270  1
  Tb  Tb1  1  0.352618  0.350328  0.946486  1
  Tb  Tb2  1  0.352616  0.946477  0.350330  1
  Tb  Tb3  1  0.946713  0.352425  0.352424  1
  Tb  Tb4  1  0.810525  0.188983  0.188976  1
  Tb  Tb5  1  0.186864  0.810972  0.810971  1
  Y  Y6  1  0.939643  0.561431  0.561426  1
  Y  Y7  1  0.560699  0.938602  0.938604  1
  Y  Y8  1  0.560362  0.940713  0.560741  1
  Y  Y9  1  0.938967  0.560180  0.939137  1
  Y  Y10  1  0.560360  0.560753  0.940712  1
  Y  Y11  1  0.938961  0.939136  0.560181  1
  Tm  Tm12  1  0.189803  0.809753  0.189473  1
  Tm  Tm13  1  0.810471  0.187408  0.810272  1
  Tm  Tm14  1  0.189811  0.189470  0.809751  1
  Tm  Tm15  1  0.810486  0.810277  0.187395  1
  Hg  Hg16  1  0.584447  0.583731  0.583734  1
  Hg  Hg17  1  0.584754  0.585400  0.245866  1
  Hg  Hg18  1  0.584761  0.245862  0.585400  1
  Hg  Hg19  1  0.245447  0.584810  0.584812  1
  Ir  Ir20  1  0.142702  0.140498  0.140497  1
  Ir  Ir21  1  0.141436  0.143870  0.576420  1
  Ir  Ir22  1  0.141444  0.576416  0.143874  1
  Ir  Ir23  1  0.576710  0.141239  0.141251  1
