# generated using pymatgen
data_Yb2Dy2As6Rh7
_symmetry_space_group_name_H-M   'P 1'
_cell_length_a   7.27854153
_cell_length_b   7.26499291
_cell_length_c   7.27854232
_cell_angle_alpha   109.49194112
_cell_angle_beta   109.50529311
_cell_angle_gamma   109.49193507
_symmetry_Int_Tables_number   1
_chemical_formula_structural   Yb2Dy2As6Rh7
_chemical_formula_sum   'Yb2 Dy2 As6 Rh7'
_cell_volume   296.00340727
_cell_formula_units_Z   1
loop_
 _symmetry_equiv_pos_site_id
 _symmetry_equiv_pos_as_xyz
  1  'x, y, z'
loop_
 _atom_site_type_symbol
 _atom_site_label
 _atom_site_symmetry_multiplicity
 _atom_site_fract_x
 _atom_site_fract_y
 _atom_site_fract_z
 _atom_site_occupancy
  Yb  Yb0  1  0.500000  0.000000  0.000000  1
  Yb  Yb1  1  0.000000  0.000000  0.500000  1
  Dy  Dy2  1  0.500000  0.500000  0.500000  1
  Dy  Dy3  1  0.000000  0.500000  0.000000  1
  As  As4  1  0.678816  0.000000  0.678816  1
  As  As5  1  0.678974  0.680918  0.001944  1
  As  As6  1  0.321026  0.319082  0.998056  1
  As  As7  1  0.001944  0.680918  0.678974  1
  As  As8  1  0.998056  0.319082  0.321026  1
  As  As9  1  0.321184  0.000000  0.321184  1
  Rh  Rh10  1  0.498713  0.748741  0.250028  1
  Rh  Rh11  1  0.749972  0.251259  0.501287  1
  Rh  Rh12  1  0.250028  0.748741  0.498713  1
  Rh  Rh13  1  0.250000  0.500000  0.750000  1
  Rh  Rh14  1  0.000000  0.000000  0.000000  1
  Rh  Rh15  1  0.501287  0.251259  0.749972  1
  Rh  Rh16  1  0.750000  0.500000  0.250000  1
