# generated using pymatgen
data_Cs6PrUBr12
_symmetry_space_group_name_H-M   'P 1'
_cell_length_a   10.11310150
_cell_length_b   10.13395744
_cell_length_c   8.42564700
_cell_angle_alpha   90.00000000
_cell_angle_beta   90.00000000
_cell_angle_gamma   89.88089195
_symmetry_Int_Tables_number   1
_chemical_formula_structural   Cs6PrUBr12
_chemical_formula_sum   'Cs6 Pr1 U1 Br12'
_cell_volume   863.50680329
_cell_formula_units_Z   1
loop_
 _symmetry_equiv_pos_site_id
 _symmetry_equiv_pos_as_xyz
  1  'x, y, z'
loop_
 _atom_site_type_symbol
 _atom_site_label
 _atom_site_symmetry_multiplicity
 _atom_site_fract_x
 _atom_site_fract_y
 _atom_site_fract_z
 _atom_site_occupancy
  Cs  Cs0  1  0.000000  0.000000  0.500000  1
  Cs  Cs1  1  0.000000  0.000000  0.000000  1
  Cs  Cs2  1  0.234888  0.585679  0.500000  1
  Cs  Cs3  1  0.765112  0.414321  0.500000  1
  Cs  Cs4  1  0.414471  0.234014  0.000000  1
  Cs  Cs5  1  0.585529  0.765986  0.000000  1
  Pr  Pr6  1  0.000000  0.500000  0.000000  1
  U  U7  1  0.500000  0.000000  0.500000  1
  Br  Br8  1  0.696543  0.059653  0.744880  1
  Br  Br9  1  0.303457  0.940347  0.744880  1
  Br  Br10  1  0.940115  0.697515  0.246019  1
  Br  Br11  1  0.059885  0.302485  0.246019  1
  Br  Br12  1  0.303457  0.940347  0.255120  1
  Br  Br13  1  0.696543  0.059653  0.255120  1
  Br  Br14  1  0.059885  0.302485  0.753981  1
  Br  Br15  1  0.940115  0.697515  0.753981  1
  Br  Br16  1  0.569173  0.721921  0.500000  1
  Br  Br17  1  0.430827  0.278079  0.500000  1
  Br  Br18  1  0.279375  0.570118  0.000000  1
  Br  Br19  1  0.720625  0.429882  0.000000  1
