# generated using pymatgen
data_Pr6Y9Er5Bi12
_symmetry_space_group_name_H-M   'P 1'
_cell_length_a   8.36637320
_cell_length_b   9.61876933
_cell_length_c   12.24191900
_cell_angle_alpha   90.00184433
_cell_angle_beta   90.03151483
_cell_angle_gamma   89.75699299
_symmetry_Int_Tables_number   1
_chemical_formula_structural   Pr6Y9Er5Bi12
_chemical_formula_sum   'Pr6 Y9 Er5 Bi12'
_cell_volume   985.14979914
_cell_formula_units_Z   1
loop_
 _symmetry_equiv_pos_site_id
 _symmetry_equiv_pos_as_xyz
  1  'x, y, z'
loop_
 _atom_site_type_symbol
 _atom_site_label
 _atom_site_symmetry_multiplicity
 _atom_site_fract_x
 _atom_site_fract_y
 _atom_site_fract_z
 _atom_site_occupancy
  Pr  Pr0  1  0.181642  0.749238  0.720399  1
  Pr  Pr1  1  0.683081  0.749299  0.778842  1
  Pr  Pr2  1  0.817148  0.250897  0.278695  1
  Pr  Pr3  1  0.318324  0.251024  0.220156  1
  Pr  Pr4  1  0.808456  0.060319  0.560801  1
  Pr  Pr5  1  0.690752  0.939439  0.060366  1
  Y  Y6  1  0.196382  0.562220  0.438450  1
  Y  Y7  1  0.693745  0.563594  0.060799  1
  Y  Y8  1  0.191442  0.937553  0.440265  1
  Y  Y9  1  0.308557  0.062367  0.940396  1
  Y  Y10  1  0.806210  0.436426  0.560704  1
  Y  Y11  1  0.351802  0.750267  0.217143  1
  Y  Y12  1  0.855182  0.751135  0.283318  1
  Y  Y13  1  0.644258  0.249750  0.783413  1
  Y  Y14  1  0.148928  0.250953  0.717487  1
  Er  Er15  1  0.025343  0.750394  0.988695  1
  Er  Er16  1  0.524644  0.749975  0.512466  1
  Er  Er17  1  0.975975  0.250472  0.012182  1
  Er  Er18  1  0.474759  0.249858  0.488746  1
  Er  Er19  1  0.303734  0.435259  0.938528  1
  Bi  Bi20  1  0.430301  0.008482  0.671465  1
  Bi  Bi21  1  0.935269  0.491009  0.830103  1
  Bi  Bi22  1  0.565298  0.509424  0.329927  1
  Bi  Bi23  1  0.069555  0.991815  0.171311  1
  Bi  Bi24  1  0.563238  0.991336  0.330140  1
  Bi  Bi25  1  0.065750  0.508824  0.170186  1
  Bi  Bi26  1  0.434138  0.491631  0.670503  1
  Bi  Bi27  1  0.936860  0.009176  0.830173  1
  Bi  Bi28  1  0.402702  0.744443  0.961890  1
  Bi  Bi29  1  0.909638  0.742213  0.535086  1
  Bi  Bi30  1  0.590409  0.258074  0.035002  1
  Bi  Bi31  1  0.096476  0.253139  0.462361  1
