# generated using pymatgen
data_Tb7Tm(ThRh)6
_symmetry_space_group_name_H-M   'P 1'
_cell_length_a   9.90713400
_cell_length_b   9.80755921
_cell_length_c   6.36969062
_cell_angle_alpha   90.07414171
_cell_angle_beta   90.00000000
_cell_angle_gamma   120.33643291
_symmetry_Int_Tables_number   1
_chemical_formula_structural   Tb7Tm(ThRh)6
_chemical_formula_sum   'Tb7 Tm1 Th6 Rh6'
_cell_volume   534.16464762
_cell_formula_units_Z   1
loop_
 _symmetry_equiv_pos_site_id
 _symmetry_equiv_pos_as_xyz
  1  'x, y, z'
loop_
 _atom_site_type_symbol
 _atom_site_label
 _atom_site_symmetry_multiplicity
 _atom_site_fract_x
 _atom_site_fract_y
 _atom_site_fract_z
 _atom_site_occupancy
  Tb  Tb0  1  0.872902  0.745805  0.738816  1
  Tb  Tb1  1  0.538380  0.462610  0.445263  1
  Tb  Tb2  1  0.924230  0.462610  0.445263  1
  Tb  Tb3  1  0.537756  0.075513  0.444026  1
  Tb  Tb4  1  0.461860  0.540577  0.940318  1
  Tb  Tb5  1  0.078717  0.540577  0.940318  1
  Tb  Tb6  1  0.460822  0.921643  0.940766  1
  Tm  Tm7  1  0.332804  0.665608  0.463032  1
  Th  Th8  1  0.666663  0.333325  0.963523  1
  Th  Th9  1  0.127810  0.869484  0.243836  1
  Th  Th10  1  0.741674  0.869484  0.243836  1
  Th  Th11  1  0.129225  0.258450  0.241837  1
  Th  Th12  1  0.870044  0.124860  0.737891  1
  Th  Th13  1  0.254816  0.124860  0.737891  1
  Rh  Rh14  1  0.814280  0.184757  0.192366  1
  Rh  Rh15  1  0.370478  0.184757  0.192366  1
  Rh  Rh16  1  0.814351  0.628700  0.197787  1
  Rh  Rh17  1  0.193128  0.820231  0.689970  1
  Rh  Rh18  1  0.627101  0.820231  0.689970  1
  Rh  Rh19  1  0.182959  0.365919  0.697486  1
