# generated using pymatgen
data_Ba5Th(PaH12)2
_symmetry_space_group_name_H-M   'P 1'
_cell_length_a   7.13869000
_cell_length_b   7.30516000
_cell_length_c   7.13869000
_cell_angle_alpha   90.00000000
_cell_angle_beta   90.00000000
_cell_angle_gamma   90.00000000
_symmetry_Int_Tables_number   1
_chemical_formula_structural   Ba5Th(PaH12)2
_chemical_formula_sum   'Ba5 Th1 Pa2 H24'
_cell_volume   372.27749111
_cell_formula_units_Z   1
loop_
 _symmetry_equiv_pos_site_id
 _symmetry_equiv_pos_as_xyz
  1  'x, y, z'
loop_
 _atom_site_type_symbol
 _atom_site_label
 _atom_site_symmetry_multiplicity
 _atom_site_fract_x
 _atom_site_fract_y
 _atom_site_fract_z
 _atom_site_occupancy
  Ba  Ba0  1  0.251421  0.996292  0.500000  1
  Ba  Ba1  1  0.748579  0.996292  0.500000  1
  Ba  Ba2  1  0.000000  0.503708  0.248579  1
  Ba  Ba3  1  0.000000  0.503708  0.751421  1
  Ba  Ba4  1  0.500000  0.750000  0.000000  1
  Th  Th5  1  0.500000  0.250000  0.000000  1
  Pa  Pa6  1  0.000000  0.011162  0.000000  1
  Pa  Pa7  1  0.500000  0.488838  0.500000  1
  H  H8  1  0.000000  0.147247  0.269438  1
  H  H9  1  0.500000  0.228282  0.667434  1
  H  H10  1  0.500000  0.750858  0.357545  1
  H  H11  1  0.765541  0.637599  0.500000  1
  H  H12  1  0.234459  0.637599  0.500000  1
  H  H13  1  0.362282  0.469578  0.792071  1
  H  H14  1  0.637718  0.469578  0.792071  1
  H  H15  1  0.292071  0.030422  0.137718  1
  H  H16  1  0.167434  0.271718  0.000000  1
  H  H17  1  0.857545  0.749142  0.000000  1
  H  H18  1  0.292071  0.030422  0.862282  1
  H  H19  1  0.832566  0.271718  0.000000  1
  H  H20  1  0.707929  0.030422  0.137718  1
  H  H21  1  0.707929  0.030422  0.862282  1
  H  H22  1  0.142455  0.749142  0.000000  1
  H  H23  1  0.000000  0.862401  0.734459  1
  H  H24  1  0.000000  0.147247  0.730562  1
  H  H25  1  0.000000  0.862401  0.265541  1
  H  H26  1  0.637718  0.469578  0.207929  1
  H  H27  1  0.362282  0.469578  0.207929  1
  H  H28  1  0.769438  0.352753  0.500000  1
  H  H29  1  0.230562  0.352753  0.500000  1
  H  H30  1  0.500000  0.750858  0.642455  1
  H  H31  1  0.500000  0.228282  0.332566  1
