# generated using pymatgen
data_Tb5Tm11Cd4TcPt3
_symmetry_space_group_name_H-M   'P 1'
_cell_length_a   9.63933955
_cell_length_b   9.62921773
_cell_length_c   9.62921775
_cell_angle_alpha   59.43497826
_cell_angle_beta   59.41998609
_cell_angle_gamma   59.41998779
_symmetry_Int_Tables_number   1
_chemical_formula_structural   Tb5Tm11Cd4TcPt3
_chemical_formula_sum   'Tb5 Tm11 Cd4 Tc1 Pt3'
_cell_volume   623.72730299
_cell_formula_units_Z   1
loop_
 _symmetry_equiv_pos_site_id
 _symmetry_equiv_pos_as_xyz
  1  'x, y, z'
loop_
 _atom_site_type_symbol
 _atom_site_label
 _atom_site_symmetry_multiplicity
 _atom_site_fract_x
 _atom_site_fract_y
 _atom_site_fract_z
 _atom_site_occupancy
  Tb  Tb0  1  0.554465  0.939867  0.939867  1
  Tb  Tb1  1  0.565448  0.935293  0.563852  1
  Tb  Tb2  1  0.939580  0.555313  0.938208  1
  Tb  Tb3  1  0.565448  0.563852  0.935293  1
  Tb  Tb4  1  0.939580  0.938208  0.555313  1
  Tm  Tm5  1  0.351101  0.351392  0.351392  1
  Tm  Tm6  1  0.350628  0.351785  0.949063  1
  Tm  Tm7  1  0.350628  0.949063  0.351785  1
  Tm  Tm8  1  0.947732  0.351575  0.351575  1
  Tm  Tm9  1  0.816407  0.186745  0.186745  1
  Tm  Tm10  1  0.187291  0.810840  0.810840  1
  Tm  Tm11  1  0.186402  0.815943  0.187644  1
  Tm  Tm12  1  0.811238  0.187511  0.810544  1
  Tm  Tm13  1  0.186402  0.187644  0.815943  1
  Tm  Tm14  1  0.811238  0.810544  0.187511  1
  Tm  Tm15  1  0.937706  0.562823  0.562823  1
  Cd  Cd16  1  0.580461  0.579217  0.579217  1
  Cd  Cd17  1  0.579742  0.580127  0.256064  1
  Cd  Cd18  1  0.579742  0.256064  0.580127  1
  Cd  Cd19  1  0.254575  0.580168  0.580168  1
  Tc  Tc20  1  0.144491  0.144342  0.144342  1
  Pt  Pt21  1  0.143438  0.145055  0.572669  1
  Pt  Pt22  1  0.143438  0.572669  0.145055  1
  Pt  Pt23  1  0.572818  0.143960  0.143960  1
