# generated using pymatgen
data_PrNd2Cd3Ge2Au
_symmetry_space_group_name_H-M   'P 1'
_cell_length_a   7.50658400
_cell_length_b   7.51010689
_cell_length_c   4.46651300
_cell_angle_alpha   90.00000000
_cell_angle_beta   90.00000000
_cell_angle_gamma   119.98448397
_symmetry_Int_Tables_number   1
_chemical_formula_structural   PrNd2Cd3Ge2Au
_chemical_formula_sum   'Pr1 Nd2 Cd3 Ge2 Au1'
_cell_volume   218.09995779
_cell_formula_units_Z   1
loop_
 _symmetry_equiv_pos_site_id
 _symmetry_equiv_pos_as_xyz
  1  'x, y, z'
loop_
 _atom_site_type_symbol
 _atom_site_label
 _atom_site_symmetry_multiplicity
 _atom_site_fract_x
 _atom_site_fract_y
 _atom_site_fract_z
 _atom_site_occupancy
  Pr  Pr0  1  0.586274  0.000000  0.000000  1
  Nd  Nd1  1  0.999811  0.586525  0.000000  1
  Nd  Nd2  1  0.413286  0.413475  0.000000  1
  Cd  Cd3  1  0.247479  0.000000  0.500000  1
  Cd  Cd4  1  0.000403  0.248194  0.500000  1
  Cd  Cd5  1  0.752209  0.751806  0.500000  1
  Ge  Ge6  1  0.332705  0.665711  0.500000  1
  Ge  Ge7  1  0.666995  0.334289  0.500000  1
  Au  Au8  1  0.000839  0.000000  0.000000  1
