# generated using pymatgen
data_Sr2HoErF10
_symmetry_space_group_name_H-M   'P 1'
_cell_length_a   8.18007530
_cell_length_b   8.18007454
_cell_length_c   5.75271904
_cell_angle_alpha   89.04798405
_cell_angle_beta   89.04798686
_cell_angle_gamma   149.40656373
_symmetry_Int_Tables_number   1
_chemical_formula_structural   Sr2HoErF10
_chemical_formula_sum   'Sr2 Ho1 Er1 F10'
_cell_volume   195.52113371
_cell_formula_units_Z   1
loop_
 _symmetry_equiv_pos_site_id
 _symmetry_equiv_pos_as_xyz
  1  'x, y, z'
loop_
 _atom_site_type_symbol
 _atom_site_label
 _atom_site_symmetry_multiplicity
 _atom_site_fract_x
 _atom_site_fract_y
 _atom_site_fract_z
 _atom_site_occupancy
  Sr  Sr0  1  0.323844  0.676156  0.750000  1
  Sr  Sr1  1  0.676324  0.323676  0.250000  1
  Ho  Ho2  1  0.075116  0.924884  0.750000  1
  Er  Er3  1  0.924603  0.075397  0.250000  1
  F  F4  1  0.730701  0.807699  0.600733  1
  F  F5  1  0.807239  0.731261  0.102461  1
  F  F6  1  0.803778  0.180413  0.005155  1
  F  F7  1  0.621234  0.378766  0.750000  1
  F  F8  1  0.819587  0.196222  0.494845  1
  F  F9  1  0.180871  0.803467  0.504205  1
  F  F10  1  0.379131  0.620869  0.250000  1
  F  F11  1  0.196533  0.819129  0.995795  1
  F  F12  1  0.192301  0.269299  0.899267  1
  F  F13  1  0.268739  0.192761  0.397539  1
