# generated using pymatgen
data_DyTm2Mg3Si2Au
_symmetry_space_group_name_H-M   'P 1'
_cell_length_a   7.18454400
_cell_length_b   7.19921855
_cell_length_c   4.27484000
_cell_angle_alpha   90.00000000
_cell_angle_beta   90.00000000
_cell_angle_gamma   119.93260388
_symmetry_Int_Tables_number   1
_chemical_formula_structural   DyTm2Mg3Si2Au
_chemical_formula_sum   'Dy1 Tm2 Mg3 Si2 Au1'
_cell_volume   191.61504430
_cell_formula_units_Z   1
loop_
 _symmetry_equiv_pos_site_id
 _symmetry_equiv_pos_as_xyz
  1  'x, y, z'
loop_
 _atom_site_type_symbol
 _atom_site_label
 _atom_site_symmetry_multiplicity
 _atom_site_fract_x
 _atom_site_fract_y
 _atom_site_fract_z
 _atom_site_occupancy
  Dy  Dy0  1  0.581707  0.000000  0.000000  1
  Tm  Tm1  1  0.999401  0.582056  0.000000  1
  Tm  Tm2  1  0.417345  0.417944  0.000000  1
  Mg  Mg3  1  0.247233  0.000000  0.500000  1
  Mg  Mg4  1  0.000200  0.247540  0.500000  1
  Mg  Mg5  1  0.752660  0.752460  0.500000  1
  Si  Si6  1  0.332026  0.664268  0.500000  1
  Si  Si7  1  0.667758  0.335732  0.500000  1
  Au  Au8  1  0.001670  0.000000  0.000000  1
