# generated using pymatgen
data_LuSc2Mn3Al7Si5
_symmetry_space_group_name_H-M   'P 1'
_cell_length_a   8.35234307
_cell_length_b   8.35043402
_cell_length_c   9.01658000
_cell_angle_alpha   90.00000000
_cell_angle_beta   90.00000000
_cell_angle_gamma   119.99244037
_symmetry_Int_Tables_number   1
_chemical_formula_structural   LuSc2Mn3Al7Si5
_chemical_formula_sum   'Lu2 Sc4 Mn6 Al14 Si10'
_cell_volume   544.65679140
_cell_formula_units_Z   2
loop_
 _symmetry_equiv_pos_site_id
 _symmetry_equiv_pos_as_xyz
  1  'x, y, z'
loop_
 _atom_site_type_symbol
 _atom_site_label
 _atom_site_symmetry_multiplicity
 _atom_site_fract_x
 _atom_site_fract_y
 _atom_site_fract_z
 _atom_site_occupancy
  Lu  Lu0  1  0.199109  0.801149  0.250000  1
  Lu  Lu1  1  0.199109  0.397960  0.250000  1
  Sc  Sc2  1  0.599505  0.799753  0.250000  1
  Sc  Sc3  1  0.799162  0.200477  0.750000  1
  Sc  Sc4  1  0.799162  0.598685  0.750000  1
  Sc  Sc5  1  0.401472  0.200736  0.750000  1
  Mn  Mn6  1  0.500548  0.500166  0.500810  1
  Mn  Mn7  1  0.500548  0.000381  0.500810  1
  Mn  Mn8  1  0.999760  0.499880  0.500895  1
  Mn  Mn9  1  0.500548  0.500166  0.999190  1
  Mn  Mn10  1  0.500548  0.000381  0.999190  1
  Mn  Mn11  1  0.999760  0.499880  0.999105  1
  Al  Al12  1  0.164084  0.836085  0.917709  1
  Al  Al13  1  0.164084  0.327999  0.917709  1
  Al  Al14  1  0.672399  0.836200  0.919424  1
  Al  Al15  1  0.834250  0.163515  0.078069  1
  Al  Al16  1  0.834250  0.670734  0.078069  1
  Al  Al17  1  0.330266  0.165133  0.077612  1
  Al  Al18  1  0.834250  0.163515  0.421931  1
  Al  Al19  1  0.834250  0.670734  0.421931  1
  Al  Al20  1  0.330266  0.165133  0.422388  1
  Al  Al21  1  0.164084  0.836085  0.582291  1
  Al  Al22  1  0.164084  0.327999  0.582291  1
  Al  Al23  1  0.672399  0.836200  0.580576  1
  Al  Al24  1  0.995496  0.997748  0.250000  1
  Al  Al25  1  0.999813  0.999907  0.750000  1
  Si  Si26  1  0.562109  0.440925  0.250000  1
  Si  Si27  1  0.562109  0.121183  0.250000  1
  Si  Si28  1  0.875473  0.437736  0.250000  1
  Si  Si29  1  0.441134  0.559654  0.750000  1
  Si  Si30  1  0.441134  0.881479  0.750000  1
  Si  Si31  1  0.118323  0.559161  0.750000  1
  Si  Si32  1  0.336391  0.668196  0.465365  1
  Si  Si33  1  0.666867  0.333433  0.540561  1
  Si  Si34  1  0.666867  0.333433  0.959439  1
  Si  Si35  1  0.336391  0.668196  0.034635  1
