# generated using pymatgen
data_Dy4Lu8ZnCo4Bi
_symmetry_space_group_name_H-M   'P 1'
_cell_length_a   8.25810309
_cell_length_b   8.25810386
_cell_length_c   8.25810265
_cell_angle_alpha   111.75045773
_cell_angle_beta   109.69017297
_cell_angle_gamma   107.00777042
_symmetry_Int_Tables_number   1
_chemical_formula_structural   Dy4Lu8ZnCo4Bi
_chemical_formula_sum   'Dy4 Lu8 Zn1 Co4 Bi1'
_cell_volume   432.78545286
_cell_formula_units_Z   1
loop_
 _symmetry_equiv_pos_site_id
 _symmetry_equiv_pos_as_xyz
  1  'x, y, z'
loop_
 _atom_site_type_symbol
 _atom_site_label
 _atom_site_symmetry_multiplicity
 _atom_site_fract_x
 _atom_site_fract_y
 _atom_site_fract_z
 _atom_site_occupancy
  Dy  Dy0  1  0.572119  0.779299  0.792820  1
  Dy  Dy1  1  0.427881  0.220701  0.207180  1
  Dy  Dy2  1  0.986480  0.779299  0.207180  1
  Dy  Dy3  1  0.013520  0.220701  0.792820  1
  Lu  Lu4  1  0.819492  0.713728  0.533220  1
  Lu  Lu5  1  0.180508  0.286272  0.466780  1
  Lu  Lu6  1  0.180508  0.713728  0.894237  1
  Lu  Lu7  1  0.819492  0.286272  0.105763  1
  Lu  Lu8  1  0.685869  0.377611  0.691742  1
  Lu  Lu9  1  0.314131  0.622389  0.308258  1
  Lu  Lu10  1  0.685869  0.994126  0.308258  1
  Lu  Lu11  1  0.314131  0.005874  0.691742  1
  Zn  Zn12  1  0.000000  0.000000  0.000000  1
  Co  Co13  1  0.622595  0.000000  0.622595  1
  Co  Co14  1  0.377405  0.000000  0.377405  1
  Co  Co15  1  0.112604  0.612604  0.500000  1
  Co  Co16  1  0.887396  0.387396  0.500000  1
  Bi  Bi17  1  0.500000  0.500000  0.000000  1
