# generated using pymatgen
data_Dy4Si4TcRh3
_symmetry_space_group_name_H-M   'P 1'
_cell_length_a   4.30663200
_cell_length_b   6.95916437
_cell_length_c   7.27416648
_cell_angle_alpha   90.07250089
_cell_angle_beta   90.00000000
_cell_angle_gamma   90.00000000
_symmetry_Int_Tables_number   1
_chemical_formula_structural   Dy4Si4TcRh3
_chemical_formula_sum   'Dy4 Si4 Tc1 Rh3'
_cell_volume   218.01066818
_cell_formula_units_Z   1
loop_
 _symmetry_equiv_pos_site_id
 _symmetry_equiv_pos_as_xyz
  1  'x, y, z'
loop_
 _atom_site_type_symbol
 _atom_site_label
 _atom_site_symmetry_multiplicity
 _atom_site_fract_x
 _atom_site_fract_y
 _atom_site_fract_z
 _atom_site_occupancy
  Dy  Dy0  1  0.250000  0.493969  0.185733  1
  Dy  Dy1  1  0.750000  0.503809  0.814466  1
  Dy  Dy2  1  0.750000  0.008471  0.690081  1
  Dy  Dy3  1  0.250000  0.987648  0.310979  1
  Si  Si4  1  0.250000  0.798985  0.887406  1
  Si  Si5  1  0.750000  0.200491  0.108371  1
  Si  Si6  1  0.750000  0.701165  0.400992  1
  Si  Si7  1  0.250000  0.301269  0.602171  1
  Tc  Tc8  1  0.250000  0.654729  0.569211  1
  Rh  Rh9  1  0.750000  0.344673  0.429304  1
  Rh  Rh10  1  0.750000  0.848235  0.068940  1
  Rh  Rh11  1  0.250000  0.156557  0.932346  1
