# generated using pymatgen
data_La3PrIrAu3
_symmetry_space_group_name_H-M   'P 1'
_cell_length_a   4.73951800
_cell_length_b   6.01523943
_cell_length_c   7.57430708
_cell_angle_alpha   88.25698326
_cell_angle_beta   90.00000000
_cell_angle_gamma   90.00000000
_symmetry_Int_Tables_number   1
_chemical_formula_structural   La3PrIrAu3
_chemical_formula_sum   'La3 Pr1 Ir1 Au3'
_cell_volume   215.83854837
_cell_formula_units_Z   1
loop_
 _symmetry_equiv_pos_site_id
 _symmetry_equiv_pos_as_xyz
  1  'x, y, z'
loop_
 _atom_site_type_symbol
 _atom_site_label
 _atom_site_symmetry_multiplicity
 _atom_site_fract_x
 _atom_site_fract_y
 _atom_site_fract_z
 _atom_site_occupancy
  La  La0  1  0.250000  0.366322  0.677618  1
  La  La1  1  0.750000  0.656507  0.328691  1
  La  La2  1  0.750000  0.856318  0.798826  1
  Pr  Pr3  1  0.250000  0.137815  0.190579  1
  Ir  Ir4  1  0.250000  0.827177  0.543343  1
  Au  Au5  1  0.250000  0.650317  0.042069  1
  Au  Au6  1  0.750000  0.156962  0.454098  1
  Au  Au7  1  0.750000  0.348583  0.964777  1
