# generated using pymatgen
data_Ba5Na2(TeO5)3
_symmetry_space_group_name_H-M   'P 1'
_cell_length_a   10.22861279
_cell_length_b   10.22861279
_cell_length_c   10.22861279
_cell_angle_alpha   99.44672160
_cell_angle_beta   99.44672160
_cell_angle_gamma   132.20143879
_symmetry_Int_Tables_number   1
_chemical_formula_structural   Ba5Na2(TeO5)3
_chemical_formula_sum   'Ba10 Na4 Te6 O30'
_cell_volume   724.79177944
_cell_formula_units_Z   2
loop_
 _symmetry_equiv_pos_site_id
 _symmetry_equiv_pos_as_xyz
  1  'x, y, z'
loop_
 _atom_site_type_symbol
 _atom_site_label
 _atom_site_symmetry_multiplicity
 _atom_site_fract_x
 _atom_site_fract_y
 _atom_site_fract_z
 _atom_site_occupancy
  Ba  Ba0  1  0.750000  0.250000  0.500000  1
  Ba  Ba1  1  0.540807  0.643204  0.691824  1
  Ba  Ba2  1  0.951381  0.848983  0.308176  1
  Ba  Ba3  1  0.151017  0.459193  0.102397  1
  Ba  Ba4  1  0.356796  0.048619  0.897603  1
  Ba  Ba5  1  0.848983  0.540807  0.897603  1
  Ba  Ba6  1  0.643204  0.951381  0.102397  1
  Ba  Ba7  1  0.048619  0.151017  0.691824  1
  Ba  Ba8  1  0.250000  0.750000  0.500000  1
  Ba  Ba9  1  0.459193  0.356796  0.308176  1
  Na  Na10  1  0.399140  0.201357  0.600498  1
  Na  Na11  1  0.798643  0.399140  0.197783  1
  Na  Na12  1  0.201357  0.600860  0.802217  1
  Na  Na13  1  0.600860  0.798643  0.399502  1
  Te  Te14  1  0.302977  0.901069  0.204046  1
  Te  Te15  1  0.098931  0.302977  0.401908  1
  Te  Te16  1  0.500000  0.500000  0.000000  1
  Te  Te17  1  0.697023  0.098931  0.795954  1
  Te  Te18  1  0.901069  0.697023  0.598092  1
  Te  Te19  1  0.000000  0.000000  0.000000  1
  O  O20  1  0.520749  0.133965  0.195564  1
  O  O21  1  0.325185  0.520749  0.386784  1
  O  O22  1  0.757608  0.757608  0.000000  1
  O  O23  1  0.938399  0.325185  0.804436  1
  O  O24  1  0.133965  0.938399  0.613216  1
  O  O25  1  0.247714  0.766966  0.014679  1
  O  O26  1  0.045889  0.138573  0.184461  1
  O  O27  1  0.452913  0.364555  0.817468  1
  O  O28  1  0.662436  0.958360  0.620796  1
  O  O29  1  0.856902  0.560157  0.417059  1
  O  O30  1  0.138573  0.954111  0.092684  1
  O  O31  1  0.958360  0.337564  0.295923  1
  O  O32  1  0.364555  0.547087  0.911641  1
  O  O33  1  0.560157  0.143098  0.703255  1
  O  O34  1  0.766966  0.752286  0.519252  1
  O  O35  1  0.061601  0.674815  0.195564  1
  O  O36  1  0.866035  0.061601  0.386784  1
  O  O37  1  0.242392  0.242392  0.000000  1
  O  O38  1  0.479251  0.866035  0.804436  1
  O  O39  1  0.674815  0.479251  0.613216  1
  O  O40  1  0.337564  0.041640  0.379204  1
  O  O41  1  0.143098  0.439843  0.582941  1
  O  O42  1  0.547087  0.635445  0.182532  1
  O  O43  1  0.752286  0.233034  0.985321  1
  O  O44  1  0.954111  0.861427  0.815539  1
  O  O45  1  0.439843  0.856902  0.296745  1
  O  O46  1  0.233034  0.247714  0.480748  1
  O  O47  1  0.635445  0.452913  0.088359  1
  O  O48  1  0.861427  0.045889  0.907316  1
  O  O49  1  0.041640  0.662436  0.704077  1
