# generated using pymatgen
data_NaSr(BIr)4
_symmetry_space_group_name_H-M   'P 1'
_cell_length_a   7.07446841
_cell_length_b   6.13591796
_cell_length_c   5.56265767
_cell_angle_alpha   74.23700187
_cell_angle_beta   56.58620578
_cell_angle_gamma   49.17680133
_symmetry_Int_Tables_number   1
_chemical_formula_structural   NaSr(BIr)4
_chemical_formula_sum   'Na1 Sr1 B4 Ir4'
_cell_volume   151.02408959
_cell_formula_units_Z   1
loop_
 _symmetry_equiv_pos_site_id
 _symmetry_equiv_pos_as_xyz
  1  'x, y, z'
loop_
 _atom_site_type_symbol
 _atom_site_label
 _atom_site_symmetry_multiplicity
 _atom_site_fract_x
 _atom_site_fract_y
 _atom_site_fract_z
 _atom_site_occupancy
  Na  Na0  1  0.500000  0.500000  0.500000  1
  Sr  Sr1  1  0.750000  0.750000  0.750000  1
  B  B2  1  0.821549  0.178451  0.821549  1
  B  B3  1  0.074052  0.425948  0.074052  1
  B  B4  1  0.178451  0.821549  0.178451  1
  B  B5  1  0.425948  0.074052  0.425948  1
  Ir  Ir6  1  0.129861  0.129861  0.870139  1
  Ir  Ir7  1  0.382419  0.382419  0.117581  1
  Ir  Ir8  1  0.117581  0.117581  0.382419  1
  Ir  Ir9  1  0.870139  0.870139  0.129861  1
