# generated using pymatgen
data_Ho8Si(Ge5Mo4)3
_symmetry_space_group_name_H-M   'P 1'
_cell_length_a   6.90149400
_cell_length_b   7.09391634
_cell_length_c   13.20984400
_cell_angle_alpha   90.00000000
_cell_angle_beta   90.00000000
_cell_angle_gamma   89.86620046
_symmetry_Int_Tables_number   1
_chemical_formula_structural   Ho8Si(Ge5Mo4)3
_chemical_formula_sum   'Ho8 Si1 Ge15 Mo12'
_cell_volume   646.73398344
_cell_formula_units_Z   1
loop_
 _symmetry_equiv_pos_site_id
 _symmetry_equiv_pos_as_xyz
  1  'x, y, z'
loop_
 _atom_site_type_symbol
 _atom_site_label
 _atom_site_symmetry_multiplicity
 _atom_site_fract_x
 _atom_site_fract_y
 _atom_site_fract_z
 _atom_site_occupancy
  Ho  Ho0  1  0.991023  0.169303  0.092364  1
  Ho  Ho1  1  0.007498  0.832692  0.906250  1
  Ho  Ho2  1  0.508885  0.670007  0.906200  1
  Ho  Ho3  1  0.007498  0.832692  0.593750  1
  Ho  Ho4  1  0.490389  0.330455  0.092763  1
  Ho  Ho5  1  0.991023  0.169303  0.407636  1
  Ho  Ho6  1  0.490389  0.330455  0.407237  1
  Ho  Ho7  1  0.508885  0.670007  0.593800  1
  Si  Si8  1  0.033482  0.135811  0.750000  1
  Ge  Ge9  1  0.969595  0.867515  0.250000  1
  Ge  Ge10  1  0.469542  0.633361  0.250000  1
  Ge  Ge11  1  0.531618  0.365150  0.750000  1
  Ge  Ge12  1  0.307514  0.860947  0.750000  1
  Ge  Ge13  1  0.689975  0.142074  0.250000  1
  Ge  Ge14  1  0.189552  0.358472  0.250000  1
  Ge  Ge15  1  0.810624  0.639122  0.750000  1
  Ge  Ge16  1  0.169506  0.456956  0.547878  1
  Ge  Ge17  1  0.831100  0.543899  0.452518  1
  Ge  Ge18  1  0.331094  0.954502  0.452048  1
  Ge  Ge19  1  0.831100  0.543899  0.047482  1
  Ge  Ge20  1  0.667141  0.045716  0.548316  1
  Ge  Ge21  1  0.169506  0.456956  0.952122  1
  Ge  Ge22  1  0.667141  0.045716  0.951684  1
  Ge  Ge23  1  0.331094  0.954502  0.047952  1
  Mo  Mo24  1  0.166354  0.494110  0.750000  1
  Mo  Mo25  1  0.833617  0.503389  0.250000  1
  Mo  Mo26  1  0.334422  0.996173  0.250000  1
  Mo  Mo27  1  0.669982  0.003974  0.750000  1
  Mo  Mo28  1  0.325368  0.158555  0.627388  1
  Mo  Mo29  1  0.670420  0.841947  0.373770  1
  Mo  Mo30  1  0.168608  0.658493  0.373363  1
  Mo  Mo31  1  0.670420  0.841947  0.126230  1
  Mo  Mo32  1  0.835826  0.337427  0.628212  1
  Mo  Mo33  1  0.325368  0.158555  0.872612  1
  Mo  Mo34  1  0.835826  0.337427  0.871788  1
  Mo  Mo35  1  0.168608  0.658493  0.126637  1
