# generated using pymatgen
data_Ho5In4CuRu
_symmetry_space_group_name_H-M   'P 1'
_cell_length_a   8.03567548
_cell_length_b   18.15257103
_cell_length_c   3.62195500
_cell_angle_alpha   90.00000000
_cell_angle_beta   90.00000000
_cell_angle_gamma   90.03380023
_symmetry_Int_Tables_number   1
_chemical_formula_structural   Ho5In4CuRu
_chemical_formula_sum   'Ho10 In8 Cu2 Ru2'
_cell_volume   528.32785510
_cell_formula_units_Z   2
loop_
 _symmetry_equiv_pos_site_id
 _symmetry_equiv_pos_as_xyz
  1  'x, y, z'
loop_
 _atom_site_type_symbol
 _atom_site_label
 _atom_site_symmetry_multiplicity
 _atom_site_fract_x
 _atom_site_fract_y
 _atom_site_fract_z
 _atom_site_occupancy
  Ho  Ho0  1  0.500000  0.500000  0.000000  1
  Ho  Ho1  1  0.000000  0.000000  0.000000  1
  Ho  Ho2  1  0.769522  0.279663  0.000000  1
  Ho  Ho3  1  0.230478  0.720337  0.000000  1
  Ho  Ho4  1  0.760763  0.778452  0.000000  1
  Ho  Ho5  1  0.239237  0.221548  0.000000  1
  Ho  Ho6  1  0.624004  0.085081  0.000000  1
  Ho  Ho7  1  0.375996  0.914919  0.000000  1
  Ho  Ho8  1  0.876810  0.587302  0.000000  1
  Ho  Ho9  1  0.123190  0.412698  0.000000  1
  In  In10  1  0.701974  0.932243  0.500000  1
  In  In11  1  0.298026  0.067757  0.500000  1
  In  In12  1  0.797566  0.431104  0.500000  1
  In  In13  1  0.202434  0.568896  0.500000  1
  In  In14  1  0.565853  0.651614  0.500000  1
  In  In15  1  0.434147  0.348386  0.500000  1
  In  In16  1  0.935362  0.149266  0.500000  1
  In  In17  1  0.064638  0.850734  0.500000  1
  Cu  Cu18  1  0.532756  0.198036  0.500000  1
  Cu  Cu19  1  0.467244  0.801964  0.500000  1
  Ru  Ru20  1  0.966004  0.696065  0.500000  1
  Ru  Ru21  1  0.033996  0.303935  0.500000  1
