# generated using pymatgen
data_GdDy2Mg3Sn2Pt
_symmetry_space_group_name_H-M   'P 1'
_cell_length_a   7.48229317
_cell_length_b   7.48229304
_cell_length_c   4.50713500
_cell_angle_alpha   90.00000000
_cell_angle_beta   90.00000000
_cell_angle_gamma   120.11888277
_symmetry_Int_Tables_number   1
_chemical_formula_structural   GdDy2Mg3Sn2Pt
_chemical_formula_sum   'Gd1 Dy2 Mg3 Sn2 Pt1'
_cell_volume   218.26249989
_cell_formula_units_Z   1
loop_
 _symmetry_equiv_pos_site_id
 _symmetry_equiv_pos_as_xyz
  1  'x, y, z'
loop_
 _atom_site_type_symbol
 _atom_site_label
 _atom_site_symmetry_multiplicity
 _atom_site_fract_x
 _atom_site_fract_y
 _atom_site_fract_z
 _atom_site_occupancy
  Gd  Gd0  1  0.600451  0.600451  0.000000  1
  Dy  Dy1  1  0.398393  0.999609  0.000000  1
  Dy  Dy2  1  0.999609  0.398393  0.000000  1
  Mg  Mg3  1  0.000519  0.769848  0.500000  1
  Mg  Mg4  1  0.230122  0.230122  0.500000  1
  Mg  Mg5  1  0.769848  0.000519  0.500000  1
  Sn  Sn6  1  0.332095  0.667255  0.500000  1
  Sn  Sn7  1  0.667255  0.332095  0.500000  1
  Pt  Pt8  1  0.001708  0.001708  0.000000  1
