# generated using pymatgen
data_Y6MgSn5Pd6
_symmetry_space_group_name_H-M   'P 1'
_cell_length_a   7.65549300
_cell_length_b   7.69809942
_cell_length_c   7.77188431
_cell_angle_alpha   89.99279268
_cell_angle_beta   90.00000000
_cell_angle_gamma   119.81707864
_symmetry_Int_Tables_number   1
_chemical_formula_structural   Y6MgSn5Pd6
_chemical_formula_sum   'Y6 Mg1 Sn5 Pd6'
_cell_volume   397.38474774
_cell_formula_units_Z   1
loop_
 _symmetry_equiv_pos_site_id
 _symmetry_equiv_pos_as_xyz
  1  'x, y, z'
loop_
 _atom_site_type_symbol
 _atom_site_label
 _atom_site_symmetry_multiplicity
 _atom_site_fract_x
 _atom_site_fract_y
 _atom_site_fract_z
 _atom_site_occupancy
  Y  Y0  1  0.404342  0.002222  0.246449  1
  Y  Y1  1  0.597469  0.595954  0.248712  1
  Y  Y2  1  0.997210  0.401878  0.248876  1
  Y  Y3  1  0.402120  0.997778  0.753551  1
  Y  Y4  1  0.595332  0.598122  0.751124  1
  Y  Y5  1  0.001515  0.404046  0.751288  1
  Mg  Mg6  1  0.753299  0.000000  0.000000  1
  Sn  Sn7  1  0.269157  0.268449  0.499963  1
  Sn  Sn8  1  0.000708  0.731551  0.500037  1
  Sn  Sn9  1  0.992681  0.745154  0.999867  1
  Sn  Sn10  1  0.247526  0.254846  0.000133  1
  Sn  Sn11  1  0.731669  0.000000  0.500000  1
  Pd  Pd12  1  0.335085  0.670388  0.003233  1
  Pd  Pd13  1  0.333577  0.665425  0.496288  1
  Pd  Pd14  1  0.664698  0.329612  0.996767  1
  Pd  Pd15  1  0.668153  0.334575  0.503712  1
  Pd  Pd16  1  0.002723  0.999988  0.262083  1
  Pd  Pd17  1  0.002736  0.000012  0.737917  1
