# generated using pymatgen
data_Tb3GaCo2Ge
_symmetry_space_group_name_H-M   'P 1'
_cell_length_a   5.51523580
_cell_length_b   5.51523573
_cell_length_c   12.87284200
_cell_angle_alpha   90.00000000
_cell_angle_beta   90.00000000
_cell_angle_gamma   135.07056821
_symmetry_Int_Tables_number   1
_chemical_formula_structural   Tb3GaCo2Ge
_chemical_formula_sum   'Tb6 Ga2 Co4 Ge2'
_cell_volume   276.53623668
_cell_formula_units_Z   2
loop_
 _symmetry_equiv_pos_site_id
 _symmetry_equiv_pos_as_xyz
  1  'x, y, z'
loop_
 _atom_site_type_symbol
 _atom_site_label
 _atom_site_symmetry_multiplicity
 _atom_site_fract_x
 _atom_site_fract_y
 _atom_site_fract_z
 _atom_site_occupancy
  Tb  Tb0  1  0.793444  0.206556  0.400101  1
  Tb  Tb1  1  0.206556  0.793444  0.599899  1
  Tb  Tb2  1  0.793444  0.206556  0.099899  1
  Tb  Tb3  1  0.206556  0.793444  0.900101  1
  Tb  Tb4  1  0.511254  0.488746  0.250000  1
  Tb  Tb5  1  0.488746  0.511254  0.750000  1
  Ga  Ga6  1  0.500000  0.500000  0.500000  1
  Ga  Ga7  1  0.500000  0.500000  0.000000  1
  Co  Co8  1  0.073842  0.926158  0.412660  1
  Co  Co9  1  0.926158  0.073842  0.587340  1
  Co  Co10  1  0.073842  0.926158  0.087340  1
  Co  Co11  1  0.926158  0.073842  0.912660  1
  Ge  Ge12  1  0.211183  0.788817  0.250000  1
  Ge  Ge13  1  0.788817  0.211183  0.750000  1
