# generated using pymatgen
data_Tb2PrY(WO6)2
_symmetry_space_group_name_H-M   'P 1'
_cell_length_a   5.47272100
_cell_length_b   7.81268068
_cell_length_c   11.60205406
_cell_angle_alpha   75.64872419
_cell_angle_beta   90.00000000
_cell_angle_gamma   90.00000000
_symmetry_Int_Tables_number   1
_chemical_formula_structural   Tb2PrY(WO6)2
_chemical_formula_sum   'Tb4 Pr2 Y2 W4 O24'
_cell_volume   480.58458955
_cell_formula_units_Z   2
loop_
 _symmetry_equiv_pos_site_id
 _symmetry_equiv_pos_as_xyz
  1  'x, y, z'
loop_
 _atom_site_type_symbol
 _atom_site_label
 _atom_site_symmetry_multiplicity
 _atom_site_fract_x
 _atom_site_fract_y
 _atom_site_fract_z
 _atom_site_occupancy
  Tb  Tb0  1  0.186832  0.797181  0.076725  1
  Tb  Tb1  1  0.258266  0.000000  0.750000  1
  Tb  Tb2  1  0.741696  0.000000  0.250000  1
  Tb  Tb3  1  0.186832  0.202819  0.423275  1
  Pr  Pr4  1  0.314743  0.500000  0.750000  1
  Pr  Pr5  1  0.685287  0.500000  0.250000  1
  Y  Y6  1  0.813040  0.203067  0.923073  1
  Y  Y7  1  0.813040  0.796933  0.576927  1
  W  W8  1  0.746550  0.727902  0.884261  1
  W  W9  1  0.253482  0.727975  0.384318  1
  W  W10  1  0.746550  0.272098  0.615739  1
  W  W11  1  0.253482  0.272025  0.115682  1
  O  O12  1  0.852920  0.357888  0.455067  1
  O  O13  1  0.468599  0.845914  0.930264  1
  O  O14  1  0.852920  0.642112  0.044933  1
  O  O15  1  0.013577  0.280840  0.729638  1
  O  O16  1  0.986425  0.280919  0.229597  1
  O  O17  1  0.146769  0.357753  0.955057  1
  O  O18  1  0.651611  0.494776  0.887227  1
  O  O19  1  0.531749  0.154046  0.069494  1
  O  O20  1  0.146769  0.642247  0.544943  1
  O  O21  1  0.013577  0.719160  0.770362  1
  O  O22  1  0.455077  0.205864  0.272041  1
  O  O23  1  0.043292  0.940511  0.395819  1
  O  O24  1  0.468599  0.154086  0.569736  1
  O  O25  1  0.986425  0.719081  0.270403  1
  O  O26  1  0.956467  0.059214  0.604175  1
  O  O27  1  0.545123  0.205805  0.772272  1
  O  O28  1  0.545123  0.794195  0.727728  1
  O  O29  1  0.043292  0.059489  0.104181  1
  O  O30  1  0.651611  0.505224  0.612773  1
  O  O31  1  0.348492  0.505057  0.112792  1
  O  O32  1  0.455077  0.794136  0.227959  1
  O  O33  1  0.348492  0.494943  0.387208  1
  O  O34  1  0.531749  0.845954  0.430506  1
  O  O35  1  0.956467  0.940786  0.895825  1
