# generated using pymatgen
data_Y7Er5Tc4
_symmetry_space_group_name_H-M   'P 1'
_cell_length_a   7.48007224
_cell_length_b   9.10753612
_cell_length_c   6.24230136
_cell_angle_alpha   89.91292969
_cell_angle_beta   89.93942343
_cell_angle_gamma   89.89980130
_symmetry_Int_Tables_number   1
_chemical_formula_structural   Y7Er5Tc4
_chemical_formula_sum   'Y7 Er5 Tc4'
_cell_volume   425.25557763
_cell_formula_units_Z   1
loop_
 _symmetry_equiv_pos_site_id
 _symmetry_equiv_pos_as_xyz
  1  'x, y, z'
loop_
 _atom_site_type_symbol
 _atom_site_label
 _atom_site_symmetry_multiplicity
 _atom_site_fract_x
 _atom_site_fract_y
 _atom_site_fract_z
 _atom_site_occupancy
  Y  Y0  1  0.038891  0.253176  0.624403  1
  Y  Y1  1  0.960021  0.747401  0.374595  1
  Y  Y2  1  0.459937  0.747276  0.124690  1
  Y  Y3  1  0.540563  0.252573  0.876098  1
  Y  Y4  1  0.175126  0.062976  0.156079  1
  Y  Y5  1  0.824903  0.937291  0.845030  1
  Y  Y6  1  0.326051  0.937549  0.655780  1
  Er  Er7  1  0.824612  0.563064  0.847799  1
  Er  Er8  1  0.673281  0.062928  0.343836  1
  Er  Er9  1  0.174960  0.436894  0.151428  1
  Er  Er10  1  0.675502  0.436890  0.348342  1
  Er  Er11  1  0.325229  0.563090  0.651159  1
  Tc  Tc12  1  0.384113  0.253247  0.451606  1
  Tc  Tc13  1  0.617402  0.747523  0.545987  1
  Tc  Tc14  1  0.117158  0.745375  0.951639  1
  Tc  Tc15  1  0.882253  0.252747  0.051528  1
