# generated using pymatgen
data_K3SnAu5
_symmetry_space_group_name_H-M   'P 1'
_cell_length_a   11.16838213
_cell_length_b   11.16838170
_cell_length_c   11.16838223
_cell_angle_alpha   150.82321548
_cell_angle_beta   134.02134834
_cell_angle_gamma   55.38592253
_symmetry_Int_Tables_number   1
_chemical_formula_structural   K3SnAu5
_chemical_formula_sum   'K6 Sn2 Au10'
_cell_volume   485.36075775
_cell_formula_units_Z   2
loop_
 _symmetry_equiv_pos_site_id
 _symmetry_equiv_pos_as_xyz
  1  'x, y, z'
loop_
 _atom_site_type_symbol
 _atom_site_label
 _atom_site_symmetry_multiplicity
 _atom_site_fract_x
 _atom_site_fract_y
 _atom_site_fract_z
 _atom_site_occupancy
  K  K0  1  0.293605  0.915045  0.378559  1
  K  K1  1  0.036485  0.415045  0.621441  1
  K  K2  1  0.629161  0.250000  0.379161  1
  K  K3  1  0.370839  0.750000  0.620839  1
  K  K4  1  0.963515  0.584955  0.378559  1
  K  K5  1  0.706395  0.084955  0.621441  1
  Sn  Sn6  1  0.920067  0.750000  0.170067  1
  Sn  Sn7  1  0.079933  0.250000  0.829933  1
  Au  Au8  1  0.000000  0.000000  0.000000  1
  Au  Au9  1  0.500000  0.500000  0.000000  1
  Au  Au10  1  0.680155  0.680155  0.500000  1
  Au  Au11  1  0.680155  0.180155  0.000000  1
  Au  Au12  1  0.822728  0.853309  0.969419  1
  Au  Au13  1  0.383889  0.353309  0.030581  1
  Au  Au14  1  0.616111  0.646691  0.969419  1
  Au  Au15  1  0.177272  0.146691  0.030581  1
  Au  Au16  1  0.319845  0.819845  0.000000  1
  Au  Au17  1  0.319845  0.319845  0.500000  1
