# generated using pymatgen
data_Zr2CdCuIr
_symmetry_space_group_name_H-M   'P 1'
_cell_length_a   7.57924900
_cell_length_b   7.51568900
_cell_length_c   3.32543000
_cell_angle_alpha   90.00000000
_cell_angle_beta   90.00000000
_cell_angle_gamma   90.00000000
_symmetry_Int_Tables_number   1
_chemical_formula_structural   Zr2CdCuIr
_chemical_formula_sum   'Zr4 Cd2 Cu2 Ir2'
_cell_volume   189.42739468
_cell_formula_units_Z   2
loop_
 _symmetry_equiv_pos_site_id
 _symmetry_equiv_pos_as_xyz
  1  'x, y, z'
loop_
 _atom_site_type_symbol
 _atom_site_label
 _atom_site_symmetry_multiplicity
 _atom_site_fract_x
 _atom_site_fract_y
 _atom_site_fract_z
 _atom_site_occupancy
  Zr  Zr0  1  0.668067  0.177290  0.500001  1
  Zr  Zr1  1  0.168067  0.322710  0.500001  1
  Zr  Zr2  1  0.828330  0.659517  0.500001  1
  Zr  Zr3  1  0.328331  0.840482  0.500001  1
  Cd  Cd4  1  0.992653  0.991569  0.000000  1
  Cd  Cd5  1  0.492652  0.508430  0.000000  1
  Cu  Cu6  1  0.130019  0.629228  0.000000  1
  Cu  Cu7  1  0.630018  0.870771  0.000000  1
  Ir  Ir8  1  0.380931  0.119925  0.000000  1
  Ir  Ir9  1  0.880930  0.380076  0.000000  1
