# generated using pymatgen
data_Cs2LaNd(SiSe4)2
_symmetry_space_group_name_H-M   'P 1'
_cell_length_a   7.17081100
_cell_length_b   10.00681380
_cell_length_c   13.70345441
_cell_angle_alpha   71.28041674
_cell_angle_beta   90.00000000
_cell_angle_gamma   90.00000000
_symmetry_Int_Tables_number   1
_chemical_formula_structural   Cs2LaNd(SiSe4)2
_chemical_formula_sum   'Cs4 La2 Nd2 Si4 Se16'
_cell_volume   931.30146033
_cell_formula_units_Z   2
loop_
 _symmetry_equiv_pos_site_id
 _symmetry_equiv_pos_as_xyz
  1  'x, y, z'
loop_
 _atom_site_type_symbol
 _atom_site_label
 _atom_site_symmetry_multiplicity
 _atom_site_fract_x
 _atom_site_fract_y
 _atom_site_fract_z
 _atom_site_occupancy
  Cs  Cs0  1  0.254168  0.434508  0.386415  1
  Cs  Cs1  1  0.754168  0.565492  0.113585  1
  Cs  Cs2  1  0.745630  0.565285  0.613878  1
  Cs  Cs3  1  0.245630  0.434715  0.886122  1
  La  La4  1  0.196188  0.953338  0.366329  1
  La  La5  1  0.696188  0.046662  0.133671  1
  Nd  Nd6  1  0.804721  0.046604  0.634934  1
  Nd  Nd7  1  0.304721  0.953396  0.865066  1
  Si  Si8  1  0.743973  0.167050  0.354410  1
  Si  Si9  1  0.243973  0.832950  0.145590  1
  Si  Si10  1  0.256569  0.833684  0.646186  1
  Si  Si11  1  0.756569  0.166316  0.853814  1
  Se  Se12  1  0.027544  0.196223  0.759214  1
  Se  Se13  1  0.773434  0.935437  0.454017  1
  Se  Se14  1  0.526328  0.207161  0.731091  1
  Se  Se15  1  0.723127  0.934306  0.951662  1
  Se  Se16  1  0.758818  0.311142  0.452627  1
  Se  Se17  1  0.973340  0.800135  0.240600  1
  Se  Se18  1  0.258818  0.688858  0.047373  1
  Se  Se19  1  0.223127  0.065694  0.548338  1
  Se  Se20  1  0.741722  0.313767  0.949762  1
  Se  Se21  1  0.474438  0.789559  0.268567  1
  Se  Se22  1  0.026328  0.792839  0.768909  1
  Se  Se23  1  0.241722  0.686233  0.550238  1
  Se  Se24  1  0.473340  0.199865  0.259400  1
  Se  Se25  1  0.974438  0.210441  0.231433  1
  Se  Se26  1  0.527544  0.803777  0.740786  1
  Se  Se27  1  0.273434  0.064563  0.045983  1
