# generated using pymatgen
data_Sm3Pa(TcB4)4
_symmetry_space_group_name_H-M   'P 1'
_cell_length_a   3.65520200
_cell_length_b   6.02116105
_cell_length_c   11.64723841
_cell_angle_alpha   90.05698003
_cell_angle_beta   90.00000000
_cell_angle_gamma   90.00000000
_symmetry_Int_Tables_number   1
_chemical_formula_structural   Sm3Pa(TcB4)4
_chemical_formula_sum   'Sm3 Pa1 Tc4 B16'
_cell_volume   256.33881752
_cell_formula_units_Z   1
loop_
 _symmetry_equiv_pos_site_id
 _symmetry_equiv_pos_as_xyz
  1  'x, y, z'
loop_
 _atom_site_type_symbol
 _atom_site_label
 _atom_site_symmetry_multiplicity
 _atom_site_fract_x
 _atom_site_fract_y
 _atom_site_fract_z
 _atom_site_occupancy
  Sm  Sm0  1  0.000000  0.371597  0.650637  1
  Sm  Sm1  1  0.000000  0.125990  0.149458  1
  Sm  Sm2  1  0.000000  0.875236  0.849398  1
  Pa  Pa3  1  0.000000  0.626324  0.350761  1
  Tc  Tc4  1  0.000000  0.630366  0.090423  1
  Tc  Tc5  1  0.000000  0.367320  0.913281  1
  Tc  Tc6  1  0.000000  0.138270  0.407283  1
  Tc  Tc7  1  0.000000  0.861732  0.586970  1
  B  B8  1  0.500000  0.783988  0.186130  1
  B  B9  1  0.500000  0.214541  0.816074  1
  B  B10  1  0.500000  0.289896  0.315612  1
  B  B11  1  0.500000  0.715811  0.684807  1
  B  B12  1  0.500000  0.861116  0.032413  1
  B  B13  1  0.500000  0.137732  0.968673  1
  B  B14  1  0.500000  0.364091  0.467329  1
  B  B15  1  0.500000  0.638033  0.529918  1
  B  B16  1  0.500000  0.887994  0.453387  1
  B  B17  1  0.500000  0.111721  0.545825  1
  B  B18  1  0.500000  0.387767  0.046052  1
  B  B19  1  0.500000  0.611778  0.954140  1
  B  B20  1  0.500000  0.971998  0.309739  1
  B  B21  1  0.500000  0.023849  0.690249  1
  B  B22  1  0.500000  0.479602  0.192157  1
  B  B23  1  0.500000  0.523247  0.809281  1
