# generated using pymatgen
data_Dy2HoIn4CoAg
_symmetry_space_group_name_H-M   'P 1'
_cell_length_a   8.02294701
_cell_length_b   8.01882330
_cell_length_c   3.71002900
_cell_angle_alpha   90.00000000
_cell_angle_beta   90.00000000
_cell_angle_gamma   120.01064772
_symmetry_Int_Tables_number   1
_chemical_formula_structural   Dy2HoIn4CoAg
_chemical_formula_sum   'Dy2 Ho1 In4 Co1 Ag1'
_cell_volume   206.68354254
_cell_formula_units_Z   1
loop_
 _symmetry_equiv_pos_site_id
 _symmetry_equiv_pos_as_xyz
  1  'x, y, z'
loop_
 _atom_site_type_symbol
 _atom_site_label
 _atom_site_symmetry_multiplicity
 _atom_site_fract_x
 _atom_site_fract_y
 _atom_site_fract_z
 _atom_site_occupancy
  Dy  Dy0  1  0.711908  0.758460  0.500000  1
  Dy  Dy1  1  0.241871  0.953812  0.500000  1
  Ho  Ho2  1  0.046062  0.287169  0.500000  1
  In  In3  1  0.669545  0.062702  0.000000  1
  In  In4  1  0.937402  0.606509  0.000000  1
  In  In5  1  0.393036  0.330566  0.000000  1
  In  In6  1  0.333152  0.666468  0.000000  1
  Co  Co7  1  0.000193  0.000839  0.000000  1
  Ag  Ag8  1  0.666830  0.333476  0.500000  1
