# generated using pymatgen
data_Li8Nd8Sn7Sb
_symmetry_space_group_name_H-M   'P 1'
_cell_length_a   9.55016900
_cell_length_b   9.54351044
_cell_length_c   7.63274899
_cell_angle_alpha   90.07156467
_cell_angle_beta   90.00000000
_cell_angle_gamma   120.02308605
_symmetry_Int_Tables_number   1
_chemical_formula_structural   Li8Nd8Sn7Sb
_chemical_formula_sum   'Li8 Nd8 Sn7 Sb1'
_cell_volume   602.32278647
_cell_formula_units_Z   1
loop_
 _symmetry_equiv_pos_site_id
 _symmetry_equiv_pos_as_xyz
  1  'x, y, z'
loop_
 _atom_site_type_symbol
 _atom_site_label
 _atom_site_symmetry_multiplicity
 _atom_site_fract_x
 _atom_site_fract_y
 _atom_site_fract_z
 _atom_site_occupancy
  Li  Li0  1  0.166863  0.333725  0.286680  1
  Li  Li1  1  0.166918  0.833230  0.288130  1
  Li  Li2  1  0.666312  0.833230  0.288130  1
  Li  Li3  1  0.833166  0.666332  0.787579  1
  Li  Li4  1  0.832972  0.166572  0.788589  1
  Li  Li5  1  0.333600  0.166572  0.788589  1
  Li  Li6  1  0.333265  0.666530  0.666991  1
  Li  Li7  1  0.666787  0.333574  0.167866  1
  Nd  Nd8  1  0.512200  0.024402  0.494954  1
  Nd  Nd9  1  0.515128  0.489623  0.492966  1
  Nd  Nd10  1  0.974494  0.489623  0.492966  1
  Nd  Nd11  1  0.487898  0.975795  0.995460  1
  Nd  Nd12  1  0.489901  0.512821  0.995743  1
  Nd  Nd13  1  0.022921  0.512821  0.995743  1
  Nd  Nd14  1  0.998941  0.997883  0.497855  1
  Nd  Nd15  1  0.998910  0.997820  0.000015  1
  Sn  Sn16  1  0.166411  0.832757  0.729392  1
  Sn  Sn17  1  0.666345  0.832757  0.729392  1
  Sn  Sn18  1  0.833339  0.666677  0.230285  1
  Sn  Sn19  1  0.833644  0.167126  0.229869  1
  Sn  Sn20  1  0.333483  0.167126  0.229869  1
  Sn  Sn21  1  0.333012  0.666025  0.266185  1
  Sn  Sn22  1  0.666828  0.333655  0.766428  1
  Sb  Sb23  1  0.166662  0.333324  0.732300  1
