# generated using pymatgen
data_YbErTm2(Ga2Ag)4
_symmetry_space_group_name_H-M   'P 1'
_cell_length_a   4.34031100
_cell_length_b   6.94528553
_cell_length_c   10.26022011
_cell_angle_alpha   90.39445748
_cell_angle_beta   90.00000000
_cell_angle_gamma   90.00000000
_symmetry_Int_Tables_number   1
_chemical_formula_structural   YbErTm2(Ga2Ag)4
_chemical_formula_sum   'Yb1 Er1 Tm2 Ga8 Ag4'
_cell_volume   309.28391921
_cell_formula_units_Z   1
loop_
 _symmetry_equiv_pos_site_id
 _symmetry_equiv_pos_as_xyz
  1  'x, y, z'
loop_
 _atom_site_type_symbol
 _atom_site_label
 _atom_site_symmetry_multiplicity
 _atom_site_fract_x
 _atom_site_fract_y
 _atom_site_fract_z
 _atom_site_occupancy
  Yb  Yb0  1  0.250000  0.275480  0.671889  1
  Er  Er1  1  0.750000  0.224323  0.172650  1
  Tm  Tm2  1  0.250000  0.778765  0.827408  1
  Tm  Tm3  1  0.750000  0.722307  0.328105  1
  Ga  Ga4  1  0.250000  0.705374  0.536326  1
  Ga  Ga5  1  0.750000  0.297386  0.463731  1
  Ga  Ga6  1  0.750000  0.793789  0.037526  1
  Ga  Ga7  1  0.250000  0.200785  0.964554  1
  Ga  Ga8  1  0.250000  0.927705  0.154971  1
  Ga  Ga9  1  0.750000  0.070097  0.848223  1
  Ga  Ga10  1  0.750000  0.572161  0.651623  1
  Ga  Ga11  1  0.250000  0.429321  0.344836  1
  Ag  Ag12  1  0.250000  0.543401  0.097602  1
  Ag  Ag13  1  0.750000  0.456853  0.901545  1
  Ag  Ag14  1  0.750000  0.958237  0.597570  1
  Ag  Ag15  1  0.250000  0.044016  0.401439  1
