# generated using pymatgen
data_K5SrTaP4
_symmetry_space_group_name_H-M   'P 1'
_cell_length_a   10.19932200
_cell_length_b   10.19932246
_cell_length_c   7.79416277
_cell_angle_alpha   88.66328342
_cell_angle_beta   88.66328558
_cell_angle_gamma   120.64516577
_symmetry_Int_Tables_number   1
_chemical_formula_structural   K5SrTaP4
_chemical_formula_sum   'K10 Sr2 Ta2 P8'
_cell_volume   696.78672807
_cell_formula_units_Z   2
loop_
 _symmetry_equiv_pos_site_id
 _symmetry_equiv_pos_as_xyz
  1  'x, y, z'
loop_
 _atom_site_type_symbol
 _atom_site_label
 _atom_site_symmetry_multiplicity
 _atom_site_fract_x
 _atom_site_fract_y
 _atom_site_fract_z
 _atom_site_occupancy
  K  K0  1  0.464970  0.527560  0.498875  1
  K  K1  1  0.060851  0.528949  0.501196  1
  K  K2  1  0.527560  0.464970  0.998875  1
  K  K3  1  0.528949  0.060851  0.001196  1
  K  K4  1  0.864034  0.143198  0.678324  1
  K  K5  1  0.290030  0.151856  0.708653  1
  K  K6  1  0.854467  0.714360  0.661741  1
  K  K7  1  0.143198  0.864034  0.178324  1
  K  K8  1  0.714360  0.854467  0.161741  1
  K  K9  1  0.151856  0.290030  0.208653  1
  Sr  Sr10  1  0.464075  0.935430  0.496027  1
  Sr  Sr11  1  0.935430  0.464075  0.996027  1
  Ta  Ta12  1  0.670176  0.331501  0.393391  1
  Ta  Ta13  1  0.331501  0.670176  0.893391  1
  P  P14  1  0.685031  0.337974  0.701911  1
  P  P15  1  0.337974  0.685031  0.201911  1
  P  P16  1  0.793760  0.198121  0.286808  1
  P  P17  1  0.404846  0.189791  0.318600  1
  P  P18  1  0.801214  0.587806  0.268764  1
  P  P19  1  0.198121  0.793760  0.786808  1
  P  P20  1  0.587806  0.801214  0.768764  1
  P  P21  1  0.189791  0.404846  0.818600  1
