# generated using pymatgen
data_TaP2IO8
_symmetry_space_group_name_H-M   'P 1'
_cell_length_a   5.29829946
_cell_length_b   5.30572254
_cell_length_c   9.47411751
_cell_angle_alpha   102.88972471
_cell_angle_beta   104.20796515
_cell_angle_gamma   59.83894481
_symmetry_Int_Tables_number   1
_chemical_formula_structural   TaP2IO8
_chemical_formula_sum   'Ta1 P2 I1 O8'
_cell_volume   221.64269979
_cell_formula_units_Z   1
loop_
 _symmetry_equiv_pos_site_id
 _symmetry_equiv_pos_as_xyz
  1  'x, y, z'
loop_
 _atom_site_type_symbol
 _atom_site_label
 _atom_site_symmetry_multiplicity
 _atom_site_fract_x
 _atom_site_fract_y
 _atom_site_fract_z
 _atom_site_occupancy
  Ta  Ta0  1  0.999999  0.999999  0.000000  1
  P  P1  1  0.723406  0.710746  0.187223  1
  P  P2  1  0.276594  0.289252  0.812779  1
  I  I3  1  0.000011  0.000014  0.499991  1
  O  O4  1  0.853853  0.847973  0.115612  1
  O  O5  1  0.384916  0.855916  0.131754  1
  O  O6  1  0.851088  0.380558  0.125288  1
  O  O7  1  0.790480  0.745654  0.352887  1
  O  O8  1  0.209528  0.254374  0.647109  1
  O  O9  1  0.148915  0.619428  0.874727  1
  O  O10  1  0.615079  0.144071  0.868252  1
  O  O11  1  0.146137  0.152020  0.884378  1
