# generated using pymatgen
data_TbTm2MoO7
_symmetry_space_group_name_H-M   'P 1'
_cell_length_a   6.41293600
_cell_length_b   6.41293794
_cell_length_c   7.47979700
_cell_angle_alpha   90.00000000
_cell_angle_beta   90.00000000
_cell_angle_gamma   109.31926254
_symmetry_Int_Tables_number   1
_chemical_formula_structural   TbTm2MoO7
_chemical_formula_sum   'Tb2 Tm4 Mo2 O14'
_cell_volume   290.29062234
_cell_formula_units_Z   2
loop_
 _symmetry_equiv_pos_site_id
 _symmetry_equiv_pos_as_xyz
  1  'x, y, z'
loop_
 _atom_site_type_symbol
 _atom_site_label
 _atom_site_symmetry_multiplicity
 _atom_site_fract_x
 _atom_site_fract_y
 _atom_site_fract_z
 _atom_site_occupancy
  Tb  Tb0  1  0.500000  0.500000  0.500000  1
  Tb  Tb1  1  0.500000  0.500000  0.000000  1
  Tm  Tm2  1  0.534412  0.001910  0.750000  1
  Tm  Tm3  1  0.001910  0.534412  0.250000  1
  Tm  Tm4  1  0.465588  0.998090  0.250000  1
  Tm  Tm5  1  0.998090  0.465588  0.750000  1
  Mo  Mo6  1  0.000000  0.000000  0.500000  1
  Mo  Mo7  1  0.000000  0.000000  0.000000  1
  O  O8  1  0.675915  0.925721  0.469023  1
  O  O9  1  0.925721  0.675915  0.530977  1
  O  O10  1  0.675915  0.925721  0.030977  1
  O  O11  1  0.925721  0.675915  0.969023  1
  O  O12  1  0.324085  0.074279  0.530977  1
  O  O13  1  0.074279  0.324085  0.469023  1
  O  O14  1  0.324085  0.074279  0.969023  1
  O  O15  1  0.074279  0.324085  0.030977  1
  O  O16  1  0.924428  0.075572  0.750000  1
  O  O17  1  0.075572  0.924428  0.250000  1
  O  O18  1  0.365746  0.634254  0.750000  1
  O  O19  1  0.634254  0.365746  0.250000  1
  O  O20  1  0.639175  0.360825  0.750000  1
  O  O21  1  0.360825  0.639175  0.250000  1
