# generated using pymatgen
data_SnAsHO5
_symmetry_space_group_name_H-M   'P 1'
_cell_length_a   5.59398022
_cell_length_b   7.72708772
_cell_length_c   5.52431065
_cell_angle_alpha   107.95028331
_cell_angle_beta   102.22877368
_cell_angle_gamma   105.15199061
_symmetry_Int_Tables_number   1
_chemical_formula_structural   SnAsHO5
_chemical_formula_sum   'Sn2 As2 H2 O10'
_cell_volume   207.85735195
_cell_formula_units_Z   2
loop_
 _symmetry_equiv_pos_site_id
 _symmetry_equiv_pos_as_xyz
  1  'x, y, z'
loop_
 _atom_site_type_symbol
 _atom_site_label
 _atom_site_symmetry_multiplicity
 _atom_site_fract_x
 _atom_site_fract_y
 _atom_site_fract_z
 _atom_site_occupancy
  Sn  Sn0  1  0.000000  0.500000  0.000000  1
  Sn  Sn1  1  0.000000  0.000000  0.000000  1
  As  As2  1  0.323586  0.236393  0.685109  1
  As  As3  1  0.676414  0.763607  0.314891  1
  H  H4  1  0.961962  0.312019  0.323567  1
  H  H5  1  0.038038  0.687981  0.676433  1
  O  O6  1  0.065402  0.733333  0.873100  1
  O  O7  1  0.091677  0.349877  0.668619  1
  O  O8  1  0.380049  0.592516  0.246706  1
  O  O9  1  0.239245  0.055891  0.375657  1
  O  O10  1  0.328826  0.136847  0.922545  1
  O  O11  1  0.671174  0.863153  0.077455  1
  O  O12  1  0.760755  0.944109  0.624343  1
  O  O13  1  0.619951  0.407484  0.753294  1
  O  O14  1  0.908323  0.650123  0.331381  1
  O  O15  1  0.934598  0.266667  0.126900  1
