# generated using pymatgen
data_Y4Ho6Cd3Os
_symmetry_space_group_name_H-M   'P 1'
_cell_length_a   9.59689600
_cell_length_b   9.59689623
_cell_length_c   9.85317100
_cell_angle_alpha   90.00000000
_cell_angle_beta   90.00000000
_cell_angle_gamma   119.99999920
_symmetry_Int_Tables_number   1
_chemical_formula_structural   Y4Ho6Cd3Os
_chemical_formula_sum   'Y8 Ho12 Cd6 Os2'
_cell_volume   785.90172583
_cell_formula_units_Z   2
loop_
 _symmetry_equiv_pos_site_id
 _symmetry_equiv_pos_as_xyz
  1  'x, y, z'
loop_
 _atom_site_type_symbol
 _atom_site_label
 _atom_site_symmetry_multiplicity
 _atom_site_fract_x
 _atom_site_fract_y
 _atom_site_fract_z
 _atom_site_occupancy
  Y  Y0  1  0.000000  0.000000  0.500000  1
  Y  Y1  1  0.000000  0.000000  0.000000  1
  Y  Y2  1  0.540223  0.459777  0.250000  1
  Y  Y3  1  0.540223  0.080445  0.250000  1
  Y  Y4  1  0.919555  0.459777  0.250000  1
  Y  Y5  1  0.459777  0.540223  0.750000  1
  Y  Y6  1  0.459777  0.919555  0.750000  1
  Y  Y7  1  0.080445  0.540223  0.750000  1
  Ho  Ho8  1  0.209829  0.790171  0.440031  1
  Ho  Ho9  1  0.209829  0.419658  0.440031  1
  Ho  Ho10  1  0.580342  0.790171  0.440031  1
  Ho  Ho11  1  0.790171  0.209829  0.559969  1
  Ho  Ho12  1  0.790171  0.580342  0.559969  1
  Ho  Ho13  1  0.419658  0.209829  0.559969  1
  Ho  Ho14  1  0.790171  0.209829  0.940031  1
  Ho  Ho15  1  0.790171  0.580342  0.940031  1
  Ho  Ho16  1  0.419658  0.209829  0.940031  1
  Ho  Ho17  1  0.209829  0.790171  0.059969  1
  Ho  Ho18  1  0.209829  0.419658  0.059969  1
  Ho  Ho19  1  0.580342  0.790171  0.059969  1
  Cd  Cd20  1  0.885427  0.114573  0.250000  1
  Cd  Cd21  1  0.885427  0.770857  0.250000  1
  Cd  Cd22  1  0.229143  0.114573  0.250000  1
  Cd  Cd23  1  0.114573  0.885427  0.750000  1
  Cd  Cd24  1  0.114573  0.229143  0.750000  1
  Cd  Cd25  1  0.770857  0.885427  0.750000  1
  Os  Os26  1  0.333333  0.666667  0.250000  1
  Os  Os27  1  0.666667  0.333333  0.750000  1
