# generated using pymatgen
data_LiLa2Si3Pd4
_symmetry_space_group_name_H-M   'P 1'
_cell_length_a   4.32768600
_cell_length_b   4.32768600
_cell_length_c   9.91313800
_cell_angle_alpha   90.00000000
_cell_angle_beta   90.00000000
_cell_angle_gamma   90.00000000
_symmetry_Int_Tables_number   1
_chemical_formula_structural   LiLa2Si3Pd4
_chemical_formula_sum   'Li1 La2 Si3 Pd4'
_cell_volume   185.66183438
_cell_formula_units_Z   1
loop_
 _symmetry_equiv_pos_site_id
 _symmetry_equiv_pos_as_xyz
  1  'x, y, z'
loop_
 _atom_site_type_symbol
 _atom_site_label
 _atom_site_symmetry_multiplicity
 _atom_site_fract_x
 _atom_site_fract_y
 _atom_site_fract_z
 _atom_site_occupancy
  Li  Li0  1  0.000000  0.000000  0.500000  1
  La  La1  1  0.500000  0.000000  0.252337  1
  La  La2  1  0.000000  0.500000  0.747663  1
  Si  Si3  1  0.000000  0.500000  0.128739  1
  Si  Si4  1  0.500000  0.000000  0.871261  1
  Si  Si5  1  0.500000  0.500000  0.500000  1
  Pd  Pd6  1  0.000000  0.500000  0.374058  1
  Pd  Pd7  1  0.500000  0.000000  0.625942  1
  Pd  Pd8  1  0.000000  0.000000  0.000000  1
  Pd  Pd9  1  0.500000  0.500000  0.000000  1
