# generated using pymatgen
data_CeY7Si12(IrRh)2
_symmetry_space_group_name_H-M   'P 1'
_cell_length_a   8.18196600
_cell_length_b   8.18204305
_cell_length_c   8.00709700
_cell_angle_alpha   90.00141394
_cell_angle_beta   89.99749428
_cell_angle_gamma   119.99951876
_symmetry_Int_Tables_number   1
_chemical_formula_structural   CeY7Si12(IrRh)2
_chemical_formula_sum   'Ce1 Y7 Si12 Ir2 Rh2'
_cell_volume   464.22364582
_cell_formula_units_Z   1
loop_
 _symmetry_equiv_pos_site_id
 _symmetry_equiv_pos_as_xyz
  1  'x, y, z'
loop_
 _atom_site_type_symbol
 _atom_site_label
 _atom_site_symmetry_multiplicity
 _atom_site_fract_x
 _atom_site_fract_y
 _atom_site_fract_z
 _atom_site_occupancy
  Ce  Ce0  1  0.999999  0.000002  0.249039  1
  Y  Y1  1  0.999999  0.000002  0.751152  1
  Y  Y2  1  0.508435  0.491563  0.250473  1
  Y  Y3  1  0.508435  0.016873  0.250473  1
  Y  Y4  1  0.983127  0.491563  0.250473  1
  Y  Y5  1  0.491033  0.508966  0.749630  1
  Y  Y6  1  0.491034  0.982070  0.749633  1
  Y  Y7  1  0.017935  0.508968  0.749634  1
  Si  Si8  1  0.166647  0.833354  0.499194  1
  Si  Si9  1  0.166649  0.333295  0.499197  1
  Si  Si10  1  0.666708  0.833353  0.499190  1
  Si  Si11  1  0.832801  0.167198  0.500473  1
  Si  Si12  1  0.832796  0.665591  0.500486  1
  Si  Si13  1  0.334405  0.167201  0.500480  1
  Si  Si14  1  0.832495  0.167500  0.000402  1
  Si  Si15  1  0.832494  0.664991  0.000395  1
  Si  Si16  1  0.335006  0.167501  0.000396  1
  Si  Si17  1  0.166940  0.833059  0.999804  1
  Si  Si18  1  0.166941  0.333888  0.999797  1
  Si  Si19  1  0.666114  0.833060  0.999792  1
  Ir  Ir20  1  0.333336  0.666667  0.473923  1
  Ir  Ir21  1  0.666666  0.333331  0.531300  1
  Rh  Rh22  1  0.666668  0.333335  0.963282  1
  Rh  Rh23  1  0.333336  0.666668  0.031383  1
