# generated using pymatgen
data_Ho4BS3
_symmetry_space_group_name_H-M   'P 1'
_cell_length_a   6.70548908
_cell_length_b   6.70548952
_cell_length_c   6.70548953
_cell_angle_alpha   131.96070194
_cell_angle_beta   131.96071022
_cell_angle_gamma   70.29109997
_symmetry_Int_Tables_number   1
_chemical_formula_structural   Ho4BS3
_chemical_formula_sum   'Ho4 B1 S3'
_cell_volume   163.39418996
_cell_formula_units_Z   1
loop_
 _symmetry_equiv_pos_site_id
 _symmetry_equiv_pos_as_xyz
  1  'x, y, z'
loop_
 _atom_site_type_symbol
 _atom_site_label
 _atom_site_symmetry_multiplicity
 _atom_site_fract_x
 _atom_site_fract_y
 _atom_site_fract_z
 _atom_site_occupancy
  Ho  Ho0  1  0.265471  0.265471  0.000000  1
  Ho  Ho1  1  0.734529  0.734529  0.000000  1
  Ho  Ho2  1  0.500000  0.000000  0.500000  1
  Ho  Ho3  1  0.000000  0.500000  0.500000  1
  B  B4  1  0.500000  0.500000  0.000000  1
  S  S5  1  0.000000  0.000000  0.000000  1
  S  S6  1  0.750000  0.250000  0.500000  1
  S  S7  1  0.250000  0.750000  0.500000  1
