# generated using pymatgen
data_IrRuRhO6
_symmetry_space_group_name_H-M   'P 1'
_cell_length_a   4.55041000
_cell_length_b   4.55041000
_cell_length_c   9.46586600
_cell_angle_alpha   90.00000000
_cell_angle_beta   90.00000000
_cell_angle_gamma   90.00000000
_symmetry_Int_Tables_number   1
_chemical_formula_structural   IrRuRhO6
_chemical_formula_sum   'Ir2 Ru2 Rh2 O12'
_cell_volume   196.00240960
_cell_formula_units_Z   2
loop_
 _symmetry_equiv_pos_site_id
 _symmetry_equiv_pos_as_xyz
  1  'x, y, z'
loop_
 _atom_site_type_symbol
 _atom_site_label
 _atom_site_symmetry_multiplicity
 _atom_site_fract_x
 _atom_site_fract_y
 _atom_site_fract_z
 _atom_site_occupancy
  Ir  Ir0  1  0.500000  0.500000  0.499624  1
  Ir  Ir1  1  0.000000  0.000000  0.999624  1
  Ru  Ru2  1  0.500000  0.500000  0.166761  1
  Ru  Ru3  1  0.000000  0.000000  0.666761  1
  Rh  Rh4  1  0.500000  0.500000  0.833816  1
  Rh  Rh5  1  0.000000  0.000000  0.333816  1
  O  O6  1  0.194089  0.805911  0.501986  1
  O  O7  1  0.805911  0.194089  0.501986  1
  O  O8  1  0.305911  0.305911  0.001986  1
  O  O9  1  0.694089  0.694089  0.001986  1
  O  O10  1  0.195386  0.804614  0.165409  1
  O  O11  1  0.804614  0.195386  0.165409  1
  O  O12  1  0.304614  0.304614  0.665409  1
  O  O13  1  0.695386  0.695386  0.665409  1
  O  O14  1  0.810947  0.189053  0.832505  1
  O  O15  1  0.189053  0.810947  0.832505  1
  O  O16  1  0.689053  0.689053  0.332505  1
  O  O17  1  0.310947  0.310947  0.332505  1
