# generated using pymatgen
data_Pr4AlNi13
_symmetry_space_group_name_H-M   'P 1'
_cell_length_a   5.03500942
_cell_length_b   5.09568104
_cell_length_c   12.73795373
_cell_angle_alpha   78.46190199
_cell_angle_beta   78.62114705
_cell_angle_gamma   59.60057477
_symmetry_Int_Tables_number   1
_chemical_formula_structural   Pr4AlNi13
_chemical_formula_sum   'Pr4 Al1 Ni13'
_cell_volume   274.39704135
_cell_formula_units_Z   1
loop_
 _symmetry_equiv_pos_site_id
 _symmetry_equiv_pos_as_xyz
  1  'x, y, z'
loop_
 _atom_site_type_symbol
 _atom_site_label
 _atom_site_symmetry_multiplicity
 _atom_site_fract_x
 _atom_site_fract_y
 _atom_site_fract_z
 _atom_site_occupancy
  Pr  Pr0  1  0.946213  0.947350  0.159086  1
  Pr  Pr1  1  0.053787  0.052650  0.840914  1
  Pr  Pr2  1  0.853245  0.852548  0.441660  1
  Pr  Pr3  1  0.146755  0.147452  0.558340  1
  Al  Al4  1  0.000000  0.500000  0.000000  1
  Ni  Ni5  1  0.500000  0.500000  0.500000  1
  Ni  Ni6  1  0.720384  0.722049  0.835518  1
  Ni  Ni7  1  0.279616  0.277951  0.164482  1
  Ni  Ni8  1  0.610784  0.612837  0.163543  1
  Ni  Ni9  1  0.389216  0.387163  0.836457  1
  Ni  Ni10  1  0.500000  0.000000  0.000000  1
  Ni  Ni11  1  0.500000  0.500000  0.000000  1
  Ni  Ni12  1  0.392690  0.392224  0.325701  1
  Ni  Ni13  1  0.891431  0.391301  0.325968  1
  Ni  Ni14  1  0.392690  0.889385  0.325701  1
  Ni  Ni15  1  0.607310  0.607776  0.674299  1
  Ni  Ni16  1  0.108569  0.608699  0.674032  1
  Ni  Ni17  1  0.607310  0.110615  0.674299  1
