# generated using pymatgen
data_Tm(LuSi2)5
_symmetry_space_group_name_H-M   'P 1'
_cell_length_a   6.54619800
_cell_length_b   6.54559743
_cell_length_c   8.13814339
_cell_angle_alpha   89.96917645
_cell_angle_beta   90.00000000
_cell_angle_gamma   120.00303518
_symmetry_Int_Tables_number   1
_chemical_formula_structural   Tm(LuSi2)5
_chemical_formula_sum   'Tm1 Lu5 Si10'
_cell_volume   301.98198163
_cell_formula_units_Z   1
loop_
 _symmetry_equiv_pos_site_id
 _symmetry_equiv_pos_as_xyz
  1  'x, y, z'
loop_
 _atom_site_type_symbol
 _atom_site_label
 _atom_site_symmetry_multiplicity
 _atom_site_fract_x
 _atom_site_fract_y
 _atom_site_fract_z
 _atom_site_occupancy
  Tm  Tm0  1  0.330714  0.000000  0.000000  1
  Lu  Lu1  1  0.330804  0.000000  0.500000  1
  Lu  Lu2  1  0.000012  0.330818  0.499992  1
  Lu  Lu3  1  0.999973  0.330776  0.000004  1
  Lu  Lu4  1  0.669197  0.669224  0.999996  1
  Lu  Lu5  1  0.669193  0.669182  0.500008  1
  Si  Si6  1  0.395340  0.331475  0.250225  1
  Si  Si7  1  0.669081  0.064167  0.250185  1
  Si  Si8  1  0.935858  0.604667  0.250049  1
  Si  Si9  1  0.604915  0.935833  0.749815  1
  Si  Si10  1  0.999855  0.000024  0.250134  1
  Si  Si11  1  0.666825  0.333482  0.749864  1
  Si  Si12  1  0.063866  0.668525  0.749775  1
  Si  Si13  1  0.331192  0.395333  0.749951  1
  Si  Si14  1  0.333342  0.666518  0.250136  1
  Si  Si15  1  0.999831  0.999976  0.749866  1
