# generated using pymatgen
data_Tb6Yb3ZrIr6
_symmetry_space_group_name_H-M   'P 1'
_cell_length_a   10.84125200
_cell_length_b   10.97992900
_cell_length_c   6.30601700
_cell_angle_alpha   90.00000000
_cell_angle_beta   90.00000000
_cell_angle_gamma   90.00000000
_symmetry_Int_Tables_number   1
_chemical_formula_structural   Tb6Yb3ZrIr6
_chemical_formula_sum   'Tb12 Yb6 Zr2 Ir12'
_cell_volume   750.64415723
_cell_formula_units_Z   2
loop_
 _symmetry_equiv_pos_site_id
 _symmetry_equiv_pos_as_xyz
  1  'x, y, z'
loop_
 _atom_site_type_symbol
 _atom_site_label
 _atom_site_symmetry_multiplicity
 _atom_site_fract_x
 _atom_site_fract_y
 _atom_site_fract_z
 _atom_site_occupancy
  Tb  Tb0  1  0.587296  0.794347  0.877271  1
  Tb  Tb1  1  0.587296  0.205653  0.377271  1
  Tb  Tb2  1  0.412704  0.794347  0.377271  1
  Tb  Tb3  1  0.412704  0.205653  0.877271  1
  Tb  Tb4  1  0.212828  0.413076  0.626636  1
  Tb  Tb5  1  0.212828  0.586924  0.126636  1
  Tb  Tb6  1  0.787172  0.413076  0.126636  1
  Tb  Tb7  1  0.787172  0.586924  0.626636  1
  Tb  Tb8  1  0.913357  0.710253  0.126441  1
  Tb  Tb9  1  0.913357  0.289747  0.626441  1
  Tb  Tb10  1  0.086643  0.710253  0.626441  1
  Tb  Tb11  1  0.086643  0.289747  0.126441  1
  Yb  Yb12  1  0.288564  0.084787  0.376836  1
  Yb  Yb13  1  0.288564  0.915213  0.876836  1
  Yb  Yb14  1  0.711436  0.084787  0.876836  1
  Yb  Yb15  1  0.711436  0.915213  0.376836  1
  Yb  Yb16  1  0.000000  0.000000  0.495986  1
  Yb  Yb17  1  0.000000  0.000000  0.995986  1
  Zr  Zr18  1  0.500000  0.500000  0.991732  1
  Zr  Zr19  1  0.500000  0.500000  0.491732  1
  Ir  Ir20  1  0.849265  0.166817  0.250918  1
  Ir  Ir21  1  0.849265  0.833183  0.750918  1
  Ir  Ir22  1  0.150735  0.166817  0.750918  1
  Ir  Ir23  1  0.150735  0.833183  0.250918  1
  Ir  Ir24  1  0.640993  0.359539  0.743355  1
  Ir  Ir25  1  0.640993  0.640461  0.243355  1
  Ir  Ir26  1  0.359007  0.359539  0.243355  1
  Ir  Ir27  1  0.359007  0.640461  0.743355  1
  Ir  Ir28  1  0.500000  0.000000  0.124200  1
  Ir  Ir29  1  0.500000  0.000000  0.624200  1
  Ir  Ir30  1  0.000000  0.500000  0.885169  1
  Ir  Ir31  1  0.000000  0.500000  0.385169  1
