# generated using pymatgen
data_Pr11SmOs2I17
_symmetry_space_group_name_H-M   'P 1'
_cell_length_a   10.14682110
_cell_length_b   12.16833696
_cell_length_c   12.19340653
_cell_angle_alpha   93.61460001
_cell_angle_beta   104.62182600
_cell_angle_gamma   114.41488297
_symmetry_Int_Tables_number   1
_chemical_formula_structural   Pr11SmOs2I17
_chemical_formula_sum   'Pr11 Sm1 Os2 I17'
_cell_volume   1302.33331883
_cell_formula_units_Z   1
loop_
 _symmetry_equiv_pos_site_id
 _symmetry_equiv_pos_as_xyz
  1  'x, y, z'
loop_
 _atom_site_type_symbol
 _atom_site_label
 _atom_site_symmetry_multiplicity
 _atom_site_fract_x
 _atom_site_fract_y
 _atom_site_fract_z
 _atom_site_occupancy
  Pr  Pr0  1  0.988563  0.811172  0.581250  1
  Pr  Pr1  1  0.646541  0.240831  0.284645  1
  Pr  Pr2  1  0.012805  0.189781  0.419946  1
  Pr  Pr3  1  0.225060  0.670108  0.991105  1
  Pr  Pr4  1  0.260524  0.988256  0.892444  1
  Pr  Pr5  1  0.355771  0.760741  0.715233  1
  Pr  Pr6  1  0.941303  0.487927  0.677241  1
  Pr  Pr7  1  0.738621  0.010227  0.106948  1
  Pr  Pr8  1  0.151194  0.288642  0.151580  1
  Pr  Pr9  1  0.775041  0.331135  0.008721  1
  Pr  Pr10  1  0.848127  0.712059  0.849866  1
  Sm  Sm11  1  0.056170  0.508602  0.321260  1
  Os  Os12  1  0.104306  0.738475  0.785844  1
  Os  Os13  1  0.895941  0.261876  0.214290  1
  I  I14  1  0.792528  0.529050  0.417357  1
  I  I15  1  0.640679  0.418946  0.758326  1
  I  I16  1  0.843528  0.896203  0.324955  1
  I  I17  1  0.324814  0.212694  0.368681  1
  I  I18  1  0.157004  0.104903  0.675296  1
  I  I19  1  0.587633  0.052385  0.844933  1
  I  I20  1  0.755659  0.182921  0.537142  1
  I  I21  1  0.547555  0.706887  0.952661  1
  I  I22  1  0.354105  0.581966  0.245254  1
  I  I23  1  0.212183  0.474434  0.576576  1
  I  I24  1  0.054748  0.368344  0.897817  1
  I  I25  1  0.452375  0.293072  0.047945  1
  I  I26  1  0.000531  0.000747  0.000426  1
  I  I27  1  0.239601  0.809630  0.459371  1
  I  I28  1  0.413765  0.948957  0.155703  1
  I  I29  1  0.675441  0.787264  0.631478  1
  I  I30  1  0.947881  0.631767  0.105704  1
