# generated using pymatgen
data_PrDy2Th3Si4
_symmetry_space_group_name_H-M   'P 1'
_cell_length_a   7.66790519
_cell_length_b   7.66790532
_cell_length_c   4.28191500
_cell_angle_alpha   90.00000000
_cell_angle_beta   90.00000000
_cell_angle_gamma   90.34545638
_symmetry_Int_Tables_number   1
_chemical_formula_structural   PrDy2Th3Si4
_chemical_formula_sum   'Pr1 Dy2 Th3 Si4'
_cell_volume   251.75819973
_cell_formula_units_Z   1
loop_
 _symmetry_equiv_pos_site_id
 _symmetry_equiv_pos_as_xyz
  1  'x, y, z'
loop_
 _atom_site_type_symbol
 _atom_site_label
 _atom_site_symmetry_multiplicity
 _atom_site_fract_x
 _atom_site_fract_y
 _atom_site_fract_z
 _atom_site_occupancy
  Pr  Pr0  1  0.823095  0.676905  0.500000  1
  Dy  Dy1  1  0.999209  0.000624  0.000000  1
  Dy  Dy2  1  0.499376  0.500791  0.000000  1
  Th  Th3  1  0.677647  0.178794  0.500000  1
  Th  Th4  1  0.321206  0.822353  0.500000  1
  Th  Th5  1  0.178495  0.321505  0.500000  1
  Si  Si6  1  0.119541  0.614382  0.000000  1
  Si  Si7  1  0.885618  0.380459  0.000000  1
  Si  Si8  1  0.613101  0.886899  0.000000  1
  Si  Si9  1  0.382711  0.117289  0.000000  1
