# generated using pymatgen
data_CeScB6Os
_symmetry_space_group_name_H-M   'P 1'
_cell_length_a   3.61491700
_cell_length_b   9.03260700
_cell_length_c   11.43095200
_cell_angle_alpha   90.00000000
_cell_angle_beta   90.00000000
_cell_angle_gamma   90.00000000
_symmetry_Int_Tables_number   1
_chemical_formula_structural   CeScB6Os
_chemical_formula_sum   'Ce4 Sc4 B24 Os4'
_cell_volume   373.24486898
_cell_formula_units_Z   4
loop_
 _symmetry_equiv_pos_site_id
 _symmetry_equiv_pos_as_xyz
  1  'x, y, z'
loop_
 _atom_site_type_symbol
 _atom_site_label
 _atom_site_symmetry_multiplicity
 _atom_site_fract_x
 _atom_site_fract_y
 _atom_site_fract_z
 _atom_site_occupancy
  Ce  Ce0  1  0.000000  0.321066  0.414130  1
  Ce  Ce1  1  0.000000  0.678934  0.585870  1
  Ce  Ce2  1  0.000000  0.821066  0.085870  1
  Ce  Ce3  1  0.000000  0.178934  0.914130  1
  Sc  Sc4  1  0.000000  0.945411  0.375386  1
  Sc  Sc5  1  0.000000  0.054589  0.624615  1
  Sc  Sc6  1  0.000000  0.445411  0.124614  1
  Sc  Sc7  1  0.000000  0.554589  0.875385  1
  B  B8  1  0.500000  0.555499  0.431794  1
  B  B9  1  0.500000  0.444501  0.568206  1
  B  B10  1  0.500000  0.055499  0.068206  1
  B  B11  1  0.500000  0.944501  0.931794  1
  B  B12  1  0.500000  0.753634  0.418223  1
  B  B13  1  0.500000  0.246366  0.581777  1
  B  B14  1  0.500000  0.253634  0.081777  1
  B  B15  1  0.500000  0.746366  0.918223  1
  B  B16  1  0.500000  0.794541  0.265673  1
  B  B17  1  0.500000  0.205459  0.734327  1
  B  B18  1  0.500000  0.294540  0.234327  1
  B  B19  1  0.500000  0.705459  0.765673  1
  B  B20  1  0.500000  0.629884  0.182575  1
  B  B21  1  0.500000  0.370116  0.817425  1
  B  B22  1  0.500000  0.129884  0.317425  1
  B  B23  1  0.500000  0.870116  0.682575  1
  B  B24  1  0.500000  0.982999  0.215623  1
  B  B25  1  0.500000  0.017001  0.784377  1
  B  B26  1  0.500000  0.482999  0.284377  1
  B  B27  1  0.500000  0.517001  0.715623  1
  B  B28  1  0.500000  0.599523  0.026802  1
  B  B29  1  0.500000  0.400477  0.973198  1
  B  B30  1  0.500000  0.099523  0.473198  1
  B  B31  1  0.500000  0.900477  0.526802  1
  Os  Os32  1  0.000000  0.641090  0.317963  1
  Os  Os33  1  0.000000  0.358910  0.682037  1
  Os  Os34  1  0.000000  0.141090  0.182037  1
  Os  Os35  1  0.000000  0.858910  0.817963  1
