# generated using pymatgen
data_Sc2Nb4Fe15Si7Ni
_symmetry_space_group_name_H-M   'P 1'
_cell_length_a   7.98555037
_cell_length_b   7.99927145
_cell_length_c   7.99927131
_cell_angle_alpha   59.79861643
_cell_angle_beta   60.00478098
_cell_angle_gamma   60.00478412
_symmetry_Int_Tables_number   1
_chemical_formula_structural   Sc2Nb4Fe15Si7Ni
_chemical_formula_sum   'Sc2 Nb4 Fe15 Si7 Ni1'
_cell_volume   360.79181236
_cell_formula_units_Z   1
loop_
 _symmetry_equiv_pos_site_id
 _symmetry_equiv_pos_as_xyz
  1  'x, y, z'
loop_
 _atom_site_type_symbol
 _atom_site_label
 _atom_site_symmetry_multiplicity
 _atom_site_fract_x
 _atom_site_fract_y
 _atom_site_fract_z
 _atom_site_occupancy
  Sc  Sc0  1  0.798226  0.201317  0.799234  1
  Sc  Sc1  1  0.798226  0.799234  0.201317  1
  Nb  Nb2  1  0.203046  0.798778  0.201307  1
  Nb  Nb3  1  0.203046  0.201307  0.798778  1
  Nb  Nb4  1  0.208074  0.793536  0.793536  1
  Nb  Nb5  1  0.795735  0.203583  0.203583  1
  Fe  Fe6  1  0.614734  0.617740  0.139942  1
  Fe  Fe7  1  0.375335  0.380940  0.859548  1
  Fe  Fe8  1  0.827870  0.523436  0.825925  1
  Fe  Fe9  1  0.826441  0.823102  0.823102  1
  Fe  Fe10  1  0.827870  0.825925  0.523436  1
  Fe  Fe11  1  0.381386  0.381693  0.381693  1
  Fe  Fe12  1  0.142363  0.618146  0.618146  1
  Fe  Fe13  1  0.614449  0.624819  0.624819  1
  Fe  Fe14  1  0.173679  0.173163  0.173163  1
  Fe  Fe15  1  0.177014  0.477344  0.173934  1
  Fe  Fe16  1  0.522464  0.826762  0.826762  1
  Fe  Fe17  1  0.614734  0.139942  0.617740  1
  Fe  Fe18  1  0.177014  0.173934  0.477344  1
  Fe  Fe19  1  0.375335  0.859548  0.380940  1
  Fe  Fe20  1  0.471883  0.177259  0.177259  1
  Si  Si21  1  0.501815  0.000594  0.000594  1
  Si  Si22  1  0.002729  0.500457  0.998879  1
  Si  Si23  1  0.501754  0.498681  0.997723  1
  Si  Si24  1  0.501584  0.501886  0.501886  1
  Si  Si25  1  0.001609  0.500044  0.500044  1
  Si  Si26  1  0.002729  0.998879  0.500457  1
  Si  Si27  1  0.501754  0.997723  0.498681  1
  Ni  Ni28  1  0.857102  0.380227  0.380227  1
