# generated using pymatgen
data_Dy2Ho3PPb3
_symmetry_space_group_name_H-M   'P 1'
_cell_length_a   9.14021009
_cell_length_b   9.14021076
_cell_length_c   6.78017300
_cell_angle_alpha   90.00000000
_cell_angle_beta   90.00000000
_cell_angle_gamma   119.98385397
_symmetry_Int_Tables_number   1
_chemical_formula_structural   Dy2Ho3PPb3
_chemical_formula_sum   'Dy4 Ho6 P2 Pb6'
_cell_volume   490.63037429
_cell_formula_units_Z   2
loop_
 _symmetry_equiv_pos_site_id
 _symmetry_equiv_pos_as_xyz
  1  'x, y, z'
loop_
 _atom_site_type_symbol
 _atom_site_label
 _atom_site_symmetry_multiplicity
 _atom_site_fract_x
 _atom_site_fract_y
 _atom_site_fract_z
 _atom_site_occupancy
  Dy  Dy0  1  0.762018  0.762018  0.750000  1
  Dy  Dy1  1  0.237969  0.999990  0.750000  1
  Dy  Dy2  1  0.999990  0.237969  0.750000  1
  Dy  Dy3  1  0.237928  0.237928  0.250000  1
  Ho  Ho4  1  0.762386  0.999951  0.250000  1
  Ho  Ho5  1  0.999951  0.762386  0.250000  1
  Ho  Ho6  1  0.666692  0.333357  0.000016  1
  Ho  Ho7  1  0.333357  0.666692  0.000016  1
  Ho  Ho8  1  0.333357  0.666692  0.499984  1
  Ho  Ho9  1  0.666692  0.333357  0.499984  1
  P  P10  1  0.999802  0.999802  0.000386  1
  P  P11  1  0.999802  0.999802  0.499614  1
  Pb  Pb12  1  0.399978  0.399978  0.750000  1
  Pb  Pb13  1  0.600024  0.000007  0.750000  1
  Pb  Pb14  1  0.000007  0.600024  0.750000  1
  Pb  Pb15  1  0.600225  0.600225  0.250000  1
  Pb  Pb16  1  0.399913  0.999911  0.250000  1
  Pb  Pb17  1  0.999911  0.399913  0.250000  1
