# generated using pymatgen
data_Yb9Tm(AlSb3)4
_symmetry_space_group_name_H-M   'P 1'
_cell_length_a   4.41420400
_cell_length_b   7.45258553
_cell_length_c   22.85628604
_cell_angle_alpha   90.79650712
_cell_angle_beta   90.00000000
_cell_angle_gamma   90.00000000
_symmetry_Int_Tables_number   1
_chemical_formula_structural   Yb9Tm(AlSb3)4
_chemical_formula_sum   'Yb9 Tm1 Al4 Sb12'
_cell_volume   751.83590906
_cell_formula_units_Z   1
loop_
 _symmetry_equiv_pos_site_id
 _symmetry_equiv_pos_as_xyz
  1  'x, y, z'
loop_
 _atom_site_type_symbol
 _atom_site_label
 _atom_site_symmetry_multiplicity
 _atom_site_fract_x
 _atom_site_fract_y
 _atom_site_fract_z
 _atom_site_occupancy
  Yb  Yb0  1  0.000000  0.458835  0.914584  1
  Yb  Yb1  1  0.000000  0.271311  0.748168  1
  Yb  Yb2  1  0.000000  0.768960  0.754547  1
  Yb  Yb3  1  0.000000  0.541165  0.085416  1
  Yb  Yb4  1  0.000000  0.949425  0.590014  1
  Yb  Yb5  1  0.000000  0.728689  0.251832  1
  Yb  Yb6  1  0.000000  0.050575  0.409986  1
  Yb  Yb7  1  0.000000  0.500000  0.500000  1
  Yb  Yb8  1  0.000000  0.231040  0.245453  1
  Tm  Tm9  1  0.000000  0.000000  0.000000  1
  Al  Al10  1  0.500000  0.824587  0.881294  1
  Al  Al11  1  0.500000  0.175413  0.118706  1
  Al  Al12  1  0.500000  0.687007  0.377649  1
  Al  Al13  1  0.500000  0.312993  0.622351  1
  Sb  Sb14  1  0.500000  0.803787  0.494759  1
  Sb  Sb15  1  0.000000  0.473939  0.363433  1
  Sb  Sb16  1  0.000000  0.964229  0.134765  1
  Sb  Sb17  1  0.500000  0.519001  0.813978  1
  Sb  Sb18  1  0.500000  0.480999  0.186022  1
  Sb  Sb19  1  0.000000  0.035771  0.865235  1
  Sb  Sb20  1  0.000000  0.526061  0.636567  1
  Sb  Sb21  1  0.500000  0.985690  0.311034  1
  Sb  Sb22  1  0.500000  0.196213  0.505241  1
  Sb  Sb23  1  0.500000  0.014310  0.688966  1
  Sb  Sb24  1  0.500000  0.279992  0.003907  1
  Sb  Sb25  1  0.500000  0.720008  0.996093  1
