# generated using pymatgen
data_AcMgSiIrPt
_symmetry_space_group_name_H-M   'P 1'
_cell_length_a   4.21046300
_cell_length_b   4.21046300
_cell_length_c   11.47041500
_cell_angle_alpha   90.00000000
_cell_angle_beta   90.00000000
_cell_angle_gamma   90.00000000
_symmetry_Int_Tables_number   1
_chemical_formula_structural   AcMgSiIrPt
_chemical_formula_sum   'Ac2 Mg2 Si2 Ir2 Pt2'
_cell_volume   203.34750191
_cell_formula_units_Z   2
loop_
 _symmetry_equiv_pos_site_id
 _symmetry_equiv_pos_as_xyz
  1  'x, y, z'
loop_
 _atom_site_type_symbol
 _atom_site_label
 _atom_site_symmetry_multiplicity
 _atom_site_fract_x
 _atom_site_fract_y
 _atom_site_fract_z
 _atom_site_occupancy
  Ac  Ac0  1  0.000000  0.500000  0.235267  1
  Ac  Ac1  1  0.500000  0.000000  0.764733  1
  Mg  Mg2  1  0.000000  0.000000  0.500000  1
  Mg  Mg3  1  0.500000  0.500000  0.500000  1
  Si  Si4  1  0.000000  0.500000  0.890353  1
  Si  Si5  1  0.500000  0.000000  0.109647  1
  Ir  Ir6  1  0.000000  0.000000  0.000000  1
  Ir  Ir7  1  0.500000  0.500000  0.000000  1
  Pt  Pt8  1  0.000000  0.500000  0.664893  1
  Pt  Pt9  1  0.500000  0.000000  0.335107  1
