# generated using pymatgen
data_Ce6Cd22PPd
_symmetry_space_group_name_H-M   'P 1'
_cell_length_a   10.02141168
_cell_length_b   10.02141246
_cell_length_c   10.02141100
_cell_angle_alpha   60.00000150
_cell_angle_beta   59.99999893
_cell_angle_gamma   59.99999805
_symmetry_Int_Tables_number   1
_chemical_formula_structural   Ce6Cd22PPd
_chemical_formula_sum   'Ce6 Cd22 P1 Pd1'
_cell_volume   711.65861511
_cell_formula_units_Z   1
loop_
 _symmetry_equiv_pos_site_id
 _symmetry_equiv_pos_as_xyz
  1  'x, y, z'
loop_
 _atom_site_type_symbol
 _atom_site_label
 _atom_site_symmetry_multiplicity
 _atom_site_fract_x
 _atom_site_fract_y
 _atom_site_fract_z
 _atom_site_occupancy
  Ce  Ce0  1  0.797092  0.797092  0.202908  1
  Ce  Ce1  1  0.202908  0.797092  0.202908  1
  Ce  Ce2  1  0.797092  0.202908  0.202908  1
  Ce  Ce3  1  0.202908  0.202908  0.797092  1
  Ce  Ce4  1  0.797092  0.202908  0.797092  1
  Ce  Ce5  1  0.202908  0.797092  0.797092  1
  Cd  Cd6  1  0.832782  0.832782  0.501652  1
  Cd  Cd7  1  0.832782  0.501652  0.832782  1
  Cd  Cd8  1  0.501652  0.832782  0.832782  1
  Cd  Cd9  1  0.832782  0.832782  0.832782  1
  Cd  Cd10  1  0.167218  0.167218  0.498348  1
  Cd  Cd11  1  0.167218  0.498348  0.167218  1
  Cd  Cd12  1  0.498348  0.167218  0.167218  1
  Cd  Cd13  1  0.167218  0.167218  0.167218  1
  Cd  Cd14  1  0.615774  0.615774  0.152678  1
  Cd  Cd15  1  0.615774  0.152678  0.615774  1
  Cd  Cd16  1  0.152678  0.615774  0.615774  1
  Cd  Cd17  1  0.615774  0.615774  0.615774  1
  Cd  Cd18  1  0.384226  0.384226  0.847322  1
  Cd  Cd19  1  0.384226  0.847322  0.384226  1
  Cd  Cd20  1  0.847322  0.384226  0.384226  1
  Cd  Cd21  1  0.384226  0.384226  0.384226  1
  Cd  Cd22  1  0.000000  0.000000  0.500000  1
  Cd  Cd23  1  0.500000  0.000000  0.500000  1
  Cd  Cd24  1  0.000000  0.500000  0.500000  1
  Cd  Cd25  1  0.500000  0.500000  0.000000  1
  Cd  Cd26  1  0.000000  0.500000  0.000000  1
  Cd  Cd27  1  0.500000  0.000000  0.000000  1
  P  P28  1  0.000000  0.000000  0.000000  1
  Pd  Pd29  1  0.500000  0.500000  0.500000  1
