# generated using pymatgen
data_Tb7Ho3In8(IrPd)2
_symmetry_space_group_name_H-M   'P 1'
_cell_length_a   3.64508000
_cell_length_b   8.14546045
_cell_length_c   18.29360154
_cell_angle_alpha   90.11441650
_cell_angle_beta   90.00000000
_cell_angle_gamma   90.00000000
_symmetry_Int_Tables_number   1
_chemical_formula_structural   Tb7Ho3In8(IrPd)2
_chemical_formula_sum   'Tb7 Ho3 In8 Ir2 Pd2'
_cell_volume   543.15158723
_cell_formula_units_Z   1
loop_
 _symmetry_equiv_pos_site_id
 _symmetry_equiv_pos_as_xyz
  1  'x, y, z'
loop_
 _atom_site_type_symbol
 _atom_site_label
 _atom_site_symmetry_multiplicity
 _atom_site_fract_x
 _atom_site_fract_y
 _atom_site_fract_z
 _atom_site_occupancy
  Tb  Tb0  1  0.000000  0.499982  0.500047  1
  Tb  Tb1  1  0.000000  0.000034  0.999881  1
  Tb  Tb2  1  0.000000  0.728510  0.278199  1
  Tb  Tb3  1  0.000000  0.271338  0.721906  1
  Tb  Tb4  1  0.000000  0.747555  0.780108  1
  Tb  Tb5  1  0.000000  0.252421  0.220069  1
  Tb  Tb6  1  0.000000  0.613852  0.086745  1
  Ho  Ho7  1  0.000000  0.386756  0.912436  1
  Ho  Ho8  1  0.000000  0.884718  0.584881  1
  Ho  Ho9  1  0.000000  0.115274  0.415210  1
  In  In10  1  0.500000  0.708293  0.931760  1
  In  In11  1  0.500000  0.290882  0.067817  1
  In  In12  1  0.500000  0.792823  0.432499  1
  In  In13  1  0.500000  0.207201  0.567522  1
  In  In14  1  0.500000  0.579042  0.648559  1
  In  In15  1  0.500000  0.420866  0.351639  1
  In  In16  1  0.500000  0.923041  0.150358  1
  In  In17  1  0.500000  0.078332  0.849807  1
  Ir  Ir18  1  0.500000  0.518568  0.195642  1
  Ir  Ir19  1  0.500000  0.480580  0.804847  1
  Pd  Pd20  1  0.500000  0.980169  0.695521  1
  Pd  Pd21  1  0.500000  0.019763  0.304549  1
