# generated using pymatgen
data_K3RbSn4(Hg3Se8)2
_symmetry_space_group_name_H-M   'P 1'
_cell_length_a   7.02788297
_cell_length_b   7.03403727
_cell_length_c   20.96803096
_cell_angle_alpha   90.05794932
_cell_angle_beta   89.87046928
_cell_angle_gamma   96.34767647
_symmetry_Int_Tables_number   1
_chemical_formula_structural   K3RbSn4(Hg3Se8)2
_chemical_formula_sum   'K3 Rb1 Sn4 Hg6 Se16'
_cell_volume   1030.18417299
_cell_formula_units_Z   1
loop_
 _symmetry_equiv_pos_site_id
 _symmetry_equiv_pos_as_xyz
  1  'x, y, z'
loop_
 _atom_site_type_symbol
 _atom_site_label
 _atom_site_symmetry_multiplicity
 _atom_site_fract_x
 _atom_site_fract_y
 _atom_site_fract_z
 _atom_site_occupancy
  K  K0  1  0.446318  0.860392  0.118520  1
  K  K1  1  0.360440  0.946372  0.618440  1
  K  K2  1  0.946218  0.360308  0.381517  1
  Rb  Rb3  1  0.860966  0.446993  0.882282  1
  Sn  Sn4  1  0.373728  0.949139  0.863735  1
  Sn  Sn5  1  0.949645  0.374482  0.136502  1
  Sn  Sn6  1  0.874583  0.449601  0.635568  1
  Sn  Sn7  1  0.449164  0.874439  0.363865  1
  Hg  Hg8  1  0.315651  0.394701  0.752960  1
  Hg  Hg9  1  0.394920  0.315435  0.246943  1
  Hg  Hg10  1  0.815272  0.895032  0.746822  1
  Hg  Hg11  1  0.894892  0.815461  0.253022  1
  Hg  Hg12  1  0.015461  0.015150  0.000321  1
  Hg  Hg13  1  0.515338  0.515349  0.499953  1
  Se  Se14  1  0.233629  0.400804  0.631985  1
  Se  Se15  1  0.400751  0.233473  0.368008  1
  Se  Se16  1  0.732809  0.905101  0.867718  1
  Se  Se17  1  0.900848  0.733293  0.131955  1
  Se  Se18  1  0.327319  0.305662  0.873009  1
  Se  Se19  1  0.306928  0.325966  0.126813  1
  Se  Se20  1  0.826064  0.806634  0.626818  1
  Se  Se21  1  0.806728  0.825964  0.373169  1
  Se  Se22  1  0.242239  0.780940  0.968231  1
  Se  Se23  1  0.778166  0.237441  0.033633  1
  Se  Se24  1  0.740175  0.279482  0.531843  1
  Se  Se25  1  0.279343  0.740074  0.467940  1
  Se  Se26  1  0.217779  0.793287  0.766049  1
  Se  Se27  1  0.793176  0.217511  0.234116  1
  Se  Se28  1  0.293311  0.717474  0.266123  1
  Se  Se29  1  0.714796  0.290693  0.732143  1
