# generated using pymatgen
data_Ta7Ti2NbN12
_symmetry_space_group_name_H-M   'P 1'
_cell_length_a   5.20928800
_cell_length_b   5.21691532
_cell_length_c   10.29577866
_cell_angle_alpha   90.03556978
_cell_angle_beta   90.00000000
_cell_angle_gamma   119.95166069
_symmetry_Int_Tables_number   1
_chemical_formula_structural   Ta7Ti2NbN12
_chemical_formula_sum   'Ta7 Ti2 Nb1 N12'
_cell_volume   242.43382394
_cell_formula_units_Z   1
loop_
 _symmetry_equiv_pos_site_id
 _symmetry_equiv_pos_as_xyz
  1  'x, y, z'
loop_
 _atom_site_type_symbol
 _atom_site_label
 _atom_site_symmetry_multiplicity
 _atom_site_fract_x
 _atom_site_fract_y
 _atom_site_fract_z
 _atom_site_occupancy
  Ta  Ta0  1  0.665361  0.331743  0.499954  1
  Ta  Ta1  1  0.333617  0.668257  0.000046  1
  Ta  Ta2  1  0.677558  0.000000  0.750000  1
  Ta  Ta3  1  0.677373  0.677459  0.250041  1
  Ta  Ta4  1  0.999915  0.322541  0.249959  1
  Ta  Ta5  1  0.000090  0.677299  0.750021  1
  Ta  Ta6  1  0.322792  0.322701  0.749979  1
  Ti  Ti7  1  0.333632  0.667741  0.500029  1
  Ti  Ti8  1  0.665893  0.332259  0.999971  1
  Nb  Nb9  1  0.323556  0.000000  0.250000  1
  N  N10  1  0.343314  0.348839  0.379828  1
  N  N11  1  0.660241  0.998508  0.380339  1
  N  N12  1  0.997713  0.652944  0.379687  1
  N  N13  1  0.998462  0.343240  0.879258  1
  N  N14  1  0.661733  0.001492  0.119661  1
  N  N15  1  0.656917  0.655374  0.879281  1
  N  N16  1  0.343863  0.001900  0.879404  1
  N  N17  1  0.655220  0.656760  0.620742  1
  N  N18  1  0.001542  0.344626  0.620719  1
  N  N19  1  0.994475  0.651161  0.120172  1
  N  N20  1  0.341962  0.998100  0.620596  1
  N  N21  1  0.344770  0.347056  0.120313  1
