# generated using pymatgen
data_Dy8Er2(IrAu)3
_symmetry_space_group_name_H-M   'P 1'
_cell_length_a   11.20859440
_cell_length_b   11.20336800
_cell_length_c   6.32948173
_cell_angle_alpha   90.00000000
_cell_angle_beta   89.81300502
_cell_angle_gamma   90.00000000
_symmetry_Int_Tables_number   1
_chemical_formula_structural   Dy8Er2(IrAu)3
_chemical_formula_sum   'Dy16 Er4 Ir6 Au6'
_cell_volume   794.81415506
_cell_formula_units_Z   2
loop_
 _symmetry_equiv_pos_site_id
 _symmetry_equiv_pos_as_xyz
  1  'x, y, z'
loop_
 _atom_site_type_symbol
 _atom_site_label
 _atom_site_symmetry_multiplicity
 _atom_site_fract_x
 _atom_site_fract_y
 _atom_site_fract_z
 _atom_site_occupancy
  Dy  Dy0  1  0.299369  0.091543  0.366408  1
  Dy  Dy1  1  0.299369  0.908457  0.866408  1
  Dy  Dy2  1  0.699613  0.084139  0.861910  1
  Dy  Dy3  1  0.699613  0.915861  0.361910  1
  Dy  Dy4  1  0.577079  0.791652  0.864371  1
  Dy  Dy5  1  0.577079  0.208348  0.364371  1
  Dy  Dy6  1  0.410487  0.792648  0.377801  1
  Dy  Dy7  1  0.410487  0.207352  0.877801  1
  Dy  Dy8  1  0.212162  0.417410  0.623321  1
  Dy  Dy9  1  0.212162  0.582590  0.123321  1
  Dy  Dy10  1  0.798463  0.415067  0.134630  1
  Dy  Dy11  1  0.798463  0.584933  0.634630  1
  Dy  Dy12  1  0.918644  0.701292  0.136636  1
  Dy  Dy13  1  0.918644  0.298708  0.636636  1
  Dy  Dy14  1  0.095142  0.699678  0.635620  1
  Dy  Dy15  1  0.095142  0.300322  0.135620  1
  Er  Er16  1  0.999558  0.999219  0.500161  1
  Er  Er17  1  0.999558  0.000781  0.000161  1
  Er  Er18  1  0.491236  0.498669  0.998792  1
  Er  Er19  1  0.491236  0.501331  0.498792  1
  Ir  Ir20  1  0.347241  0.347035  0.250021  1
  Ir  Ir21  1  0.347241  0.652965  0.750021  1
  Ir  Ir22  1  0.499803  0.999165  0.115947  1
  Ir  Ir23  1  0.499803  0.000835  0.615947  1
  Ir  Ir24  1  0.999338  0.500315  0.884901  1
  Ir  Ir25  1  0.999338  0.499685  0.384901  1
  Au  Au26  1  0.844868  0.154059  0.250453  1
  Au  Au27  1  0.844868  0.845941  0.750453  1
  Au  Au28  1  0.153582  0.154059  0.749582  1
  Au  Au29  1  0.153582  0.845941  0.249582  1
  Au  Au30  1  0.653412  0.347275  0.749447  1
  Au  Au31  1  0.653412  0.652725  0.249447  1
