# generated using pymatgen
data_Dy3Hf(MoN2)4
_symmetry_space_group_name_H-M   'P 1'
_cell_length_a   3.16480000
_cell_length_b   5.66588421
_cell_length_c   10.56877311
_cell_angle_alpha   90.33489937
_cell_angle_beta   90.00000000
_cell_angle_gamma   90.00000000
_symmetry_Int_Tables_number   1
_chemical_formula_structural   Dy3Hf(MoN2)4
_chemical_formula_sum   'Dy3 Hf1 Mo4 N8'
_cell_volume   189.50955880
_cell_formula_units_Z   1
loop_
 _symmetry_equiv_pos_site_id
 _symmetry_equiv_pos_as_xyz
  1  'x, y, z'
loop_
 _atom_site_type_symbol
 _atom_site_label
 _atom_site_symmetry_multiplicity
 _atom_site_fract_x
 _atom_site_fract_y
 _atom_site_fract_z
 _atom_site_occupancy
  Dy  Dy0  1  0.250000  0.580908  0.648418  1
  Dy  Dy1  1  0.750000  0.919176  0.146211  1
  Dy  Dy2  1  0.750000  0.420255  0.352442  1
  Hf  Hf3  1  0.250000  0.080391  0.849832  1
  Mo  Mo4  1  0.250000  0.430670  0.091610  1
  Mo  Mo5  1  0.250000  0.932006  0.406258  1
  Mo  Mo6  1  0.750000  0.564208  0.908981  1
  Mo  Mo7  1  0.750000  0.070212  0.594025  1
  N  N8  1  0.250000  0.167233  0.246683  1
  N  N9  1  0.250000  0.663988  0.248224  1
  N  N10  1  0.750000  0.850596  0.761495  1
  N  N11  1  0.750000  0.322018  0.754610  1
  N  N12  1  0.250000  0.769044  0.988133  1
  N  N13  1  0.250000  0.260304  0.507829  1
  N  N14  1  0.750000  0.229760  0.997942  1
  N  N15  1  0.750000  0.739233  0.497305  1
