# generated using pymatgen
data_Dy12Co6Sb
_symmetry_space_group_name_H-M   'P 1'
_cell_length_a   8.35127751
_cell_length_b   8.35127832
_cell_length_c   8.35127800
_cell_angle_alpha   109.47121744
_cell_angle_beta   109.47121941
_cell_angle_gamma   109.47122675
_symmetry_Int_Tables_number   1
_chemical_formula_structural   Dy12Co6Sb
_chemical_formula_sum   'Dy12 Co6 Sb1'
_cell_volume   448.37037883
_cell_formula_units_Z   1
loop_
 _symmetry_equiv_pos_site_id
 _symmetry_equiv_pos_as_xyz
  1  'x, y, z'
loop_
 _atom_site_type_symbol
 _atom_site_label
 _atom_site_symmetry_multiplicity
 _atom_site_fract_x
 _atom_site_fract_y
 _atom_site_fract_z
 _atom_site_occupancy
  Dy  Dy0  1  0.806058  0.696479  0.502538  1
  Dy  Dy1  1  0.193942  0.303521  0.497462  1
  Dy  Dy2  1  0.193942  0.696479  0.890421  1
  Dy  Dy3  1  0.806058  0.303521  0.109579  1
  Dy  Dy4  1  0.696479  0.502538  0.806058  1
  Dy  Dy5  1  0.303521  0.497462  0.193942  1
  Dy  Dy6  1  0.696479  0.890421  0.193942  1
  Dy  Dy7  1  0.303521  0.109579  0.806058  1
  Dy  Dy8  1  0.502538  0.806058  0.696479  1
  Dy  Dy9  1  0.497462  0.193942  0.303521  1
  Dy  Dy10  1  0.109579  0.806058  0.303521  1
  Dy  Dy11  1  0.890421  0.193942  0.696479  1
  Co  Co12  1  0.886294  0.386294  0.500000  1
  Co  Co13  1  0.113706  0.613706  0.500000  1
  Co  Co14  1  0.386294  0.500000  0.886294  1
  Co  Co15  1  0.613706  0.500000  0.113706  1
  Co  Co16  1  0.500000  0.886294  0.386294  1
  Co  Co17  1  0.500000  0.113706  0.613706  1
  Sb  Sb18  1  0.000000  0.000000  0.000000  1
