# generated using pymatgen
data_Li2Nb3V3(Co4P3)4
_symmetry_space_group_name_H-M   'P 1'
_cell_length_a   11.77677100
_cell_length_b   11.77677137
_cell_length_c   3.54211400
_cell_angle_alpha   90.00000000
_cell_angle_beta   90.00000000
_cell_angle_gamma   120.00000177
_symmetry_Int_Tables_number   1
_chemical_formula_structural   Li2Nb3V3(Co4P3)4
_chemical_formula_sum   'Li2 Nb3 V3 Co16 P12'
_cell_volume   425.44716361
_cell_formula_units_Z   1
loop_
 _symmetry_equiv_pos_site_id
 _symmetry_equiv_pos_as_xyz
  1  'x, y, z'
loop_
 _atom_site_type_symbol
 _atom_site_label
 _atom_site_symmetry_multiplicity
 _atom_site_fract_x
 _atom_site_fract_y
 _atom_site_fract_z
 _atom_site_occupancy
  Li  Li0  1  0.333333  0.666667  0.000000  1
  Li  Li1  1  0.666667  0.333333  0.000000  1
  Nb  Nb2  1  0.818347  0.000000  0.500000  1
  Nb  Nb3  1  0.000000  0.818347  0.500000  1
  Nb  Nb4  1  0.181653  0.181653  0.500000  1
  V  V5  1  0.444437  0.000000  0.000000  1
  V  V6  1  0.000000  0.444437  0.000000  1
  V  V7  1  0.555563  0.555563  0.000000  1
  Co  Co8  1  0.281317  0.000000  0.500000  1
  Co  Co9  1  0.000000  0.281317  0.500000  1
  Co  Co10  1  0.718683  0.718683  0.500000  1
  Co  Co11  1  0.629904  0.804144  0.000000  1
  Co  Co12  1  0.195856  0.825760  0.000000  1
  Co  Co13  1  0.174240  0.370096  0.000000  1
  Co  Co14  1  0.370096  0.174240  0.000000  1
  Co  Co15  1  0.804144  0.629904  0.000000  1
  Co  Co16  1  0.825760  0.195856  0.000000  1
  Co  Co17  1  0.522332  0.874404  0.500000  1
  Co  Co18  1  0.125596  0.647928  0.500000  1
  Co  Co19  1  0.352072  0.477668  0.500000  1
  Co  Co20  1  0.477668  0.352072  0.500000  1
  Co  Co21  1  0.874404  0.522332  0.500000  1
  Co  Co22  1  0.647928  0.125596  0.500000  1
  Co  Co23  1  0.000000  0.000000  0.000000  1
  P  P24  1  0.174811  0.000000  0.000000  1
  P  P25  1  0.000000  0.174811  0.000000  1
  P  P26  1  0.825189  0.825189  0.000000  1
  P  P27  1  0.511308  0.681712  0.500000  1
  P  P28  1  0.318288  0.829595  0.500000  1
  P  P29  1  0.170405  0.488692  0.500000  1
  P  P30  1  0.488692  0.170405  0.500000  1
  P  P31  1  0.681712  0.511308  0.500000  1
  P  P32  1  0.829595  0.318288  0.500000  1
  P  P33  1  0.643139  0.000000  0.000000  1
  P  P34  1  0.000000  0.643139  0.000000  1
  P  P35  1  0.356861  0.356861  0.000000  1
