# generated using pymatgen
data_CePr(Re2Si)4
_symmetry_space_group_name_H-M   'P 1'
_cell_length_a   4.16043800
_cell_length_b   7.30646365
_cell_length_c   15.60217862
_cell_angle_alpha   89.97976269
_cell_angle_beta   90.00000000
_cell_angle_gamma   90.00000000
_symmetry_Int_Tables_number   1
_chemical_formula_structural   CePr(Re2Si)4
_chemical_formula_sum   'Ce2 Pr2 Re16 Si8'
_cell_volume   474.27638504
_cell_formula_units_Z   2
loop_
 _symmetry_equiv_pos_site_id
 _symmetry_equiv_pos_as_xyz
  1  'x, y, z'
loop_
 _atom_site_type_symbol
 _atom_site_label
 _atom_site_symmetry_multiplicity
 _atom_site_fract_x
 _atom_site_fract_y
 _atom_site_fract_z
 _atom_site_occupancy
  Ce  Ce0  1  0.000000  0.583420  0.118353  1
  Ce  Ce1  1  0.000000  0.416580  0.881647  1
  Pr  Pr2  1  0.500000  0.081669  0.381494  1
  Pr  Pr3  1  0.500000  0.918331  0.618506  1
  Re  Re4  1  0.000000  0.143608  0.050194  1
  Re  Re5  1  0.000000  0.856392  0.949806  1
  Re  Re6  1  0.500000  0.639210  0.448100  1
  Re  Re7  1  0.500000  0.360790  0.551900  1
  Re  Re8  1  0.000000  0.733965  0.319795  1
  Re  Re9  1  0.000000  0.266035  0.680205  1
  Re  Re10  1  0.500000  0.238242  0.177905  1
  Re  Re11  1  0.500000  0.761758  0.822095  1
  Re  Re12  1  0.000000  0.432650  0.418632  1
  Re  Re13  1  0.000000  0.567350  0.581368  1
  Re  Re14  1  0.500000  0.929023  0.080655  1
  Re  Re15  1  0.500000  0.070977  0.919345  1
  Re  Re16  1  0.000000  0.994042  0.204684  1
  Re  Re17  1  0.000000  0.005958  0.795316  1
  Re  Re18  1  0.500000  0.495607  0.293275  1
  Re  Re19  1  0.500000  0.504393  0.706725  1
  Si  Si20  1  0.000000  0.827114  0.474773  1
  Si  Si21  1  0.000000  0.172886  0.525227  1
  Si  Si22  1  0.500000  0.331241  0.024307  1
  Si  Si23  1  0.500000  0.668759  0.975693  1
  Si  Si24  1  0.000000  0.297528  0.272775  1
  Si  Si25  1  0.000000  0.702472  0.727225  1
  Si  Si26  1  0.500000  0.798341  0.225757  1
  Si  Si27  1  0.500000  0.201659  0.774243  1
