# generated using pymatgen
data_Pr3Er13Cd4OsPt3
_symmetry_space_group_name_H-M   'P 1'
_cell_length_a   9.68325114
_cell_length_b   9.68603110
_cell_length_c   9.69286462
_cell_angle_alpha   59.88164833
_cell_angle_beta   59.75670388
_cell_angle_gamma   59.43605129
_symmetry_Int_Tables_number   1
_chemical_formula_structural   Pr3Er13Cd4OsPt3
_chemical_formula_sum   'Pr3 Er13 Cd4 Os1 Pt3'
_cell_volume   638.31579021
_cell_formula_units_Z   1
loop_
 _symmetry_equiv_pos_site_id
 _symmetry_equiv_pos_as_xyz
  1  'x, y, z'
loop_
 _atom_site_type_symbol
 _atom_site_label
 _atom_site_symmetry_multiplicity
 _atom_site_fract_x
 _atom_site_fract_y
 _atom_site_fract_z
 _atom_site_occupancy
  Pr  Pr0  1  0.938756  0.557194  0.938108  1
  Pr  Pr1  1  0.566767  0.571161  0.931987  1
  Pr  Pr2  1  0.935281  0.935578  0.559141  1
  Er  Er3  1  0.352668  0.351718  0.349933  1
  Er  Er4  1  0.352385  0.351486  0.949614  1
  Er  Er5  1  0.349757  0.947938  0.352423  1
  Er  Er6  1  0.948247  0.347099  0.352458  1
  Er  Er7  1  0.817403  0.183446  0.188666  1
  Er  Er8  1  0.189550  0.811866  0.812239  1
  Er  Er9  1  0.186994  0.817144  0.187455  1
  Er  Er10  1  0.811290  0.185015  0.811763  1
  Er  Er11  1  0.189719  0.186523  0.815238  1
  Er  Er12  1  0.810658  0.811366  0.186230  1
  Er  Er13  1  0.938473  0.561247  0.555249  1
  Er  Er14  1  0.547082  0.946858  0.942645  1
  Er  Er15  1  0.561345  0.940205  0.560194  1
  Cd  Cd16  1  0.583197  0.580876  0.577675  1
  Cd  Cd17  1  0.576985  0.582781  0.259111  1
  Cd  Cd18  1  0.576806  0.254824  0.583536  1
  Cd  Cd19  1  0.259671  0.575584  0.579107  1
  Os  Os20  1  0.148715  0.142276  0.140543  1
  Pt  Pt21  1  0.145023  0.144820  0.573454  1
  Pt  Pt22  1  0.140692  0.572573  0.147449  1
  Pt  Pt23  1  0.572540  0.140426  0.145784  1
