# generated using pymatgen
data_Ho2Er8Si16Pd
_symmetry_space_group_name_H-M   'P 1'
_cell_length_a   11.03585231
_cell_length_b   11.04722394
_cell_length_c   11.03585234
_cell_angle_alpha   144.76818015
_cell_angle_beta   136.44507455
_cell_angle_gamma   57.19223122
_symmetry_Int_Tables_number   1
_chemical_formula_structural   Ho2Er8Si16Pd
_chemical_formula_sum   'Ho2 Er8 Si16 Pd1'
_cell_volume   530.54522039
_cell_formula_units_Z   1
loop_
 _symmetry_equiv_pos_site_id
 _symmetry_equiv_pos_as_xyz
  1  'x, y, z'
loop_
 _atom_site_type_symbol
 _atom_site_label
 _atom_site_symmetry_multiplicity
 _atom_site_fract_x
 _atom_site_fract_y
 _atom_site_fract_z
 _atom_site_occupancy
  Ho  Ho0  1  0.249114  0.763309  0.010826  1
  Ho  Ho1  1  0.752484  0.763309  0.514197  1
  Er  Er2  1  0.051824  0.563473  0.016006  1
  Er  Er3  1  0.352056  0.371304  0.521713  1
  Er  Er4  1  0.151817  0.166529  0.520618  1
  Er  Er5  1  0.451570  0.963078  0.014843  1
  Er  Er6  1  0.645912  0.166529  0.014713  1
  Er  Er7  1  0.948234  0.963078  0.511506  1
  Er  Er8  1  0.849590  0.371304  0.019248  1
  Er  Er9  1  0.547467  0.563473  0.511649  1
  Si  Si10  1  0.118327  0.079165  0.960836  1
  Si  Si11  1  0.798151  0.182337  0.384187  1
  Si  Si12  1  0.300465  0.899132  0.598668  1
  Si  Si13  1  0.399872  0.501085  0.101213  1
  Si  Si14  1  0.884317  0.847768  0.963451  1
  Si  Si15  1  0.104290  0.709077  0.604787  1
  Si  Si16  1  0.200483  0.584567  0.384082  1
  Si  Si17  1  0.698022  0.293427  0.595406  1
  Si  Si18  1  0.999851  0.433222  0.433372  1
  Si  Si19  1  0.714293  0.668167  0.953874  1
  Si  Si20  1  0.600659  0.702111  0.101452  1
  Si  Si21  1  0.000362  0.085172  0.084810  1
  Si  Si22  1  0.501024  0.391688  0.890665  1
  Si  Si23  1  0.285481  0.240890  0.955410  1
  Si  Si24  1  0.582985  0.040845  0.457859  1
  Si  Si25  1  0.415356  0.872356  0.457000  1
  Pd  Pd26  1  0.895994  0.502521  0.606527  1
