# generated using pymatgen
data_SmHo5Tc2
_symmetry_space_group_name_H-M   'P 1'
_cell_length_a   6.23660200
_cell_length_b   7.42671500
_cell_length_c   9.12557300
_cell_angle_alpha   90.00000000
_cell_angle_beta   90.00000000
_cell_angle_gamma   90.00000000
_symmetry_Int_Tables_number   1
_chemical_formula_structural   SmHo5Tc2
_chemical_formula_sum   'Sm2 Ho10 Tc4'
_cell_volume   422.67341371
_cell_formula_units_Z   2
loop_
 _symmetry_equiv_pos_site_id
 _symmetry_equiv_pos_as_xyz
  1  'x, y, z'
loop_
 _atom_site_type_symbol
 _atom_site_label
 _atom_site_symmetry_multiplicity
 _atom_site_fract_x
 _atom_site_fract_y
 _atom_site_fract_z
 _atom_site_occupancy
  Sm  Sm0  1  0.874729  0.540645  0.250000  1
  Sm  Sm1  1  0.625271  0.040645  0.250000  1
  Ho  Ho2  1  0.341427  0.676271  0.061127  1
  Ho  Ho3  1  0.158573  0.176271  0.438873  1
  Ho  Ho4  1  0.657928  0.324278  0.564525  1
  Ho  Ho5  1  0.842072  0.824278  0.935475  1
  Ho  Ho6  1  0.657928  0.324278  0.935475  1
  Ho  Ho7  1  0.842072  0.824278  0.564525  1
  Ho  Ho8  1  0.341427  0.676271  0.438873  1
  Ho  Ho9  1  0.158573  0.176271  0.061127  1
  Ho  Ho10  1  0.125713  0.458794  0.750000  1
  Ho  Ho11  1  0.374287  0.958794  0.750000  1
  Tc  Tc12  1  0.046149  0.884770  0.250000  1
  Tc  Tc13  1  0.453851  0.384770  0.250000  1
  Tc  Tc14  1  0.958918  0.114695  0.750000  1
  Tc  Tc15  1  0.541082  0.614695  0.750000  1
