# generated using pymatgen
data_Ca2Nd2RuRh3O14
_symmetry_space_group_name_H-M   'P 1'
_cell_length_a   7.31077509
_cell_length_b   7.25666837
_cell_length_c   7.34938741
_cell_angle_alpha   60.41645285
_cell_angle_beta   60.73715442
_cell_angle_gamma   60.24450580
_symmetry_Int_Tables_number   1
_chemical_formula_structural   Ca2Nd2RuRh3O14
_chemical_formula_sum   'Ca2 Nd2 Ru1 Rh3 O14'
_cell_volume   278.59399677
_cell_formula_units_Z   1
loop_
 _symmetry_equiv_pos_site_id
 _symmetry_equiv_pos_as_xyz
  1  'x, y, z'
loop_
 _atom_site_type_symbol
 _atom_site_label
 _atom_site_symmetry_multiplicity
 _atom_site_fract_x
 _atom_site_fract_y
 _atom_site_fract_z
 _atom_site_occupancy
  Ca  Ca0  1  0.625000  0.125000  0.625000  1
  Ca  Ca1  1  0.625000  0.625000  0.625000  1
  Nd  Nd2  1  0.625000  0.625000  0.125000  1
  Nd  Nd3  1  0.125000  0.625000  0.625000  1
  Ru  Ru4  1  0.125000  0.125000  0.625000  1
  Rh  Rh5  1  0.625000  0.125000  0.125000  1
  Rh  Rh6  1  0.125000  0.625000  0.125000  1
  Rh  Rh7  1  0.125000  0.125000  0.125000  1
  O  O8  1  0.196922  0.200099  0.799319  1
  O  O9  1  0.204021  0.792543  0.210891  1
  O  O10  1  0.453170  0.048983  0.042992  1
  O  O11  1  0.196922  0.803661  0.799319  1
  O  O12  1  0.053078  0.446339  0.450681  1
  O  O13  1  0.796830  0.795144  0.207008  1
  O  O14  1  0.453170  0.454856  0.042992  1
  O  O15  1  0.502458  0.497635  0.502273  1
  O  O16  1  0.053078  0.049901  0.450681  1
  O  O17  1  0.438935  0.056680  0.447705  1
  O  O18  1  0.045979  0.457457  0.039109  1
  O  O19  1  0.747542  0.752365  0.747727  1
  O  O20  1  0.811065  0.193320  0.802295  1
  O  O21  1  0.796830  0.201017  0.207008  1
