# generated using pymatgen
data_Ba8Cu3Si12Hg
_symmetry_space_group_name_H-M   'P 1'
_cell_length_a   12.21817431
_cell_length_b   10.65272412
_cell_length_c   8.43752688
_cell_angle_alpha   78.67013300
_cell_angle_beta   58.68202112
_cell_angle_gamma   42.84304741
_symmetry_Int_Tables_number   1
_chemical_formula_structural   Ba8Cu3Si12Hg
_chemical_formula_sum   'Ba8 Cu3 Si12 Hg1'
_cell_volume   604.87121416
_cell_formula_units_Z   1
loop_
 _symmetry_equiv_pos_site_id
 _symmetry_equiv_pos_as_xyz
  1  'x, y, z'
loop_
 _atom_site_type_symbol
 _atom_site_label
 _atom_site_symmetry_multiplicity
 _atom_site_fract_x
 _atom_site_fract_y
 _atom_site_fract_z
 _atom_site_occupancy
  Ba  Ba0  1  0.124720  0.120563  0.379066  1
  Ba  Ba1  1  0.873986  0.882857  0.124107  1
  Ba  Ba2  1  0.124998  0.119465  0.873316  1
  Ba  Ba3  1  0.378671  0.374616  0.125673  1
  Ba  Ba4  1  0.617408  0.625788  0.380421  1
  Ba  Ba5  1  0.379969  0.376229  0.617954  1
  Ba  Ba6  1  0.624816  0.623945  0.875299  1
  Ba  Ba7  1  0.875116  0.876604  0.624373  1
  Cu  Cu8  1  0.167266  0.832799  0.166828  1
  Cu  Cu9  1  0.417645  0.082316  0.416070  1
  Cu  Cu10  1  0.832951  0.167356  0.833122  1
  Si  Si11  1  0.332646  0.662445  0.833090  1
  Si  Si12  1  0.170607  0.830478  0.664371  1
  Si  Si13  1  0.833460  0.172719  0.332183  1
  Si  Si14  1  0.664872  0.335052  0.169919  1
  Si  Si15  1  0.908239  0.596122  0.435248  1
  Si  Si16  1  0.082457  0.411944  0.585253  1
  Si  Si17  1  0.433573  0.060097  0.909368  1
  Si  Si18  1  0.908187  0.594438  0.906193  1
  Si  Si19  1  0.664508  0.334199  0.666628  1
  Si  Si20  1  0.333641  0.665043  0.334408  1
  Si  Si21  1  0.583442  0.918616  0.580290  1
  Si  Si22  1  0.584421  0.919173  0.083014  1
  Hg  Hg23  1  0.082397  0.417139  0.083810  1
