# generated using pymatgen
data_Ti3BeTc3AsP
_symmetry_space_group_name_H-M   'P 1'
_cell_length_a   6.64332700
_cell_length_b   6.64332680
_cell_length_c   3.25751000
_cell_angle_alpha   90.00000000
_cell_angle_beta   90.00000000
_cell_angle_gamma   119.99999604
_symmetry_Int_Tables_number   1
_chemical_formula_structural   Ti3BeTc3AsP
_chemical_formula_sum   'Ti3 Be1 Tc3 As1 P1'
_cell_volume   124.50524670
_cell_formula_units_Z   1
loop_
 _symmetry_equiv_pos_site_id
 _symmetry_equiv_pos_as_xyz
  1  'x, y, z'
loop_
 _atom_site_type_symbol
 _atom_site_label
 _atom_site_symmetry_multiplicity
 _atom_site_fract_x
 _atom_site_fract_y
 _atom_site_fract_z
 _atom_site_occupancy
  Ti  Ti0  1  0.386043  0.400604  0.500000  1
  Ti  Ti1  1  0.599396  0.985439  0.500000  1
  Ti  Ti2  1  0.014561  0.613957  0.500000  1
  Be  Be3  1  0.000000  0.000000  0.500000  1
  Tc  Tc4  1  0.745740  0.751846  0.000000  1
  Tc  Tc5  1  0.248154  0.993894  0.000000  1
  Tc  Tc6  1  0.006106  0.254260  0.000000  1
  As  As7  1  0.666667  0.333333  0.000000  1
  P  P8  1  0.333333  0.666667  0.000000  1
