# generated using pymatgen
data_Eu2Zn21Co
_symmetry_space_group_name_H-M   'P 1'
_cell_length_a   8.27132647
_cell_length_b   8.26974414
_cell_length_c   8.27132700
_cell_angle_alpha   100.21383672
_cell_angle_beta   99.83296816
_cell_angle_gamma   130.69708329
_symmetry_Int_Tables_number   1
_chemical_formula_structural   Eu2Zn21Co
_chemical_formula_sum   'Eu2 Zn21 Co1'
_cell_volume   389.81661885
_cell_formula_units_Z   1
loop_
 _symmetry_equiv_pos_site_id
 _symmetry_equiv_pos_as_xyz
  1  'x, y, z'
loop_
 _atom_site_type_symbol
 _atom_site_label
 _atom_site_symmetry_multiplicity
 _atom_site_fract_x
 _atom_site_fract_y
 _atom_site_fract_z
 _atom_site_occupancy
  Eu  Eu0  1  0.998529  0.000527  0.001998  1
  Eu  Eu1  1  0.251471  0.749473  0.498002  1
  Zn  Zn2  1  0.740518  0.251731  0.511213  1
  Zn  Zn3  1  0.509482  0.498269  0.988787  1
  Zn  Zn4  1  0.125000  0.375000  0.750000  1
  Zn  Zn5  1  0.625000  0.875000  0.250000  1
  Zn  Zn6  1  0.625000  0.375000  0.250000  1
  Zn  Zn7  1  0.182912  0.509601  0.083980  1
  Zn  Zn8  1  0.192690  0.101825  0.671244  1
  Zn  Zn9  1  0.762979  0.932270  0.587241  1
  Zn  Zn10  1  0.755952  0.183083  0.822595  1
  Zn  Zn11  1  0.425621  0.509601  0.326690  1
  Zn  Zn12  1  0.430582  0.101825  0.909135  1
  Zn  Zn13  1  0.345029  0.932270  0.169291  1
  Zn  Zn14  1  0.360487  0.183083  0.427131  1
  Zn  Zn15  1  0.067088  0.240399  0.416020  1
  Zn  Zn16  1  0.057310  0.648175  0.828756  1
  Zn  Zn17  1  0.487021  0.817730  0.912759  1
  Zn  Zn18  1  0.494048  0.566917  0.677405  1
  Zn  Zn19  1  0.824379  0.240399  0.173310  1
  Zn  Zn20  1  0.819418  0.648175  0.590865  1
  Zn  Zn21  1  0.904971  0.817730  0.330709  1
  Zn  Zn22  1  0.889513  0.566917  0.072869  1
  Co  Co23  1  0.625000  0.375000  0.750000  1
