# generated using pymatgen
data_Pr3Nd5Se12
_symmetry_space_group_name_H-M   'P 1'
_cell_length_a   7.87874713
_cell_length_b   4.22566000
_cell_length_c   16.43214527
_cell_angle_alpha   90.00000000
_cell_angle_beta   90.02067916
_cell_angle_gamma   90.00000000
_symmetry_Int_Tables_number   1
_chemical_formula_structural   Pr3Nd5Se12
_chemical_formula_sum   'Pr3 Nd5 Se12'
_cell_volume   547.07384184
_cell_formula_units_Z   1
loop_
 _symmetry_equiv_pos_site_id
 _symmetry_equiv_pos_as_xyz
  1  'x, y, z'
loop_
 _atom_site_type_symbol
 _atom_site_label
 _atom_site_symmetry_multiplicity
 _atom_site_fract_x
 _atom_site_fract_y
 _atom_site_fract_z
 _atom_site_occupancy
  Pr  Pr0  1  0.357743  0.499999  0.703667  1
  Pr  Pr1  1  0.857565  0.499999  0.796194  1
  Pr  Pr2  1  0.266396  0.000000  0.956485  1
  Nd  Nd3  1  0.733682  0.499999  0.043974  1
  Nd  Nd4  1  0.142603  0.000000  0.204146  1
  Nd  Nd5  1  0.642776  0.000000  0.296074  1
  Nd  Nd6  1  0.233486  0.499999  0.456086  1
  Nd  Nd7  1  0.766483  0.000000  0.543562  1
  Se  Se8  1  0.123609  0.499999  0.067947  1
  Se  Se9  1  0.507956  0.000000  0.109840  1
  Se  Se10  1  0.853084  0.499999  0.218699  1
  Se  Se11  1  0.353160  0.499999  0.281366  1
  Se  Se12  1  0.007408  0.000000  0.390558  1
  Se  Se13  1  0.624277  0.499999  0.432748  1
  Se  Se14  1  0.375735  0.000000  0.566481  1
  Se  Se15  1  0.992329  0.499999  0.608969  1
  Se  Se16  1  0.646674  0.000000  0.718115  1
  Se  Se17  1  0.146107  0.000000  0.781222  1
  Se  Se18  1  0.494124  0.499999  0.890466  1
  Se  Se19  1  0.874793  0.000000  0.933402  1
