# generated using pymatgen
data_NdDy3(TcB4)4
_symmetry_space_group_name_H-M   'P 1'
_cell_length_a   5.99641816
_cell_length_b   11.61349102
_cell_length_c   3.61747200
_cell_angle_alpha   90.00000000
_cell_angle_beta   90.00000000
_cell_angle_gamma   89.88297267
_symmetry_Int_Tables_number   1
_chemical_formula_structural   NdDy3(TcB4)4
_chemical_formula_sum   'Nd1 Dy3 Tc4 B16'
_cell_volume   251.91786769
_cell_formula_units_Z   1
loop_
 _symmetry_equiv_pos_site_id
 _symmetry_equiv_pos_as_xyz
  1  'x, y, z'
loop_
 _atom_site_type_symbol
 _atom_site_label
 _atom_site_symmetry_multiplicity
 _atom_site_fract_x
 _atom_site_fract_y
 _atom_site_fract_z
 _atom_site_occupancy
  Nd  Nd0  1  0.626457  0.349738  0.000000  1
  Dy  Dy1  1  0.373742  0.650252  0.000000  1
  Dy  Dy2  1  0.126274  0.148824  0.000000  1
  Dy  Dy3  1  0.873654  0.850206  0.000000  1
  Tc  Tc4  1  0.632967  0.085309  0.000000  1
  Tc  Tc5  1  0.366752  0.911898  0.000000  1
  Tc  Tc6  1  0.132447  0.413550  0.000000  1
  Tc  Tc7  1  0.868136  0.589432  0.000000  1
  B  B8  1  0.786463  0.182706  0.500000  1
  B  B9  1  0.213968  0.814928  0.500000  1
  B  B10  1  0.282534  0.314739  0.500000  1
  B  B11  1  0.714131  0.685939  0.500000  1
  B  B12  1  0.863730  0.030367  0.500000  1
  B  B13  1  0.136208  0.967687  0.500000  1
  B  B14  1  0.362222  0.470203  0.500000  1
  B  B15  1  0.637723  0.533907  0.500000  1
  B  B16  1  0.889823  0.455264  0.500000  1
  B  B17  1  0.113871  0.548543  0.500000  1
  B  B18  1  0.385970  0.045711  0.500000  1
  B  B19  1  0.613044  0.952279  0.500000  1
  B  B20  1  0.977278  0.308305  0.500000  1
  B  B21  1  0.024858  0.692982  0.500000  1
  B  B22  1  0.473178  0.189394  0.500000  1
  B  B23  1  0.524567  0.807839  0.500000  1
