# generated using pymatgen
data_Ho12CdCo6
_symmetry_space_group_name_H-M   'P 1'
_cell_length_a   8.28848937
_cell_length_b   8.28848875
_cell_length_c   8.28848900
_cell_angle_alpha   109.47121636
_cell_angle_beta   109.47121484
_cell_angle_gamma   109.47122450
_symmetry_Int_Tables_number   1
_chemical_formula_structural   Ho12CdCo6
_chemical_formula_sum   'Ho12 Cd1 Co6'
_cell_volume   438.33307796
_cell_formula_units_Z   1
loop_
 _symmetry_equiv_pos_site_id
 _symmetry_equiv_pos_as_xyz
  1  'x, y, z'
loop_
 _atom_site_type_symbol
 _atom_site_label
 _atom_site_symmetry_multiplicity
 _atom_site_fract_x
 _atom_site_fract_y
 _atom_site_fract_z
 _atom_site_occupancy
  Ho  Ho0  1  0.805876  0.697434  0.503311  1
  Ho  Ho1  1  0.194124  0.302566  0.496689  1
  Ho  Ho2  1  0.194124  0.697434  0.891558  1
  Ho  Ho3  1  0.805876  0.302566  0.108442  1
  Ho  Ho4  1  0.697434  0.503311  0.805876  1
  Ho  Ho5  1  0.302566  0.496689  0.194124  1
  Ho  Ho6  1  0.697434  0.891558  0.194124  1
  Ho  Ho7  1  0.302566  0.108442  0.805876  1
  Ho  Ho8  1  0.503311  0.805876  0.697434  1
  Ho  Ho9  1  0.496689  0.194124  0.302566  1
  Ho  Ho10  1  0.108442  0.805876  0.302566  1
  Ho  Ho11  1  0.891558  0.194124  0.697434  1
  Cd  Cd12  1  0.000000  0.000000  0.000000  1
  Co  Co13  1  0.885851  0.385851  0.500000  1
  Co  Co14  1  0.114149  0.614149  0.500000  1
  Co  Co15  1  0.385851  0.500000  0.885851  1
  Co  Co16  1  0.614149  0.500000  0.114149  1
  Co  Co17  1  0.500000  0.885851  0.385851  1
  Co  Co18  1  0.500000  0.114149  0.614149  1
