# generated using pymatgen
data_Ti2Fe5(CoP)7
_symmetry_space_group_name_H-M   'P 1'
_cell_length_a   8.84739947
_cell_length_b   8.81850929
_cell_length_c   3.52423100
_cell_angle_alpha   90.00000000
_cell_angle_beta   90.00000000
_cell_angle_gamma   119.96373046
_symmetry_Int_Tables_number   1
_chemical_formula_structural   Ti2Fe5(CoP)7
_chemical_formula_sum   'Ti2 Fe5 Co7 P7'
_cell_volume   238.21243047
_cell_formula_units_Z   1
loop_
 _symmetry_equiv_pos_site_id
 _symmetry_equiv_pos_as_xyz
  1  'x, y, z'
loop_
 _atom_site_type_symbol
 _atom_site_label
 _atom_site_symmetry_multiplicity
 _atom_site_fract_x
 _atom_site_fract_y
 _atom_site_fract_z
 _atom_site_occupancy
  Ti  Ti0  1  0.664095  0.332089  0.500000  1
  Ti  Ti1  1  0.336990  0.667865  0.000000  1
  Fe  Fe2  1  0.387660  0.439361  0.500000  1
  Fe  Fe3  1  0.561181  0.949690  0.500000  1
  Fe  Fe4  1  0.218854  0.093146  0.500000  1
  Fe  Fe5  1  0.873077  0.780064  0.500000  1
  Fe  Fe6  1  0.907886  0.126058  0.500000  1
  Co  Co7  1  0.117112  0.836472  0.000000  1
  Co  Co8  1  0.721710  0.883495  0.000000  1
  Co  Co9  1  0.933960  0.369436  0.000000  1
  Co  Co10  1  0.630878  0.565917  0.000000  1
  Co  Co11  1  0.432727  0.064691  0.000000  1
  Co  Co12  1  0.051859  0.610991  0.500000  1
  Co  Co13  1  0.161579  0.279462  0.000000  1
  P  P14  1  0.000516  0.999511  0.000000  1
  P  P15  1  0.589590  0.712122  0.500000  1
  P  P16  1  0.700913  0.120262  0.000000  1
  P  P17  1  0.878786  0.581754  0.000000  1
  P  P18  1  0.417967  0.298854  0.000000  1
  P  P19  1  0.289148  0.878065  0.500000  1
  P  P20  1  0.123507  0.410697  0.500000  1
