# generated using pymatgen
data_Tb4Ga18CoRu5
_symmetry_space_group_name_H-M   'P 1'
_cell_length_a   7.48828101
_cell_length_b   7.48828708
_cell_length_c   9.71757401
_cell_angle_alpha   90.26323580
_cell_angle_beta   90.26337577
_cell_angle_gamma   119.73399847
_symmetry_Int_Tables_number   1
_chemical_formula_structural   Tb4Ga18CoRu5
_chemical_formula_sum   'Tb4 Ga18 Co1 Ru5'
_cell_volume   473.14337912
_cell_formula_units_Z   1
loop_
 _symmetry_equiv_pos_site_id
 _symmetry_equiv_pos_as_xyz
  1  'x, y, z'
loop_
 _atom_site_type_symbol
 _atom_site_label
 _atom_site_symmetry_multiplicity
 _atom_site_fract_x
 _atom_site_fract_y
 _atom_site_fract_z
 _atom_site_occupancy
  Tb  Tb0  1  0.997932  0.667326  0.249393  1
  Tb  Tb1  1  0.002068  0.332674  0.750607  1
  Tb  Tb2  1  0.667326  0.997932  0.249393  1
  Tb  Tb3  1  0.332674  0.002068  0.750607  1
  Ga  Ga4  1  0.122784  0.122784  0.246130  1
  Ga  Ga5  1  0.877216  0.877216  0.753870  1
  Ga  Ga6  1  0.006306  0.328828  0.073928  1
  Ga  Ga7  1  0.993694  0.671172  0.926072  1
  Ga  Ga8  1  0.992307  0.665343  0.576282  1
  Ga  Ga9  1  0.334657  0.007693  0.423717  1
  Ga  Ga10  1  0.007693  0.334657  0.423718  1
  Ga  Ga11  1  0.665343  0.992307  0.576283  1
  Ga  Ga12  1  0.671172  0.993695  0.926072  1
  Ga  Ga13  1  0.328828  0.006305  0.073928  1
  Ga  Ga14  1  0.338163  0.338163  0.560977  1
  Ga  Ga15  1  0.661837  0.661837  0.439023  1
  Ga  Ga16  1  0.667001  0.667002  0.059076  1
  Ga  Ga17  1  0.332999  0.332998  0.940924  1
  Ga  Ga18  1  0.338186  0.549715  0.249054  1
  Ga  Ga19  1  0.661814  0.450285  0.750946  1
  Ga  Ga20  1  0.549715  0.338186  0.249054  1
  Ga  Ga21  1  0.450285  0.661814  0.750946  1
  Co  Co22  1  0.000000  0.000000  0.000000  1
  Ru  Ru23  1  0.675039  0.324961  0.000000  1
  Ru  Ru24  1  0.324961  0.675039  0.000000  1
  Ru  Ru25  1  0.324737  0.675263  0.500000  1
  Ru  Ru26  1  0.675263  0.324737  0.500000  1
  Ru  Ru27  1  0.000000  0.000000  0.500000  1
