# generated using pymatgen
data_Er16InNi(AgRh)3
_symmetry_space_group_name_H-M   'P 1'
_cell_length_a   9.49577871
_cell_length_b   9.47673081
_cell_length_c   9.49555635
_cell_angle_alpha   59.83094253
_cell_angle_beta   59.86119335
_cell_angle_gamma   59.83087069
_symmetry_Int_Tables_number   1
_chemical_formula_structural   Er16InNi(AgRh)3
_chemical_formula_sum   'Er16 In1 Ni1 Ag3 Rh3'
_cell_volume   602.03881838
_cell_formula_units_Z   1
loop_
 _symmetry_equiv_pos_site_id
 _symmetry_equiv_pos_as_xyz
  1  'x, y, z'
loop_
 _atom_site_type_symbol
 _atom_site_label
 _atom_site_symmetry_multiplicity
 _atom_site_fract_x
 _atom_site_fract_y
 _atom_site_fract_z
 _atom_site_occupancy
  Er  Er0  1  0.187557  0.192273  0.810296  1
  Er  Er1  1  0.436305  0.062040  0.062850  1
  Er  Er2  1  0.435396  0.059078  0.435387  1
  Er  Er3  1  0.064486  0.435897  0.064499  1
  Er  Er4  1  0.647477  0.056195  0.647464  1
  Er  Er5  1  0.189374  0.811637  0.812013  1
  Er  Er6  1  0.062852  0.062037  0.436311  1
  Er  Er7  1  0.810297  0.192262  0.187570  1
  Er  Er8  1  0.812004  0.811626  0.189392  1
  Er  Er9  1  0.651501  0.644436  0.049442  1
  Er  Er10  1  0.653004  0.645935  0.652986  1
  Er  Er11  1  0.061052  0.435357  0.432810  1
  Er  Er12  1  0.049409  0.644455  0.651492  1
  Er  Er13  1  0.812170  0.191696  0.812159  1
  Er  Er14  1  0.432844  0.435360  0.061027  1
  Er  Er15  1  0.189949  0.811200  0.189939  1
  In  In16  1  0.420231  0.422196  0.420210  1
  Ni  Ni17  1  0.857606  0.426754  0.857637  1
  Ag  Ag18  1  0.417777  0.748414  0.417781  1
  Ag  Ag19  1  0.416795  0.418704  0.749655  1
  Ag  Ag20  1  0.749666  0.418708  0.416790  1
  Rh  Rh21  1  0.856447  0.858162  0.428769  1
  Rh  Rh22  1  0.428759  0.858166  0.856464  1
  Rh  Rh23  1  0.857042  0.857409  0.857058  1
