# generated using pymatgen
data_Pr16YLu3Pb16
_symmetry_space_group_name_H-M   'P 1'
_cell_length_a   8.39202919
_cell_length_b   8.51873384
_cell_length_c   16.26320200
_cell_angle_alpha   90.00000000
_cell_angle_beta   90.00000000
_cell_angle_gamma   89.93185023
_symmetry_Int_Tables_number   1
_chemical_formula_structural   Pr16YLu3Pb16
_chemical_formula_sum   'Pr16 Y1 Lu3 Pb16'
_cell_volume   1162.64675566
_cell_formula_units_Z   1
loop_
 _symmetry_equiv_pos_site_id
 _symmetry_equiv_pos_as_xyz
  1  'x, y, z'
loop_
 _atom_site_type_symbol
 _atom_site_label
 _atom_site_symmetry_multiplicity
 _atom_site_fract_x
 _atom_site_fract_y
 _atom_site_fract_z
 _atom_site_occupancy
  Pr  Pr0  1  0.625249  0.157091  0.619981  1
  Pr  Pr1  1  0.125550  0.342983  0.880390  1
  Pr  Pr2  1  0.373746  0.842471  0.119112  1
  Pr  Pr3  1  0.875166  0.656660  0.380843  1
  Pr  Pr4  1  0.373746  0.842471  0.380888  1
  Pr  Pr5  1  0.875166  0.656660  0.119157  1
  Pr  Pr6  1  0.625249  0.157091  0.880019  1
  Pr  Pr7  1  0.125550  0.342983  0.619610  1
  Pr  Pr8  1  0.468657  0.678684  0.599785  1
  Pr  Pr9  1  0.968572  0.821230  0.899932  1
  Pr  Pr10  1  0.531311  0.321859  0.099765  1
  Pr  Pr11  1  0.031375  0.179014  0.400532  1
  Pr  Pr12  1  0.531311  0.321859  0.400235  1
  Pr  Pr13  1  0.031375  0.179014  0.099468  1
  Pr  Pr14  1  0.468657  0.678684  0.900215  1
  Pr  Pr15  1  0.968572  0.821230  0.600068  1
  Y  Y16  1  0.706053  0.996840  0.250000  1
  Lu  Lu17  1  0.793243  0.495674  0.750000  1
  Lu  Lu18  1  0.293002  0.004041  0.750000  1
  Lu  Lu19  1  0.207124  0.504717  0.250000  1
  Pb  Pb20  1  0.717275  0.968190  0.454445  1
  Pb  Pb21  1  0.217913  0.530993  0.046303  1
  Pb  Pb22  1  0.282569  0.031277  0.953162  1
  Pb  Pb23  1  0.782388  0.468332  0.546830  1
  Pb  Pb24  1  0.282569  0.031277  0.546838  1
  Pb  Pb25  1  0.782388  0.468332  0.953170  1
  Pb  Pb26  1  0.717275  0.968190  0.045555  1
  Pb  Pb27  1  0.217913  0.530993  0.453697  1
  Pb  Pb28  1  0.431716  0.375727  0.750000  1
  Pb  Pb29  1  0.931983  0.124882  0.750000  1
  Pb  Pb30  1  0.567988  0.624160  0.250000  1
  Pb  Pb31  1  0.069367  0.874551  0.250000  1
  Pb  Pb32  1  0.659190  0.844934  0.750000  1
  Pb  Pb33  1  0.159072  0.654863  0.750000  1
  Pb  Pb34  1  0.340014  0.155047  0.250000  1
  Pb  Pb35  1  0.841703  0.346999  0.250000  1
