# generated using pymatgen
data_Sr3(AcSn2)2
_symmetry_space_group_name_H-M   'P 1'
_cell_length_a   8.54199200
_cell_length_b   9.03742800
_cell_length_c   17.38857300
_cell_angle_alpha   90.00000000
_cell_angle_beta   90.00000000
_cell_angle_gamma   90.00000000
_symmetry_Int_Tables_number   1
_chemical_formula_structural   Sr3(AcSn2)2
_chemical_formula_sum   'Sr12 Ac8 Sn16'
_cell_volume   1342.35675817
_cell_formula_units_Z   4
loop_
 _symmetry_equiv_pos_site_id
 _symmetry_equiv_pos_as_xyz
  1  'x, y, z'
loop_
 _atom_site_type_symbol
 _atom_site_label
 _atom_site_symmetry_multiplicity
 _atom_site_fract_x
 _atom_site_fract_y
 _atom_site_fract_z
 _atom_site_occupancy
  Sr  Sr0  1  0.483271  0.311422  0.905640  1
  Sr  Sr1  1  0.983271  0.188578  0.594360  1
  Sr  Sr2  1  0.516729  0.688578  0.405640  1
  Sr  Sr3  1  0.016729  0.811422  0.094360  1
  Sr  Sr4  1  0.516729  0.688578  0.094360  1
  Sr  Sr5  1  0.016729  0.811422  0.405640  1
  Sr  Sr6  1  0.483271  0.311422  0.594360  1
  Sr  Sr7  1  0.983271  0.188578  0.905640  1
  Sr  Sr8  1  0.156840  0.480453  0.750000  1
  Sr  Sr9  1  0.656840  0.019547  0.750000  1
  Sr  Sr10  1  0.843160  0.519547  0.250000  1
  Sr  Sr11  1  0.343160  0.980453  0.250000  1
  Ac  Ac12  1  0.321987  0.829713  0.878321  1
  Ac  Ac13  1  0.821987  0.670287  0.621679  1
  Ac  Ac14  1  0.678013  0.170287  0.378322  1
  Ac  Ac15  1  0.178013  0.329713  0.121678  1
  Ac  Ac16  1  0.678013  0.170287  0.121678  1
  Ac  Ac17  1  0.178013  0.329713  0.378322  1
  Ac  Ac18  1  0.321987  0.829713  0.621679  1
  Ac  Ac19  1  0.821987  0.670287  0.878321  1
  Sn  Sn20  1  0.341411  0.032766  0.040869  1
  Sn  Sn21  1  0.841411  0.467234  0.459131  1
  Sn  Sn22  1  0.658589  0.967234  0.540869  1
  Sn  Sn23  1  0.158589  0.532766  0.959131  1
  Sn  Sn24  1  0.658589  0.967234  0.959131  1
  Sn  Sn25  1  0.158589  0.532766  0.540869  1
  Sn  Sn26  1  0.341411  0.032766  0.459131  1
  Sn  Sn27  1  0.841411  0.467234  0.040869  1
  Sn  Sn28  1  0.524500  0.608781  0.750000  1
  Sn  Sn29  1  0.024500  0.891219  0.750000  1
  Sn  Sn30  1  0.475500  0.391219  0.250000  1
  Sn  Sn31  1  0.975500  0.108781  0.250000  1
  Sn  Sn32  1  0.272557  0.122113  0.750000  1
  Sn  Sn33  1  0.772557  0.377887  0.750000  1
  Sn  Sn34  1  0.727443  0.877887  0.250000  1
  Sn  Sn35  1  0.227443  0.622113  0.250000  1
