# generated using pymatgen
data_Er3Lu5(Si4W3)4
_symmetry_space_group_name_H-M   'P 1'
_cell_length_a   6.83734053
_cell_length_b   6.83707633
_cell_length_c   12.66649028
_cell_angle_alpha   89.97014045
_cell_angle_beta   90.02397996
_cell_angle_gamma   90.02877559
_symmetry_Int_Tables_number   1
_chemical_formula_structural   Er3Lu5(Si4W3)4
_chemical_formula_sum   'Er3 Lu5 Si16 W12'
_cell_volume   592.12552275
_cell_formula_units_Z   1
loop_
 _symmetry_equiv_pos_site_id
 _symmetry_equiv_pos_as_xyz
  1  'x, y, z'
loop_
 _atom_site_type_symbol
 _atom_site_label
 _atom_site_symmetry_multiplicity
 _atom_site_fract_x
 _atom_site_fract_y
 _atom_site_fract_z
 _atom_site_occupancy
  Er  Er0  1  0.660292  0.000382  0.968743  1
  Er  Er1  1  0.999730  0.339532  0.531121  1
  Er  Er2  1  0.000310  0.660234  0.031288  1
  Lu  Lu3  1  0.340131  0.999013  0.468914  1
  Lu  Lu4  1  0.501094  0.839642  0.718869  1
  Lu  Lu5  1  0.498819  0.160526  0.219291  1
  Lu  Lu6  1  0.839611  0.501058  0.281243  1
  Lu  Lu7  1  0.160544  0.498752  0.780726  1
  Si  Si8  1  0.202226  0.129139  0.683225  1
  Si  Si9  1  0.370523  0.700943  0.932904  1
  Si  Si10  1  0.629260  0.298271  0.432735  1
  Si  Si11  1  0.700996  0.370536  0.067189  1
  Si  Si12  1  0.299067  0.630694  0.566861  1
  Si  Si13  1  0.798059  0.870700  0.183909  1
  Si  Si14  1  0.130126  0.201333  0.316965  1
  Si  Si15  1  0.870795  0.798071  0.816051  1
  Si  Si16  1  0.288565  0.961819  0.064801  1
  Si  Si17  1  0.538320  0.789822  0.314577  1
  Si  Si18  1  0.461271  0.210917  0.813860  1
  Si  Si19  1  0.789077  0.538659  0.685752  1
  Si  Si20  1  0.210732  0.461030  0.186066  1
  Si  Si21  1  0.710141  0.038258  0.564666  1
  Si  Si22  1  0.961869  0.288513  0.935201  1
  Si  Si23  1  0.038888  0.711627  0.435152  1
  W  W24  1  0.331146  0.331160  0.999952  1
  W  W25  1  0.168784  0.831854  0.250335  1
  W  W26  1  0.831549  0.168500  0.749985  1
  W  W27  1  0.668492  0.669029  0.500008  1
  W  W28  1  0.162940  0.996935  0.873616  1
  W  W29  1  0.501814  0.661102  0.124646  1
  W  W30  1  0.497009  0.338740  0.623628  1
  W  W31  1  0.661051  0.501868  0.875661  1
  W  W32  1  0.339222  0.497412  0.375884  1
  W  W33  1  0.837432  0.003337  0.374099  1
  W  W34  1  0.996944  0.162701  0.126515  1
  W  W35  1  0.003174  0.837891  0.625558  1
