# generated using pymatgen
data_AcSi2TcOs
_symmetry_space_group_name_H-M   'P 1'
_cell_length_a   5.95324626
_cell_length_b   5.95324654
_cell_length_c   5.95324754
_cell_angle_alpha   137.10156012
_cell_angle_beta   137.10154920
_cell_angle_gamma   62.28183496
_symmetry_Int_Tables_number   1
_chemical_formula_structural   AcSi2TcOs
_chemical_formula_sum   'Ac1 Si2 Tc1 Os1'
_cell_volume   96.59125250
_cell_formula_units_Z   1
loop_
 _symmetry_equiv_pos_site_id
 _symmetry_equiv_pos_as_xyz
  1  'x, y, z'
loop_
 _atom_site_type_symbol
 _atom_site_label
 _atom_site_symmetry_multiplicity
 _atom_site_fract_x
 _atom_site_fract_y
 _atom_site_fract_z
 _atom_site_occupancy
  Ac  Ac0  1  0.000000  0.000000  0.000000  1
  Si  Si1  1  0.353471  0.353471  0.000000  1
  Si  Si2  1  0.646529  0.646529  0.000000  1
  Tc  Tc3  1  0.250000  0.750000  0.500000  1
  Os  Os4  1  0.750000  0.250000  0.500000  1
