# generated using pymatgen
data_Pr4Si3Ge
_symmetry_space_group_name_H-M   'P 1'
_cell_length_a   4.01025300
_cell_length_b   5.97518626
_cell_length_c   8.33020636
_cell_angle_alpha   90.03375284
_cell_angle_beta   90.00000000
_cell_angle_gamma   90.00000000
_symmetry_Int_Tables_number   1
_chemical_formula_structural   Pr4Si3Ge
_chemical_formula_sum   'Pr4 Si3 Ge1'
_cell_volume   199.60844201
_cell_formula_units_Z   1
loop_
 _symmetry_equiv_pos_site_id
 _symmetry_equiv_pos_as_xyz
  1  'x, y, z'
loop_
 _atom_site_type_symbol
 _atom_site_label
 _atom_site_symmetry_multiplicity
 _atom_site_fract_x
 _atom_site_fract_y
 _atom_site_fract_z
 _atom_site_occupancy
  Pr  Pr0  1  0.250000  0.384771  0.681897  1
  Pr  Pr1  1  0.750000  0.612991  0.317197  1
  Pr  Pr2  1  0.750000  0.886350  0.821634  1
  Pr  Pr3  1  0.250000  0.114464  0.179812  1
  Si  Si4  1  0.750000  0.127023  0.463184  1
  Si  Si5  1  0.750000  0.380408  0.965053  1
  Si  Si6  1  0.250000  0.619701  0.034727  1
  Ge  Ge7  1  0.250000  0.874293  0.536496  1
