# generated using pymatgen
data_K2Rb4LuInSb4
_symmetry_space_group_name_H-M   'P 1'
_cell_length_a   10.12886393
_cell_length_b   10.12886371
_cell_length_c   10.12886360
_cell_angle_alpha   131.83566563
_cell_angle_beta   66.37134180
_cell_angle_gamma   137.20684025
_symmetry_Int_Tables_number   1
_chemical_formula_structural   K2Rb4LuInSb4
_chemical_formula_sum   'K2 Rb4 Lu1 In1 Sb4'
_cell_volume   517.85232861
_cell_formula_units_Z   1
loop_
 _symmetry_equiv_pos_site_id
 _symmetry_equiv_pos_as_xyz
  1  'x, y, z'
loop_
 _atom_site_type_symbol
 _atom_site_label
 _atom_site_symmetry_multiplicity
 _atom_site_fract_x
 _atom_site_fract_y
 _atom_site_fract_z
 _atom_site_occupancy
  K  K0  1  0.250001  0.250001  0.000000  1
  K  K1  1  0.750000  0.750000  0.000000  1
  Rb  Rb2  1  0.828091  0.289397  0.101777  1
  Rb  Rb3  1  0.671909  0.773685  0.461306  1
  Rb  Rb4  1  0.312379  0.210602  0.538694  1
  Rb  Rb5  1  0.187621  0.726314  0.898223  1
  Lu  Lu6  1  0.750001  0.250001  0.500000  1
  In  In7  1  0.250001  0.750001  0.500000  1
  Sb  Sb8  1  0.396728  0.799181  0.201656  1
  Sb  Sb9  1  0.103272  0.304928  0.402453  1
  Sb  Sb10  1  0.902475  0.700819  0.597547  1
  Sb  Sb11  1  0.597525  0.195072  0.798344  1
