# generated using pymatgen
data_Tb2Ti4Sn5
_symmetry_space_group_name_H-M   'P 1'
_cell_length_a   10.79002312
_cell_length_b   10.79002276
_cell_length_c   10.79002209
_cell_angle_alpha   148.81879821
_cell_angle_beta   131.55682990
_cell_angle_gamma   58.74171551
_symmetry_Int_Tables_number   1
_chemical_formula_structural   Tb2Ti4Sn5
_chemical_formula_sum   'Tb4 Ti8 Sn10'
_cell_volume   482.84747299
_cell_formula_units_Z   2
loop_
 _symmetry_equiv_pos_site_id
 _symmetry_equiv_pos_as_xyz
  1  'x, y, z'
loop_
 _atom_site_type_symbol
 _atom_site_label
 _atom_site_symmetry_multiplicity
 _atom_site_fract_x
 _atom_site_fract_y
 _atom_site_fract_z
 _atom_site_occupancy
  Tb  Tb0  1  0.256551  0.143354  0.113198  1
  Tb  Tb1  1  0.743449  0.856646  0.886802  1
  Tb  Tb2  1  0.030155  0.643354  0.386802  1
  Tb  Tb3  1  0.969845  0.356646  0.613198  1
  Ti  Ti4  1  0.311033  0.561033  0.250000  1
  Ti  Ti5  1  0.688967  0.438967  0.750000  1
  Ti  Ti6  1  0.688967  0.938967  0.250000  1
  Ti  Ti7  1  0.311033  0.061033  0.750000  1
  Ti  Ti8  1  0.675815  0.436452  0.239361  1
  Ti  Ti9  1  0.324185  0.563548  0.760639  1
  Ti  Ti10  1  0.197091  0.936452  0.260639  1
  Ti  Ti11  1  0.802909  0.063548  0.739361  1
  Sn  Sn12  1  0.584318  0.289462  0.294857  1
  Sn  Sn13  1  0.415682  0.710538  0.705143  1
  Sn  Sn14  1  0.994605  0.789462  0.205143  1
  Sn  Sn15  1  0.005395  0.210538  0.794857  1
  Sn  Sn16  1  0.000000  0.250000  0.250000  1
  Sn  Sn17  1  0.000000  0.750000  0.750000  1
  Sn  Sn18  1  0.473482  0.066915  0.406566  1
  Sn  Sn19  1  0.526518  0.933085  0.593434  1
  Sn  Sn20  1  0.660350  0.566915  0.093434  1
  Sn  Sn21  1  0.339650  0.433085  0.906566  1
