# generated using pymatgen
data_Nd6GePBr6
_symmetry_space_group_name_H-M   'P 1'
_cell_length_a   10.38049044
_cell_length_b   10.38059742
_cell_length_c   10.41070723
_cell_angle_alpha   109.46321927
_cell_angle_beta   109.46181006
_cell_angle_gamma   109.37104254
_symmetry_Int_Tables_number   1
_chemical_formula_structural   Nd6GePBr6
_chemical_formula_sum   'Nd12 Ge2 P2 Br12'
_cell_volume   864.82243361
_cell_formula_units_Z   2
loop_
 _symmetry_equiv_pos_site_id
 _symmetry_equiv_pos_as_xyz
  1  'x, y, z'
loop_
 _atom_site_type_symbol
 _atom_site_label
 _atom_site_symmetry_multiplicity
 _atom_site_fract_x
 _atom_site_fract_y
 _atom_site_fract_z
 _atom_site_occupancy
  Nd  Nd0  1  0.473877  0.491491  0.234366  1
  Nd  Nd1  1  0.757126  0.239510  0.265635  1
  Nd  Nd2  1  0.756586  0.017024  0.490342  1
  Nd  Nd3  1  0.233761  0.473321  0.490350  1
  Nd  Nd4  1  0.260489  0.742874  0.234366  1
  Nd  Nd5  1  0.026685  0.266250  0.009656  1
  Nd  Nd6  1  0.008508  0.026124  0.265633  1
  Nd  Nd7  1  0.482975  0.743414  0.009657  1
  Nd  Nd8  1  0.490478  0.240482  0.480957  1
  Nd  Nd9  1  0.016392  0.483600  0.749994  1
  Nd  Nd10  1  0.259519  0.009523  0.019040  1
  Nd  Nd11  1  0.233602  0.266395  0.749999  1
  Ge  Ge12  1  0.249894  0.250108  0.250004  1
  Ge  Ge13  1  0.500104  0.999901  0.250000  1
  P  P14  1  0.000453  0.250451  0.500909  1
  P  P15  1  0.249545  0.499550  0.999090  1
  Br  Br16  1  0.250026  0.753185  0.745020  1
  Br  Br17  1  0.508177  0.505013  0.754988  1
  Br  Br18  1  0.991141  0.744527  0.994898  1
  Br  Br19  1  0.746813  0.249974  0.754980  1
  Br  Br20  1  0.994985  0.991824  0.745017  1
  Br  Br21  1  0.249632  0.996248  0.505103  1
  Br  Br22  1  0.755475  0.508856  0.505103  1
  Br  Br23  1  0.503756  0.250369  0.994893  1
  Br  Br24  1  0.754685  0.745307  0.249998  1
  Br  Br25  1  0.745896  0.995894  0.991788  1
  Br  Br26  1  0.995313  0.504688  0.250003  1
  Br  Br27  1  0.504108  0.754099  0.508207  1
