# generated using pymatgen
data_Y12Ni5Sn
_symmetry_space_group_name_H-M   'P 1'
_cell_length_a   8.38341052
_cell_length_b   8.38341067
_cell_length_c   8.38341202
_cell_angle_alpha   107.26054790
_cell_angle_beta   109.42560305
_cell_angle_gamma   111.75879688
_symmetry_Int_Tables_number   1
_chemical_formula_structural   Y12Ni5Sn
_chemical_formula_sum   'Y12 Ni5 Sn1'
_cell_volume   452.86613333
_cell_formula_units_Z   1
loop_
 _symmetry_equiv_pos_site_id
 _symmetry_equiv_pos_as_xyz
  1  'x, y, z'
loop_
 _atom_site_type_symbol
 _atom_site_label
 _atom_site_symmetry_multiplicity
 _atom_site_fract_x
 _atom_site_fract_y
 _atom_site_fract_z
 _atom_site_occupancy
  Y  Y0  1  0.477225  0.295376  0.181849  1
  Y  Y1  1  0.113528  0.295376  0.818151  1
  Y  Y2  1  0.886472  0.704624  0.181849  1
  Y  Y3  1  0.522775  0.704624  0.818151  1
  Y  Y4  1  0.306025  0.628549  0.322524  1
  Y  Y5  1  0.306025  0.983502  0.677476  1
  Y  Y6  1  0.693975  0.371451  0.677476  1
  Y  Y7  1  0.693975  0.016498  0.322524  1
  Y  Y8  1  0.190819  0.210665  0.401484  1
  Y  Y9  1  0.809181  0.789335  0.598516  1
  Y  Y10  1  0.190819  0.789335  0.980153  1
  Y  Y11  1  0.809181  0.210665  0.019847  1
  Ni  Ni12  1  0.500000  0.623337  0.123337  1
  Ni  Ni13  1  0.500000  0.376663  0.876663  1
  Ni  Ni14  1  0.365156  0.000000  0.365156  1
  Ni  Ni15  1  0.634844  0.000000  0.634844  1
  Ni  Ni16  1  0.000000  0.000000  0.000000  1
  Sn  Sn17  1  0.000000  0.500000  0.500000  1
