# generated using pymatgen
data_Pr11In2Hg7Ir4
_symmetry_space_group_name_H-M   'P 1'
_cell_length_a   13.45451391
_cell_length_b   13.48336304
_cell_length_c   3.91065600
_cell_angle_alpha   90.00000000
_cell_angle_beta   90.00000000
_cell_angle_gamma   113.97761002
_symmetry_Int_Tables_number   1
_chemical_formula_structural   Pr11In2Hg7Ir4
_chemical_formula_sum   'Pr11 In2 Hg7 Ir4'
_cell_volume   648.21867572
_cell_formula_units_Z   1
loop_
 _symmetry_equiv_pos_site_id
 _symmetry_equiv_pos_as_xyz
  1  'x, y, z'
loop_
 _atom_site_type_symbol
 _atom_site_label
 _atom_site_symmetry_multiplicity
 _atom_site_fract_x
 _atom_site_fract_y
 _atom_site_fract_z
 _atom_site_occupancy
  Pr  Pr0  1  0.501041  0.501326  0.500000  1
  Pr  Pr1  1  0.802037  0.803083  0.500000  1
  Pr  Pr2  1  0.193999  0.190685  0.500000  1
  Pr  Pr3  1  0.586810  0.919357  0.500000  1
  Pr  Pr4  1  0.415392  0.083319  0.500000  1
  Pr  Pr5  1  0.917576  0.586480  0.500000  1
  Pr  Pr6  1  0.078683  0.415602  0.500000  1
  Pr  Pr7  1  0.126768  0.871027  0.500000  1
  Pr  Pr8  1  0.874597  0.128782  0.500000  1
  Pr  Pr9  1  0.335786  0.663592  0.500000  1
  Pr  Pr10  1  0.664897  0.335922  0.500000  1
  In  In11  1  0.283123  0.426728  0.000000  1
  In  In12  1  0.999035  0.998639  0.000000  1
  Hg  Hg13  1  0.350414  0.867999  0.000000  1
  Hg  Hg14  1  0.650395  0.132898  0.000000  1
  Hg  Hg15  1  0.863612  0.348969  0.000000  1
  Hg  Hg16  1  0.134292  0.649786  0.000000  1
  Hg  Hg17  1  0.564461  0.714294  0.000000  1
  Hg  Hg18  1  0.432086  0.287927  0.000000  1
  Hg  Hg19  1  0.714564  0.565731  0.000000  1
  Ir  Ir20  1  0.758950  0.953011  0.000000  1
  Ir  Ir21  1  0.243871  0.047487  0.000000  1
  Ir  Ir22  1  0.947792  0.757059  0.000000  1
  Ir  Ir23  1  0.059821  0.250297  0.000000  1
