# generated using pymatgen
data_Nd5Zr3(P3Ir4)4
_symmetry_space_group_name_H-M   'P 1'
_cell_length_a   12.95678700
_cell_length_b   12.95678752
_cell_length_c   4.03680000
_cell_angle_alpha   90.00000000
_cell_angle_beta   90.00000000
_cell_angle_gamma   120.00000124
_symmetry_Int_Tables_number   1
_chemical_formula_structural   Nd5Zr3(P3Ir4)4
_chemical_formula_sum   'Nd5 Zr3 P12 Ir16'
_cell_volume   586.89784577
_cell_formula_units_Z   1
loop_
 _symmetry_equiv_pos_site_id
 _symmetry_equiv_pos_as_xyz
  1  'x, y, z'
loop_
 _atom_site_type_symbol
 _atom_site_label
 _atom_site_symmetry_multiplicity
 _atom_site_fract_x
 _atom_site_fract_y
 _atom_site_fract_z
 _atom_site_occupancy
  Nd  Nd0  1  0.333333  0.666667  0.500000  1
  Nd  Nd1  1  0.666667  0.333333  0.500000  1
  Nd  Nd2  1  0.000000  0.814615  0.000000  1
  Nd  Nd3  1  0.185385  0.185385  0.000000  1
  Nd  Nd4  1  0.814615  0.000000  0.000000  1
  Zr  Zr5  1  0.000000  0.448292  0.500000  1
  Zr  Zr6  1  0.551708  0.551708  0.500000  1
  Zr  Zr7  1  0.448292  0.000000  0.500000  1
  P  P8  1  0.000000  0.646623  0.500000  1
  P  P9  1  0.353377  0.353377  0.500000  1
  P  P10  1  0.646623  0.000000  0.500000  1
  P  P11  1  0.518512  0.686770  0.000000  1
  P  P12  1  0.313230  0.831742  0.000000  1
  P  P13  1  0.168258  0.481488  0.000000  1
  P  P14  1  0.481488  0.168258  0.000000  1
  P  P15  1  0.686770  0.518512  0.000000  1
  P  P16  1  0.831742  0.313230  0.000000  1
  P  P17  1  0.000000  0.177350  0.500000  1
  P  P18  1  0.822650  0.822650  0.500000  1
  P  P19  1  0.177350  0.000000  0.500000  1
  Ir  Ir20  1  0.509825  0.866305  0.000000  1
  Ir  Ir21  1  0.133695  0.643521  0.000000  1
  Ir  Ir22  1  0.356479  0.490175  0.000000  1
  Ir  Ir23  1  0.490175  0.356479  0.000000  1
  Ir  Ir24  1  0.866305  0.509825  0.000000  1
  Ir  Ir25  1  0.643521  0.133695  0.000000  1
  Ir  Ir26  1  0.000000  0.281362  0.000000  1
  Ir  Ir27  1  0.718638  0.718638  0.000000  1
  Ir  Ir28  1  0.281362  0.000000  0.000000  1
  Ir  Ir29  1  0.627196  0.805051  0.500000  1
  Ir  Ir30  1  0.194949  0.822144  0.500000  1
  Ir  Ir31  1  0.177856  0.372804  0.500000  1
  Ir  Ir32  1  0.372804  0.177856  0.500000  1
  Ir  Ir33  1  0.805051  0.627196  0.500000  1
  Ir  Ir34  1  0.822144  0.194949  0.500000  1
  Ir  Ir35  1  0.000000  0.000000  0.500000  1
