# generated using pymatgen
data_Yb6DyHo(Cu2Sn5)2
_symmetry_space_group_name_H-M   'P 1'
_cell_length_a   4.44040700
_cell_length_b   8.81913200
_cell_length_c   14.08342500
_cell_angle_alpha   90.00000000
_cell_angle_beta   90.00000000
_cell_angle_gamma   90.00000000
_symmetry_Int_Tables_number   1
_chemical_formula_structural   Yb6DyHo(Cu2Sn5)2
_chemical_formula_sum   'Yb6 Dy1 Ho1 Cu4 Sn10'
_cell_volume   551.51446421
_cell_formula_units_Z   1
loop_
 _symmetry_equiv_pos_site_id
 _symmetry_equiv_pos_as_xyz
  1  'x, y, z'
loop_
 _atom_site_type_symbol
 _atom_site_label
 _atom_site_symmetry_multiplicity
 _atom_site_fract_x
 _atom_site_fract_y
 _atom_site_fract_z
 _atom_site_occupancy
  Yb  Yb0  1  0.500000  0.792652  0.742433  1
  Yb  Yb1  1  0.000000  0.207341  0.757583  1
  Yb  Yb2  1  0.000000  0.207341  0.242417  1
  Yb  Yb3  1  0.500000  0.136960  0.000000  1
  Yb  Yb4  1  0.000000  0.862982  0.500000  1
  Yb  Yb5  1  0.500000  0.792652  0.257567  1
  Dy  Dy6  1  0.000000  0.300864  0.500000  1
  Ho  Ho7  1  0.500000  0.699090  0.000000  1
  Cu  Cu8  1  0.500000  0.378043  0.644545  1
  Cu  Cu9  1  0.000000  0.622003  0.855535  1
  Cu  Cu10  1  0.000000  0.622003  0.144465  1
  Cu  Cu11  1  0.500000  0.378043  0.355455  1
  Sn  Sn12  1  0.500000  0.085521  0.395882  1
  Sn  Sn13  1  0.000000  0.555080  0.663747  1
  Sn  Sn14  1  0.000000  0.407051  0.000000  1
  Sn  Sn15  1  0.500000  0.444990  0.163692  1
  Sn  Sn16  1  0.500000  0.593027  0.500000  1
  Sn  Sn17  1  0.500000  0.444990  0.836308  1
  Sn  Sn18  1  0.000000  0.914383  0.895943  1
  Sn  Sn19  1  0.000000  0.555080  0.336253  1
  Sn  Sn20  1  0.500000  0.085521  0.604118  1
  Sn  Sn21  1  0.000000  0.914383  0.104057  1
