# generated using pymatgen
data_NdLu19(Bi2Ir)4
_symmetry_space_group_name_H-M   'P 1'
_cell_length_a   7.81672342
_cell_length_b   8.93108000
_cell_length_c   12.33126200
_cell_angle_alpha   90.00000000
_cell_angle_beta   90.03447984
_cell_angle_gamma   90.00000000
_symmetry_Int_Tables_number   1
_chemical_formula_structural   NdLu19(Bi2Ir)4
_chemical_formula_sum   'Nd1 Lu19 Bi8 Ir4'
_cell_volume   860.86722063
_cell_formula_units_Z   1
loop_
 _symmetry_equiv_pos_site_id
 _symmetry_equiv_pos_as_xyz
  1  'x, y, z'
loop_
 _atom_site_type_symbol
 _atom_site_label
 _atom_site_symmetry_multiplicity
 _atom_site_fract_x
 _atom_site_fract_y
 _atom_site_fract_z
 _atom_site_occupancy
  Nd  Nd0  1  0.949354  0.750000  0.499291  1
  Lu  Lu1  1  0.660891  0.750000  0.708513  1
  Lu  Lu2  1  0.339017  0.250000  0.291771  1
  Lu  Lu3  1  0.162422  0.250000  0.793986  1
  Lu  Lu4  1  0.838968  0.750000  0.205690  1
  Lu  Lu5  1  0.124595  0.750000  0.811234  1
  Lu  Lu6  1  0.873929  0.250000  0.187601  1
  Lu  Lu7  1  0.624081  0.250000  0.689595  1
  Lu  Lu8  1  0.373571  0.750000  0.310618  1
  Lu  Lu9  1  0.558712  0.750000  0.998193  1
  Lu  Lu10  1  0.441102  0.250000  0.001799  1
  Lu  Lu11  1  0.057837  0.250000  0.501140  1
  Lu  Lu12  1  0.827647  0.457904  0.933685  1
  Lu  Lu13  1  0.172627  0.542255  0.066303  1
  Lu  Lu14  1  0.328746  0.540480  0.568225  1
  Lu  Lu15  1  0.172627  0.957745  0.066303  1
  Lu  Lu16  1  0.670513  0.456541  0.431853  1
  Lu  Lu17  1  0.827647  0.042096  0.933685  1
  Lu  Lu18  1  0.670513  0.043459  0.431853  1
  Lu  Lu19  1  0.328746  0.959520  0.568225  1
  Bi  Bi20  1  0.935874  0.012515  0.675842  1
  Bi  Bi21  1  0.064722  0.995326  0.323893  1
  Bi  Bi22  1  0.436526  0.991607  0.828597  1
  Bi  Bi23  1  0.064722  0.504674  0.323893  1
  Bi  Bi24  1  0.563400  0.008741  0.171842  1
  Bi  Bi25  1  0.935874  0.487485  0.675842  1
  Bi  Bi26  1  0.563400  0.491259  0.171842  1
  Bi  Bi27  1  0.436526  0.508393  0.828597  1
  Ir  Ir28  1  0.927588  0.750000  0.991940  1
  Ir  Ir29  1  0.072195  0.250000  0.007760  1
  Ir  Ir30  1  0.427967  0.250000  0.507571  1
  Ir  Ir31  1  0.567660  0.750000  0.492819  1
