# generated using pymatgen
data_Cr2(SiTc)3
_symmetry_space_group_name_H-M   'P 1'
_cell_length_a   7.05359600
_cell_length_b   7.05359659
_cell_length_c   4.75672600
_cell_angle_alpha   90.00000000
_cell_angle_beta   90.00000000
_cell_angle_gamma   119.99999725
_symmetry_Int_Tables_number   1
_chemical_formula_structural   Cr2(SiTc)3
_chemical_formula_sum   'Cr4 Si6 Tc6'
_cell_volume   204.95568936
_cell_formula_units_Z   2
loop_
 _symmetry_equiv_pos_site_id
 _symmetry_equiv_pos_as_xyz
  1  'x, y, z'
loop_
 _atom_site_type_symbol
 _atom_site_label
 _atom_site_symmetry_multiplicity
 _atom_site_fract_x
 _atom_site_fract_y
 _atom_site_fract_z
 _atom_site_occupancy
  Cr  Cr0  1  0.666667  0.333333  0.000000  1
  Cr  Cr1  1  0.333333  0.666666  0.000000  1
  Cr  Cr2  1  0.666667  0.333333  0.500001  1
  Cr  Cr3  1  0.333333  0.666666  0.500001  1
  Si  Si4  1  0.601747  0.000000  0.250000  1
  Si  Si5  1  0.398253  0.398253  0.250000  1
  Si  Si6  1  0.000000  0.601747  0.250000  1
  Si  Si7  1  0.398252  0.000000  0.749999  1
  Si  Si8  1  0.000000  0.398253  0.749999  1
  Si  Si9  1  0.601747  0.601747  0.749999  1
  Tc  Tc10  1  0.242135  0.000000  0.250000  1
  Tc  Tc11  1  0.000000  0.242134  0.250000  1
  Tc  Tc12  1  0.757866  0.757865  0.250000  1
  Tc  Tc13  1  0.757866  0.000000  0.749999  1
  Tc  Tc14  1  0.242134  0.242134  0.749999  1
  Tc  Tc15  1  0.000000  0.757865  0.749999  1
