# generated using pymatgen
data_Dy3Ho3Al24CuRu7
_symmetry_space_group_name_H-M   'P 1'
_cell_length_a   8.81727431
_cell_length_b   8.81576247
_cell_length_c   9.53355929
_cell_angle_alpha   89.73600904
_cell_angle_beta   90.25692353
_cell_angle_gamma   119.73657708
_symmetry_Int_Tables_number   1
_chemical_formula_structural   Dy3Ho3Al24CuRu7
_chemical_formula_sum   'Dy3 Ho3 Al24 Cu1 Ru7'
_cell_volume   643.45862348
_cell_formula_units_Z   1
loop_
 _symmetry_equiv_pos_site_id
 _symmetry_equiv_pos_as_xyz
  1  'x, y, z'
loop_
 _atom_site_type_symbol
 _atom_site_label
 _atom_site_symmetry_multiplicity
 _atom_site_fract_x
 _atom_site_fract_y
 _atom_site_fract_z
 _atom_site_occupancy
  Dy  Dy0  1  0.192201  0.386634  0.248708  1
  Dy  Dy1  1  0.807742  0.613317  0.751285  1
  Dy  Dy2  1  0.613347  0.807816  0.248724  1
  Ho  Ho3  1  0.386970  0.192281  0.751244  1
  Ho  Ho4  1  0.194742  0.805232  0.250997  1
  Ho  Ho5  1  0.805209  0.194733  0.748986  1
  Al  Al6  1  0.332057  0.667917  0.020673  1
  Al  Al7  1  0.667780  0.332024  0.979209  1
  Al  Al8  1  0.666480  0.333337  0.516162  1
  Al  Al9  1  0.333390  0.666589  0.483932  1
  Al  Al10  1  0.163306  0.324367  0.578353  1
  Al  Al11  1  0.836776  0.675583  0.421728  1
  Al  Al12  1  0.675597  0.836774  0.578313  1
  Al  Al13  1  0.843552  0.676370  0.079474  1
  Al  Al14  1  0.324403  0.163214  0.421820  1
  Al  Al15  1  0.156509  0.323586  0.920453  1
  Al  Al16  1  0.162726  0.837444  0.577993  1
  Al  Al17  1  0.323610  0.156445  0.079377  1
  Al  Al18  1  0.837336  0.162672  0.422074  1
  Al  Al19  1  0.676393  0.843550  0.920494  1
  Al  Al20  1  0.836817  0.163177  0.077174  1
  Al  Al21  1  0.163242  0.836941  0.922754  1
  Al  Al22  1  0.560715  0.122091  0.248330  1
  Al  Al23  1  0.439234  0.878111  0.751653  1
  Al  Al24  1  0.877931  0.439287  0.248342  1
  Al  Al25  1  0.122092  0.560728  0.751661  1
  Al  Al26  1  0.561171  0.438810  0.249757  1
  Al  Al27  1  0.438791  0.560950  0.750263  1
  Al  Al28  1  0.999375  0.000621  0.250138  1
  Al  Al29  1  0.000825  0.999489  0.749868  1
  Cu  Cu30  1  0.499982  0.499985  0.999977  1
  Ru  Ru31  1  0.499937  0.000090  0.999887  1
  Ru  Ru32  1  0.999938  0.499956  0.999973  1
  Ru  Ru33  1  0.499963  0.000066  0.500075  1
  Ru  Ru34  1  0.999914  0.499955  0.500030  1
  Ru  Ru35  1  0.499949  0.499862  0.500105  1
  Ru  Ru36  1  0.999988  0.999989  0.999989  1
  Ru  Ru37  1  0.000007  0.000008  0.500023  1
